MODEL 1
REMARK VINA RESULT:     -10.6      0.000      0.000
REMARK SMILES CCOc1cc(C[NH+]2CCC3(CC2)[C@H](C(=O)NCCCCCCNC(=O)c2ccc(-c4c5nc(c(-c6cccc(S(=O)(=O)[O-])c6F)c6ccc([nH]6)c(-c6cccc(S(=O)(=O)[O-])c6F)c6nc(c(-c7cccc(S(=O)(=O)[O-])c7F)c7ccc4[nH]7)C=C6)C=C5)cc2)CC(=O)N3C)ccc1OC
REMARK SMILES IDX 20 1 19 2 18 3 17 4 15 5 16 6 14 8 8 9 9 10 13 11 10 13
REMARK SMILES IDX 12 14 11 15 93 16 90 17 91 18 94 19 92 20 7 21 6 22 4 23
REMARK SMILES IDX 5 24 97 25 96 26 95 27 3 28 2 29 1 30 98 31 99 32 21 33
REMARK SMILES IDX 22 34 23 35 24 36 25 37 26 39 27 40 28 41 89 42 29 43 88 44
REMARK SMILES IDX 30 45 31 46 32 47 82 48 33 49 87 50 81 51 83 52 34 53 86 54
REMARK SMILES IDX 80 55 79 56 35 58 67 59 47 60 66 61 48 62 51 63 65 64 84 65
REMARK SMILES IDX 49 66 50 67 64 69 85 70 52 71 36 72 37 73 45 74 38 75 40 76
REMARK SMILES IDX 46 77 39 78 41 79 42 80 43 81 44 82 68 83 69 84 77 85 70 86
REMARK SMILES IDX 72 87 78 88 71 89 73 90 74 91 75 92 76 93 53 94 54 95 62 96
REMARK SMILES IDX 55 97 57 98 63 99 56 100 58 101 59 102 60 103 61 104
REMARK H PARENT 17 7 8 12 24 38 83 57 51 68
REMARK Flexibility Score: inf
ROOT
ATOM      1  C   UNL A   1      35.570  31.912  28.341  1.00  0.00     0.002 C 
ENDROOT
BRANCH   1   2
ATOM      2  C   UNL A   1      35.713  30.393  28.450  1.00  0.00     0.021 C 
BRANCH   2   3
ATOM      3  C   UNL A   1      35.117  29.590  27.293  1.00  0.00     0.116 C 
BRANCH   3   4
ATOM      4  N   UNL A   1      33.689  29.462  27.435  1.00  0.00    -0.356 N 
ATOM      5  C   UNL A   1      32.742  28.782  26.763  1.00  0.00     0.226 C 
ATOM      6  O   UNL A   1      31.626  28.829  27.293  1.00  0.00    -0.275 OA
ATOM      7  H   UNL A   1      33.328  29.984  28.186  1.00  0.00     0.163 HD
BRANCH   5   8
ATOM      8  C   UNL A   1      32.947  27.903  25.526  1.00  0.00     0.114 C 
ATOM      9  N   UNL A   1      31.228  23.983  25.793  1.00  0.00    -0.331 N 
ATOM     10  C   UNL A   1      30.322  25.051  26.157  1.00  0.00     0.265 C 
ATOM     11  C   UNL A   1      31.923  24.258  24.548  1.00  0.00     0.265 C 
ATOM     12  H   UNL A   1      30.644  23.180  25.559  1.00  0.00     0.348 HD
ATOM     13  C   UNL A   1      30.965  26.429  26.194  1.00  0.00     0.091 C 
ATOM     14  C   UNL A   1      32.654  25.603  24.448  1.00  0.00     0.091 C 
ATOM     15  C   UNL A   1      31.913  26.831  25.051  1.00  0.00     0.065 C 
ATOM     16  N   UNL A   1      31.266  27.556  23.943  1.00  0.00    -0.339 N 
ATOM     17  C   UNL A   1      33.234  28.787  24.319  1.00  0.00     0.116 C 
ATOM     18  C   UNL A   1      32.008  28.634  23.476  1.00  0.00     0.223 C 
ATOM     19  C   UNL A   1      30.095  27.117  23.217  1.00  0.00     0.147 C 
ATOM     20  O   UNL A   1      31.745  29.328  22.506  1.00  0.00    -0.275 OA
BRANCH   9  21
ATOM     21  C   UNL A   1      31.943  23.308  26.881  1.00  0.00     0.299 C 
BRANCH  21  22
ATOM     22  C   UNL A   1      33.085  22.393  26.493  1.00  0.00     0.010 A 
ATOM     23  C   UNL A   1      33.838  20.336  25.434  1.00  0.00     0.161 A 
ATOM     24  C   UNL A   1      32.847  21.067  26.100  1.00  0.00     0.060 A 
ATOM     25  C   UNL A   1      35.136  20.850  25.324  1.00  0.00     0.160 A 
ATOM     26  C   UNL A   1      35.412  22.105  25.874  1.00  0.00     0.051 A 
ATOM     27  C   UNL A   1      34.394  22.887  26.421  1.00  0.00     0.013 A 
BRANCH  23  28
ATOM     28  O   UNL A   1      33.497  19.286  24.637  1.00  0.00    -0.490 OA
BRANCH  28  29
ATOM     29  C   UNL A   1      32.511  19.443  23.635  1.00  0.00     0.226 C 
ATOM     30  C   UNL A   1      32.585  18.151  22.831  1.00  0.00     0.049 C 
ENDBRANCH  28  29
ENDBRANCH  23  28
BRANCH  25  31
ATOM     31  O   UNL A   1      36.221  20.289  24.704  1.00  0.00    -0.493 OA
ATOM     32  C   UNL A   1      37.520  20.789  24.992  1.00  0.00     0.278 C 
ENDBRANCH  25  31
ENDBRANCH  21  22
ENDBRANCH   9  21
ENDBRANCH   5   8
ENDBRANCH   3   4
ENDBRANCH   2   3
ENDBRANCH   1   2
BRANCH   1  33
ATOM     33  C   UNL A   1      34.418  32.518  29.136  1.00  0.00     0.002 C 
BRANCH  33  34
ATOM     34  C   UNL A   1      33.753  33.730  28.486  1.00  0.00     0.021 C 
BRANCH  34  35
ATOM     35  C   UNL A   1      34.040  35.061  29.166  1.00  0.00     0.116 C 
BRANCH  35  36
ATOM     36  N   UNL A   1      32.970  35.467  30.059  1.00  0.00    -0.352 N 
ATOM     37  C   UNL A   1      32.890  35.270  31.415  1.00  0.00     0.251 C 
ATOM     38  H   UNL A   1      32.212  35.940  29.645  1.00  0.00     0.163 HD
ATOM     39  O   UNL A   1      31.864  35.525  32.034  1.00  0.00    -0.269 OA
BRANCH  37  40
ATOM     40  C   UNL A   1      34.067  34.706  32.103  1.00  0.00     0.039 A 
ATOM     41  C   UNL A   1      34.024  33.381  32.534  1.00  0.00     0.014 A 
ATOM     42  C   UNL A   1      35.239  35.462  32.212  1.00  0.00     0.014 A 
ATOM     43  C   UNL A   1      35.186  32.788  33.028  1.00  0.00     0.010 A 
ATOM     44  C   UNL A   1      36.411  34.846  32.639  1.00  0.00     0.010 A 
ATOM     45  C   UNL A   1      36.396  33.504  33.049  1.00  0.00    -0.014 A 
BRANCH  45  46
ATOM     46  C   UNL A   1      37.661  32.852  33.466  1.00  0.00     0.031 A 
ATOM     47  C   UNL A   1      38.256  33.149  34.814  1.00  0.00     0.074 A 
ATOM     48  C   UNL A   1      38.317  32.060  32.594  1.00  0.00     0.049 A 
ATOM     49  N   UNL A   1      39.372  32.713  35.333  1.00  0.00    -0.248 NA
ATOM     50  C   UNL A   1      37.510  34.075  35.683  1.00  0.00     0.031 C 
ATOM     51  C   UNL A   1      37.880  31.763  31.228  1.00  0.00     0.029 A 
ATOM     52  N   UNL A   1      39.506  31.385  32.716  1.00  0.00    -0.354 N 
ATOM     53  C   UNL A   1      39.481  33.331  36.572  1.00  0.00     0.074 A 
ATOM     54  C   UNL A   1      38.332  34.198  36.715  1.00  0.00     0.031 C 
ATOM     55  C   UNL A   1      38.785  30.964  30.640  1.00  0.00     0.029 A 
ATOM     56  C   UNL A   1      39.881  30.720  31.571  1.00  0.00     0.049 A 
ATOM     57  H   UNL A   1      40.038  31.377  33.544  1.00  0.00     0.167 HD
ATOM     58  C   UNL A   1      40.437  33.169  37.519  1.00  0.00     0.034 A 
ATOM     59  C   UNL A   1      40.992  30.008  31.298  1.00  0.00     0.034 A 
ATOM     60  C   UNL A   1      41.559  32.280  37.384  1.00  0.00     0.049 A 
ATOM     61  C   UNL A   1      42.031  29.834  32.373  1.00  0.00     0.074 A 
ATOM     62  C   UNL A   1      42.526  31.972  38.323  1.00  0.00     0.029 A 
ATOM     63  N   UNL A   1      41.875  31.572  36.236  1.00  0.00    -0.354 N 
ATOM     64  N   UNL A   1      42.028  30.285  33.604  1.00  0.00    -0.248 NA
ATOM     65  C   UNL A   1      43.213  29.030  32.031  1.00  0.00     0.031 C 
ATOM     66  C   UNL A   1      43.448  31.103  37.731  1.00  0.00     0.029 A 
ATOM     67  C   UNL A   1      43.037  30.845  36.433  1.00  0.00     0.049 A 
ATOM     68  H   UNL A   1      41.350  31.583  35.403  1.00  0.00     0.167 HD
ATOM     69  C   UNL A   1      43.191  29.800  34.190  1.00  0.00     0.074 A 
ATOM     70  C   UNL A   1      43.860  28.996  33.188  1.00  0.00     0.031 C 
ATOM     71  C   UNL A   1      43.671  30.017  35.439  1.00  0.00     0.034 A 
BRANCH  58  72
ATOM     72  C   UNL A   1      40.286  33.939  38.804  1.00  0.00     0.023 A 
ATOM     73  C   UNL A   1      41.075  35.088  39.024  1.00  0.00     0.012 A 
ATOM     74  C   UNL A   1      39.324  33.568  39.763  1.00  0.00     0.148 A 
ATOM     75  C   UNL A   1      40.932  35.835  40.192  1.00  0.00     0.002 A 
ATOM     76  C   UNL A   1      39.156  34.343  40.904  1.00  0.00     0.091 A 
ATOM     77  F   UNL A   1      38.600  32.461  39.545  1.00  0.00    -0.205 F 
ATOM     78  C   UNL A   1      39.965  35.470  41.125  1.00  0.00     0.022 A 
BRANCH  76  79
ATOM     79  S   UNL A   1      37.887  34.002  42.130  1.00  0.00     0.127 S 
ATOM     80  O   UNL A   1      38.525  32.958  42.930  1.00  0.00    -0.237 OA
ATOM     81  O   UNL A   1      37.758  35.294  42.804  1.00  0.00    -0.237 OA
ATOM     82  O   UNL A   1      36.709  33.584  41.384  1.00  0.00    -0.744 OA
ENDBRANCH  76  79
ENDBRANCH  58  72
BRANCH  59  83
ATOM     83  C   UNL A   1      41.158  29.369  29.962  1.00  0.00     0.023 A 
ATOM     84  C   UNL A   1      41.870  30.045  28.952  1.00  0.00     0.012 A 
ATOM     85  C   UNL A   1      40.639  28.088  29.696  1.00  0.00     0.148 A 
ATOM     86  C   UNL A   1      42.035  29.469  27.692  1.00  0.00     0.002 A 
ATOM     87  C   UNL A   1      40.855  27.496  28.457  1.00  0.00     0.091 A 
ATOM     88  F   UNL A   1      39.952  27.467  30.666  1.00  0.00    -0.205 F 
ATOM     89  C   UNL A   1      41.537  28.192  27.447  1.00  0.00     0.022 A 
BRANCH  87  90
ATOM     90  S   UNL A   1      40.367  25.805  28.098  1.00  0.00     0.127 S 
ATOM     91  O   UNL A   1      39.076  25.718  28.776  1.00  0.00    -0.237 OA
ATOM     92  O   UNL A   1      40.297  25.818  26.636  1.00  0.00    -0.237 OA
ATOM     93  O   UNL A   1      41.428  24.970  28.642  1.00  0.00    -0.744 OA
ENDBRANCH  87  90
ENDBRANCH  59  83
BRANCH  71  94
ATOM     94  C   UNL A   1      44.978  29.365  35.807  1.00  0.00     0.023 A 
ATOM     95  C   UNL A   1      46.185  30.071  35.628  1.00  0.00     0.012 A 
ATOM     96  C   UNL A   1      45.006  28.089  36.402  1.00  0.00     0.148 A 
ATOM     97  C   UNL A   1      47.400  29.506  36.007  1.00  0.00     0.002 A 
ATOM     98  C   UNL A   1      46.216  27.552  36.824  1.00  0.00     0.091 A 
ATOM     99  F   UNL A   1      43.849  27.427  36.550  1.00  0.00    -0.205 F 
ATOM    100  C   UNL A   1      47.416  28.252  36.616  1.00  0.00     0.022 A 
BRANCH  98 101
ATOM    101  S   UNL A   1      46.327  25.988  37.702  1.00  0.00     0.127 S 
ATOM    102  O   UNL A   1      47.771  25.759  37.721  1.00  0.00    -0.237 OA
ATOM    103  O   UNL A   1      45.745  26.323  39.002  1.00  0.00    -0.237 OA
ATOM    104  O   UNL A   1      45.556  25.031  36.921  1.00  0.00    -0.744 OA
ENDBRANCH  98 101
ENDBRANCH  71  94
ENDBRANCH  45  46
ENDBRANCH  37  40
ENDBRANCH  35  36
ENDBRANCH  34  35
ENDBRANCH  33  34
ENDBRANCH   1  33
TORSDOF 21
ENDMDL
MODEL 2
REMARK VINA RESULT:     -10.1      5.242      7.550
REMARK SMILES CCOc1cc(C[NH+]2CCC3(CC2)[C@H](C(=O)NCCCCCCNC(=O)c2ccc(-c4c5nc(c(-c6cccc(S(=O)(=O)[O-])c6F)c6ccc([nH]6)c(-c6cccc(S(=O)(=O)[O-])c6F)c6nc(c(-c7cccc(S(=O)(=O)[O-])c7F)c7ccc4[nH]7)C=C6)C=C5)cc2)CC(=O)N3C)ccc1OC
REMARK SMILES IDX 20 1 19 2 18 3 17 4 15 5 16 6 14 8 8 9 9 10 13 11 10 13
REMARK SMILES IDX 12 14 11 15 93 16 90 17 91 18 94 19 92 20 7 21 6 22 4 23
REMARK SMILES IDX 5 24 97 25 96 26 95 27 3 28 2 29 1 30 98 31 99 32 21 33
REMARK SMILES IDX 22 34 23 35 24 36 25 37 26 39 27 40 28 41 89 42 29 43 88 44
REMARK SMILES IDX 30 45 31 46 32 47 82 48 33 49 87 50 81 51 83 52 34 53 86 54
REMARK SMILES IDX 80 55 79 56 35 58 67 59 47 60 66 61 48 62 51 63 65 64 84 65
REMARK SMILES IDX 49 66 50 67 64 69 85 70 52 71 36 72 37 73 45 74 38 75 40 76
REMARK SMILES IDX 46 77 39 78 41 79 42 80 43 81 44 82 68 83 69 84 77 85 70 86
REMARK SMILES IDX 72 87 78 88 71 89 73 90 74 91 75 92 76 93 53 94 54 95 62 96
REMARK SMILES IDX 55 97 57 98 63 99 56 100 58 101 59 102 60 103 61 104
REMARK H PARENT 17 7 8 12 24 38 83 57 51 68
REMARK Flexibility Score: inf
ROOT
ATOM      1  C   UNL A   1      35.016  32.648  28.377  1.00  0.00     0.002 C 
ENDROOT
BRANCH   1   2
ATOM      2  C   UNL A   1      34.526  31.202  28.475  1.00  0.00     0.021 C 
BRANCH   2   3
ATOM      3  C   UNL A   1      33.796  30.670  27.241  1.00  0.00     0.116 C 
BRANCH   3   4
ATOM      4  N   UNL A   1      32.623  29.921  27.617  1.00  0.00    -0.356 N 
ATOM      5  C   UNL A   1      31.981  28.866  27.086  1.00  0.00     0.226 C 
ATOM      6  O   UNL A   1      31.070  28.428  27.799  1.00  0.00    -0.275 OA
ATOM      7  H   UNL A   1      32.202  30.254  28.441  1.00  0.00     0.163 HD
BRANCH   5   8
ATOM      8  C   UNL A   1      32.342  28.127  25.794  1.00  0.00     0.114 C 
ATOM      9  N   UNL A   1      31.448  23.932  25.806  1.00  0.00    -0.331 N 
ATOM     10  C   UNL A   1      30.351  24.771  26.240  1.00  0.00     0.265 C 
ATOM     11  C   UNL A   1      32.056  24.420  24.581  1.00  0.00     0.265 C 
ATOM     12  H   UNL A   1      31.033  23.045  25.521  1.00  0.00     0.348 HD
ATOM     13  C   UNL A   1      30.704  26.245  26.366  1.00  0.00     0.091 C 
ATOM     14  C   UNL A   1      32.501  25.889  24.569  1.00  0.00     0.091 C 
ATOM     15  C   UNL A   1      31.537  26.901  25.251  1.00  0.00     0.065 C 
ATOM     16  N   UNL A   1      30.742  27.550  24.193  1.00  0.00    -0.339 N 
ATOM     17  C   UNL A   1      32.429  29.126  24.648  1.00  0.00     0.116 C 
ATOM     18  C   UNL A   1      31.247  28.784  23.797  1.00  0.00     0.223 C 
ATOM     19  C   UNL A   1      29.674  26.932  23.440  1.00  0.00     0.147 C 
ATOM     20  O   UNL A   1      30.837  29.470  22.874  1.00  0.00    -0.275 OA
BRANCH   9  21
ATOM     21  C   UNL A   1      32.299  23.347  26.847  1.00  0.00     0.299 C 
BRANCH  21  22
ATOM     22  C   UNL A   1      33.348  22.351  26.402  1.00  0.00     0.010 A 
ATOM     23  C   UNL A   1      33.941  20.411  25.058  1.00  0.00     0.161 A 
ATOM     24  C   UNL A   1      32.985  21.160  25.756  1.00  0.00     0.060 A 
ATOM     25  C   UNL A   1      35.299  20.739  25.158  1.00  0.00     0.160 A 
ATOM     26  C   UNL A   1      35.672  21.829  25.950  1.00  0.00     0.051 A 
ATOM     27  C   UNL A   1      34.710  22.651  26.537  1.00  0.00     0.013 A 
BRANCH  23  28
ATOM     28  O   UNL A   1      33.558  19.572  24.056  1.00  0.00    -0.490 OA
BRANCH  28  29
ATOM     29  C   UNL A   1      33.076  18.277  24.358  1.00  0.00     0.226 C 
ATOM     30  C   UNL A   1      34.053  17.341  23.658  1.00  0.00     0.049 C 
ENDBRANCH  28  29
ENDBRANCH  23  28
BRANCH  25  31
ATOM     31  O   UNL A   1      36.364  20.134  24.545  1.00  0.00    -0.493 OA
ATOM     32  C   UNL A   1      36.785  18.851  24.991  1.00  0.00     0.278 C 
ENDBRANCH  25  31
ENDBRANCH  21  22
ENDBRANCH   9  21
ENDBRANCH   5   8
ENDBRANCH   3   4
ENDBRANCH   2   3
ENDBRANCH   1   2
BRANCH   1  33
ATOM     33  C   UNL A   1      33.982  33.713  28.731  1.00  0.00     0.002 C 
BRANCH  33  34
ATOM     34  C   UNL A   1      34.071  34.249  30.158  1.00  0.00     0.021 C 
BRANCH  34  35
ATOM     35  C   UNL A   1      35.425  34.066  30.829  1.00  0.00     0.116 C 
BRANCH  35  36
ATOM     36  N   UNL A   1      35.307  33.799  32.251  1.00  0.00    -0.352 N 
ATOM     37  C   UNL A   1      35.943  32.822  32.975  1.00  0.00     0.251 C 
ATOM     38  H   UNL A   1      34.699  34.386  32.755  1.00  0.00     0.163 HD
ATOM     39  O   UNL A   1      35.643  32.601  34.142  1.00  0.00    -0.269 OA
BRANCH  37  40
ATOM     40  C   UNL A   1      36.977  32.019  32.295  1.00  0.00     0.039 A 
ATOM     41  C   UNL A   1      36.879  31.822  30.919  1.00  0.00     0.014 A 
ATOM     42  C   UNL A   1      38.089  31.563  33.012  1.00  0.00     0.014 A 
ATOM     43  C   UNL A   1      37.936  31.214  30.242  1.00  0.00     0.010 A 
ATOM     44  C   UNL A   1      39.169  31.022  32.323  1.00  0.00     0.010 A 
ATOM     45  C   UNL A   1      39.103  30.843  30.933  1.00  0.00    -0.014 A 
BRANCH  45  46
ATOM     46  C   UNL A   1      40.278  30.299  30.209  1.00  0.00     0.031 A 
ATOM     47  C   UNL A   1      41.522  31.130  30.055  1.00  0.00     0.074 A 
ATOM     48  C   UNL A   1      40.191  29.091  29.617  1.00  0.00     0.049 A 
ATOM     49  N   UNL A   1      42.627  30.844  29.420  1.00  0.00    -0.248 NA
ATOM     50  C   UNL A   1      41.514  32.464  30.677  1.00  0.00     0.031 C 
ATOM     51  C   UNL A   1      39.008  28.228  29.628  1.00  0.00     0.029 A 
ATOM     52  N   UNL A   1      41.104  28.394  28.866  1.00  0.00    -0.354 N 
ATOM     53  C   UNL A   1      43.434  31.968  29.537  1.00  0.00     0.074 A 
ATOM     54  C   UNL A   1      42.679  32.955  30.278  1.00  0.00     0.031 C 
ATOM     55  C   UNL A   1      39.267  27.116  28.920  1.00  0.00     0.029 A 
ATOM     56  C   UNL A   1      40.619  27.202  28.378  1.00  0.00     0.049 A 
ATOM     57  H   UNL A   1      42.018  28.715  28.694  1.00  0.00     0.167 HD
ATOM     58  C   UNL A   1      44.700  32.153  29.093  1.00  0.00     0.034 A 
ATOM     59  C   UNL A   1      41.194  26.289  27.570  1.00  0.00     0.034 A 
ATOM     60  C   UNL A   1      45.457  31.156  28.387  1.00  0.00     0.049 A 
ATOM     61  C   UNL A   1      42.606  26.514  27.103  1.00  0.00     0.074 A 
ATOM     62  C   UNL A   1      46.778  31.209  27.981  1.00  0.00     0.029 A 
ATOM     63  N   UNL A   1      44.958  29.934  27.964  1.00  0.00    -0.354 N 
ATOM     64  N   UNL A   1      43.416  27.508  27.373  1.00  0.00    -0.248 NA
ATOM     65  C   UNL A   1      43.194  25.477  26.242  1.00  0.00     0.031 C 
ATOM     66  C   UNL A   1      47.068  30.033  27.283  1.00  0.00     0.029 A 
ATOM     67  C   UNL A   1      45.936  29.233  27.280  1.00  0.00     0.049 A 
ATOM     68  H   UNL A   1      44.042  29.611  28.127  1.00  0.00     0.167 HD
ATOM     69  C   UNL A   1      44.615  27.207  26.738  1.00  0.00     0.074 A 
ATOM     70  C   UNL A   1      44.435  25.923  26.094  1.00  0.00     0.031 C 
ATOM     71  C   UNL A   1      45.756  27.937  26.677  1.00  0.00     0.034 A 
BRANCH  58  72
ATOM     72  C   UNL A   1      45.364  33.470  29.398  1.00  0.00     0.023 A 
ATOM     73  C   UNL A   1      46.073  33.629  30.606  1.00  0.00     0.012 A 
ATOM     74  C   UNL A   1      45.342  34.524  28.465  1.00  0.00     0.148 A 
ATOM     75  C   UNL A   1      46.721  34.829  30.896  1.00  0.00     0.002 A 
ATOM     76  C   UNL A   1      46.029  35.701  28.741  1.00  0.00     0.091 A 
ATOM     77  F   UNL A   1      44.645  34.361  27.331  1.00  0.00    -0.205 F 
ATOM     78  C   UNL A   1      46.709  35.859  29.960  1.00  0.00     0.022 A 
BRANCH  76  79
ATOM     79  S   UNL A   1      46.140  37.058  27.568  1.00  0.00     0.127 S 
ATOM     80  O   UNL A   1      44.761  37.544  27.550  1.00  0.00    -0.237 OA
ATOM     81  O   UNL A   1      47.093  37.952  28.224  1.00  0.00    -0.237 OA
ATOM     82  O   UNL A   1      46.611  36.474  26.321  1.00  0.00    -0.744 OA
ENDBRANCH  76  79
ENDBRANCH  58  72
BRANCH  59  83
ATOM     83  C   UNL A   1      40.447  25.056  27.188  1.00  0.00     0.023 A 
ATOM     84  C   UNL A   1      39.196  25.171  26.553  1.00  0.00     0.012 A 
ATOM     85  C   UNL A   1      40.982  23.776  27.427  1.00  0.00     0.148 A 
ATOM     86  C   UNL A   1      38.476  24.033  26.190  1.00  0.00     0.002 A 
ATOM     87  C   UNL A   1      40.286  22.647  27.012  1.00  0.00     0.091 A 
ATOM     88  F   UNL A   1      42.168  23.689  28.046  1.00  0.00    -0.205 F 
ATOM     89  C   UNL A   1      39.025  22.772  26.410  1.00  0.00     0.022 A 
BRANCH  87  90
ATOM     90  S   UNL A   1      40.973  20.992  27.133  1.00  0.00     0.127 S 
ATOM     91  O   UNL A   1      40.019  20.215  26.347  1.00  0.00    -0.237 OA
ATOM     92  O   UNL A   1      42.287  21.168  26.512  1.00  0.00    -0.237 OA
ATOM     93  O   UNL A   1      41.017  20.692  28.557  1.00  0.00    -0.744 OA
ENDBRANCH  87  90
ENDBRANCH  59  83
BRANCH  71  94
ATOM     94  C   UNL A   1      46.912  27.363  25.901  1.00  0.00     0.023 A 
ATOM     95  C   UNL A   1      46.930  27.472  24.496  1.00  0.00     0.012 A 
ATOM     96  C   UNL A   1      48.013  26.789  26.565  1.00  0.00     0.148 A 
ATOM     97  C   UNL A   1      48.012  26.991  23.762  1.00  0.00     0.002 A 
ATOM     98  C   UNL A   1      49.111  26.357  25.830  1.00  0.00     0.091 A 
ATOM     99  F   UNL A   1      47.970  26.682  27.901  1.00  0.00    -0.205 F 
ATOM    100  C   UNL A   1      49.108  26.445  24.428  1.00  0.00     0.022 A 
BRANCH  98 101
ATOM    101  S   UNL A   1      50.606  25.729  26.604  1.00  0.00     0.127 S 
ATOM    102  O   UNL A   1      51.459  25.476  25.444  1.00  0.00    -0.237 OA
ATOM    103  O   UNL A   1      51.023  26.859  27.433  1.00  0.00    -0.237 OA
ATOM    104  O   UNL A   1      50.206  24.545  27.351  1.00  0.00    -0.744 OA
ENDBRANCH  98 101
ENDBRANCH  71  94
ENDBRANCH  45  46
ENDBRANCH  37  40
ENDBRANCH  35  36
ENDBRANCH  34  35
ENDBRANCH  33  34
ENDBRANCH   1  33
TORSDOF 21
ENDMDL
MODEL 3
REMARK VINA RESULT:      -9.9      4.859     11.882
REMARK SMILES CCOc1cc(C[NH+]2CCC3(CC2)[C@H](C(=O)NCCCCCCNC(=O)c2ccc(-c4c5nc(c(-c6cccc(S(=O)(=O)[O-])c6F)c6ccc([nH]6)c(-c6cccc(S(=O)(=O)[O-])c6F)c6nc(c(-c7cccc(S(=O)(=O)[O-])c7F)c7ccc4[nH]7)C=C6)C=C5)cc2)CC(=O)N3C)ccc1OC
REMARK SMILES IDX 20 1 19 2 18 3 17 4 15 5 16 6 14 8 8 9 9 10 13 11 10 13
REMARK SMILES IDX 12 14 11 15 93 16 90 17 91 18 94 19 92 20 7 21 6 22 4 23
REMARK SMILES IDX 5 24 97 25 96 26 95 27 3 28 2 29 1 30 98 31 99 32 21 33
REMARK SMILES IDX 22 34 23 35 24 36 25 37 26 39 27 40 28 41 89 42 29 43 88 44
REMARK SMILES IDX 30 45 31 46 32 47 82 48 33 49 87 50 81 51 83 52 34 53 86 54
REMARK SMILES IDX 80 55 79 56 35 58 67 59 47 60 66 61 48 62 51 63 65 64 84 65
REMARK SMILES IDX 49 66 50 67 64 69 85 70 52 71 36 72 37 73 45 74 38 75 40 76
REMARK SMILES IDX 46 77 39 78 41 79 42 80 43 81 44 82 68 83 69 84 77 85 70 86
REMARK SMILES IDX 72 87 78 88 71 89 73 90 74 91 75 92 76 93 53 94 54 95 62 96
REMARK SMILES IDX 55 97 57 98 63 99 56 100 58 101 59 102 60 103 61 104
REMARK H PARENT 17 7 8 12 24 38 83 57 51 68
REMARK Flexibility Score: inf
ROOT
ATOM      1  C   UNL A   1      42.609  23.377  28.958  1.00  0.00     0.002 C 
ENDROOT
BRANCH   1   2
ATOM      2  C   UNL A   1      44.090  23.717  29.131  1.00  0.00     0.021 C 
BRANCH   2   3
ATOM      3  C   UNL A   1      44.891  23.846  27.834  1.00  0.00     0.116 C 
BRANCH   3   4
ATOM      4  N   UNL A   1      44.086  24.416  26.784  1.00  0.00    -0.356 N 
ATOM      5  C   UNL A   1      44.311  25.339  25.832  1.00  0.00     0.226 C 
ATOM      6  O   UNL A   1      43.384  25.456  25.022  1.00  0.00    -0.275 OA
ATOM      7  H   UNL A   1      43.173  24.050  26.757  1.00  0.00     0.163 HD
BRANCH   5   8
ATOM      8  C   UNL A   1      45.602  26.133  25.611  1.00  0.00     0.114 C 
ATOM      9  N   UNL A   1      45.559  30.120  27.192  1.00  0.00    -0.331 N 
ATOM     10  C   UNL A   1      45.121  29.109  28.130  1.00  0.00     0.265 C 
ATOM     11  C   UNL A   1      46.792  29.746  26.522  1.00  0.00     0.265 C 
ATOM     12  H   UNL A   1      45.836  30.927  27.751  1.00  0.00     0.348 HD
ATOM     13  C   UNL A   1      45.006  27.714  27.534  1.00  0.00     0.091 C 
ATOM     14  C   UNL A   1      46.816  28.372  25.838  1.00  0.00     0.091 C 
ATOM     15  C   UNL A   1      46.132  27.210  26.614  1.00  0.00     0.065 C 
ATOM     16  N   UNL A   1      47.186  26.442  27.299  1.00  0.00    -0.339 N 
ATOM     17  C   UNL A   1      46.755  25.168  25.370  1.00  0.00     0.116 C 
ATOM     18  C   UNL A   1      47.594  25.312  26.599  1.00  0.00     0.223 C 
ATOM     19  C   UNL A   1      47.927  26.877  28.462  1.00  0.00     0.147 C 
ATOM     20  O   UNL A   1      48.517  24.570  26.898  1.00  0.00    -0.275 OA
BRANCH   9  21
ATOM     21  C   UNL A   1      44.522  30.835  26.441  1.00  0.00     0.299 C 
BRANCH  21  22
ATOM     22  C   UNL A   1      44.416  32.329  26.660  1.00  0.00     0.010 A 
ATOM     23  C   UNL A   1      44.917  34.273  28.036  1.00  0.00     0.161 A 
ATOM     24  C   UNL A   1      44.691  32.896  27.914  1.00  0.00     0.060 A 
ATOM     25  C   UNL A   1      44.683  35.121  26.947  1.00  0.00     0.160 A 
ATOM     26  C   UNL A   1      44.238  34.566  25.743  1.00  0.00     0.051 A 
ATOM     27  C   UNL A   1      44.139  33.184  25.586  1.00  0.00     0.013 A 
BRANCH  23  28
ATOM     28  O   UNL A   1      45.641  34.760  29.081  1.00  0.00    -0.490 OA
BRANCH  28  29
ATOM     29  C   UNL A   1      47.048  34.616  29.102  1.00  0.00     0.226 C 
ATOM     30  C   UNL A   1      47.349  34.079  30.495  1.00  0.00     0.049 C 
ENDBRANCH  28  29
ENDBRANCH  23  28
BRANCH  25  31
ATOM     31  O   UNL A   1      44.857  36.478  26.877  1.00  0.00    -0.493 OA
ATOM     32  C   UNL A   1      43.848  37.336  27.395  1.00  0.00     0.278 C 
ENDBRANCH  25  31
ENDBRANCH  21  22
ENDBRANCH   9  21
ENDBRANCH   5   8
ENDBRANCH   3   4
ENDBRANCH   2   3
ENDBRANCH   1   2
BRANCH   1  33
ATOM     33  C   UNL A   1      42.319  22.050  28.265  1.00  0.00     0.002 C 
BRANCH  33  34
ATOM     34  C   UNL A   1      40.921  21.929  27.661  1.00  0.00     0.021 C 
BRANCH  34  35
ATOM     35  C   UNL A   1      40.820  22.323  26.195  1.00  0.00     0.116 C 
BRANCH  35  36
ATOM     36  N   UNL A   1      39.463  22.663  25.806  1.00  0.00    -0.352 N 
ATOM     37  C   UNL A   1      38.710  23.728  26.236  1.00  0.00     0.251 C 
ATOM     38  H   UNL A   1      39.031  22.060  25.159  1.00  0.00     0.163 HD
ATOM     39  O   UNL A   1      37.523  23.821  25.950  1.00  0.00    -0.269 OA
BRANCH  37  40
ATOM     40  C   UNL A   1      39.366  24.741  27.084  1.00  0.00     0.039 A 
ATOM     41  C   UNL A   1      40.248  25.645  26.494  1.00  0.00     0.014 A 
ATOM     42  C   UNL A   1      39.015  24.854  28.434  1.00  0.00     0.014 A 
ATOM     43  C   UNL A   1      40.739  26.710  27.249  1.00  0.00     0.010 A 
ATOM     44  C   UNL A   1      39.451  25.956  29.162  1.00  0.00     0.010 A 
ATOM     45  C   UNL A   1      40.315  26.894  28.577  1.00  0.00    -0.014 A 
BRANCH  45  46
ATOM     46  C   UNL A   1      40.740  28.083  29.356  1.00  0.00     0.031 A 
ATOM     47  C   UNL A   1      42.026  28.056  30.133  1.00  0.00     0.074 A 
ATOM     48  C   UNL A   1      39.923  29.153  29.431  1.00  0.00     0.049 A 
ATOM     49  N   UNL A   1      42.539  28.977  30.905  1.00  0.00    -0.248 NA
ATOM     50  C   UNL A   1      42.831  26.826  30.049  1.00  0.00     0.031 C 
ATOM     51  C   UNL A   1      38.613  29.262  28.786  1.00  0.00     0.029 A 
ATOM     52  N   UNL A   1      40.061  30.339  30.107  1.00  0.00    -0.354 N 
ATOM     53  C   UNL A   1      43.705  28.432  31.423  1.00  0.00     0.074 A 
ATOM     54  C   UNL A   1      43.811  27.086  30.904  1.00  0.00     0.031 C 
ATOM     55  C   UNL A   1      38.068  30.451  29.095  1.00  0.00     0.029 A 
ATOM     56  C   UNL A   1      38.972  31.172  29.985  1.00  0.00     0.049 A 
ATOM     57  H   UNL A   1      40.863  30.572  30.628  1.00  0.00     0.167 HD
ATOM     58  C   UNL A   1      44.622  29.008  32.237  1.00  0.00     0.034 A 
ATOM     59  C   UNL A   1      38.723  32.374  30.541  1.00  0.00     0.034 A 
ATOM     60  C   UNL A   1      44.529  30.358  32.723  1.00  0.00     0.049 A 
ATOM     61  C   UNL A   1      39.766  32.997  31.429  1.00  0.00     0.074 A 
ATOM     62  C   UNL A   1      45.452  31.066  33.470  1.00  0.00     0.029 A 
ATOM     63  N   UNL A   1      43.443  31.197  32.528  1.00  0.00    -0.354 N 
ATOM     64  N   UNL A   1      40.946  32.535  31.767  1.00  0.00    -0.248 NA
ATOM     65  C   UNL A   1      39.455  34.319  31.993  1.00  0.00     0.031 C 
ATOM     66  C   UNL A   1      44.910  32.323  33.756  1.00  0.00     0.029 A 
ATOM     67  C   UNL A   1      43.661  32.409  33.161  1.00  0.00     0.049 A 
ATOM     68  H   UNL A   1      42.636  30.965  32.014  1.00  0.00     0.167 HD
ATOM     69  C   UNL A   1      41.527  33.517  32.559  1.00  0.00     0.074 A 
ATOM     70  C   UNL A   1      40.582  34.612  32.628  1.00  0.00     0.031 C 
ATOM     71  C   UNL A   1      42.728  33.506  33.188  1.00  0.00     0.034 A 
BRANCH  58  72
ATOM     72  C   UNL A   1      45.831  28.195  32.617  1.00  0.00     0.023 A 
ATOM     73  C   UNL A   1      47.003  28.284  31.838  1.00  0.00     0.012 A 
ATOM     74  C   UNL A   1      45.831  27.396  33.776  1.00  0.00     0.148 A 
ATOM     75  C   UNL A   1      48.145  27.564  32.188  1.00  0.00     0.002 A 
ATOM     76  C   UNL A   1      46.986  26.717  34.144  1.00  0.00     0.091 A 
ATOM     77  F   UNL A   1      44.700  27.307  34.492  1.00  0.00    -0.205 F 
ATOM     78  C   UNL A   1      48.140  26.792  33.345  1.00  0.00     0.022 A 
BRANCH  76  79
ATOM     79  S   UNL A   1      47.108  25.757  35.657  1.00  0.00     0.127 S 
ATOM     80  O   UNL A   1      48.491  25.286  35.596  1.00  0.00    -0.237 OA
ATOM     81  O   UNL A   1      46.854  26.768  36.683  1.00  0.00    -0.237 OA
ATOM     82  O   UNL A   1      46.092  24.720  35.559  1.00  0.00    -0.744 OA
ENDBRANCH  76  79
ENDBRANCH  58  72
BRANCH  59  83
ATOM     83  C   UNL A   1      37.450  33.087  30.237  1.00  0.00     0.023 A 
ATOM     84  C   UNL A   1      37.167  33.466  28.910  1.00  0.00     0.012 A 
ATOM     85  C   UNL A   1      36.511  33.367  31.247  1.00  0.00     0.148 A 
ATOM     86  C   UNL A   1      35.984  34.138  28.601  1.00  0.00     0.002 A 
ATOM     87  C   UNL A   1      35.309  33.986  30.923  1.00  0.00     0.091 A 
ATOM     88  F   UNL A   1      36.807  33.011  32.505  1.00  0.00    -0.205 F 
ATOM     89  C   UNL A   1      35.052  34.389  29.604  1.00  0.00     0.022 A 
BRANCH  87  90
ATOM     90  S   UNL A   1      33.996  34.229  32.124  1.00  0.00     0.127 S 
ATOM     91  O   UNL A   1      32.960  34.859  31.309  1.00  0.00    -0.237 OA
ATOM     92  O   UNL A   1      33.709  32.855  32.534  1.00  0.00    -0.237 OA
ATOM     93  O   UNL A   1      34.574  35.061  33.170  1.00  0.00    -0.744 OA
ENDBRANCH  87  90
ENDBRANCH  59  83
BRANCH  71  94
ATOM     94  C   UNL A   1      43.103  34.719  33.998  1.00  0.00     0.023 A 
ATOM     95  C   UNL A   1      43.759  35.799  33.374  1.00  0.00     0.012 A 
ATOM     96  C   UNL A   1      42.736  34.823  35.354  1.00  0.00     0.148 A 
ATOM     97  C   UNL A   1      44.072  36.951  34.093  1.00  0.00     0.002 A 
ATOM     98  C   UNL A   1      43.006  35.994  36.052  1.00  0.00     0.091 A 
ATOM     99  F   UNL A   1      42.126  33.779  35.933  1.00  0.00    -0.205 F 
ATOM    100  C   UNL A   1      43.684  37.054  35.428  1.00  0.00     0.022 A 
BRANCH  98 101
ATOM    101  S   UNL A   1      42.463  36.258  37.745  1.00  0.00     0.127 S 
ATOM    102  O   UNL A   1      42.999  37.589  38.025  1.00  0.00    -0.237 OA
ATOM    103  O   UNL A   1      41.008  36.201  37.614  1.00  0.00    -0.237 OA
ATOM    104  O   UNL A   1      43.044  35.177  38.528  1.00  0.00    -0.744 OA
ENDBRANCH  98 101
ENDBRANCH  71  94
ENDBRANCH  45  46
ENDBRANCH  37  40
ENDBRANCH  35  36
ENDBRANCH  34  35
ENDBRANCH  33  34
ENDBRANCH   1  33
TORSDOF 21
ENDMDL
