MODEL 1
REMARK VINA RESULT:     -11.5      0.000      0.000
REMARK SMILES Cc1nnc(-c2ccccc2-c2cc(NCC(=O)NCCCCCCNC(=O)c3ccc(-c4c5nc(c(-c6cccc(S(=O)(=O)[O-])c6F)c6ccc([nH]6)c(-c6cccc(S(=O)(=O)[O-])c6F)c6nc(c(-c7cccc(S(=O)(=O)[O-])c7F)c7ccc4[nH]7)C=C6)C=C5)cc3)nc3[nH]ccc23)o1
REMARK SMILES IDX 22 1 21 2 20 3 19 4 17 5 18 6 16 8 15 9 14 11 12 12 13 13
REMARK SMILES IDX 97 14 93 15 96 16 92 17 94 18 95 19 11 21 6 22 7 23 8 24
REMARK SMILES IDX 10 25 9 26 5 27 1 28 2 29 3 30 98 31 4 32 23 33 24 34 25 35
REMARK SMILES IDX 26 36 27 37 28 39 29 40 30 41 91 42 31 43 90 44 32 45 33 46
REMARK SMILES IDX 34 47 84 48 35 49 89 50 83 51 85 52 36 53 88 54 82 55 81 56
REMARK SMILES IDX 37 58 69 59 49 60 68 61 50 62 53 63 67 64 86 65 51 66 52 67
REMARK SMILES IDX 66 69 87 70 54 71 38 72 39 73 47 74 40 75 42 76 48 77 41 78
REMARK SMILES IDX 43 79 44 80 45 81 46 82 70 83 71 84 79 85 72 86 74 87 80 88
REMARK SMILES IDX 73 89 75 90 76 91 77 92 78 93 55 94 56 95 64 96 57 97 59 98
REMARK SMILES IDX 65 99 58 100 60 101 61 102 62 103 63 104
REMARK H PARENT 19 7 15 10 94 20 26 38 85 57 53 68
REMARK Flexibility Score: inf
ROOT
ATOM      1  C   UNL A   1      41.178  22.154  26.716  1.00  0.00     0.002 C 
ENDROOT
BRANCH   1   2
ATOM      2  C   UNL A   1      39.969  22.921  27.269  1.00  0.00     0.021 C 
BRANCH   2   3
ATOM      3  C   UNL A   1      38.877  23.166  26.229  1.00  0.00     0.116 C 
BRANCH   3   4
ATOM      4  N   UNL A   1      38.481  21.920  25.599  1.00  0.00    -0.355 N 
ATOM      5  C   UNL A   1      37.236  21.537  25.186  1.00  0.00     0.239 C 
ATOM      6  O   UNL A   1      37.080  20.373  24.806  1.00  0.00    -0.273 OA
ATOM      7  H   UNL A   1      39.202  21.266  25.451  1.00  0.00     0.163 HD
BRANCH   5   8
ATOM      8  C   UNL A   1      36.078  22.545  25.192  1.00  0.00     0.214 C 
BRANCH   8   9
ATOM      9  N   UNL A   1      35.833  23.087  23.858  1.00  0.00    -0.361 N 
ATOM     10  H   UNL A   1      36.379  22.786  23.097  1.00  0.00     0.162 HD
BRANCH   9  11
ATOM     11  C   UNL A   1      34.828  24.029  23.663  1.00  0.00     0.129 A 
ATOM     12  C   UNL A   1      33.678  26.020  24.484  1.00  0.00    -0.003 A 
ATOM     13  C   UNL A   1      34.618  24.986  24.658  1.00  0.00     0.056 A 
ATOM     14  C   UNL A   1      32.949  26.010  23.278  1.00  0.00     0.027 A 
ATOM     15  C   UNL A   1      33.211  24.976  22.390  1.00  0.00     0.140 A 
ATOM     16  C   UNL A   1      31.956  26.826  22.662  1.00  0.00     0.030 A 
ATOM     17  N   UNL A   1      34.095  23.977  22.536  1.00  0.00    -0.213 NA
ATOM     18  N   UNL A   1      32.417  25.145  21.288  1.00  0.00    -0.346 N 
ATOM     19  C   UNL A   1      31.648  26.268  21.439  1.00  0.00     0.085 A 
ATOM     20  H   UNL A   1      32.401  24.549  20.505  1.00  0.00     0.167 HD
BRANCH  12  21
ATOM     21  C   UNL A   1      33.448  27.071  25.485  1.00  0.00    -0.005 A 
ATOM     22  C   UNL A   1      32.397  27.020  26.430  1.00  0.00     0.047 A 
ATOM     23  C   UNL A   1      32.243  28.062  27.363  1.00  0.00     0.014 A 
ATOM     24  C   UNL A   1      33.118  29.147  27.377  1.00  0.00     0.001 A 
ATOM     25  C   UNL A   1      34.313  28.185  25.515  1.00  0.00     0.009 A 
ATOM     26  C   UNL A   1      34.153  29.208  26.452  1.00  0.00     0.001 A 
BRANCH  22  27
ATOM     27  C   UNL A   1      31.469  25.908  26.502  1.00  0.00     0.248 A 
ATOM     28  C   UNL A   1      31.117  22.421  26.844  1.00  0.00     0.113 C 
ATOM     29  C   UNL A   1      30.918  23.865  26.654  1.00  0.00     0.213 A 
ATOM     30  N   UNL A   1      29.803  24.537  26.474  1.00  0.00    -0.113 NA
ATOM     31  O   UNL A   1      32.028  24.666  26.677  1.00  0.00    -0.421 OA
ATOM     32  N   UNL A   1      30.159  25.867  26.388  1.00  0.00    -0.108 NA
ENDBRANCH  22  27
ENDBRANCH  12  21
ENDBRANCH   9  11
ENDBRANCH   8   9
ENDBRANCH   5   8
ENDBRANCH   3   4
ENDBRANCH   2   3
ENDBRANCH   1   2
BRANCH   1  33
ATOM     33  C   UNL A   1      41.375  20.750  27.304  1.00  0.00     0.002 C 
BRANCH  33  34
ATOM     34  C   UNL A   1      41.635  19.649  26.274  1.00  0.00     0.021 C 
BRANCH  34  35
ATOM     35  C   UNL A   1      42.979  18.946  26.426  1.00  0.00     0.116 C 
BRANCH  35  36
ATOM     36  N   UNL A   1      43.679  18.828  25.152  1.00  0.00    -0.352 N 
ATOM     37  C   UNL A   1      44.246  19.806  24.378  1.00  0.00     0.251 C 
ATOM     38  H   UNL A   1      43.756  17.913  24.798  1.00  0.00     0.163 HD
ATOM     39  O   UNL A   1      44.639  19.540  23.242  1.00  0.00    -0.269 OA
BRANCH  37  40
ATOM     40  C   UNL A   1      44.370  21.183  24.900  1.00  0.00     0.039 A 
ATOM     41  C   UNL A   1      44.984  21.384  26.139  1.00  0.00     0.014 A 
ATOM     42  C   UNL A   1      43.881  22.273  24.174  1.00  0.00     0.014 A 
ATOM     43  C   UNL A   1      45.155  22.682  26.624  1.00  0.00     0.010 A 
ATOM     44  C   UNL A   1      44.124  23.569  24.621  1.00  0.00     0.010 A 
ATOM     45  C   UNL A   1      44.753  23.787  25.855  1.00  0.00    -0.014 A 
BRANCH  45  46
ATOM     46  C   UNL A   1      44.989  25.176  26.325  1.00  0.00     0.031 A 
ATOM     47  C   UNL A   1      46.371  25.770  26.278  1.00  0.00     0.074 A 
ATOM     48  C   UNL A   1      43.972  25.879  26.860  1.00  0.00     0.049 A 
ATOM     49  N   UNL A   1      46.775  26.953  26.663  1.00  0.00    -0.248 NA
ATOM     50  C   UNL A   1      47.445  24.912  25.751  1.00  0.00     0.031 C 
ATOM     51  C   UNL A   1      42.601  25.392  27.023  1.00  0.00     0.029 A 
ATOM     52  N   UNL A   1      43.938  27.149  27.381  1.00  0.00    -0.354 N 
ATOM     53  C   UNL A   1      48.149  26.972  26.453  1.00  0.00     0.074 A 
ATOM     54  C   UNL A   1      48.516  25.666  25.951  1.00  0.00     0.031 C 
ATOM     55  C   UNL A   1      41.855  26.358  27.583  1.00  0.00     0.029 A 
ATOM     56  C   UNL A   1      42.699  27.517  27.853  1.00  0.00     0.049 A 
ATOM     57  H   UNL A   1      44.725  27.739  27.414  1.00  0.00     0.167 HD
ATOM     58  C   UNL A   1      49.024  27.991  26.632  1.00  0.00     0.034 A 
ATOM     59  C   UNL A   1      42.291  28.661  28.436  1.00  0.00     0.034 A 
ATOM     60  C   UNL A   1      48.652  29.294  27.116  1.00  0.00     0.049 A 
ATOM     61  C   UNL A   1      43.279  29.779  28.625  1.00  0.00     0.074 A 
ATOM     62  C   UNL A   1      49.445  30.416  27.268  1.00  0.00     0.029 A 
ATOM     63  N   UNL A   1      47.378  29.646  27.540  1.00  0.00    -0.354 N 
ATOM     64  N   UNL A   1      44.545  29.830  28.287  1.00  0.00    -0.248 NA
ATOM     65  C   UNL A   1      42.774  31.012  29.246  1.00  0.00     0.031 C 
ATOM     66  C   UNL A   1      48.661  31.435  27.819  1.00  0.00     0.029 A 
ATOM     67  C   UNL A   1      47.367  30.962  27.970  1.00  0.00     0.049 A 
ATOM     68  H   UNL A   1      46.597  29.047  27.536  1.00  0.00     0.167 HD
ATOM     69  C   UNL A   1      44.977  31.111  28.612  1.00  0.00     0.074 A 
ATOM     70  C   UNL A   1      43.831  31.808  29.164  1.00  0.00     0.031 C 
ATOM     71  C   UNL A   1      46.210  31.659  28.476  1.00  0.00     0.034 A 
BRANCH  58  72
ATOM     72  C   UNL A   1      50.466  27.737  26.265  1.00  0.00     0.023 A 
ATOM     73  C   UNL A   1      51.407  27.467  27.281  1.00  0.00     0.012 A 
ATOM     74  C   UNL A   1      50.890  27.750  24.921  1.00  0.00     0.148 A 
ATOM     75  C   UNL A   1      52.753  27.272  26.973  1.00  0.00     0.002 A 
ATOM     76  C   UNL A   1      52.225  27.503  24.618  1.00  0.00     0.091 A 
ATOM     77  F   UNL A   1      49.990  28.026  23.968  1.00  0.00    -0.205 F 
ATOM     78  C   UNL A   1      53.160  27.282  25.642  1.00  0.00     0.022 A 
BRANCH  76  79
ATOM     79  S   UNL A   1      52.832  27.414  22.930  1.00  0.00     0.127 S 
ATOM     80  O   UNL A   1      53.083  28.823  22.631  1.00  0.00    -0.237 OA
ATOM     81  O   UNL A   1      54.038  26.598  23.079  1.00  0.00    -0.237 OA
ATOM     82  O   UNL A   1      51.770  26.787  22.156  1.00  0.00    -0.744 OA
ENDBRANCH  76  79
ENDBRANCH  58  72
BRANCH  59  83
ATOM     83  C   UNL A   1      40.858  28.835  28.806  1.00  0.00     0.023 A 
ATOM     84  C   UNL A   1      39.906  29.025  27.785  1.00  0.00     0.012 A 
ATOM     85  C   UNL A   1      40.427  28.779  30.146  1.00  0.00     0.148 A 
ATOM     86  C   UNL A   1      38.555  29.186  28.092  1.00  0.00     0.002 A 
ATOM     87  C   UNL A   1      39.073  28.887  30.441  1.00  0.00     0.091 A 
ATOM     88  F   UNL A   1      41.350  28.602  31.101  1.00  0.00    -0.205 F 
ATOM     89  C   UNL A   1      38.137  29.108  29.417  1.00  0.00     0.022 A 
BRANCH  87  90
ATOM     90  S   UNL A   1      38.424  28.682  32.104  1.00  0.00     0.127 S 
ATOM     91  O   UNL A   1      39.153  29.712  32.839  1.00  0.00    -0.237 OA
ATOM     92  O   UNL A   1      37.001  28.958  31.905  1.00  0.00    -0.237 OA
ATOM     93  O   UNL A   1      38.726  27.309  32.482  1.00  0.00    -0.744 OA
ENDBRANCH  87  90
ENDBRANCH  59  83
BRANCH  71  94
ATOM     94  C   UNL A   1      46.385  33.099  28.885  1.00  0.00     0.023 A 
ATOM     95  C   UNL A   1      46.804  33.417  30.193  1.00  0.00     0.012 A 
ATOM     96  C   UNL A   1      46.195  34.137  27.951  1.00  0.00     0.148 A 
ATOM     97  C   UNL A   1      46.994  34.745  30.574  1.00  0.00     0.002 A 
ATOM     98  C   UNL A   1      46.441  35.453  28.321  1.00  0.00     0.091 A 
ATOM     99  F   UNL A   1      45.779  33.816  26.717  1.00  0.00    -0.205 F 
ATOM    100  C   UNL A   1      46.825  35.761  29.636  1.00  0.00     0.022 A 
BRANCH  98 101
ATOM    101  S   UNL A   1      46.346  36.817  27.156  1.00  0.00     0.127 S 
ATOM    102  O   UNL A   1      46.996  37.893  27.902  1.00  0.00    -0.237 OA
ATOM    103  O   UNL A   1      47.119  36.309  26.022  1.00  0.00    -0.237 OA
ATOM    104  O   UNL A   1      44.929  37.015  26.882  1.00  0.00    -0.744 OA
ENDBRANCH  98 101
ENDBRANCH  71  94
ENDBRANCH  45  46
ENDBRANCH  37  40
ENDBRANCH  35  36
ENDBRANCH  34  35
ENDBRANCH  33  34
ENDBRANCH   1  33
TORSDOF 20
ENDMDL
MODEL 2
REMARK VINA RESULT:     -11.5      6.467     12.560
REMARK SMILES Cc1nnc(-c2ccccc2-c2cc(NCC(=O)NCCCCCCNC(=O)c3ccc(-c4c5nc(c(-c6cccc(S(=O)(=O)[O-])c6F)c6ccc([nH]6)c(-c6cccc(S(=O)(=O)[O-])c6F)c6nc(c(-c7cccc(S(=O)(=O)[O-])c7F)c7ccc4[nH]7)C=C6)C=C5)cc3)nc3[nH]ccc23)o1
REMARK SMILES IDX 22 1 21 2 20 3 19 4 17 5 18 6 16 8 15 9 14 11 12 12 13 13
REMARK SMILES IDX 97 14 93 15 96 16 92 17 94 18 95 19 11 21 6 22 7 23 8 24
REMARK SMILES IDX 10 25 9 26 5 27 1 28 2 29 3 30 98 31 4 32 23 33 24 34 25 35
REMARK SMILES IDX 26 36 27 37 28 39 29 40 30 41 91 42 31 43 90 44 32 45 33 46
REMARK SMILES IDX 34 47 84 48 35 49 89 50 83 51 85 52 36 53 88 54 82 55 81 56
REMARK SMILES IDX 37 58 69 59 49 60 68 61 50 62 53 63 67 64 86 65 51 66 52 67
REMARK SMILES IDX 66 69 87 70 54 71 38 72 39 73 47 74 40 75 42 76 48 77 41 78
REMARK SMILES IDX 43 79 44 80 45 81 46 82 70 83 71 84 79 85 72 86 74 87 80 88
REMARK SMILES IDX 73 89 75 90 76 91 77 92 78 93 55 94 56 95 64 96 57 97 59 98
REMARK SMILES IDX 65 99 58 100 60 101 61 102 62 103 63 104
REMARK H PARENT 19 7 15 10 94 20 26 38 85 57 53 68
REMARK Flexibility Score: inf
ROOT
ATOM      1  C   UNL A   1      34.779  32.852  29.052  1.00  0.00     0.002 C 
ENDROOT
BRANCH   1   2
ATOM      2  C   UNL A   1      35.774  32.047  28.206  1.00  0.00     0.021 C 
BRANCH   2   3
ATOM      3  C   UNL A   1      35.256  30.667  27.806  1.00  0.00     0.116 C 
BRANCH   3   4
ATOM      4  N   UNL A   1      33.809  30.617  27.900  1.00  0.00    -0.355 N 
ATOM      5  C   UNL A   1      32.907  30.299  26.923  1.00  0.00     0.239 C 
ATOM      6  O   UNL A   1      31.707  30.459  27.163  1.00  0.00    -0.273 OA
ATOM      7  H   UNL A   1      33.428  30.841  28.779  1.00  0.00     0.163 HD
BRANCH   5   8
ATOM      8  C   UNL A   1      33.393  29.751  25.574  1.00  0.00     0.214 C 
BRANCH   8   9
ATOM      9  N   UNL A   1      33.971  28.417  25.714  1.00  0.00    -0.361 N 
ATOM     10  H   UNL A   1      34.576  28.220  26.465  1.00  0.00     0.162 HD
BRANCH   9  11
ATOM     11  C   UNL A   1      33.665  27.425  24.788  1.00  0.00     0.129 A 
ATOM     12  C   UNL A   1      33.000  25.111  24.387  1.00  0.00    -0.003 A 
ATOM     13  C   UNL A   1      33.402  26.138  25.261  1.00  0.00     0.056 A 
ATOM     14  C   UNL A   1      32.913  25.447  23.021  1.00  0.00     0.027 A 
ATOM     15  C   UNL A   1      33.251  26.746  22.668  1.00  0.00     0.140 A 
ATOM     16  C   UNL A   1      32.539  24.787  21.815  1.00  0.00     0.030 A 
ATOM     17  N   UNL A   1      33.643  27.740  23.480  1.00  0.00    -0.213 NA
ATOM     18  N   UNL A   1      33.097  26.876  21.313  1.00  0.00    -0.346 N 
ATOM     19  C   UNL A   1      32.663  25.691  20.781  1.00  0.00     0.085 A 
ATOM     20  H   UNL A   1      33.271  27.698  20.800  1.00  0.00     0.167 HD
BRANCH  12  21
ATOM     21  C   UNL A   1      32.676  23.752  24.842  1.00  0.00    -0.005 A 
ATOM     22  C   UNL A   1      33.650  22.740  25.003  1.00  0.00     0.047 A 
ATOM     23  C   UNL A   1      33.266  21.462  25.449  1.00  0.00     0.014 A 
ATOM     24  C   UNL A   1      31.934  21.176  25.743  1.00  0.00     0.001 A 
ATOM     25  C   UNL A   1      31.334  23.433  25.136  1.00  0.00     0.009 A 
ATOM     26  C   UNL A   1      30.967  22.162  25.586  1.00  0.00     0.001 A 
BRANCH  22  27
ATOM     27  C   UNL A   1      35.060  22.970  24.754  1.00  0.00     0.248 A 
ATOM     28  C   UNL A   1      38.151  23.921  26.148  1.00  0.00     0.113 C 
ATOM     29  C   UNL A   1      37.042  23.526  25.267  1.00  0.00     0.213 A 
ATOM     30  N   UNL A   1      37.046  23.293  23.974  1.00  0.00    -0.113 NA
ATOM     31  O   UNL A   1      35.811  23.349  25.839  1.00  0.00    -0.421 OA
ATOM     32  N   UNL A   1      35.761  22.918  23.641  1.00  0.00    -0.108 NA
ENDBRANCH  22  27
ENDBRANCH  12  21
ENDBRANCH   9  11
ENDBRANCH   8   9
ENDBRANCH   5   8
ENDBRANCH   3   4
ENDBRANCH   2   3
ENDBRANCH   1   2
BRANCH   1  33
ATOM     33  C   UNL A   1      34.455  34.250  28.510  1.00  0.00     0.002 C 
BRANCH  33  34
ATOM     34  C   UNL A   1      33.137  34.847  29.010  1.00  0.00     0.021 C 
BRANCH  34  35
ATOM     35  C   UNL A   1      33.273  36.216  29.667  1.00  0.00     0.116 C 
BRANCH  35  36
ATOM     36  N   UNL A   1      32.448  36.330  30.864  1.00  0.00    -0.352 N 
ATOM     37  C   UNL A   1      32.588  35.710  32.078  1.00  0.00     0.251 C 
ATOM     38  H   UNL A   1      31.679  36.940  30.789  1.00  0.00     0.163 HD
ATOM     39  O   UNL A   1      31.690  35.791  32.916  1.00  0.00    -0.269 OA
BRANCH  37  40
ATOM     40  C   UNL A   1      33.809  34.932  32.374  1.00  0.00     0.039 A 
ATOM     41  C   UNL A   1      35.056  35.518  32.143  1.00  0.00     0.014 A 
ATOM     42  C   UNL A   1      33.727  33.631  32.876  1.00  0.00     0.014 A 
ATOM     43  C   UNL A   1      36.220  34.817  32.465  1.00  0.00     0.010 A 
ATOM     44  C   UNL A   1      34.885  32.965  33.270  1.00  0.00     0.010 A 
ATOM     45  C   UNL A   1      36.143  33.546  33.059  1.00  0.00    -0.014 A 
BRANCH  45  46
ATOM     46  C   UNL A   1      37.369  32.815  33.470  1.00  0.00     0.031 A 
ATOM     47  C   UNL A   1      38.126  33.234  34.702  1.00  0.00     0.074 A 
ATOM     48  C   UNL A   1      37.841  31.819  32.696  1.00  0.00     0.049 A 
ATOM     49  N   UNL A   1      39.225  32.734  35.205  1.00  0.00    -0.248 NA
ATOM     50  C   UNL A   1      37.591  34.380  35.453  1.00  0.00     0.031 C 
ATOM     51  C   UNL A   1      37.237  31.363  31.444  1.00  0.00     0.029 A 
ATOM     52  N   UNL A   1      38.949  31.021  32.841  1.00  0.00    -0.354 N 
ATOM     53  C   UNL A   1      39.528  33.519  36.311  1.00  0.00     0.074 A 
ATOM     54  C   UNL A   1      38.523  34.558  36.378  1.00  0.00     0.031 C 
ATOM     55  C   UNL A   1      37.966  30.352  30.945  1.00  0.00     0.029 A 
ATOM     56  C   UNL A   1      39.109  30.112  31.820  1.00  0.00     0.049 A 
ATOM     57  H   UNL A   1      39.569  31.092  33.601  1.00  0.00     0.167 HD
ATOM     58  C   UNL A   1      40.533  33.375  37.209  1.00  0.00     0.034 A 
ATOM     59  C   UNL A   1      40.069  29.189  31.615  1.00  0.00     0.034 A 
ATOM     60  C   UNL A   1      41.520  32.331  37.149  1.00  0.00     0.049 A 
ATOM     61  C   UNL A   1      41.175  29.046  32.624  1.00  0.00     0.074 A 
ATOM     62  C   UNL A   1      42.538  32.053  38.044  1.00  0.00     0.029 A 
ATOM     63  N   UNL A   1      41.624  31.398  36.126  1.00  0.00    -0.354 N 
ATOM     64  N   UNL A   1      41.363  29.705  33.742  1.00  0.00    -0.248 NA
ATOM     65  C   UNL A   1      42.182  28.009  32.361  1.00  0.00     0.031 C 
ATOM     66  C   UNL A   1      43.278  30.976  37.544  1.00  0.00     0.029 A 
ATOM     67  C   UNL A   1      42.697  30.555  36.358  1.00  0.00     0.049 A 
ATOM     68  H   UNL A   1      41.023  31.345  35.349  1.00  0.00     0.167 HD
ATOM     69  C   UNL A   1      42.483  29.134  34.338  1.00  0.00     0.074 A 
ATOM     70  C   UNL A   1      42.921  28.067  33.460  1.00  0.00     0.031 C 
ATOM     71  C   UNL A   1      43.098  29.467  35.500  1.00  0.00     0.034 A 
BRANCH  58  72
ATOM     72  C   UNL A   1      40.583  34.357  38.354  1.00  0.00     0.023 A 
ATOM     73  C   UNL A   1      41.397  35.506  38.252  1.00  0.00     0.012 A 
ATOM     74  C   UNL A   1      39.821  34.156  39.522  1.00  0.00     0.148 A 
ATOM     75  C   UNL A   1      41.494  36.407  39.312  1.00  0.00     0.002 A 
ATOM     76  C   UNL A   1      39.884  35.087  40.554  1.00  0.00     0.091 A 
ATOM     77  F   UNL A   1      39.067  33.052  39.614  1.00  0.00    -0.205 F 
ATOM     78  C   UNL A   1      40.733  36.201  40.459  1.00  0.00     0.022 A 
BRANCH  76  79
ATOM     79  S   UNL A   1      38.880  34.954  42.038  1.00  0.00     0.127 S 
ATOM     80  O   UNL A   1      39.130  36.244  42.680  1.00  0.00    -0.237 OA
ATOM     81  O   UNL A   1      37.533  34.799  41.486  1.00  0.00    -0.237 OA
ATOM     82  O   UNL A   1      39.379  33.789  42.755  1.00  0.00    -0.744 OA
ENDBRANCH  76  79
ENDBRANCH  58  72
BRANCH  59  83
ATOM     83  C   UNL A   1      39.977  28.271  30.444  1.00  0.00     0.023 A 
ATOM     84  C   UNL A   1      39.090  27.178  30.499  1.00  0.00     0.012 A 
ATOM     85  C   UNL A   1      40.728  28.489  29.273  1.00  0.00     0.148 A 
ATOM     86  C   UNL A   1      38.973  26.301  29.421  1.00  0.00     0.002 A 
ATOM     87  C   UNL A   1      40.568  27.641  28.182  1.00  0.00     0.091 A 
ATOM     88  F   UNL A   1      41.570  29.531  29.243  1.00  0.00    -0.205 F 
ATOM     89  C   UNL A   1      39.705  26.537  28.261  1.00  0.00     0.022 A 
BRANCH  87  90
ATOM     90  S   UNL A   1      41.376  27.930  26.604  1.00  0.00     0.127 S 
ATOM     91  O   UNL A   1      41.023  26.722  25.861  1.00  0.00    -0.237 OA
ATOM     92  O   UNL A   1      40.710  29.150  26.146  1.00  0.00    -0.237 OA
ATOM     93  O   UNL A   1      42.791  28.090  26.904  1.00  0.00    -0.744 OA
ENDBRANCH  87  90
ENDBRANCH  59  83
BRANCH  71  94
ATOM     94  C   UNL A   1      44.288  28.644  35.923  1.00  0.00     0.023 A 
ATOM     95  C   UNL A   1      45.586  29.017  35.520  1.00  0.00     0.012 A 
ATOM     96  C   UNL A   1      44.123  27.535  36.776  1.00  0.00     0.148 A 
ATOM     97  C   UNL A   1      46.695  28.278  35.928  1.00  0.00     0.002 A 
ATOM     98  C   UNL A   1      45.237  26.837  37.225  1.00  0.00     0.091 A 
ATOM     99  F   UNL A   1      42.879  27.185  37.136  1.00  0.00    -0.205 F 
ATOM    100  C   UNL A   1      46.523  27.196  36.789  1.00  0.00     0.022 A 
BRANCH  98 101
ATOM    101  S   UNL A   1      45.122  25.494  38.413  1.00  0.00     0.127 S 
ATOM    102  O   UNL A   1      44.303  24.524  37.689  1.00  0.00    -0.237 OA
ATOM    103  O   UNL A   1      46.523  25.108  38.579  1.00  0.00    -0.237 OA
ATOM    104  O   UNL A   1      44.507  26.064  39.604  1.00  0.00    -0.744 OA
ENDBRANCH  98 101
ENDBRANCH  71  94
ENDBRANCH  45  46
ENDBRANCH  37  40
ENDBRANCH  35  36
ENDBRANCH  34  35
ENDBRANCH  33  34
ENDBRANCH   1  33
TORSDOF 20
ENDMDL
MODEL 3
REMARK VINA RESULT:     -11.4      6.341     12.389
REMARK SMILES Cc1nnc(-c2ccccc2-c2cc(NCC(=O)NCCCCCCNC(=O)c3ccc(-c4c5nc(c(-c6cccc(S(=O)(=O)[O-])c6F)c6ccc([nH]6)c(-c6cccc(S(=O)(=O)[O-])c6F)c6nc(c(-c7cccc(S(=O)(=O)[O-])c7F)c7ccc4[nH]7)C=C6)C=C5)cc3)nc3[nH]ccc23)o1
REMARK SMILES IDX 22 1 21 2 20 3 19 4 17 5 18 6 16 8 15 9 14 11 12 12 13 13
REMARK SMILES IDX 97 14 93 15 96 16 92 17 94 18 95 19 11 21 6 22 7 23 8 24
REMARK SMILES IDX 10 25 9 26 5 27 1 28 2 29 3 30 98 31 4 32 23 33 24 34 25 35
REMARK SMILES IDX 26 36 27 37 28 39 29 40 30 41 91 42 31 43 90 44 32 45 33 46
REMARK SMILES IDX 34 47 84 48 35 49 89 50 83 51 85 52 36 53 88 54 82 55 81 56
REMARK SMILES IDX 37 58 69 59 49 60 68 61 50 62 53 63 67 64 86 65 51 66 52 67
REMARK SMILES IDX 66 69 87 70 54 71 38 72 39 73 47 74 40 75 42 76 48 77 41 78
REMARK SMILES IDX 43 79 44 80 45 81 46 82 70 83 71 84 79 85 72 86 74 87 80 88
REMARK SMILES IDX 73 89 75 90 76 91 77 92 78 93 55 94 56 95 64 96 57 97 59 98
REMARK SMILES IDX 65 99 58 100 60 101 61 102 62 103 63 104
REMARK H PARENT 19 7 15 10 94 20 26 38 85 57 53 68
REMARK Flexibility Score: inf
ROOT
ATOM      1  C   UNL A   1      34.770  32.390  28.976  1.00  0.00     0.002 C 
ENDROOT
BRANCH   1   2
ATOM      2  C   UNL A   1      35.423  31.362  28.042  1.00  0.00     0.021 C 
BRANCH   2   3
ATOM      3  C   UNL A   1      34.446  30.312  27.515  1.00  0.00     0.116 C 
BRANCH   3   4
ATOM      4  N   UNL A   1      33.191  30.929  27.130  1.00  0.00    -0.355 N 
ATOM      5  C   UNL A   1      32.221  30.432  26.304  1.00  0.00     0.239 C 
ATOM      6  O   UNL A   1      31.291  31.178  25.983  1.00  0.00    -0.273 OA
ATOM      7  H   UNL A   1      33.015  31.819  27.511  1.00  0.00     0.163 HD
BRANCH   5   8
ATOM      8  C   UNL A   1      32.300  28.982  25.807  1.00  0.00     0.214 C 
BRANCH   8   9
ATOM      9  N   UNL A   1      31.463  28.095  26.612  1.00  0.00    -0.361 N 
ATOM     10  H   UNL A   1      30.858  28.471  27.291  1.00  0.00     0.162 HD
BRANCH   9  11
ATOM     11  C   UNL A   1      31.522  26.719  26.419  1.00  0.00     0.129 A 
ATOM     12  C   UNL A   1      32.895  24.760  25.932  1.00  0.00    -0.003 A 
ATOM     13  C   UNL A   1      32.746  26.154  26.056  1.00  0.00     0.056 A 
ATOM     14  C   UNL A   1      31.741  23.982  26.160  1.00  0.00     0.027 A 
ATOM     15  C   UNL A   1      30.571  24.664  26.463  1.00  0.00     0.140 A 
ATOM     16  C   UNL A   1      31.416  22.595  26.181  1.00  0.00     0.030 A 
ATOM     17  N   UNL A   1      30.402  25.990  26.580  1.00  0.00    -0.213 NA
ATOM     18  N   UNL A   1      29.577  23.742  26.655  1.00  0.00    -0.346 N 
ATOM     19  C   UNL A   1      30.077  22.479  26.488  1.00  0.00     0.085 A 
ATOM     20  H   UNL A   1      28.643  23.957  26.881  1.00  0.00     0.167 HD
BRANCH  12  21
ATOM     21  C   UNL A   1      34.171  24.117  25.588  1.00  0.00    -0.005 A 
ATOM     22  C   UNL A   1      34.783  24.245  24.320  1.00  0.00     0.047 A 
ATOM     23  C   UNL A   1      36.010  23.605  24.067  1.00  0.00     0.014 A 
ATOM     24  C   UNL A   1      36.640  22.847  25.052  1.00  0.00     0.001 A 
ATOM     25  C   UNL A   1      34.824  23.336  26.564  1.00  0.00     0.009 A 
ATOM     26  C   UNL A   1      36.046  22.711  26.301  1.00  0.00     0.001 A 
BRANCH  22  27
ATOM     27  C   UNL A   1      34.209  25.046  23.256  1.00  0.00     0.248 A 
ATOM     28  C   UNL A   1      33.409  28.295  22.159  1.00  0.00     0.113 C 
ATOM     29  C   UNL A   1      33.576  26.844  22.325  1.00  0.00     0.213 A 
ATOM     30  N   UNL A   1      33.212  25.866  21.527  1.00  0.00    -0.113 NA
ATOM     31  O   UNL A   1      34.212  26.405  23.454  1.00  0.00    -0.421 OA
ATOM     32  N   UNL A   1      33.635  24.697  22.125  1.00  0.00    -0.108 NA
ENDBRANCH  22  27
ENDBRANCH  12  21
ENDBRANCH   9  11
ENDBRANCH   8   9
ENDBRANCH   5   8
ENDBRANCH   3   4
ENDBRANCH   2   3
ENDBRANCH   1   2
BRANCH   1  33
ATOM     33  C   UNL A   1      34.672  33.810  28.403  1.00  0.00     0.002 C 
BRANCH  33  34
ATOM     34  C   UNL A   1      33.348  34.527  28.674  1.00  0.00     0.021 C 
BRANCH  34  35
ATOM     35  C   UNL A   1      33.490  35.885  29.351  1.00  0.00     0.116 C 
BRANCH  35  36
ATOM     36  N   UNL A   1      32.663  35.988  30.547  1.00  0.00    -0.352 N 
ATOM     37  C   UNL A   1      32.810  35.370  31.761  1.00  0.00     0.251 C 
ATOM     38  H   UNL A   1      31.886  36.588  30.471  1.00  0.00     0.163 HD
ATOM     39  O   UNL A   1      31.910  35.439  32.598  1.00  0.00    -0.269 OA
BRANCH  37  40
ATOM     40  C   UNL A   1      34.040  34.607  32.058  1.00  0.00     0.039 A 
ATOM     41  C   UNL A   1      35.280  35.219  31.853  1.00  0.00     0.014 A 
ATOM     42  C   UNL A   1      33.974  33.296  32.535  1.00  0.00     0.014 A 
ATOM     43  C   UNL A   1      36.452  34.531  32.177  1.00  0.00     0.010 A 
ATOM     44  C   UNL A   1      35.138  32.643  32.932  1.00  0.00     0.010 A 
ATOM     45  C   UNL A   1      36.389  33.249  32.747  1.00  0.00    -0.014 A 
BRANCH  45  46
ATOM     46  C   UNL A   1      37.623  32.531  33.160  1.00  0.00     0.031 A 
ATOM     47  C   UNL A   1      38.342  32.922  34.423  1.00  0.00     0.074 A 
ATOM     48  C   UNL A   1      38.134  31.574  32.362  1.00  0.00     0.049 A 
ATOM     49  N   UNL A   1      39.441  32.429  34.933  1.00  0.00    -0.248 NA
ATOM     50  C   UNL A   1      37.764  34.028  35.202  1.00  0.00     0.031 C 
ATOM     51  C   UNL A   1      37.568  31.150  31.081  1.00  0.00     0.029 A 
ATOM     52  N   UNL A   1      39.257  30.796  32.503  1.00  0.00    -0.354 N 
ATOM     53  C   UNL A   1      39.701  33.181  36.072  1.00  0.00     0.074 A 
ATOM     54  C   UNL A   1      38.671  34.193  36.153  1.00  0.00     0.031 C 
ATOM     55  C   UNL A   1      38.332  30.173  30.564  1.00  0.00     0.029 A 
ATOM     56  C   UNL A   1      39.460  29.928  31.456  1.00  0.00     0.049 A 
ATOM     57  H   UNL A   1      39.858  30.854  33.280  1.00  0.00     0.167 HD
ATOM     58  C   UNL A   1      40.688  33.026  36.988  1.00  0.00     0.034 A 
ATOM     59  C   UNL A   1      40.446  29.035  31.239  1.00  0.00     0.034 A 
ATOM     60  C   UNL A   1      41.701  32.007  36.913  1.00  0.00     0.049 A 
ATOM     61  C   UNL A   1      41.532  28.881  32.269  1.00  0.00     0.074 A 
ATOM     62  C   UNL A   1      42.704  31.720  37.821  1.00  0.00     0.029 A 
ATOM     63  N   UNL A   1      41.849  31.115  35.861  1.00  0.00    -0.354 N 
ATOM     64  N   UNL A   1      41.680  29.503  33.413  1.00  0.00    -0.248 NA
ATOM     65  C   UNL A   1      42.569  27.876  31.992  1.00  0.00     0.031 C 
ATOM     66  C   UNL A   1      43.481  30.679  37.301  1.00  0.00     0.029 A 
ATOM     67  C   UNL A   1      42.936  30.288  36.088  1.00  0.00     0.049 A 
ATOM     68  H   UNL A   1      41.266  31.076  35.069  1.00  0.00     0.167 HD
ATOM     69  C   UNL A   1      42.800  28.936  34.014  1.00  0.00     0.074 A 
ATOM     70  C   UNL A   1      43.282  27.911  33.109  1.00  0.00     0.031 C 
ATOM     71  C   UNL A   1      43.381  29.241  35.201  1.00  0.00     0.034 A 
BRANCH  58  72
ATOM     72  C   UNL A   1      40.691  33.968  38.168  1.00  0.00     0.023 A 
ATOM     73  C   UNL A   1      41.558  35.082  38.170  1.00  0.00     0.012 A 
ATOM     74  C   UNL A   1      39.831  33.764  39.266  1.00  0.00     0.148 A 
ATOM     75  C   UNL A   1      41.610  35.943  39.266  1.00  0.00     0.002 A 
ATOM     76  C   UNL A   1      39.853  34.656  40.332  1.00  0.00     0.091 A 
ATOM     77  F   UNL A   1      39.027  32.693  39.260  1.00  0.00    -0.205 F 
ATOM     78  C   UNL A   1      40.754  35.734  40.342  1.00  0.00     0.022 A 
BRANCH  76  79
ATOM     79  S   UNL A   1      38.732  34.522  41.729  1.00  0.00     0.127 S 
ATOM     80  O   UNL A   1      37.517  34.024  41.086  1.00  0.00    -0.237 OA
ATOM     81  O   UNL A   1      39.414  33.545  42.579  1.00  0.00    -0.237 OA
ATOM     82  O   UNL A   1      38.639  35.859  42.297  1.00  0.00    -0.744 OA
ENDBRANCH  76  79
ENDBRANCH  58  72
BRANCH  59  83
ATOM     83  C   UNL A   1      40.401  28.158  30.035  1.00  0.00     0.023 A 
ATOM     84  C   UNL A   1      39.469  27.102  29.991  1.00  0.00     0.012 A 
ATOM     85  C   UNL A   1      41.242  28.379  28.928  1.00  0.00     0.148 A 
ATOM     86  C   UNL A   1      39.394  26.264  28.880  1.00  0.00     0.002 A 
ATOM     87  C   UNL A   1      41.127  27.572  27.801  1.00  0.00     0.091 A 
ATOM     88  F   UNL A   1      42.125  29.385  28.992  1.00  0.00    -0.205 F 
ATOM     89  C   UNL A   1      40.216  26.504  27.782  1.00  0.00     0.022 A 
BRANCH  87  90
ATOM     90  S   UNL A   1      42.056  27.875  26.293  1.00  0.00     0.127 S 
ATOM     91  O   UNL A   1      41.503  26.865  25.393  1.00  0.00    -0.237 OA
ATOM     92  O   UNL A   1      41.676  29.253  25.980  1.00  0.00    -0.237 OA
ATOM     93  O   UNL A   1      43.457  27.699  26.647  1.00  0.00    -0.744 OA
ENDBRANCH  87  90
ENDBRANCH  59  83
BRANCH  71  94
ATOM     94  C   UNL A   1      44.579  28.430  35.621  1.00  0.00     0.023 A 
ATOM     95  C   UNL A   1      45.879  28.863  35.288  1.00  0.00     0.012 A 
ATOM     96  C   UNL A   1      44.419  27.270  36.406  1.00  0.00     0.148 A 
ATOM     97  C   UNL A   1      46.996  28.134  35.696  1.00  0.00     0.002 A 
ATOM     98  C   UNL A   1      45.538  26.580  36.855  1.00  0.00     0.091 A 
ATOM     99  F   UNL A   1      43.175  26.864  36.698  1.00  0.00    -0.205 F 
ATOM    100  C   UNL A   1      46.826  27.001  36.489  1.00  0.00     0.022 A 
BRANCH  98 101
ATOM    101  S   UNL A   1      45.422  25.170  37.962  1.00  0.00     0.127 S 
ATOM    102  O   UNL A   1      44.486  24.304  37.246  1.00  0.00    -0.237 OA
ATOM    103  O   UNL A   1      46.802  24.686  37.991  1.00  0.00    -0.237 OA
ATOM    104  O   UNL A   1      44.938  25.694  39.232  1.00  0.00    -0.744 OA
ENDBRANCH  98 101
ENDBRANCH  71  94
ENDBRANCH  45  46
ENDBRANCH  37  40
ENDBRANCH  35  36
ENDBRANCH  34  35
ENDBRANCH  33  34
ENDBRANCH   1  33
TORSDOF 20
ENDMDL
