MODEL 1
REMARK VINA RESULT:     -12.7      0.000      0.000
REMARK SMILES Cc1ccc([C@H](C)NC(=O)[C@H]2[C@@H]3CC[C@@H](C3)[C@@H]2C(=O)NCCCCCCNC(=O)c2ccc(-c3c4nc(c(-c5cccc(S(=O)(=O)[O-])c5F)c5ccc([nH]5)c(-c5cccc(S(=O)(=O)[O-])c5F)c5nc(c(-c6cccc(S(=O)(=O)[O-])c6F)c6ccc3[nH]6)C=C5)C=C4)cc2)cc1
REMARK SMILES IDX 23 1 22 2 21 3 20 4 18 5 19 6 17 8 11 9 12 10 13 11 16 12
REMARK SMILES IDX 15 13 14 14 9 15 8 16 10 18 6 19 7 20 5 21 1 22 2 23 3 24
REMARK SMILES IDX 94 25 4 26 93 27 24 28 25 29 26 30 27 31 28 32 29 34 30 35
REMARK SMILES IDX 31 36 92 37 32 38 91 39 33 40 34 41 35 42 85 43 36 44 90 45
REMARK SMILES IDX 84 46 86 47 37 48 89 49 83 50 82 51 38 53 70 54 50 55 69 56
REMARK SMILES IDX 51 57 54 58 68 59 87 60 52 61 53 62 67 64 88 65 55 66 39 67
REMARK SMILES IDX 40 68 48 69 41 70 43 71 49 72 42 73 44 74 45 75 46 76 47 77
REMARK SMILES IDX 71 78 72 79 80 80 73 81 75 82 81 83 74 84 76 85 77 86 78 87
REMARK SMILES IDX 79 88 56 89 57 90 65 91 58 92 60 93 66 94 59 95 61 96 62 97
REMARK SMILES IDX 63 98 64 99
REMARK H PARENT 20 7 8 17 27 33 86 52 54 63
REMARK Flexibility Score: inf
ROOT
ATOM      1  C   UNL A   1      32.747  27.538  26.498  1.00  0.00     0.002 C 
ENDROOT
BRANCH   1   2
ATOM      2  C   UNL A   1      34.010  26.862  25.945  1.00  0.00     0.021 C 
BRANCH   2   3
ATOM      3  C   UNL A   1      33.779  25.434  25.451  1.00  0.00     0.116 C 
BRANCH   3   4
ATOM      4  N   UNL A   1      33.791  25.385  24.005  1.00  0.00    -0.356 N 
ATOM      5  C   UNL A   1      34.205  24.432  23.133  1.00  0.00     0.224 C 
ATOM      6  O   UNL A   1      34.119  24.713  21.933  1.00  0.00    -0.275 OA
ATOM      7  H   UNL A   1      33.431  26.193  23.573  1.00  0.00     0.163 HD
BRANCH   5   8
ATOM      8  C   UNL A   1      34.570  23.015  23.571  1.00  0.00     0.094 C 
ATOM      9  C   UNL A   1      34.117  22.464  24.928  1.00  0.00     0.094 C 
ATOM     10  C   UNL A   1      35.427  21.961  25.586  1.00  0.00     0.002 C 
ATOM     11  C   UNL A   1      36.237  23.191  26.041  1.00  0.00     0.005 C 
ATOM     12  C   UNL A   1      36.257  21.494  24.396  1.00  0.00     0.009 C 
ATOM     13  C   UNL A   1      36.116  22.827  23.659  1.00  0.00     0.002 C 
ATOM     14  C   UNL A   1      36.721  23.786  24.710  1.00  0.00     0.005 C 
BRANCH   9  15
ATOM     15  C   UNL A   1      33.017  21.396  24.979  1.00  0.00     0.224 C 
ATOM     16  N   UNL A   1      31.838  21.455  25.635  1.00  0.00    -0.349 N 
ATOM     17  H   UNL A   1      31.345  20.605  25.578  1.00  0.00     0.164 HD
ATOM     18  O   UNL A   1      33.199  20.347  24.344  1.00  0.00    -0.275 OA
BRANCH  16  19
ATOM     19  C   UNL A   1      31.107  22.455  26.405  1.00  0.00     0.109 C 
ATOM     20  C   UNL A   1      31.967  22.926  27.582  1.00  0.00     0.036 C 
BRANCH  19  21
ATOM     21  C   UNL A   1      30.668  23.635  25.548  1.00  0.00    -0.026 A 
ATOM     22  C   UNL A   1      29.740  27.164  23.214  1.00  0.00     0.044 C 
ATOM     23  C   UNL A   1      30.029  25.925  24.009  1.00  0.00    -0.051 A 
ATOM     24  C   UNL A   1      29.907  25.949  25.401  1.00  0.00     0.004 A 
ATOM     25  C   UNL A   1      30.436  24.740  23.387  1.00  0.00     0.004 A 
ATOM     26  C   UNL A   1      30.229  24.821  26.160  1.00  0.00     0.006 A 
ATOM     27  C   UNL A   1      30.745  23.605  24.147  1.00  0.00     0.006 A 
ENDBRANCH  19  21
ENDBRANCH  16  19
ENDBRANCH   9  15
ENDBRANCH   5   8
ENDBRANCH   3   4
ENDBRANCH   2   3
ENDBRANCH   1   2
BRANCH   1  28
ATOM     28  C   UNL A   1      32.269  28.790  25.741  1.00  0.00     0.002 C 
BRANCH  28  29
ATOM     29  C   UNL A   1      32.737  30.130  26.316  1.00  0.00     0.021 C 
BRANCH  29  30
ATOM     30  C   UNL A   1      33.427  30.001  27.666  1.00  0.00     0.116 C 
BRANCH  30  31
ATOM     31  N   UNL A   1      34.074  31.226  28.106  1.00  0.00    -0.352 N 
ATOM     32  C   UNL A   1      35.310  31.411  28.702  1.00  0.00     0.251 C 
ATOM     33  H   UNL A   1      33.555  32.049  27.957  1.00  0.00     0.163 HD
ATOM     34  O   UNL A   1      35.585  32.509  29.162  1.00  0.00    -0.269 OA
BRANCH  32  35
ATOM     35  C   UNL A   1      36.317  30.317  28.670  1.00  0.00     0.039 A 
ATOM     36  C   UNL A   1      36.634  29.674  29.875  1.00  0.00     0.014 A 
ATOM     37  C   UNL A   1      37.070  30.065  27.529  1.00  0.00     0.014 A 
ATOM     38  C   UNL A   1      37.833  28.971  29.991  1.00  0.00     0.010 A 
ATOM     39  C   UNL A   1      38.301  29.459  27.662  1.00  0.00     0.010 A 
ATOM     40  C   UNL A   1      38.706  28.963  28.907  1.00  0.00    -0.014 A 
BRANCH  40  41
ATOM     41  C   UNL A   1      40.091  28.521  28.955  1.00  0.00     0.031 A 
ATOM     42  C   UNL A   1      40.431  27.105  28.724  1.00  0.00     0.074 A 
ATOM     43  C   UNL A   1      41.070  29.451  28.997  1.00  0.00     0.049 A 
ATOM     44  N   UNL A   1      41.579  26.585  28.997  1.00  0.00    -0.248 NA
ATOM     45  C   UNL A   1      39.470  26.145  28.202  1.00  0.00     0.031 C 
ATOM     46  C   UNL A   1      42.459  29.277  28.592  1.00  0.00     0.029 A 
ATOM     47  N   UNL A   1      41.047  30.697  29.630  1.00  0.00    -0.354 N 
ATOM     48  C   UNL A   1      41.606  25.319  28.450  1.00  0.00     0.074 A 
ATOM     49  C   UNL A   1      40.241  25.065  28.054  1.00  0.00     0.031 C 
ATOM     50  C   UNL A   1      43.205  30.204  29.211  1.00  0.00     0.029 A 
ATOM     51  C   UNL A   1      42.337  30.889  30.154  1.00  0.00     0.049 A 
ATOM     52  H   UNL A   1      40.284  31.314  29.697  1.00  0.00     0.167 HD
ATOM     53  C   UNL A   1      42.811  24.703  28.277  1.00  0.00     0.034 A 
ATOM     54  C   UNL A   1      42.612  31.098  31.472  1.00  0.00     0.034 A 
ATOM     55  C   UNL A   1      43.901  25.520  28.832  1.00  0.00     0.049 A 
ATOM     56  C   UNL A   1      43.612  30.113  32.047  1.00  0.00     0.074 A 
ATOM     57  C   UNL A   1      44.817  26.388  28.258  1.00  0.00     0.029 A 
ATOM     58  N   UNL A   1      44.004  25.689  30.206  1.00  0.00    -0.354 N 
ATOM     59  N   UNL A   1      44.044  29.057  31.418  1.00  0.00    -0.248 NA
ATOM     60  C   UNL A   1      44.180  30.220  33.387  1.00  0.00     0.031 C 
ATOM     61  C   UNL A   1      45.446  27.115  29.303  1.00  0.00     0.029 A 
ATOM     62  C   UNL A   1      44.930  26.673  30.510  1.00  0.00     0.049 A 
ATOM     63  H   UNL A   1      43.490  25.178  30.872  1.00  0.00     0.167 HD
ATOM     64  C   UNL A   1      44.805  28.284  32.259  1.00  0.00     0.074 A 
ATOM     65  C   UNL A   1      44.925  29.102  33.454  1.00  0.00     0.031 C 
ATOM     66  C   UNL A   1      45.203  27.021  31.902  1.00  0.00     0.034 A 
BRANCH  53  67
ATOM     67  C   UNL A   1      43.095  23.509  27.373  1.00  0.00     0.023 A 
ATOM     68  C   UNL A   1      43.986  23.719  26.293  1.00  0.00     0.012 A 
ATOM     69  C   UNL A   1      42.515  22.222  27.438  1.00  0.00     0.148 A 
ATOM     70  C   UNL A   1      44.197  22.769  25.287  1.00  0.00     0.002 A 
ATOM     71  C   UNL A   1      42.682  21.287  26.410  1.00  0.00     0.091 A 
ATOM     72  F   UNL A   1      41.851  21.843  28.528  1.00  0.00    -0.205 F 
ATOM     73  C   UNL A   1      43.517  21.563  25.327  1.00  0.00     0.022 A 
BRANCH  71  74
ATOM     74  S   UNL A   1      41.798  19.716  26.376  1.00  0.00     0.127 S 
ATOM     75  O   UNL A   1      42.331  19.093  25.161  1.00  0.00    -0.237 OA
ATOM     76  O   UNL A   1      42.229  19.084  27.621  1.00  0.00    -0.237 OA
ATOM     77  O   UNL A   1      40.379  20.043  26.304  1.00  0.00    -0.744 OA
ENDBRANCH  71  74
ENDBRANCH  53  67
BRANCH  54  78
ATOM     78  C   UNL A   1      41.507  31.754  32.224  1.00  0.00     0.023 A 
ATOM     79  C   UNL A   1      41.152  33.062  31.820  1.00  0.00     0.012 A 
ATOM     80  C   UNL A   1      40.598  31.008  32.993  1.00  0.00     0.148 A 
ATOM     81  C   UNL A   1      39.878  33.571  32.074  1.00  0.00     0.002 A 
ATOM     82  C   UNL A   1      39.324  31.520  33.236  1.00  0.00     0.091 A 
ATOM     83  F   UNL A   1      40.956  29.783  33.399  1.00  0.00    -0.205 F 
ATOM     84  C   UNL A   1      38.953  32.786  32.752  1.00  0.00     0.022 A 
BRANCH  82  85
ATOM     85  S   UNL A   1      38.042  30.538  34.030  1.00  0.00     0.127 S 
ATOM     86  O   UNL A   1      36.857  31.359  33.794  1.00  0.00    -0.237 OA
ATOM     87  O   UNL A   1      38.090  29.291  33.267  1.00  0.00    -0.237 OA
ATOM     88  O   UNL A   1      38.474  30.407  35.412  1.00  0.00    -0.744 OA
ENDBRANCH  82  85
ENDBRANCH  54  78
BRANCH  66  89
ATOM     89  C   UNL A   1      45.851  25.968  32.797  1.00  0.00     0.023 A 
ATOM     90  C   UNL A   1      47.244  25.810  32.916  1.00  0.00     0.012 A 
ATOM     91  C   UNL A   1      45.058  25.168  33.671  1.00  0.00     0.148 A 
ATOM     92  C   UNL A   1      47.821  24.908  33.823  1.00  0.00     0.002 A 
ATOM     93  C   UNL A   1      45.639  24.355  34.644  1.00  0.00     0.091 A 
ATOM     94  F   UNL A   1      43.723  25.161  33.555  1.00  0.00    -0.205 F 
ATOM     95  C   UNL A   1      47.021  24.202  34.709  1.00  0.00     0.022 A 
BRANCH  93  96
ATOM     96  S   UNL A   1      44.627  23.611  35.934  1.00  0.00     0.127 S 
ATOM     97  O   UNL A   1      43.623  22.887  35.158  1.00  0.00    -0.237 OA
ATOM     98  O   UNL A   1      45.585  22.753  36.636  1.00  0.00    -0.237 OA
ATOM     99  O   UNL A   1      44.152  24.739  36.723  1.00  0.00    -0.744 OA
ENDBRANCH  93  96
ENDBRANCH  66  89
ENDBRANCH  40  41
ENDBRANCH  32  35
ENDBRANCH  30  31
ENDBRANCH  29  30
ENDBRANCH  28  29
ENDBRANCH   1  28
TORSDOF 19
ENDMDL
MODEL 2
REMARK VINA RESULT:     -12.7      1.063      2.339
REMARK SMILES Cc1ccc([C@H](C)NC(=O)[C@H]2[C@@H]3CC[C@@H](C3)[C@@H]2C(=O)NCCCCCCNC(=O)c2ccc(-c3c4nc(c(-c5cccc(S(=O)(=O)[O-])c5F)c5ccc([nH]5)c(-c5cccc(S(=O)(=O)[O-])c5F)c5nc(c(-c6cccc(S(=O)(=O)[O-])c6F)c6ccc3[nH]6)C=C5)C=C4)cc2)cc1
REMARK SMILES IDX 23 1 22 2 21 3 20 4 18 5 19 6 17 8 11 9 12 10 13 11 16 12
REMARK SMILES IDX 15 13 14 14 9 15 8 16 10 18 6 19 7 20 5 21 1 22 2 23 3 24
REMARK SMILES IDX 94 25 4 26 93 27 24 28 25 29 26 30 27 31 28 32 29 34 30 35
REMARK SMILES IDX 31 36 92 37 32 38 91 39 33 40 34 41 35 42 85 43 36 44 90 45
REMARK SMILES IDX 84 46 86 47 37 48 89 49 83 50 82 51 38 53 70 54 50 55 69 56
REMARK SMILES IDX 51 57 54 58 68 59 87 60 52 61 53 62 67 64 88 65 55 66 39 67
REMARK SMILES IDX 40 68 48 69 41 70 43 71 49 72 42 73 44 74 45 75 46 76 47 77
REMARK SMILES IDX 71 78 72 79 80 80 73 81 75 82 81 83 74 84 76 85 77 86 78 87
REMARK SMILES IDX 79 88 56 89 57 90 65 91 58 92 60 93 66 94 59 95 61 96 62 97
REMARK SMILES IDX 63 98 64 99
REMARK H PARENT 20 7 8 17 27 33 86 52 54 63
REMARK Flexibility Score: inf
ROOT
ATOM      1  C   UNL A   1      32.718  27.806  27.252  1.00  0.00     0.002 C 
ENDROOT
BRANCH   1   2
ATOM      2  C   UNL A   1      33.507  27.059  26.167  1.00  0.00     0.021 C 
BRANCH   2   3
ATOM      3  C   UNL A   1      33.123  25.586  26.029  1.00  0.00     0.116 C 
BRANCH   3   4
ATOM      4  N   UNL A   1      34.300  24.745  26.068  1.00  0.00    -0.356 N 
ATOM      5  C   UNL A   1      34.680  23.683  25.315  1.00  0.00     0.224 C 
ATOM      6  O   UNL A   1      35.746  23.142  25.629  1.00  0.00    -0.275 OA
ATOM      7  H   UNL A   1      34.944  24.989  26.770  1.00  0.00     0.163 HD
BRANCH   5   8
ATOM      8  C   UNL A   1      33.960  23.284  24.028  1.00  0.00     0.094 C 
ATOM      9  C   UNL A   1      32.850  24.159  23.436  1.00  0.00     0.094 C 
ATOM     10  C   UNL A   1      31.658  23.184  23.256  1.00  0.00     0.002 C 
ATOM     11  C   UNL A   1      31.068  22.887  24.649  1.00  0.00     0.005 C 
ATOM     12  C   UNL A   1      32.339  21.857  22.943  1.00  0.00     0.009 C 
ATOM     13  C   UNL A   1      33.228  21.916  24.186  1.00  0.00     0.002 C 
ATOM     14  C   UNL A   1      32.149  22.003  25.290  1.00  0.00     0.005 C 
BRANCH   9  15
ATOM     15  C   UNL A   1      33.120  24.959  22.156  1.00  0.00     0.224 C 
ATOM     16  N   UNL A   1      33.118  26.300  22.003  1.00  0.00    -0.349 N 
ATOM     17  H   UNL A   1      33.238  26.561  21.062  1.00  0.00     0.164 HD
ATOM     18  O   UNL A   1      33.385  24.325  21.124  1.00  0.00    -0.275 OA
BRANCH  16  19
ATOM     19  C   UNL A   1      32.984  27.462  22.875  1.00  0.00     0.109 C 
ATOM     20  C   UNL A   1      33.900  28.585  22.378  1.00  0.00     0.036 C 
BRANCH  19  21
ATOM     21  C   UNL A   1      31.543  27.944  22.976  1.00  0.00    -0.026 A 
ATOM     22  C   UNL A   1      27.400  29.208  22.902  1.00  0.00     0.044 C 
ATOM     23  C   UNL A   1      28.837  28.779  22.965  1.00  0.00    -0.051 A 
ATOM     24  C   UNL A   1      29.818  29.543  22.328  1.00  0.00     0.004 A 
ATOM     25  C   UNL A   1      29.220  27.616  23.640  1.00  0.00     0.004 A 
ATOM     26  C   UNL A   1      31.151  29.126  22.328  1.00  0.00     0.006 A 
ATOM     27  C   UNL A   1      30.558  27.206  23.652  1.00  0.00     0.006 A 
ENDBRANCH  19  21
ENDBRANCH  16  19
ENDBRANCH   9  15
ENDBRANCH   5   8
ENDBRANCH   3   4
ENDBRANCH   2   3
ENDBRANCH   1   2
BRANCH   1  28
ATOM     28  C   UNL A   1      31.765  28.907  26.753  1.00  0.00     0.002 C 
BRANCH  28  29
ATOM     29  C   UNL A   1      32.353  30.320  26.705  1.00  0.00     0.021 C 
BRANCH  29  30
ATOM     30  C   UNL A   1      33.864  30.353  26.892  1.00  0.00     0.116 C 
BRANCH  30  31
ATOM     31  N   UNL A   1      34.310  31.379  27.820  1.00  0.00    -0.352 N 
ATOM     32  C   UNL A   1      35.314  31.335  28.773  1.00  0.00     0.251 C 
ATOM     33  H   UNL A   1      33.826  32.234  27.763  1.00  0.00     0.163 HD
ATOM     34  O   UNL A   1      35.404  32.251  29.577  1.00  0.00    -0.269 OA
BRANCH  32  35
ATOM     35  C   UNL A   1      36.327  30.248  28.730  1.00  0.00     0.039 A 
ATOM     36  C   UNL A   1      36.654  29.601  29.930  1.00  0.00     0.014 A 
ATOM     37  C   UNL A   1      37.076  30.006  27.584  1.00  0.00     0.014 A 
ATOM     38  C   UNL A   1      37.858  28.904  30.036  1.00  0.00     0.010 A 
ATOM     39  C   UNL A   1      38.311  29.407  27.708  1.00  0.00     0.010 A 
ATOM     40  C   UNL A   1      38.725  28.907  28.948  1.00  0.00    -0.014 A 
BRANCH  40  41
ATOM     41  C   UNL A   1      40.112  28.472  28.987  1.00  0.00     0.031 A 
ATOM     42  C   UNL A   1      40.460  27.058  28.752  1.00  0.00     0.074 A 
ATOM     43  C   UNL A   1      41.086  29.408  29.024  1.00  0.00     0.049 A 
ATOM     44  N   UNL A   1      41.612  26.545  29.017  1.00  0.00    -0.248 NA
ATOM     45  C   UNL A   1      39.500  26.094  28.235  1.00  0.00     0.031 C 
ATOM     46  C   UNL A   1      42.474  29.243  28.610  1.00  0.00     0.029 A 
ATOM     47  N   UNL A   1      41.061  30.653  29.659  1.00  0.00    -0.354 N 
ATOM     48  C   UNL A   1      41.643  25.280  28.469  1.00  0.00     0.074 A 
ATOM     49  C   UNL A   1      40.277  25.018  28.081  1.00  0.00     0.031 C 
ATOM     50  C   UNL A   1      43.219  30.173  29.225  1.00  0.00     0.029 A 
ATOM     51  C   UNL A   1      42.353  30.852  30.174  1.00  0.00     0.049 A 
ATOM     52  H   UNL A   1      40.294  31.266  29.731  1.00  0.00     0.167 HD
ATOM     53  C   UNL A   1      42.850  24.671  28.287  1.00  0.00     0.034 A 
ATOM     54  C   UNL A   1      42.635  31.061  31.491  1.00  0.00     0.034 A 
ATOM     55  C   UNL A   1      43.939  25.494  28.837  1.00  0.00     0.049 A 
ATOM     56  C   UNL A   1      43.644  30.081  32.058  1.00  0.00     0.074 A 
ATOM     57  C   UNL A   1      44.846  26.367  28.258  1.00  0.00     0.029 A 
ATOM     58  N   UNL A   1      44.049  25.661  30.210  1.00  0.00    -0.354 N 
ATOM     59  N   UNL A   1      44.078  29.028  31.425  1.00  0.00    -0.248 NA
ATOM     60  C   UNL A   1      44.220  30.190  33.395  1.00  0.00     0.031 C 
ATOM     61  C   UNL A   1      45.477  27.097  29.300  1.00  0.00     0.029 A 
ATOM     62  C   UNL A   1      44.972  26.651  30.509  1.00  0.00     0.049 A 
ATOM     63  H   UNL A   1      43.543  25.146  30.879  1.00  0.00     0.167 HD
ATOM     64  C   UNL A   1      44.849  28.259  32.261  1.00  0.00     0.074 A 
ATOM     65  C   UNL A   1      44.972  29.076  33.456  1.00  0.00     0.031 C 
ATOM     66  C   UNL A   1      45.252  26.998  31.900  1.00  0.00     0.034 A 
BRANCH  53  67
ATOM     67  C   UNL A   1      43.135  23.479  27.381  1.00  0.00     0.023 A 
ATOM     68  C   UNL A   1      43.987  23.705  26.273  1.00  0.00     0.012 A 
ATOM     69  C   UNL A   1      42.589  22.179  27.469  1.00  0.00     0.148 A 
ATOM     70  C   UNL A   1      44.191  22.755  25.265  1.00  0.00     0.002 A 
ATOM     71  C   UNL A   1      42.747  21.243  26.440  1.00  0.00     0.091 A 
ATOM     72  F   UNL A   1      41.968  21.789  28.580  1.00  0.00    -0.205 F 
ATOM     73  C   UNL A   1      43.542  21.534  25.330  1.00  0.00     0.022 A 
BRANCH  71  74
ATOM     74  S   UNL A   1      41.901  19.651  26.440  1.00  0.00     0.127 S 
ATOM     75  O   UNL A   1      40.495  20.054  26.520  1.00  0.00    -0.237 OA
ATOM     76  O   UNL A   1      42.298  19.083  25.153  1.00  0.00    -0.237 OA
ATOM     77  O   UNL A   1      42.381  18.929  27.612  1.00  0.00    -0.744 OA
ENDBRANCH  71  74
ENDBRANCH  53  67
BRANCH  54  78
ATOM     78  C   UNL A   1      41.531  31.710  32.250  1.00  0.00     0.023 A 
ATOM     79  C   UNL A   1      41.188  33.029  31.872  1.00  0.00     0.012 A 
ATOM     80  C   UNL A   1      40.612  30.955  33.000  1.00  0.00     0.148 A 
ATOM     81  C   UNL A   1      39.917  33.542  32.130  1.00  0.00     0.002 A 
ATOM     82  C   UNL A   1      39.341  31.472  33.246  1.00  0.00     0.091 A 
ATOM     83  F   UNL A   1      40.959  29.719  33.381  1.00  0.00    -0.205 F 
ATOM     84  C   UNL A   1      38.982  32.751  32.786  1.00  0.00     0.022 A 
BRANCH  82  85
ATOM     85  S   UNL A   1      38.047  30.484  34.013  1.00  0.00     0.127 S 
ATOM     86  O   UNL A   1      38.176  29.222  33.288  1.00  0.00    -0.237 OA
ATOM     87  O   UNL A   1      38.478  30.440  35.410  1.00  0.00    -0.237 OA
ATOM     88  O   UNL A   1      36.822  31.235  33.791  1.00  0.00    -0.744 OA
ENDBRANCH  82  85
ENDBRANCH  54  78
BRANCH  66  89
ATOM     89  C   UNL A   1      45.911  25.948  32.790  1.00  0.00     0.023 A 
ATOM     90  C   UNL A   1      47.301  25.874  32.993  1.00  0.00     0.012 A 
ATOM     91  C   UNL A   1      45.121  25.059  33.575  1.00  0.00     0.148 A 
ATOM     92  C   UNL A   1      47.880  24.969  33.896  1.00  0.00     0.002 A 
ATOM     93  C   UNL A   1      45.692  24.240  34.547  1.00  0.00     0.091 A 
ATOM     94  F   UNL A   1      43.799  24.971  33.371  1.00  0.00    -0.205 F 
ATOM     95  C   UNL A   1      47.075  24.173  34.697  1.00  0.00     0.022 A 
BRANCH  93  96
ATOM     96  S   UNL A   1      44.654  23.373  35.736  1.00  0.00     0.127 S 
ATOM     97  O   UNL A   1      44.078  24.475  36.502  1.00  0.00    -0.237 OA
ATOM     98  O   UNL A   1      43.701  22.669  34.874  1.00  0.00    -0.237 OA
ATOM     99  O   UNL A   1      45.570  22.493  36.449  1.00  0.00    -0.744 OA
ENDBRANCH  93  96
ENDBRANCH  66  89
ENDBRANCH  40  41
ENDBRANCH  32  35
ENDBRANCH  30  31
ENDBRANCH  29  30
ENDBRANCH  28  29
ENDBRANCH   1  28
TORSDOF 19
ENDMDL
MODEL 3
REMARK VINA RESULT:     -12.4      3.934      9.257
REMARK SMILES Cc1ccc([C@H](C)NC(=O)[C@H]2[C@@H]3CC[C@@H](C3)[C@@H]2C(=O)NCCCCCCNC(=O)c2ccc(-c3c4nc(c(-c5cccc(S(=O)(=O)[O-])c5F)c5ccc([nH]5)c(-c5cccc(S(=O)(=O)[O-])c5F)c5nc(c(-c6cccc(S(=O)(=O)[O-])c6F)c6ccc3[nH]6)C=C5)C=C4)cc2)cc1
REMARK SMILES IDX 23 1 22 2 21 3 20 4 18 5 19 6 17 8 11 9 12 10 13 11 16 12
REMARK SMILES IDX 15 13 14 14 9 15 8 16 10 18 6 19 7 20 5 21 1 22 2 23 3 24
REMARK SMILES IDX 94 25 4 26 93 27 24 28 25 29 26 30 27 31 28 32 29 34 30 35
REMARK SMILES IDX 31 36 92 37 32 38 91 39 33 40 34 41 35 42 85 43 36 44 90 45
REMARK SMILES IDX 84 46 86 47 37 48 89 49 83 50 82 51 38 53 70 54 50 55 69 56
REMARK SMILES IDX 51 57 54 58 68 59 87 60 52 61 53 62 67 64 88 65 55 66 39 67
REMARK SMILES IDX 40 68 48 69 41 70 43 71 49 72 42 73 44 74 45 75 46 76 47 77
REMARK SMILES IDX 71 78 72 79 80 80 73 81 75 82 81 83 74 84 76 85 77 86 78 87
REMARK SMILES IDX 79 88 56 89 57 90 65 91 58 92 60 93 66 94 59 95 61 96 62 97
REMARK SMILES IDX 63 98 64 99
REMARK H PARENT 20 7 8 17 27 33 86 52 54 63
REMARK Flexibility Score: inf
ROOT
ATOM      1  C   UNL A   1      36.170  23.659  24.341  1.00  0.00     0.002 C 
ENDROOT
BRANCH   1   2
ATOM      2  C   UNL A   1      34.658  23.844  24.539  1.00  0.00     0.021 C 
BRANCH   2   3
ATOM      3  C   UNL A   1      34.288  25.111  25.311  1.00  0.00     0.116 C 
BRANCH   3   4
ATOM      4  N   UNL A   1      32.958  25.000  25.868  1.00  0.00    -0.356 N 
ATOM      5  C   UNL A   1      31.935  25.887  25.957  1.00  0.00     0.224 C 
ATOM      6  O   UNL A   1      30.918  25.494  26.538  1.00  0.00    -0.275 OA
ATOM      7  H   UNL A   1      32.757  24.118  26.254  1.00  0.00     0.163 HD
BRANCH   5   8
ATOM      8  C   UNL A   1      31.936  27.224  25.217  1.00  0.00     0.094 C 
ATOM      9  C   UNL A   1      33.235  27.828  24.674  1.00  0.00     0.094 C 
ATOM     10  C   UNL A   1      33.258  29.262  25.264  1.00  0.00     0.002 C 
ATOM     11  C   UNL A   1      33.604  29.157  26.763  1.00  0.00     0.005 C 
ATOM     12  C   UNL A   1      31.782  29.633  25.336  1.00  0.00     0.009 C 
ATOM     13  C   UNL A   1      31.411  28.377  26.127  1.00  0.00     0.002 C 
ATOM     14  C   UNL A   1      32.325  28.553  27.361  1.00  0.00     0.005 C 
BRANCH   9  15
ATOM     15  C   UNL A   1      33.487  27.840  23.161  1.00  0.00     0.224 C 
ATOM     16  N   UNL A   1      32.645  27.454  22.180  1.00  0.00    -0.349 N 
ATOM     17  H   UNL A   1      33.077  27.481  21.296  1.00  0.00     0.164 HD
ATOM     18  O   UNL A   1      34.584  28.259  22.761  1.00  0.00    -0.275 OA
BRANCH  16  19
ATOM     19  C   UNL A   1      31.259  27.008  22.093  1.00  0.00     0.109 C 
ATOM     20  C   UNL A   1      31.076  25.734  22.924  1.00  0.00     0.036 C 
BRANCH  19  21
ATOM     21  C   UNL A   1      30.277  28.086  22.531  1.00  0.00    -0.026 A 
ATOM     22  C   UNL A   1      27.364  31.167  23.418  1.00  0.00     0.044 C 
ATOM     23  C   UNL A   1      28.382  30.098  23.148  1.00  0.00    -0.051 A 
ATOM     24  C   UNL A   1      29.556  30.416  22.461  1.00  0.00     0.004 A 
ATOM     25  C   UNL A   1      28.176  28.777  23.557  1.00  0.00     0.004 A 
ATOM     26  C   UNL A   1      30.487  29.422  22.151  1.00  0.00     0.006 A 
ATOM     27  C   UNL A   1      29.116  27.783  23.258  1.00  0.00     0.006 A 
ENDBRANCH  19  21
ENDBRANCH  16  19
ENDBRANCH   9  15
ENDBRANCH   5   8
ENDBRANCH   3   4
ENDBRANCH   2   3
ENDBRANCH   1   2
BRANCH   1  28
ATOM     28  C   UNL A   1      36.612  22.300  23.771  1.00  0.00     0.002 C 
BRANCH  28  29
ATOM     29  C   UNL A   1      37.550  21.482  24.662  1.00  0.00     0.021 C 
BRANCH  29  30
ATOM     30  C   UNL A   1      38.090  22.263  25.851  1.00  0.00     0.116 C 
BRANCH  30  31
ATOM     31  N   UNL A   1      39.518  22.093  26.057  1.00  0.00    -0.352 N 
ATOM     32  C   UNL A   1      40.494  23.038  26.326  1.00  0.00     0.251 C 
ATOM     33  H   UNL A   1      39.842  21.165  25.997  1.00  0.00     0.163 HD
ATOM     34  O   UNL A   1      41.668  22.703  26.282  1.00  0.00    -0.269 OA
BRANCH  32  35
ATOM     35  C   UNL A   1      40.100  24.400  26.775  1.00  0.00     0.039 A 
ATOM     36  C   UNL A   1      40.693  25.502  26.143  1.00  0.00     0.014 A 
ATOM     37  C   UNL A   1      39.323  24.587  27.912  1.00  0.00     0.014 A 
ATOM     38  C   UNL A   1      40.702  26.744  26.779  1.00  0.00     0.010 A 
ATOM     39  C   UNL A   1      39.413  25.782  28.593  1.00  0.00     0.010 A 
ATOM     40  C   UNL A   1      40.150  26.842  28.052  1.00  0.00    -0.014 A 
BRANCH  40  41
ATOM     41  C   UNL A   1      40.320  27.973  28.950  1.00  0.00     0.031 A 
ATOM     42  C   UNL A   1      39.399  29.123  28.886  1.00  0.00     0.074 A 
ATOM     43  C   UNL A   1      41.190  27.863  29.978  1.00  0.00     0.049 A 
ATOM     44  N   UNL A   1      39.623  30.259  29.453  1.00  0.00    -0.248 NA
ATOM     45  C   UNL A   1      38.157  29.088  28.128  1.00  0.00     0.031 C 
ATOM     46  C   UNL A   1      41.185  28.633  31.215  1.00  0.00     0.029 A 
ATOM     47  N   UNL A   1      42.403  27.168  30.009  1.00  0.00    -0.354 N 
ATOM     48  C   UNL A   1      38.465  31.003  29.371  1.00  0.00     0.074 A 
ATOM     49  C   UNL A   1      37.623  30.267  28.458  1.00  0.00     0.031 C 
ATOM     50  C   UNL A   1      42.416  28.605  31.744  1.00  0.00     0.029 A 
ATOM     51  C   UNL A   1      43.281  27.954  30.774  1.00  0.00     0.049 A 
ATOM     52  H   UNL A   1      42.602  26.304  29.582  1.00  0.00     0.167 HD
ATOM     53  C   UNL A   1      38.314  32.079  30.196  1.00  0.00     0.034 A 
ATOM     54  C   UNL A   1      44.471  28.443  30.324  1.00  0.00     0.034 A 
ATOM     55  C   UNL A   1      39.533  32.304  30.990  1.00  0.00     0.049 A 
ATOM     56  C   UNL A   1      44.600  29.948  30.460  1.00  0.00     0.074 A 
ATOM     57  C   UNL A   1      39.887  31.977  32.290  1.00  0.00     0.029 A 
ATOM     58  N   UNL A   1      40.690  32.744  30.364  1.00  0.00    -0.354 N 
ATOM     59  N   UNL A   1      43.622  30.738  30.803  1.00  0.00    -0.248 NA
ATOM     60  C   UNL A   1      45.830  30.685  30.191  1.00  0.00     0.031 C 
ATOM     61  C   UNL A   1      41.284  32.185  32.429  1.00  0.00     0.029 A 
ATOM     62  C   UNL A   1      41.773  32.660  31.224  1.00  0.00     0.049 A 
ATOM     63  H   UNL A   1      40.735  33.072  29.436  1.00  0.00     0.167 HD
ATOM     64  C   UNL A   1      44.009  32.049  30.676  1.00  0.00     0.074 A 
ATOM     65  C   UNL A   1      45.426  31.956  30.370  1.00  0.00     0.031 C 
ATOM     66  C   UNL A   1      43.101  33.073  30.776  1.00  0.00     0.034 A 
BRANCH  53  67
ATOM     67  C   UNL A   1      37.006  32.786  30.533  1.00  0.00     0.023 A 
ATOM     68  C   UNL A   1      36.546  32.683  31.868  1.00  0.00     0.012 A 
ATOM     69  C   UNL A   1      36.149  33.477  29.648  1.00  0.00     0.148 A 
ATOM     70  C   UNL A   1      35.281  33.128  32.271  1.00  0.00     0.002 A 
ATOM     71  C   UNL A   1      34.864  33.878  30.032  1.00  0.00     0.091 A 
ATOM     72  F   UNL A   1      36.581  33.832  28.439  1.00  0.00    -0.205 F 
ATOM     73  C   UNL A   1      34.424  33.695  31.343  1.00  0.00     0.022 A 
BRANCH  71  74
ATOM     74  S   UNL A   1      33.681  34.586  28.869  1.00  0.00     0.127 S 
ATOM     75  O   UNL A   1      32.565  34.941  29.748  1.00  0.00    -0.237 OA
ATOM     76  O   UNL A   1      34.415  35.727  28.328  1.00  0.00    -0.237 OA
ATOM     77  O   UNL A   1      33.370  33.535  27.907  1.00  0.00    -0.744 OA
ENDBRANCH  71  74
ENDBRANCH  53  67
BRANCH  54  78
ATOM     78  C   UNL A   1      45.107  27.607  29.268  1.00  0.00     0.023 A 
ATOM     79  C   UNL A   1      45.653  26.369  29.679  1.00  0.00     0.012 A 
ATOM     80  C   UNL A   1      44.832  27.813  27.905  1.00  0.00     0.148 A 
ATOM     81  C   UNL A   1      45.811  25.318  28.775  1.00  0.00     0.002 A 
ATOM     82  C   UNL A   1      44.985  26.755  27.009  1.00  0.00     0.091 A 
ATOM     83  F   UNL A   1      44.346  29.000  27.521  1.00  0.00    -0.205 F 
ATOM     84  C   UNL A   1      45.444  25.501  27.447  1.00  0.00     0.022 A 
BRANCH  82  85
ATOM     85  S   UNL A   1      44.455  26.881  25.294  1.00  0.00     0.127 S 
ATOM     86  O   UNL A   1      45.731  27.058  24.606  1.00  0.00    -0.237 OA
ATOM     87  O   UNL A   1      43.809  25.587  25.073  1.00  0.00    -0.237 OA
ATOM     88  O   UNL A   1      43.543  28.014  25.266  1.00  0.00    -0.744 OA
ENDBRANCH  82  85
ENDBRANCH  54  78
BRANCH  66  89
ATOM     89  C   UNL A   1      43.327  34.545  30.442  1.00  0.00     0.023 A 
ATOM     90  C   UNL A   1      43.686  35.506  31.405  1.00  0.00     0.012 A 
ATOM     91  C   UNL A   1      43.313  34.996  29.090  1.00  0.00     0.148 A 
ATOM     92  C   UNL A   1      43.992  36.832  31.063  1.00  0.00     0.002 A 
ATOM     93  C   UNL A   1      43.723  36.283  28.746  1.00  0.00     0.091 A 
ATOM     94  F   UNL A   1      42.874  34.190  28.114  1.00  0.00    -0.205 F 
ATOM     95  C   UNL A   1      44.042  37.215  29.732  1.00  0.00     0.022 A 
BRANCH  93  96
ATOM     96  S   UNL A   1      44.004  36.722  27.023  1.00  0.00     0.127 S 
ATOM     97  O   UNL A   1      42.650  36.690  26.474  1.00  0.00    -0.237 OA
ATOM     98  O   UNL A   1      44.584  38.063  27.125  1.00  0.00    -0.237 OA
ATOM     99  O   UNL A   1      44.929  35.710  26.532  1.00  0.00    -0.744 OA
ENDBRANCH  93  96
ENDBRANCH  66  89
ENDBRANCH  40  41
ENDBRANCH  32  35
ENDBRANCH  30  31
ENDBRANCH  29  30
ENDBRANCH  28  29
ENDBRANCH   1  28
TORSDOF 19
ENDMDL
