MODEL 1
REMARK VINA RESULT:     -12.0      0.000      0.000
REMARK SMILES Cc1nsc(NC(=O)c2ccc(N)cc2)c1C(=O)NCCCCCCNC(=O)c1ccc(-c2c3nc(c(-c4cccc(S(=O)(=O)[O-])c4F)c4ccc([nH]4)c(-c4cccc(S(=O)(=O)[O-])c4F)c4nc(c(-c5cccc(S(=O)(=O)[O-])c5F)c5ccc2[nH]5)C=C4)C=C3)cc1
REMARK SMILES IDX 22 1 21 2 20 3 19 4 17 5 18 6 16 8 1 9 2 10 3 11 4 12 5 13
REMARK SMILES IDX 6 14 7 15 8 17 9 18 10 19 15 20 11 21 14 22 12 23 13 24
REMARK SMILES IDX 23 27 24 28 25 29 26 30 27 31 28 33 29 34 30 35 91 36 31 37
REMARK SMILES IDX 90 38 32 39 33 40 34 41 84 42 35 43 89 44 83 45 85 46 36 47
REMARK SMILES IDX 88 48 82 49 81 50 37 52 69 53 49 54 68 55 50 56 53 57 67 58
REMARK SMILES IDX 86 59 51 60 52 61 66 63 87 64 54 65 38 66 39 67 47 68 40 69
REMARK SMILES IDX 42 70 48 71 41 72 43 73 44 74 45 75 46 76 70 77 71 78 79 79
REMARK SMILES IDX 72 80 74 81 80 82 73 83 75 84 76 85 77 86 78 87 55 88 56 89
REMARK SMILES IDX 64 90 57 91 59 92 65 93 58 94 60 95 61 96 62 97 63 98
REMARK H PARENT 19 7 6 16 13 25 13 26 26 32 85 51 53 62
REMARK Flexibility Score: inf
ROOT
ATOM      1  C   UNL A   1      38.966  22.050  26.092  1.00  0.00     0.002 C 
ENDROOT
BRANCH   1   2
ATOM      2  C   UNL A   1      38.462  23.462  26.409  1.00  0.00     0.021 C 
BRANCH   2   3
ATOM      3  C   UNL A   1      37.105  23.770  25.783  1.00  0.00     0.116 C 
BRANCH   3   4
ATOM      4  N   UNL A   1      37.096  23.471  24.384  1.00  0.00    -0.352 N 
ATOM      5  C   UNL A   1      36.145  23.039  23.511  1.00  0.00     0.256 C 
ATOM      6  O   UNL A   1      36.567  22.991  22.344  1.00  0.00    -0.269 OA
ATOM      7  H   UNL A   1      37.973  23.607  23.957  1.00  0.00     0.163 HD
BRANCH   5   8
ATOM      8  C   UNL A   1      34.746  22.677  23.810  1.00  0.00     0.097 A 
ATOM      9  C   UNL A   1      34.556  20.680  25.639  1.00  0.00     0.069 C 
ATOM     10  C   UNL A   1      34.062  21.701  24.672  1.00  0.00     0.066 A 
ATOM     11  N   UNL A   1      32.728  21.707  24.609  1.00  0.00    -0.195 NA
ATOM     12  S   UNL A   1      32.248  22.657  23.378  1.00  0.00    -0.017 S 
ATOM     13  C   UNL A   1      33.745  23.409  23.144  1.00  0.00     0.129 A 
BRANCH  13  14
ATOM     14  N   UNL A   1      33.908  24.513  22.315  1.00  0.00    -0.312 N 
ATOM     15  C   UNL A   1      33.559  25.836  22.452  1.00  0.00     0.256 C 
ATOM     16  H   UNL A   1      34.362  24.308  21.465  1.00  0.00     0.171 HD
ATOM     17  O   UNL A   1      33.683  26.622  21.511  1.00  0.00    -0.269 OA
BRANCH  15  18
ATOM     18  C   UNL A   1      33.076  26.382  23.732  1.00  0.00     0.040 A 
ATOM     19  C   UNL A   1      33.881  26.356  24.874  1.00  0.00     0.016 A 
ATOM     20  C   UNL A   1      31.776  26.885  23.791  1.00  0.00     0.016 A 
ATOM     21  C   UNL A   1      33.324  26.702  26.108  1.00  0.00     0.026 A 
ATOM     22  C   UNL A   1      31.241  27.250  25.026  1.00  0.00     0.026 A 
ATOM     23  C   UNL A   1      31.983  27.086  26.201  1.00  0.00     0.031 A 
BRANCH  23  24
ATOM     24  N   UNL A   1      31.435  27.431  27.432  1.00  0.00    -0.399 N 
ATOM     25  H   UNL A   1      30.604  27.956  27.470  1.00  0.00     0.156 HD
ATOM     26  H   UNL A   1      31.878  27.149  28.264  1.00  0.00     0.156 HD
ENDBRANCH  23  24
ENDBRANCH  15  18
ENDBRANCH  13  14
ENDBRANCH   5   8
ENDBRANCH   3   4
ENDBRANCH   2   3
ENDBRANCH   1   2
BRANCH   1  27
ATOM     27  C   UNL A   1      40.156  21.573  26.944  1.00  0.00     0.002 C 
BRANCH  27  28
ATOM     28  C   UNL A   1      40.787  20.231  26.535  1.00  0.00     0.021 C 
BRANCH  28  29
ATOM     29  C   UNL A   1      42.125  19.993  27.206  1.00  0.00     0.116 C 
BRANCH  29  30
ATOM     30  N   UNL A   1      43.213  19.879  26.221  1.00  0.00    -0.352 N 
ATOM     31  C   UNL A   1      43.797  20.867  25.442  1.00  0.00     0.251 C 
ATOM     32  H   UNL A   1      43.578  18.974  26.099  1.00  0.00     0.163 HD
ATOM     33  O   UNL A   1      44.447  20.591  24.451  1.00  0.00    -0.269 OA
BRANCH  31  34
ATOM     34  C   UNL A   1      43.625  22.263  25.875  1.00  0.00     0.039 A 
ATOM     35  C   UNL A   1      42.762  23.167  25.250  1.00  0.00     0.014 A 
ATOM     36  C   UNL A   1      44.351  22.630  26.996  1.00  0.00     0.014 A 
ATOM     37  C   UNL A   1      42.633  24.438  25.805  1.00  0.00     0.010 A 
ATOM     38  C   UNL A   1      43.957  23.711  27.709  1.00  0.00     0.010 A 
ATOM     39  C   UNL A   1      43.254  24.690  27.035  1.00  0.00    -0.014 A 
BRANCH  39  40
ATOM     40  C   UNL A   1      43.216  25.964  27.721  1.00  0.00     0.031 A 
ATOM     41  C   UNL A   1      44.319  26.877  27.357  1.00  0.00     0.074 A 
ATOM     42  C   UNL A   1      42.094  26.357  28.368  1.00  0.00     0.049 A 
ATOM     43  N   UNL A   1      45.310  27.232  28.101  1.00  0.00    -0.248 NA
ATOM     44  C   UNL A   1      44.439  27.303  25.955  1.00  0.00     0.031 C 
ATOM     45  C   UNL A   1      40.802  25.655  28.489  1.00  0.00     0.029 A 
ATOM     46  N   UNL A   1      41.819  27.560  28.924  1.00  0.00    -0.354 N 
ATOM     47  C   UNL A   1      46.035  28.139  27.337  1.00  0.00     0.074 A 
ATOM     48  C   UNL A   1      45.610  27.944  25.976  1.00  0.00     0.031 C 
ATOM     49  C   UNL A   1      39.839  26.534  28.845  1.00  0.00     0.029 A 
ATOM     50  C   UNL A   1      40.467  27.804  29.143  1.00  0.00     0.049 A 
ATOM     51  H   UNL A   1      42.520  28.212  29.155  1.00  0.00     0.167 HD
ATOM     52  C   UNL A   1      46.710  29.167  27.921  1.00  0.00     0.034 A 
ATOM     53  C   UNL A   1      39.913  28.990  29.495  1.00  0.00     0.034 A 
ATOM     54  C   UNL A   1      46.775  28.997  29.354  1.00  0.00     0.049 A 
ATOM     55  C   UNL A   1      41.002  29.803  30.090  1.00  0.00     0.074 A 
ATOM     56  C   UNL A   1      47.285  28.032  30.198  1.00  0.00     0.029 A 
ATOM     57  N   UNL A   1      45.863  29.709  30.100  1.00  0.00    -0.354 N 
ATOM     58  N   UNL A   1      41.618  29.464  31.191  1.00  0.00    -0.248 NA
ATOM     59  C   UNL A   1      41.740  30.697  29.211  1.00  0.00     0.031 C 
ATOM     60  C   UNL A   1      46.313  27.903  31.234  1.00  0.00     0.029 A 
ATOM     61  C   UNL A   1      45.308  28.848  31.011  1.00  0.00     0.049 A 
ATOM     62  H   UNL A   1      45.649  30.665  29.998  1.00  0.00     0.167 HD
ATOM     63  C   UNL A   1      42.960  29.707  30.926  1.00  0.00     0.074 A 
ATOM     64  C   UNL A   1      42.962  30.564  29.738  1.00  0.00     0.031 C 
ATOM     65  C   UNL A   1      43.945  28.947  31.495  1.00  0.00     0.034 A 
BRANCH  52  66
ATOM     66  C   UNL A   1      46.984  30.508  27.284  1.00  0.00     0.023 A 
ATOM     67  C   UNL A   1      48.293  31.022  27.422  1.00  0.00     0.012 A 
ATOM     68  C   UNL A   1      45.995  31.393  26.801  1.00  0.00     0.148 A 
ATOM     69  C   UNL A   1      48.587  32.362  27.151  1.00  0.00     0.002 A 
ATOM     70  C   UNL A   1      46.308  32.704  26.461  1.00  0.00     0.091 A 
ATOM     71  F   UNL A   1      44.711  31.027  26.793  1.00  0.00    -0.205 F 
ATOM     72  C   UNL A   1      47.595  33.204  26.664  1.00  0.00     0.022 A 
BRANCH  70  73
ATOM     73  S   UNL A   1      45.070  33.825  25.792  1.00  0.00     0.127 S 
ATOM     74  O   UNL A   1      44.234  34.067  26.963  1.00  0.00    -0.237 OA
ATOM     75  O   UNL A   1      45.892  34.958  25.369  1.00  0.00    -0.237 OA
ATOM     76  O   UNL A   1      44.443  33.101  24.693  1.00  0.00    -0.744 OA
ENDBRANCH  70  73
ENDBRANCH  52  66
BRANCH  53  77
ATOM     77  C   UNL A   1      38.606  29.562  29.093  1.00  0.00     0.023 A 
ATOM     78  C   UNL A   1      37.850  28.965  28.065  1.00  0.00     0.012 A 
ATOM     79  C   UNL A   1      37.975  30.537  29.901  1.00  0.00     0.148 A 
ATOM     80  C   UNL A   1      36.506  29.311  27.863  1.00  0.00     0.002 A 
ATOM     81  C   UNL A   1      36.642  30.881  29.694  1.00  0.00     0.091 A 
ATOM     82  F   UNL A   1      38.656  31.059  30.929  1.00  0.00    -0.205 F 
ATOM     83  C   UNL A   1      35.900  30.263  28.680  1.00  0.00     0.022 A 
BRANCH  81  84
ATOM     84  S   UNL A   1      35.790  32.078  30.732  1.00  0.00     0.127 S 
ATOM     85  O   UNL A   1      36.769  33.161  30.810  1.00  0.00    -0.237 OA
ATOM     86  O   UNL A   1      34.604  32.378  29.933  1.00  0.00    -0.237 OA
ATOM     87  O   UNL A   1      35.541  31.402  32.000  1.00  0.00    -0.744 OA
ENDBRANCH  81  84
ENDBRANCH  53  77
BRANCH  65  88
ATOM     88  C   UNL A   1      43.541  27.934  32.546  1.00  0.00     0.023 A 
ATOM     89  C   UNL A   1      43.841  26.559  32.419  1.00  0.00     0.012 A 
ATOM     90  C   UNL A   1      43.037  28.396  33.770  1.00  0.00     0.148 A 
ATOM     91  C   UNL A   1      43.629  25.666  33.474  1.00  0.00     0.002 A 
ATOM     92  C   UNL A   1      42.866  27.515  34.834  1.00  0.00     0.091 A 
ATOM     93  F   UNL A   1      42.773  29.707  33.888  1.00  0.00    -0.205 F 
ATOM     94  C   UNL A   1      43.152  26.148  34.688  1.00  0.00     0.022 A 
BRANCH  92  95
ATOM     95  S   UNL A   1      42.380  28.084  36.463  1.00  0.00     0.127 S 
ATOM     96  O   UNL A   1      42.431  26.849  37.244  1.00  0.00    -0.237 OA
ATOM     97  O   UNL A   1      43.430  29.052  36.781  1.00  0.00    -0.237 OA
ATOM     98  O   UNL A   1      41.054  28.669  36.309  1.00  0.00    -0.744 OA
ENDBRANCH  92  95
ENDBRANCH  65  88
ENDBRANCH  39  40
ENDBRANCH  31  34
ENDBRANCH  29  30
ENDBRANCH  28  29
ENDBRANCH  27  28
ENDBRANCH   1  27
TORSDOF 19
ENDMDL
MODEL 2
REMARK VINA RESULT:     -12.0      2.703      8.521
REMARK SMILES Cc1nsc(NC(=O)c2ccc(N)cc2)c1C(=O)NCCCCCCNC(=O)c1ccc(-c2c3nc(c(-c4cccc(S(=O)(=O)[O-])c4F)c4ccc([nH]4)c(-c4cccc(S(=O)(=O)[O-])c4F)c4nc(c(-c5cccc(S(=O)(=O)[O-])c5F)c5ccc2[nH]5)C=C4)C=C3)cc1
REMARK SMILES IDX 22 1 21 2 20 3 19 4 17 5 18 6 16 8 1 9 2 10 3 11 4 12 5 13
REMARK SMILES IDX 6 14 7 15 8 17 9 18 10 19 15 20 11 21 14 22 12 23 13 24
REMARK SMILES IDX 23 27 24 28 25 29 26 30 27 31 28 33 29 34 30 35 91 36 31 37
REMARK SMILES IDX 90 38 32 39 33 40 34 41 84 42 35 43 89 44 83 45 85 46 36 47
REMARK SMILES IDX 88 48 82 49 81 50 37 52 69 53 49 54 68 55 50 56 53 57 67 58
REMARK SMILES IDX 86 59 51 60 52 61 66 63 87 64 54 65 38 66 39 67 47 68 40 69
REMARK SMILES IDX 42 70 48 71 41 72 43 73 44 74 45 75 46 76 70 77 71 78 79 79
REMARK SMILES IDX 72 80 74 81 80 82 73 83 75 84 76 85 77 86 78 87 55 88 56 89
REMARK SMILES IDX 64 90 57 91 59 92 65 93 58 94 60 95 61 96 62 97 63 98
REMARK H PARENT 19 7 6 16 13 25 13 26 26 32 85 51 53 62
REMARK Flexibility Score: inf
ROOT
ATOM      1  C   UNL A   1      33.852  26.667  24.509  1.00  0.00     0.002 C 
ENDROOT
BRANCH   1   2
ATOM      2  C   UNL A   1      33.531  26.100  23.121  1.00  0.00     0.021 C 
BRANCH   2   3
ATOM      3  C   UNL A   1      32.054  26.211  22.755  1.00  0.00     0.116 C 
BRANCH   3   4
ATOM      4  N   UNL A   1      31.457  24.920  22.597  1.00  0.00    -0.352 N 
ATOM      5  C   UNL A   1      31.062  23.944  23.461  1.00  0.00     0.256 C 
ATOM      6  O   UNL A   1      30.504  23.001  22.878  1.00  0.00    -0.269 OA
ATOM      7  H   UNL A   1      31.295  24.685  21.655  1.00  0.00     0.163 HD
BRANCH   5   8
ATOM      8  C   UNL A   1      31.207  23.930  24.930  1.00  0.00     0.097 A 
ATOM      9  C   UNL A   1      30.506  26.291  26.068  1.00  0.00     0.069 C 
ATOM     10  C   UNL A   1      30.998  24.886  26.027  1.00  0.00     0.066 A 
ATOM     11  N   UNL A   1      31.289  24.436  27.251  1.00  0.00    -0.195 NA
ATOM     12  S   UNL A   1      32.042  22.998  27.135  1.00  0.00    -0.017 S 
ATOM     13  C   UNL A   1      31.651  22.727  25.511  1.00  0.00     0.129 A 
BRANCH  13  14
ATOM     14  N   UNL A   1      31.868  21.507  24.881  1.00  0.00    -0.312 N 
ATOM     15  C   UNL A   1      32.983  20.950  24.298  1.00  0.00     0.256 C 
ATOM     16  H   UNL A   1      31.071  20.931  24.844  1.00  0.00     0.171 HD
ATOM     17  O   UNL A   1      32.904  19.895  23.667  1.00  0.00    -0.269 OA
BRANCH  15  18
ATOM     18  C   UNL A   1      34.318  21.553  24.446  1.00  0.00     0.040 A 
ATOM     19  C   UNL A   1      35.190  21.135  25.456  1.00  0.00     0.016 A 
ATOM     20  C   UNL A   1      34.679  22.587  23.582  1.00  0.00     0.016 A 
ATOM     21  C   UNL A   1      36.363  21.857  25.687  1.00  0.00     0.026 A 
ATOM     22  C   UNL A   1      35.865  23.284  23.809  1.00  0.00     0.026 A 
ATOM     23  C   UNL A   1      36.674  22.976  24.908  1.00  0.00     0.031 A 
BRANCH  23  24
ATOM     24  N   UNL A   1      37.844  23.690  25.141  1.00  0.00    -0.399 N 
ATOM     25  H   UNL A   1      37.915  24.627  24.847  1.00  0.00     0.156 HD
ATOM     26  H   UNL A   1      38.600  23.259  25.601  1.00  0.00     0.156 HD
ENDBRANCH  23  24
ENDBRANCH  15  18
ENDBRANCH  13  14
ENDBRANCH   5   8
ENDBRANCH   3   4
ENDBRANCH   2   3
ENDBRANCH   1   2
BRANCH   1  27
ATOM     27  C   UNL A   1      33.624  28.181  24.666  1.00  0.00     0.002 C 
BRANCH  27  28
ATOM     28  C   UNL A   1      33.336  28.678  26.092  1.00  0.00     0.021 C 
BRANCH  28  29
ATOM     29  C   UNL A   1      34.557  29.293  26.747  1.00  0.00     0.116 C 
BRANCH  29  30
ATOM     30  N   UNL A   1      34.222  30.537  27.458  1.00  0.00    -0.352 N 
ATOM     31  C   UNL A   1      34.927  31.192  28.457  1.00  0.00     0.251 C 
ATOM     32  H   UNL A   1      33.380  30.965  27.186  1.00  0.00     0.163 HD
ATOM     33  O   UNL A   1      34.392  32.016  29.175  1.00  0.00    -0.269 OA
BRANCH  31  34
ATOM     34  C   UNL A   1      36.357  30.876  28.598  1.00  0.00     0.039 A 
ATOM     35  C   UNL A   1      37.330  31.822  28.935  1.00  0.00     0.014 A 
ATOM     36  C   UNL A   1      36.691  29.544  28.419  1.00  0.00     0.014 A 
ATOM     37  C   UNL A   1      38.639  31.378  29.113  1.00  0.00     0.010 A 
ATOM     38  C   UNL A   1      37.857  29.084  28.930  1.00  0.00     0.010 A 
ATOM     39  C   UNL A   1      38.879  29.999  29.093  1.00  0.00    -0.014 A 
BRANCH  39  40
ATOM     40  C   UNL A   1      40.187  29.398  29.250  1.00  0.00     0.031 A 
ATOM     41  C   UNL A   1      40.585  29.180  30.655  1.00  0.00     0.074 A 
ATOM     42  C   UNL A   1      40.801  28.817  28.192  1.00  0.00     0.049 A 
ATOM     43  N   UNL A   1      41.504  29.806  31.308  1.00  0.00    -0.248 NA
ATOM     44  C   UNL A   1      39.756  28.294  31.487  1.00  0.00     0.031 C 
ATOM     45  C   UNL A   1      40.316  28.673  26.806  1.00  0.00     0.029 A 
ATOM     46  N   UNL A   1      41.935  28.078  28.177  1.00  0.00    -0.354 N 
ATOM     47  C   UNL A   1      41.538  29.203  32.560  1.00  0.00     0.074 A 
ATOM     48  C   UNL A   1      40.300  28.482  32.691  1.00  0.00     0.031 C 
ATOM     49  C   UNL A   1      41.015  27.700  26.180  1.00  0.00     0.029 A 
ATOM     50  C   UNL A   1      42.094  27.280  27.049  1.00  0.00     0.049 A 
ATOM     51  H   UNL A   1      42.595  28.103  28.908  1.00  0.00     0.167 HD
ATOM     52  C   UNL A   1      42.702  29.111  33.262  1.00  0.00     0.034 A 
ATOM     53  C   UNL A   1      43.024  26.309  26.879  1.00  0.00     0.034 A 
ATOM     54  C   UNL A   1      43.733  29.929  32.666  1.00  0.00     0.049 A 
ATOM     55  C   UNL A   1      44.115  26.597  27.843  1.00  0.00     0.074 A 
ATOM     56  C   UNL A   1      43.871  31.274  32.392  1.00  0.00     0.029 A 
ATOM     57  N   UNL A   1      44.643  29.282  31.862  1.00  0.00    -0.354 N 
ATOM     58  N   UNL A   1      44.848  27.676  27.781  1.00  0.00    -0.248 NA
ATOM     59  C   UNL A   1      44.054  25.957  29.148  1.00  0.00     0.031 C 
ATOM     60  C   UNL A   1      44.493  31.321  31.108  1.00  0.00     0.029 A 
ATOM     61  C   UNL A   1      44.771  30.012  30.709  1.00  0.00     0.049 A 
ATOM     62  H   UNL A   1      45.117  28.446  32.076  1.00  0.00     0.167 HD
ATOM     63  C   UNL A   1      44.946  28.105  29.099  1.00  0.00     0.074 A 
ATOM     64  C   UNL A   1      44.532  26.952  29.903  1.00  0.00     0.031 C 
ATOM     65  C   UNL A   1      45.050  29.433  29.409  1.00  0.00     0.034 A 
BRANCH  52  66
ATOM     66  C   UNL A   1      43.046  28.019  34.246  1.00  0.00     0.023 A 
ATOM     67  C   UNL A   1      43.373  28.425  35.559  1.00  0.00     0.012 A 
ATOM     68  C   UNL A   1      43.323  26.677  33.902  1.00  0.00     0.148 A 
ATOM     69  C   UNL A   1      43.996  27.558  36.462  1.00  0.00     0.002 A 
ATOM     70  C   UNL A   1      43.873  25.797  34.827  1.00  0.00     0.091 A 
ATOM     71  F   UNL A   1      43.189  26.265  32.639  1.00  0.00    -0.205 F 
ATOM     72  C   UNL A   1      44.241  26.240  36.097  1.00  0.00     0.022 A 
BRANCH  70  73
ATOM     73  S   UNL A   1      44.178  24.072  34.419  1.00  0.00     0.127 S 
ATOM     74  O   UNL A   1      44.708  24.182  33.064  1.00  0.00    -0.237 OA
ATOM     75  O   UNL A   1      45.154  23.692  35.441  1.00  0.00    -0.237 OA
ATOM     76  O   UNL A   1      42.888  23.407  34.552  1.00  0.00    -0.744 OA
ENDBRANCH  70  73
ENDBRANCH  52  66
BRANCH  53  77
ATOM     77  C   UNL A   1      42.900  25.017  26.162  1.00  0.00     0.023 A 
ATOM     78  C   UNL A   1      43.826  24.664  25.160  1.00  0.00     0.012 A 
ATOM     79  C   UNL A   1      42.031  24.013  26.648  1.00  0.00     0.148 A 
ATOM     80  C   UNL A   1      43.897  23.351  24.674  1.00  0.00     0.002 A 
ATOM     81  C   UNL A   1      42.102  22.711  26.160  1.00  0.00     0.091 A 
ATOM     82  F   UNL A   1      41.198  24.313  27.653  1.00  0.00    -0.205 F 
ATOM     83  C   UNL A   1      43.041  22.373  25.178  1.00  0.00     0.022 A 
BRANCH  81  84
ATOM     84  S   UNL A   1      41.050  21.394  26.789  1.00  0.00     0.127 S 
ATOM     85  O   UNL A   1      41.359  21.417  28.218  1.00  0.00    -0.237 OA
ATOM     86  O   UNL A   1      39.718  21.883  26.440  1.00  0.00    -0.237 OA
ATOM     87  O   UNL A   1      41.474  20.180  26.101  1.00  0.00    -0.744 OA
ENDBRANCH  81  84
ENDBRANCH  53  77
BRANCH  65  88
ATOM     88  C   UNL A   1      45.214  30.417  28.268  1.00  0.00     0.023 A 
ATOM     89  C   UNL A   1      44.106  30.963  27.583  1.00  0.00     0.012 A 
ATOM     90  C   UNL A   1      46.485  30.952  28.018  1.00  0.00     0.148 A 
ATOM     91  C   UNL A   1      44.260  32.004  26.662  1.00  0.00     0.002 A 
ATOM     92  C   UNL A   1      46.633  32.017  27.132  1.00  0.00     0.091 A 
ATOM     93  F   UNL A   1      47.529  30.439  28.687  1.00  0.00    -0.205 F 
ATOM     94  C   UNL A   1      45.525  32.540  26.446  1.00  0.00     0.022 A 
BRANCH  92  95
ATOM     95  S   UNL A   1      48.208  32.841  26.901  1.00  0.00     0.127 S 
ATOM     96  O   UNL A   1      49.072  31.737  26.487  1.00  0.00    -0.237 OA
ATOM     97  O   UNL A   1      47.901  33.807  25.845  1.00  0.00    -0.237 OA
ATOM     98  O   UNL A   1      48.541  33.445  28.185  1.00  0.00    -0.744 OA
ENDBRANCH  92  95
ENDBRANCH  65  88
ENDBRANCH  39  40
ENDBRANCH  31  34
ENDBRANCH  29  30
ENDBRANCH  28  29
ENDBRANCH  27  28
ENDBRANCH   1  27
TORSDOF 19
ENDMDL
MODEL 3
REMARK VINA RESULT:     -11.9      2.765      7.083
REMARK SMILES Cc1nsc(NC(=O)c2ccc(N)cc2)c1C(=O)NCCCCCCNC(=O)c1ccc(-c2c3nc(c(-c4cccc(S(=O)(=O)[O-])c4F)c4ccc([nH]4)c(-c4cccc(S(=O)(=O)[O-])c4F)c4nc(c(-c5cccc(S(=O)(=O)[O-])c5F)c5ccc2[nH]5)C=C4)C=C3)cc1
REMARK SMILES IDX 22 1 21 2 20 3 19 4 17 5 18 6 16 8 1 9 2 10 3 11 4 12 5 13
REMARK SMILES IDX 6 14 7 15 8 17 9 18 10 19 15 20 11 21 14 22 12 23 13 24
REMARK SMILES IDX 23 27 24 28 25 29 26 30 27 31 28 33 29 34 30 35 91 36 31 37
REMARK SMILES IDX 90 38 32 39 33 40 34 41 84 42 35 43 89 44 83 45 85 46 36 47
REMARK SMILES IDX 88 48 82 49 81 50 37 52 69 53 49 54 68 55 50 56 53 57 67 58
REMARK SMILES IDX 86 59 51 60 52 61 66 63 87 64 54 65 38 66 39 67 47 68 40 69
REMARK SMILES IDX 42 70 48 71 41 72 43 73 44 74 45 75 46 76 70 77 71 78 79 79
REMARK SMILES IDX 72 80 74 81 80 82 73 83 75 84 76 85 77 86 78 87 55 88 56 89
REMARK SMILES IDX 64 90 57 91 59 92 65 93 58 94 60 95 61 96 62 97 63 98
REMARK H PARENT 19 7 6 16 13 25 13 26 26 32 85 51 53 62
REMARK Flexibility Score: inf
ROOT
ATOM      1  C   UNL A   1      37.250  22.311  25.068  1.00  0.00     0.002 C 
ENDROOT
BRANCH   1   2
ATOM      2  C   UNL A   1      36.777  23.722  25.439  1.00  0.00     0.021 C 
BRANCH   2   3
ATOM      3  C   UNL A   1      35.439  24.092  24.805  1.00  0.00     0.116 C 
BRANCH   3   4
ATOM      4  N   UNL A   1      34.754  25.086  25.574  1.00  0.00    -0.352 N 
ATOM      5  C   UNL A   1      33.562  25.729  25.449  1.00  0.00     0.256 C 
ATOM      6  O   UNL A   1      33.326  26.472  26.415  1.00  0.00    -0.269 OA
ATOM      7  H   UNL A   1      35.258  25.366  26.373  1.00  0.00     0.163 HD
BRANCH   5   8
ATOM      8  C   UNL A   1      32.582  25.604  24.352  1.00  0.00     0.097 A 
ATOM      9  C   UNL A   1      33.601  26.368  21.955  1.00  0.00     0.069 C 
ATOM     10  C   UNL A   1      32.567  25.872  22.905  1.00  0.00     0.066 A 
ATOM     11  N   UNL A   1      31.411  25.625  22.283  1.00  0.00    -0.195 NA
ATOM     12  S   UNL A   1      30.255  25.320  23.387  1.00  0.00    -0.017 S 
ATOM     13  C   UNL A   1      31.311  25.102  24.690  1.00  0.00     0.129 A 
BRANCH  13  14
ATOM     14  N   UNL A   1      30.894  24.604  25.918  1.00  0.00    -0.312 N 
ATOM     15  C   UNL A   1      31.136  23.415  26.568  1.00  0.00     0.256 C 
ATOM     16  H   UNL A   1      30.313  25.219  26.421  1.00  0.00     0.171 HD
ATOM     17  O   UNL A   1      30.537  23.131  27.606  1.00  0.00    -0.269 OA
BRANCH  15  18
ATOM     18  C   UNL A   1      32.150  22.462  26.087  1.00  0.00     0.040 A 
ATOM     19  C   UNL A   1      32.042  21.872  24.825  1.00  0.00     0.016 A 
ATOM     20  C   UNL A   1      33.201  22.125  26.940  1.00  0.00     0.016 A 
ATOM     21  C   UNL A   1      32.911  20.834  24.481  1.00  0.00     0.026 A 
ATOM     22  C   UNL A   1      34.077  21.103  26.574  1.00  0.00     0.026 A 
ATOM     23  C   UNL A   1      33.890  20.398  25.380  1.00  0.00     0.031 A 
BRANCH  23  24
ATOM     24  N   UNL A   1      34.753  19.365  25.031  1.00  0.00    -0.399 N 
ATOM     25  H   UNL A   1      35.206  18.845  25.734  1.00  0.00     0.156 HD
ATOM     26  H   UNL A   1      34.910  19.154  24.083  1.00  0.00     0.156 HD
ENDBRANCH  23  24
ENDBRANCH  15  18
ENDBRANCH  13  14
ENDBRANCH   5   8
ENDBRANCH   3   4
ENDBRANCH   2   3
ENDBRANCH   1   2
BRANCH   1  27
ATOM     27  C   UNL A   1      38.523  21.837  25.791  1.00  0.00     0.002 C 
BRANCH  27  28
ATOM     28  C   UNL A   1      39.139  20.522  25.285  1.00  0.00     0.021 C 
BRANCH  28  29
ATOM     29  C   UNL A   1      39.580  19.617  26.418  1.00  0.00     0.116 C 
BRANCH  29  30
ATOM     30  N   UNL A   1      40.853  18.945  26.112  1.00  0.00    -0.352 N 
ATOM     31  C   UNL A   1      42.105  19.500  25.891  1.00  0.00     0.251 C 
ATOM     32  H   UNL A   1      40.811  17.964  26.058  1.00  0.00     0.163 HD
ATOM     33  O   UNL A   1      42.987  18.873  25.335  1.00  0.00    -0.269 OA
BRANCH  31  34
ATOM     34  C   UNL A   1      42.338  20.868  26.380  1.00  0.00     0.039 A 
ATOM     35  C   UNL A   1      42.712  21.932  25.554  1.00  0.00     0.014 A 
ATOM     36  C   UNL A   1      42.113  21.061  27.733  1.00  0.00     0.014 A 
ATOM     37  C   UNL A   1      42.826  23.196  26.129  1.00  0.00     0.010 A 
ATOM     38  C   UNL A   1      41.884  22.315  28.189  1.00  0.00     0.010 A 
ATOM     39  C   UNL A   1      42.415  23.360  27.458  1.00  0.00    -0.014 A 
BRANCH  39  40
ATOM     40  C   UNL A   1      42.488  24.609  28.186  1.00  0.00     0.031 A 
ATOM     41  C   UNL A   1      41.297  25.467  28.032  1.00  0.00     0.074 A 
ATOM     42  C   UNL A   1      43.424  24.782  29.148  1.00  0.00     0.049 A 
ATOM     43  N   UNL A   1      41.222  26.585  27.394  1.00  0.00    -0.248 NA
ATOM     44  C   UNL A   1      39.997  24.944  28.480  1.00  0.00     0.031 C 
ATOM     45  C   UNL A   1      44.450  23.834  29.624  1.00  0.00     0.029 A 
ATOM     46  N   UNL A   1      43.548  25.802  30.030  1.00  0.00    -0.354 N 
ATOM     47  C   UNL A   1      39.920  27.031  27.589  1.00  0.00     0.074 A 
ATOM     48  C   UNL A   1      39.167  25.887  28.028  1.00  0.00     0.031 C 
ATOM     49  C   UNL A   1      44.898  24.220  30.839  1.00  0.00     0.029 A 
ATOM     50  C   UNL A   1      44.329  25.516  31.145  1.00  0.00     0.049 A 
ATOM     51  H   UNL A   1      43.119  26.678  29.893  1.00  0.00     0.167 HD
ATOM     52  C   UNL A   1      39.636  28.362  27.651  1.00  0.00     0.034 A 
ATOM     53  C   UNL A   1      44.447  26.280  32.259  1.00  0.00     0.034 A 
ATOM     54  C   UNL A   1      40.768  29.153  27.227  1.00  0.00     0.049 A 
ATOM     55  C   UNL A   1      44.037  27.653  31.873  1.00  0.00     0.074 A 
ATOM     56  C   UNL A   1      41.510  29.248  26.068  1.00  0.00     0.029 A 
ATOM     57  N   UNL A   1      41.551  29.689  28.224  1.00  0.00    -0.354 N 
ATOM     58  N   UNL A   1      44.689  28.366  30.995  1.00  0.00    -0.248 NA
ATOM     59  C   UNL A   1      42.644  28.026  32.072  1.00  0.00     0.031 C 
ATOM     60  C   UNL A   1      42.861  29.378  26.509  1.00  0.00     0.029 A 
ATOM     61  C   UNL A   1      42.860  29.436  27.906  1.00  0.00     0.049 A 
ATOM     62  H   UNL A   1      41.229  30.169  29.021  1.00  0.00     0.167 HD
ATOM     63  C   UNL A   1      43.697  28.943  30.211  1.00  0.00     0.074 A 
ATOM     64  C   UNL A   1      42.464  28.786  30.986  1.00  0.00     0.031 C 
ATOM     65  C   UNL A   1      43.905  29.211  28.885  1.00  0.00     0.034 A 
BRANCH  52  66
ATOM     66  C   UNL A   1      38.505  28.980  28.436  1.00  0.00     0.023 A 
ATOM     67  C   UNL A   1      37.574  29.755  27.710  1.00  0.00     0.012 A 
ATOM     68  C   UNL A   1      38.451  29.067  29.846  1.00  0.00     0.148 A 
ATOM     69  C   UNL A   1      36.677  30.615  28.350  1.00  0.00     0.002 A 
ATOM     70  C   UNL A   1      37.507  29.867  30.480  1.00  0.00     0.091 A 
ATOM     71  F   UNL A   1      39.395  28.490  30.592  1.00  0.00    -0.205 F 
ATOM     72  C   UNL A   1      36.639  30.667  29.737  1.00  0.00     0.022 A 
BRANCH  70  73
ATOM     73  S   UNL A   1      37.390  29.943  32.273  1.00  0.00     0.127 S 
ATOM     74  O   UNL A   1      36.245  30.829  32.453  1.00  0.00    -0.237 OA
ATOM     75  O   UNL A   1      37.152  28.541  32.616  1.00  0.00    -0.237 OA
ATOM     76  O   UNL A   1      38.677  30.456  32.726  1.00  0.00    -0.744 OA
ENDBRANCH  70  73
ENDBRANCH  52  66
BRANCH  53  77
ATOM     77  C   UNL A   1      44.605  25.851  33.669  1.00  0.00     0.023 A 
ATOM     78  C   UNL A   1      45.881  25.552  34.185  1.00  0.00     0.012 A 
ATOM     79  C   UNL A   1      43.535  25.993  34.582  1.00  0.00     0.148 A 
ATOM     80  C   UNL A   1      46.089  25.420  35.566  1.00  0.00     0.002 A 
ATOM     81  C   UNL A   1      43.744  25.858  35.952  1.00  0.00     0.091 A 
ATOM     82  F   UNL A   1      42.332  26.352  34.114  1.00  0.00    -0.205 F 
ATOM     83  C   UNL A   1      45.023  25.580  36.450  1.00  0.00     0.022 A 
BRANCH  81  84
ATOM     84  S   UNL A   1      42.420  26.083  37.149  1.00  0.00     0.127 S 
ATOM     85  O   UNL A   1      43.164  26.225  38.400  1.00  0.00    -0.237 OA
ATOM     86  O   UNL A   1      41.786  27.308  36.668  1.00  0.00    -0.237 OA
ATOM     87  O   UNL A   1      41.601  24.878  37.071  1.00  0.00    -0.744 OA
ENDBRANCH  81  84
ENDBRANCH  53  77
BRANCH  65  88
ATOM     88  C   UNL A   1      45.300  29.007  28.331  1.00  0.00     0.023 A 
ATOM     89  C   UNL A   1      46.355  29.905  28.603  1.00  0.00     0.012 A 
ATOM     90  C   UNL A   1      45.603  27.793  27.699  1.00  0.00     0.148 A 
ATOM     91  C   UNL A   1      47.674  29.611  28.243  1.00  0.00     0.002 A 
ATOM     92  C   UNL A   1      46.921  27.482  27.378  1.00  0.00     0.091 A 
ATOM     93  F   UNL A   1      44.596  26.938  27.461  1.00  0.00    -0.205 F 
ATOM     94  C   UNL A   1      47.958  28.391  27.640  1.00  0.00     0.022 A 
BRANCH  92  95
ATOM     95  S   UNL A   1      47.380  25.878  26.719  1.00  0.00     0.127 S 
ATOM     96  O   UNL A   1      48.809  26.052  26.463  1.00  0.00    -0.237 OA
ATOM     97  O   UNL A   1      47.062  24.982  27.831  1.00  0.00    -0.237 OA
ATOM     98  O   UNL A   1      46.554  25.676  25.534  1.00  0.00    -0.744 OA
ENDBRANCH  92  95
ENDBRANCH  65  88
ENDBRANCH  39  40
ENDBRANCH  31  34
ENDBRANCH  29  30
ENDBRANCH  28  29
ENDBRANCH  27  28
ENDBRANCH   1  27
TORSDOF 19
ENDMDL
