MODEL 1
REMARK VINA RESULT:     -10.9      0.000      0.000
REMARK SMILES CC(C)OCCS(=O)(=O)N[C@H]1COC[C@@H]1C(=O)NCCCCCCNC(=O)c1ccc(-c2c3nc(c(-c4cccc(S(=O)(=O)[O-])c4F)c4ccc([nH]4)c(-c4cccc(S(=O)(=O)[O-])c4F)c4nc(c(-c5cccc(S(=O)(=O)[O-])c5F)c5ccc2[nH]5)C=C4)C=C3)cc1
REMARK SMILES IDX 20 1 19 2 18 3 16 4 17 5 15 7 11 8 12 9 13 10 14 11 10 12
REMARK SMILES IDX 7 14 8 15 9 16 6 17 5 18 4 19 2 20 1 21 3 22 21 23 22 24
REMARK SMILES IDX 23 25 24 26 25 27 26 28 27 30 28 31 29 32 90 33 30 34 89 35
REMARK SMILES IDX 31 36 32 37 33 38 83 39 34 40 88 41 82 42 84 43 35 44 87 45
REMARK SMILES IDX 81 46 80 47 36 49 68 50 48 51 67 52 49 53 52 54 66 55 85 56
REMARK SMILES IDX 50 57 51 58 65 60 86 61 53 62 37 63 38 64 46 65 39 66 41 67
REMARK SMILES IDX 47 68 40 69 42 70 43 71 44 72 45 73 69 74 70 75 78 76 71 77
REMARK SMILES IDX 73 78 79 79 72 80 74 81 75 82 76 83 77 84 54 85 55 86 63 87
REMARK SMILES IDX 56 88 58 89 64 90 57 91 59 92 60 93 61 94 62 95
REMARK H PARENT 18 6 10 13 25 29 84 48 52 59
REMARK Flexibility Score: inf
ROOT
ATOM      1  C   UNL A   1      36.705  22.895  24.778  1.00  0.00     0.021 C 
ENDROOT
BRANCH   1   2
ATOM      2  C   UNL A   1      35.568  23.867  24.541  1.00  0.00     0.116 C 
BRANCH   2   3
ATOM      3  N   UNL A   1      35.030  24.069  23.232  1.00  0.00    -0.356 N 
ATOM      4  C   UNL A   1      33.739  24.443  22.958  1.00  0.00     0.227 C 
ATOM      5  O   UNL A   1      33.400  24.491  21.768  1.00  0.00    -0.275 OA
ATOM      6  H   UNL A   1      35.633  23.927  22.467  1.00  0.00     0.163 HD
BRANCH   4   7
ATOM      7  C   UNL A   1      32.710  24.907  24.065  1.00  0.00     0.124 C 
ATOM      8  C   UNL A   1      30.796  24.397  24.068  1.00  0.00     0.110 C 
ATOM      9  C   UNL A   1      29.709  26.095  23.974  1.00  0.00     0.181 C 
ATOM     10  O   UNL A   1      30.937  27.547  24.198  1.00  0.00    -0.379 OA
ATOM     11  C   UNL A   1      32.756  26.915  24.262  1.00  0.00     0.175 C 
BRANCH   8  12
ATOM     12  N   UNL A   1      30.436  23.401  25.112  1.00  0.00    -0.209 NA
ATOM     13  H   UNL A   1      29.416  23.376  25.127  1.00  0.00     0.141 HD
BRANCH  12  14
ATOM     14  S   UNL A   1      30.902  23.486  26.714  1.00  0.00     0.214 S 
ATOM     15  O   UNL A   1      29.898  22.921  27.579  1.00  0.00    -0.212 OA
ATOM     16  O   UNL A   1      31.307  24.862  26.897  1.00  0.00    -0.212 OA
BRANCH  14  17
ATOM     17  C   UNL A   1      32.370  22.512  26.723  1.00  0.00     0.182 C 
BRANCH  17  18
ATOM     18  C   UNL A   1      32.684  21.662  25.507  1.00  0.00     0.178 C 
BRANCH  18  19
ATOM     19  O   UNL A   1      31.870  20.597  25.071  1.00  0.00    -0.378 OA
BRANCH  19  20
ATOM     20  C   UNL A   1      32.215  19.197  24.615  1.00  0.00     0.112 C 
ATOM     21  C   UNL A   1      32.350  18.676  22.485  1.00  0.00     0.038 C 
ATOM     22  C   UNL A   1      32.973  18.518  25.997  1.00  0.00     0.038 C 
ENDBRANCH  19  20
ENDBRANCH  18  19
ENDBRANCH  17  18
ENDBRANCH  14  17
ENDBRANCH  12  14
ENDBRANCH   8  12
ENDBRANCH   4   7
ENDBRANCH   2   3
ENDBRANCH   1   2
BRANCH   1  23
ATOM     23  C   UNL A   1      36.405  21.701  25.664  1.00  0.00     0.002 C 
BRANCH  23  24
ATOM     24  C   UNL A   1      36.416  20.325  24.986  1.00  0.00     0.002 C 
BRANCH  24  25
ATOM     25  C   UNL A   1      37.751  19.570  24.945  1.00  0.00     0.021 C 
BRANCH  25  26
ATOM     26  C   UNL A   1      38.853  20.100  25.860  1.00  0.00     0.116 C 
BRANCH  26  27
ATOM     27  N   UNL A   1      40.030  19.242  25.885  1.00  0.00    -0.352 N 
ATOM     28  C   UNL A   1      41.349  19.557  26.083  1.00  0.00     0.251 C 
ATOM     29  H   UNL A   1      39.849  18.285  25.737  1.00  0.00     0.163 HD
ATOM     30  O   UNL A   1      42.219  18.707  25.914  1.00  0.00    -0.269 OA
BRANCH  28  31
ATOM     31  C   UNL A   1      41.717  20.926  26.488  1.00  0.00     0.039 A 
ATOM     32  C   UNL A   1      41.935  21.199  27.842  1.00  0.00     0.014 A 
ATOM     33  C   UNL A   1      41.849  21.931  25.530  1.00  0.00     0.014 A 
ATOM     34  C   UNL A   1      42.351  22.475  28.228  1.00  0.00     0.010 A 
ATOM     35  C   UNL A   1      42.330  23.177  25.908  1.00  0.00     0.010 A 
ATOM     36  C   UNL A   1      42.582  23.463  27.260  1.00  0.00    -0.014 A 
BRANCH  36  37
ATOM     37  C   UNL A   1      43.080  24.814  27.615  1.00  0.00     0.031 A 
ATOM     38  C   UNL A   1      42.136  25.809  28.229  1.00  0.00     0.074 A 
ATOM     39  C   UNL A   1      44.328  25.182  27.266  1.00  0.00     0.049 A 
ATOM     40  N   UNL A   1      42.305  27.086  28.443  1.00  0.00    -0.248 NA
ATOM     41  C   UNL A   1      40.807  25.305  28.622  1.00  0.00     0.031 C 
ATOM     42  C   UNL A   1      45.316  24.318  26.617  1.00  0.00     0.029 A 
ATOM     43  N   UNL A   1      44.964  26.395  27.367  1.00  0.00    -0.354 N 
ATOM     44  C   UNL A   1      41.096  27.548  28.947  1.00  0.00     0.074 A 
ATOM     45  C   UNL A   1      40.192  26.421  28.982  1.00  0.00     0.031 C 
ATOM     46  C   UNL A   1      46.425  25.031  26.362  1.00  0.00     0.029 A 
ATOM     47  C   UNL A   1      46.211  26.411  26.786  1.00  0.00     0.049 A 
ATOM     48  H   UNL A   1      44.565  27.178  27.811  1.00  0.00     0.167 HD
ATOM     49  C   UNL A   1      40.776  28.796  29.362  1.00  0.00     0.034 A 
ATOM     50  C   UNL A   1      47.071  27.429  26.587  1.00  0.00     0.034 A 
ATOM     51  C   UNL A   1      41.694  29.900  29.357  1.00  0.00     0.049 A 
ATOM     52  C   UNL A   1      46.697  28.805  27.071  1.00  0.00     0.074 A 
ATOM     53  C   UNL A   1      41.496  31.184  29.828  1.00  0.00     0.029 A 
ATOM     54  N   UNL A   1      42.983  29.853  28.848  1.00  0.00    -0.354 N 
ATOM     55  N   UNL A   1      45.593  29.199  27.658  1.00  0.00    -0.248 NA
ATOM     56  C   UNL A   1      47.694  29.871  26.896  1.00  0.00     0.031 C 
ATOM     57  C   UNL A   1      42.652  31.925  29.571  1.00  0.00     0.029 A 
ATOM     58  C   UNL A   1      43.588  31.088  28.984  1.00  0.00     0.049 A 
ATOM     59  H   UNL A   1      43.404  29.057  28.449  1.00  0.00     0.167 HD
ATOM     60  C   UNL A   1      45.782  30.541  27.967  1.00  0.00     0.074 A 
ATOM     61  C   UNL A   1      47.107  30.894  27.503  1.00  0.00     0.031 C 
ATOM     62  C   UNL A   1      44.933  31.403  28.575  1.00  0.00     0.034 A 
BRANCH  49  63
ATOM     63  C   UNL A   1      39.382  29.026  29.887  1.00  0.00     0.023 A 
ATOM     64  C   UNL A   1      39.062  28.662  31.210  1.00  0.00     0.012 A 
ATOM     65  C   UNL A   1      38.406  29.654  29.087  1.00  0.00     0.148 A 
ATOM     66  C   UNL A   1      37.782  28.881  31.718  1.00  0.00     0.002 A 
ATOM     67  C   UNL A   1      37.149  29.915  29.617  1.00  0.00     0.091 A 
ATOM     68  F   UNL A   1      38.723  29.975  27.826  1.00  0.00    -0.205 F 
ATOM     69  C   UNL A   1      36.830  29.517  30.926  1.00  0.00     0.022 A 
BRANCH  67  70
ATOM     70  S   UNL A   1      35.881  30.804  28.707  1.00  0.00     0.127 S 
ATOM     71  O   UNL A   1      35.328  29.745  27.862  1.00  0.00    -0.237 OA
ATOM     72  O   UNL A   1      34.993  31.254  29.780  1.00  0.00    -0.237 OA
ATOM     73  O   UNL A   1      36.568  31.873  27.997  1.00  0.00    -0.744 OA
ENDBRANCH  67  70
ENDBRANCH  49  63
BRANCH  50  74
ATOM     74  C   UNL A   1      48.384  27.180  25.928  1.00  0.00     0.023 A 
ATOM     75  C   UNL A   1      49.465  26.701  26.694  1.00  0.00     0.012 A 
ATOM     76  C   UNL A   1      48.561  27.392  24.547  1.00  0.00     0.148 A 
ATOM     77  C   UNL A   1      50.709  26.473  26.104  1.00  0.00     0.002 A 
ATOM     78  C   UNL A   1      49.787  27.110  23.954  1.00  0.00     0.091 A 
ATOM     79  F   UNL A   1      47.522  27.853  23.837  1.00  0.00    -0.205 F 
ATOM     80  C   UNL A   1      50.867  26.668  24.734  1.00  0.00     0.022 A 
BRANCH  78  81
ATOM     81  S   UNL A   1      50.047  27.213  22.180  1.00  0.00     0.127 S 
ATOM     82  O   UNL A   1      49.868  28.642  21.935  1.00  0.00    -0.237 OA
ATOM     83  O   UNL A   1      51.423  26.733  22.050  1.00  0.00    -0.237 OA
ATOM     84  O   UNL A   1      49.045  26.341  21.581  1.00  0.00    -0.744 OA
ENDBRANCH  78  81
ENDBRANCH  50  74
BRANCH  62  85
ATOM     85  C   UNL A   1      45.419  32.800  28.856  1.00  0.00     0.023 A 
ATOM     86  C   UNL A   1      46.157  33.074  30.023  1.00  0.00     0.012 A 
ATOM     87  C   UNL A   1      45.250  33.809  27.886  1.00  0.00     0.148 A 
ATOM     88  C   UNL A   1      46.708  34.339  30.227  1.00  0.00     0.002 A 
ATOM     89  C   UNL A   1      45.846  35.048  28.071  1.00  0.00     0.091 A 
ATOM     90  F   UNL A   1      44.529  33.526  26.791  1.00  0.00    -0.205 F 
ATOM     91  C   UNL A   1      46.568  35.319  29.245  1.00  0.00     0.022 A 
BRANCH  89  92
ATOM     92  S   UNL A   1      45.811  36.333  26.817  1.00  0.00     0.127 S 
ATOM     93  O   UNL A   1      46.238  35.598  25.627  1.00  0.00    -0.237 OA
ATOM     94  O   UNL A   1      44.403  36.727  26.819  1.00  0.00    -0.237 OA
ATOM     95  O   UNL A   1      46.734  37.366  27.269  1.00  0.00    -0.744 OA
ENDBRANCH  89  92
ENDBRANCH  62  85
ENDBRANCH  36  37
ENDBRANCH  28  31
ENDBRANCH  26  27
ENDBRANCH  25  26
ENDBRANCH  24  25
ENDBRANCH  23  24
ENDBRANCH   1  23
TORSDOF 22
ENDMDL
MODEL 2
REMARK VINA RESULT:     -10.5      6.474     11.076
REMARK SMILES CC(C)OCCS(=O)(=O)N[C@H]1COC[C@@H]1C(=O)NCCCCCCNC(=O)c1ccc(-c2c3nc(c(-c4cccc(S(=O)(=O)[O-])c4F)c4ccc([nH]4)c(-c4cccc(S(=O)(=O)[O-])c4F)c4nc(c(-c5cccc(S(=O)(=O)[O-])c5F)c5ccc2[nH]5)C=C4)C=C3)cc1
REMARK SMILES IDX 20 1 19 2 18 3 16 4 17 5 15 7 11 8 12 9 13 10 14 11 10 12
REMARK SMILES IDX 7 14 8 15 9 16 6 17 5 18 4 19 2 20 1 21 3 22 21 23 22 24
REMARK SMILES IDX 23 25 24 26 25 27 26 28 27 30 28 31 29 32 90 33 30 34 89 35
REMARK SMILES IDX 31 36 32 37 33 38 83 39 34 40 88 41 82 42 84 43 35 44 87 45
REMARK SMILES IDX 81 46 80 47 36 49 68 50 48 51 67 52 49 53 52 54 66 55 85 56
REMARK SMILES IDX 50 57 51 58 65 60 86 61 53 62 37 63 38 64 46 65 39 66 41 67
REMARK SMILES IDX 47 68 40 69 42 70 43 71 44 72 45 73 69 74 70 75 78 76 71 77
REMARK SMILES IDX 73 78 79 79 72 80 74 81 75 82 76 83 77 84 54 85 55 86 63 87
REMARK SMILES IDX 56 88 58 89 64 90 57 91 59 92 60 93 61 94 62 95
REMARK H PARENT 18 6 10 13 25 29 84 48 52 59
REMARK Flexibility Score: inf
ROOT
ATOM      1  C   UNL A   1      31.960  28.078  25.960  1.00  0.00     0.021 C 
ENDROOT
BRANCH   1   2
ATOM      2  C   UNL A   1      33.375  27.883  25.455  1.00  0.00     0.116 C 
BRANCH   2   3
ATOM      3  N   UNL A   1      33.764  28.338  24.157  1.00  0.00    -0.356 N 
ATOM      4  C   UNL A   1      33.634  27.619  22.997  1.00  0.00     0.227 C 
ATOM      5  O   UNL A   1      34.099  28.116  21.963  1.00  0.00    -0.275 OA
ATOM      6  H   UNL A   1      34.157  29.238  24.091  1.00  0.00     0.163 HD
BRANCH   4   7
ATOM      7  C   UNL A   1      32.840  26.254  22.899  1.00  0.00     0.124 C 
ATOM      8  C   UNL A   1      33.238  24.670  24.021  1.00  0.00     0.110 C 
ATOM      9  C   UNL A   1      33.730  23.152  22.786  1.00  0.00     0.181 C 
ATOM     10  O   UNL A   1      33.355  23.747  21.006  1.00  0.00    -0.379 OA
ATOM     11  C   UNL A   1      32.815  25.597  20.991  1.00  0.00     0.175 C 
BRANCH   8  12
ATOM     12  N   UNL A   1      32.223  24.405  25.075  1.00  0.00    -0.209 NA
ATOM     13  H   UNL A   1      32.113  25.288  25.576  1.00  0.00     0.141 HD
BRANCH  12  14
ATOM     14  S   UNL A   1      32.358  23.235  26.259  1.00  0.00     0.214 S 
ATOM     15  O   UNL A   1      31.579  23.579  27.421  1.00  0.00    -0.212 OA
ATOM     16  O   UNL A   1      33.782  23.023  26.392  1.00  0.00    -0.212 OA
BRANCH  14  17
ATOM     17  C   UNL A   1      31.700  21.815  25.449  1.00  0.00     0.182 C 
BRANCH  17  18
ATOM     18  C   UNL A   1      32.558  20.568  25.360  1.00  0.00     0.178 C 
BRANCH  18  19
ATOM     19  O   UNL A   1      32.170  19.403  24.669  1.00  0.00    -0.378 OA
BRANCH  19  20
ATOM     20  C   UNL A   1      32.981  18.369  23.921  1.00  0.00     0.112 C 
ATOM     21  C   UNL A   1      34.168  16.849  24.972  1.00  0.00     0.038 C 
ATOM     22  C   UNL A   1      32.255  18.363  22.365  1.00  0.00     0.038 C 
ENDBRANCH  19  20
ENDBRANCH  18  19
ENDBRANCH  17  18
ENDBRANCH  14  17
ENDBRANCH  12  14
ENDBRANCH   8  12
ENDBRANCH   4   7
ENDBRANCH   2   3
ENDBRANCH   1   2
BRANCH   1  23
ATOM     23  C   UNL A   1      31.776  29.049  27.111  1.00  0.00     0.002 C 
BRANCH  23  24
ATOM     24  C   UNL A   1      32.824  30.161  27.244  1.00  0.00     0.002 C 
BRANCH  24  25
ATOM     25  C   UNL A   1      32.324  31.611  27.200  1.00  0.00     0.021 C 
BRANCH  25  26
ATOM     26  C   UNL A   1      33.397  32.696  27.255  1.00  0.00     0.116 C 
BRANCH  26  27
ATOM     27  N   UNL A   1      32.919  33.935  27.854  1.00  0.00    -0.352 N 
ATOM     28  C   UNL A   1      33.318  34.573  28.999  1.00  0.00     0.251 C 
ATOM     29  H   UNL A   1      32.197  34.384  27.358  1.00  0.00     0.163 HD
ATOM     30  O   UNL A   1      32.683  35.536  29.421  1.00  0.00    -0.269 OA
BRANCH  28  31
ATOM     31  C   UNL A   1      34.506  34.090  29.726  1.00  0.00     0.039 A 
ATOM     32  C   UNL A   1      34.335  33.219  30.807  1.00  0.00     0.014 A 
ATOM     33  C   UNL A   1      35.782  34.498  29.336  1.00  0.00     0.014 A 
ATOM     34  C   UNL A   1      35.457  32.703  31.458  1.00  0.00     0.010 A 
ATOM     35  C   UNL A   1      36.896  33.929  29.940  1.00  0.00     0.010 A 
ATOM     36  C   UNL A   1      36.745  33.030  31.008  1.00  0.00    -0.014 A 
BRANCH  36  37
ATOM     37  C   UNL A   1      37.964  32.461  31.631  1.00  0.00     0.031 A 
ATOM     38  C   UNL A   1      38.674  31.322  30.955  1.00  0.00     0.074 A 
ATOM     39  C   UNL A   1      38.350  32.876  32.854  1.00  0.00     0.049 A 
ATOM     40  N   UNL A   1      39.634  30.561  31.407  1.00  0.00    -0.248 NA
ATOM     41  C   UNL A   1      38.215  30.967  29.600  1.00  0.00     0.031 C 
ATOM     42  C   UNL A   1      37.706  33.938  33.629  1.00  0.00     0.029 A 
ATOM     43  N   UNL A   1      39.349  32.421  33.678  1.00  0.00    -0.354 N 
ATOM     44  C   UNL A   1      39.860  29.611  30.420  1.00  0.00     0.074 A 
ATOM     45  C   UNL A   1      38.919  29.873  29.354  1.00  0.00     0.031 C 
ATOM     46  C   UNL A   1      38.313  34.042  34.822  1.00  0.00     0.029 A 
ATOM     47  C   UNL A   1      39.356  33.026  34.915  1.00  0.00     0.049 A 
ATOM     48  H   UNL A   1      39.995  31.730  33.412  1.00  0.00     0.167 HD
ATOM     49  C   UNL A   1      40.784  28.622  30.394  1.00  0.00     0.034 A 
ATOM     50  C   UNL A   1      40.098  32.768  36.010  1.00  0.00     0.034 A 
ATOM     51  C   UNL A   1      41.738  28.394  31.443  1.00  0.00     0.049 A 
ATOM     52  C   UNL A   1      41.129  31.672  35.952  1.00  0.00     0.074 A 
ATOM     53  C   UNL A   1      42.766  27.470  31.483  1.00  0.00     0.029 A 
ATOM     54  N   UNL A   1      41.777  29.091  32.641  1.00  0.00    -0.354 N 
ATOM     55  N   UNL A   1      41.413  30.862  34.962  1.00  0.00    -0.248 NA
ATOM     56  C   UNL A   1      41.962  31.473  37.147  1.00  0.00     0.031 C 
ATOM     57  C   UNL A   1      43.404  27.583  32.721  1.00  0.00     0.029 A 
ATOM     58  C   UNL A   1      42.804  28.611  33.431  1.00  0.00     0.049 A 
ATOM     59  H   UNL A   1      41.164  29.818  32.891  1.00  0.00     0.167 HD
ATOM     60  C   UNL A   1      42.487  30.093  35.394  1.00  0.00     0.074 A 
ATOM     61  C   UNL A   1      42.804  30.534  36.735  1.00  0.00     0.031 C 
ATOM     62  C   UNL A   1      43.148  29.107  34.739  1.00  0.00     0.034 A 
BRANCH  49  63
ATOM     63  C   UNL A   1      40.827  27.731  29.180  1.00  0.00     0.023 A 
ATOM     64  C   UNL A   1      39.954  26.629  29.088  1.00  0.00     0.012 A 
ATOM     65  C   UNL A   1      41.694  28.018  28.107  1.00  0.00     0.148 A 
ATOM     66  C   UNL A   1      39.969  25.802  27.966  1.00  0.00     0.002 A 
ATOM     67  C   UNL A   1      41.666  27.219  26.970  1.00  0.00     0.091 A 
ATOM     68  F   UNL A   1      42.530  29.058  28.221  1.00  0.00    -0.205 F 
ATOM     69  C   UNL A   1      40.816  26.103  26.903  1.00  0.00     0.022 A 
BRANCH  67  70
ATOM     70  S   UNL A   1      42.658  27.572  25.515  1.00  0.00     0.127 S 
ATOM     71  O   UNL A   1      44.007  27.609  26.080  1.00  0.00    -0.237 OA
ATOM     72  O   UNL A   1      42.383  26.411  24.668  1.00  0.00    -0.237 OA
ATOM     73  O   UNL A   1      42.168  28.838  24.990  1.00  0.00    -0.744 OA
ENDBRANCH  67  70
ENDBRANCH  49  63
BRANCH  50  74
ATOM     74  C   UNL A   1      39.917  33.585  37.244  1.00  0.00     0.023 A 
ATOM     75  C   UNL A   1      38.811  33.340  38.081  1.00  0.00     0.012 A 
ATOM     76  C   UNL A   1      40.843  34.583  37.602  1.00  0.00     0.148 A 
ATOM     77  C   UNL A   1      38.611  34.100  39.234  1.00  0.00     0.002 A 
ATOM     78  C   UNL A   1      40.668  35.300  38.781  1.00  0.00     0.091 A 
ATOM     79  F   UNL A   1      41.885  34.804  36.788  1.00  0.00    -0.205 F 
ATOM     80  C   UNL A   1      39.543  35.072  39.589  1.00  0.00     0.022 A 
BRANCH  78  81
ATOM     81  S   UNL A   1      41.880  36.483  39.380  1.00  0.00     0.127 S 
ATOM     82  O   UNL A   1      43.113  35.703  39.321  1.00  0.00    -0.237 OA
ATOM     83  O   UNL A   1      41.775  37.550  38.385  1.00  0.00    -0.237 OA
ATOM     84  O   UNL A   1      41.437  36.860  40.716  1.00  0.00    -0.744 OA
ENDBRANCH  78  81
ENDBRANCH  50  74
BRANCH  62  85
ATOM     85  C   UNL A   1      44.335  28.476  35.416  1.00  0.00     0.023 A 
ATOM     86  C   UNL A   1      45.629  28.986  35.200  1.00  0.00     0.012 A 
ATOM     87  C   UNL A   1      44.138  27.459  36.371  1.00  0.00     0.148 A 
ATOM     88  C   UNL A   1      46.714  28.480  35.915  1.00  0.00     0.002 A 
ATOM     89  C   UNL A   1      45.213  26.998  37.117  1.00  0.00     0.091 A 
ATOM     90  F   UNL A   1      42.897  26.980  36.547  1.00  0.00    -0.205 F 
ATOM     91  C   UNL A   1      46.504  27.500  36.885  1.00  0.00     0.022 A 
BRANCH  89  92
ATOM     92  S   UNL A   1      45.023  25.818  38.459  1.00  0.00     0.127 S 
ATOM     93  O   UNL A   1      44.576  24.625  37.743  1.00  0.00    -0.237 OA
ATOM     94  O   UNL A   1      46.383  25.737  38.991  1.00  0.00    -0.237 OA
ATOM     95  O   UNL A   1      44.045  26.396  39.371  1.00  0.00    -0.744 OA
ENDBRANCH  89  92
ENDBRANCH  62  85
ENDBRANCH  36  37
ENDBRANCH  28  31
ENDBRANCH  26  27
ENDBRANCH  25  26
ENDBRANCH  24  25
ENDBRANCH  23  24
ENDBRANCH   1  23
TORSDOF 22
ENDMDL
MODEL 3
REMARK VINA RESULT:     -10.4      6.488     11.472
REMARK SMILES CC(C)OCCS(=O)(=O)N[C@H]1COC[C@@H]1C(=O)NCCCCCCNC(=O)c1ccc(-c2c3nc(c(-c4cccc(S(=O)(=O)[O-])c4F)c4ccc([nH]4)c(-c4cccc(S(=O)(=O)[O-])c4F)c4nc(c(-c5cccc(S(=O)(=O)[O-])c5F)c5ccc2[nH]5)C=C4)C=C3)cc1
REMARK SMILES IDX 20 1 19 2 18 3 16 4 17 5 15 7 11 8 12 9 13 10 14 11 10 12
REMARK SMILES IDX 7 14 8 15 9 16 6 17 5 18 4 19 2 20 1 21 3 22 21 23 22 24
REMARK SMILES IDX 23 25 24 26 25 27 26 28 27 30 28 31 29 32 90 33 30 34 89 35
REMARK SMILES IDX 31 36 32 37 33 38 83 39 34 40 88 41 82 42 84 43 35 44 87 45
REMARK SMILES IDX 81 46 80 47 36 49 68 50 48 51 67 52 49 53 52 54 66 55 85 56
REMARK SMILES IDX 50 57 51 58 65 60 86 61 53 62 37 63 38 64 46 65 39 66 41 67
REMARK SMILES IDX 47 68 40 69 42 70 43 71 44 72 45 73 69 74 70 75 78 76 71 77
REMARK SMILES IDX 73 78 79 79 72 80 74 81 75 82 76 83 77 84 54 85 55 86 63 87
REMARK SMILES IDX 56 88 58 89 64 90 57 91 59 92 60 93 61 94 62 95
REMARK H PARENT 18 6 10 13 25 29 84 48 52 59
REMARK Flexibility Score: inf
ROOT
ATOM      1  C   UNL A   1      31.989  28.448  27.136  1.00  0.00     0.021 C 
ENDROOT
BRANCH   1   2
ATOM      2  C   UNL A   1      31.617  27.267  26.264  1.00  0.00     0.116 C 
BRANCH   2   3
ATOM      3  N   UNL A   1      30.954  26.125  26.810  1.00  0.00    -0.356 N 
ATOM      4  C   UNL A   1      30.118  25.289  26.115  1.00  0.00     0.227 C 
ATOM      5  O   UNL A   1      29.549  24.393  26.752  1.00  0.00    -0.275 OA
ATOM      6  H   UNL A   1      31.109  25.923  27.761  1.00  0.00     0.163 HD
BRANCH   4   7
ATOM      7  C   UNL A   1      29.928  25.351  24.546  1.00  0.00     0.124 C 
ATOM      8  C   UNL A   1      31.431  25.485  23.263  1.00  0.00     0.110 C 
ATOM      9  C   UNL A   1      31.190  27.189  22.211  1.00  0.00     0.181 C 
ATOM     10  O   UNL A   1      29.462  27.876  22.665  1.00  0.00    -0.379 OA
ATOM     11  C   UNL A   1      28.641  26.828  24.058  1.00  0.00     0.175 C 
BRANCH   8  12
ATOM     12  N   UNL A   1      31.691  24.233  22.503  1.00  0.00    -0.209 NA
ATOM     13  H   UNL A   1      31.126  23.515  22.958  1.00  0.00     0.141 HD
BRANCH  12  14
ATOM     14  S   UNL A   1      33.197  23.542  22.287  1.00  0.00     0.214 S 
ATOM     15  O   UNL A   1      34.158  24.090  23.209  1.00  0.00    -0.212 OA
ATOM     16  O   UNL A   1      33.436  23.642  20.864  1.00  0.00    -0.212 OA
BRANCH  14  17
ATOM     17  C   UNL A   1      32.877  21.845  22.636  1.00  0.00     0.182 C 
BRANCH  17  18
ATOM     18  C   UNL A   1      32.980  21.368  24.071  1.00  0.00     0.178 C 
BRANCH  18  19
ATOM     19  O   UNL A   1      32.231  20.293  24.591  1.00  0.00    -0.378 OA
BRANCH  19  20
ATOM     20  C   UNL A   1      32.292  18.807  24.315  1.00  0.00     0.112 C 
ATOM     21  C   UNL A   1      32.392  18.015  22.269  1.00  0.00     0.038 C 
ATOM     22  C   UNL A   1      32.839  18.160  25.809  1.00  0.00     0.038 C 
ENDBRANCH  19  20
ENDBRANCH  18  19
ENDBRANCH  17  18
ENDBRANCH  14  17
ENDBRANCH  12  14
ENDBRANCH   8  12
ENDBRANCH   4   7
ENDBRANCH   2   3
ENDBRANCH   1   2
BRANCH   1  23
ATOM     23  C   UNL A   1      32.619  29.638  26.438  1.00  0.00     0.002 C 
BRANCH  23  24
ATOM     24  C   UNL A   1      32.072  31.021  26.815  1.00  0.00     0.002 C 
BRANCH  24  25
ATOM     25  C   UNL A   1      32.924  31.883  27.757  1.00  0.00     0.021 C 
BRANCH  25  26
ATOM     26  C   UNL A   1      33.401  33.222  27.197  1.00  0.00     0.116 C 
BRANCH  26  27
ATOM     27  N   UNL A   1      32.829  34.364  27.898  1.00  0.00    -0.352 N 
ATOM     28  C   UNL A   1      33.151  34.903  29.116  1.00  0.00     0.251 C 
ATOM     29  H   UNL A   1      32.098  34.820  27.422  1.00  0.00     0.163 HD
ATOM     30  O   UNL A   1      32.446  35.780  29.608  1.00  0.00    -0.269 OA
BRANCH  28  31
ATOM     31  C   UNL A   1      34.342  34.416  29.837  1.00  0.00     0.039 A 
ATOM     32  C   UNL A   1      34.172  33.578  30.943  1.00  0.00     0.014 A 
ATOM     33  C   UNL A   1      35.619  34.787  29.415  1.00  0.00     0.014 A 
ATOM     34  C   UNL A   1      35.295  33.058  31.590  1.00  0.00     0.010 A 
ATOM     35  C   UNL A   1      36.731  34.213  30.015  1.00  0.00     0.010 A 
ATOM     36  C   UNL A   1      36.581  33.346  31.110  1.00  0.00    -0.014 A 
BRANCH  36  37
ATOM     37  C   UNL A   1      37.800  32.770  31.727  1.00  0.00     0.031 A 
ATOM     38  C   UNL A   1      38.492  31.619  31.055  1.00  0.00     0.074 A 
ATOM     39  C   UNL A   1      38.199  33.191  32.944  1.00  0.00     0.049 A 
ATOM     40  N   UNL A   1      39.449  30.852  31.506  1.00  0.00    -0.248 NA
ATOM     41  C   UNL A   1      38.020  31.258  29.706  1.00  0.00     0.031 C 
ATOM     42  C   UNL A   1      37.571  34.266  33.716  1.00  0.00     0.029 A 
ATOM     43  N   UNL A   1      39.199  32.733  33.765  1.00  0.00    -0.354 N 
ATOM     44  C   UNL A   1      39.658  29.892  30.524  1.00  0.00     0.074 A 
ATOM     45  C   UNL A   1      38.711  30.156  29.464  1.00  0.00     0.031 C 
ATOM     46  C   UNL A   1      38.189  34.373  34.903  1.00  0.00     0.029 A 
ATOM     47  C   UNL A   1      39.223  33.347  34.997  1.00  0.00     0.049 A 
ATOM     48  H   UNL A   1      39.837  32.033  33.498  1.00  0.00     0.167 HD
ATOM     49  C   UNL A   1      40.572  28.894  30.500  1.00  0.00     0.034 A 
ATOM     50  C   UNL A   1      39.970  33.090  36.088  1.00  0.00     0.034 A 
ATOM     51  C   UNL A   1      41.532  28.664  31.542  1.00  0.00     0.049 A 
ATOM     52  C   UNL A   1      40.990  31.984  36.031  1.00  0.00     0.074 A 
ATOM     53  C   UNL A   1      42.551  27.731  31.582  1.00  0.00     0.029 A 
ATOM     54  N   UNL A   1      41.587  29.370  32.735  1.00  0.00    -0.354 N 
ATOM     55  N   UNL A   1      41.258  31.163  35.045  1.00  0.00    -0.248 NA
ATOM     56  C   UNL A   1      41.830  31.785  37.220  1.00  0.00     0.031 C 
ATOM     57  C   UNL A   1      43.199  27.847  32.814  1.00  0.00     0.029 A 
ATOM     58  C   UNL A   1      42.615  28.886  33.521  1.00  0.00     0.049 A 
ATOM     59  H   UNL A   1      40.982  30.106  32.984  1.00  0.00     0.167 HD
ATOM     60  C   UNL A   1      42.328  30.387  35.474  1.00  0.00     0.074 A 
ATOM     61  C   UNL A   1      42.660  30.835  36.810  1.00  0.00     0.031 C 
ATOM     62  C   UNL A   1      42.974  29.389  34.822  1.00  0.00     0.034 A 
BRANCH  49  63
ATOM     63  C   UNL A   1      40.597  27.993  29.292  1.00  0.00     0.023 A 
ATOM     64  C   UNL A   1      39.690  26.918  29.201  1.00  0.00     0.012 A 
ATOM     65  C   UNL A   1      41.480  28.245  28.224  1.00  0.00     0.148 A 
ATOM     66  C   UNL A   1      39.688  26.082  28.085  1.00  0.00     0.002 A 
ATOM     67  C   UNL A   1      41.437  27.439  27.093  1.00  0.00     0.091 A 
ATOM     68  F   UNL A   1      42.348  29.259  28.337  1.00  0.00    -0.205 F 
ATOM     69  C   UNL A   1      40.552  26.350  27.027  1.00  0.00     0.022 A 
BRANCH  67  70
ATOM     70  S   UNL A   1      42.451  27.750  25.644  1.00  0.00     0.127 S 
ATOM     71  O   UNL A   1      41.864  28.989  25.134  1.00  0.00    -0.237 OA
ATOM     72  O   UNL A   1      43.783  27.902  26.229  1.00  0.00    -0.237 OA
ATOM     73  O   UNL A   1      42.293  26.586  24.784  1.00  0.00    -0.744 OA
ENDBRANCH  67  70
ENDBRANCH  49  63
BRANCH  50  74
ATOM     74  C   UNL A   1      39.807  33.918  37.316  1.00  0.00     0.023 A 
ATOM     75  C   UNL A   1      40.383  35.202  37.369  1.00  0.00     0.012 A 
ATOM     76  C   UNL A   1      39.066  33.451  38.420  1.00  0.00     0.148 A 
ATOM     77  C   UNL A   1      40.256  35.992  38.513  1.00  0.00     0.002 A 
ATOM     78  C   UNL A   1      38.898  34.264  39.535  1.00  0.00     0.091 A 
ATOM     79  F   UNL A   1      38.532  32.223  38.351  1.00  0.00    -0.205 F 
ATOM     80  C   UNL A   1      39.506  35.527  39.591  1.00  0.00     0.022 A 
BRANCH  78  81
ATOM     81  S   UNL A   1      37.848  33.800  40.917  1.00  0.00     0.127 S 
ATOM     82  O   UNL A   1      38.694  32.843  41.626  1.00  0.00    -0.237 OA
ATOM     83  O   UNL A   1      37.662  35.082  41.597  1.00  0.00    -0.237 OA
ATOM     84  O   UNL A   1      36.635  33.249  40.326  1.00  0.00    -0.744 OA
ENDBRANCH  78  81
ENDBRANCH  50  74
BRANCH  62  85
ATOM     85  C   UNL A   1      44.160  28.752  35.495  1.00  0.00     0.023 A 
ATOM     86  C   UNL A   1      45.451  29.278  35.304  1.00  0.00     0.012 A 
ATOM     87  C   UNL A   1      43.963  27.710  36.423  1.00  0.00     0.148 A 
ATOM     88  C   UNL A   1      46.534  28.763  36.017  1.00  0.00     0.002 A 
ATOM     89  C   UNL A   1      45.035  27.240  37.168  1.00  0.00     0.091 A 
ATOM     90  F   UNL A   1      42.724  27.216  36.574  1.00  0.00    -0.205 F 
ATOM     91  C   UNL A   1      46.323  27.758  36.960  1.00  0.00     0.022 A 
BRANCH  89  92
ATOM     92  S   UNL A   1      44.842  26.026  38.478  1.00  0.00     0.127 S 
ATOM     93  O   UNL A   1      43.732  26.591  39.245  1.00  0.00    -0.237 OA
ATOM     94  O   UNL A   1      44.512  24.815  37.729  1.00  0.00    -0.237 OA
ATOM     95  O   UNL A   1      46.118  25.981  39.180  1.00  0.00    -0.744 OA
ENDBRANCH  89  92
ENDBRANCH  62  85
ENDBRANCH  36  37
ENDBRANCH  28  31
ENDBRANCH  26  27
ENDBRANCH  25  26
ENDBRANCH  24  25
ENDBRANCH  23  24
ENDBRANCH   1  23
TORSDOF 22
ENDMDL
