MODEL 1
REMARK VINA RESULT:      -9.7      0.000      0.000
REMARK SMILES Cc1c(-c2nn(-c3ccccc3)cc2/C=N/O)nnn1-c1ccc(C(=O)NCCCCCCNC(=O)c2ccc(-c3c4nc(c(-c5cccc(S(=O)(=O)[O-])c5F)c5ccc([nH]5)c(-c5cccc(S(=O)(=O)[O-])c5F)c5nc(c(-c6cccc(S(=O)(=O)[O-])c6F)c6ccc3[nH]6)C=C5)C=C4)cc2)cc1
REMARK SMILES IDX 30 1 29 2 28 3 27 4 25 5 26 6 24 8 21 9 22 10 101 11 23 12
REMARK SMILES IDX 100 13 20 14 1 15 2 16 3 17 18 18 19 19 4 20 5 21 14 22 6 23
REMARK SMILES IDX 13 24 15 25 16 26 17 27 7 29 8 30 12 31 9 32 11 33 10 34
REMARK SMILES IDX 31 35 32 36 33 37 34 38 35 39 36 41 37 42 38 43 99 44 39 45
REMARK SMILES IDX 98 46 40 47 41 48 42 49 92 50 43 51 97 52 91 53 93 54 44 55
REMARK SMILES IDX 96 56 90 57 89 58 45 60 77 61 57 62 76 63 58 64 61 65 75 66
REMARK SMILES IDX 94 67 59 68 60 69 74 71 95 72 62 73 46 74 47 75 55 76 48 77
REMARK SMILES IDX 50 78 56 79 49 80 51 81 52 82 53 83 54 84 78 85 79 86 87 87
REMARK SMILES IDX 80 88 82 89 88 90 81 91 83 92 84 93 85 94 86 95 63 96 64 97
REMARK SMILES IDX 72 98 65 99 67 100 73 101 66 102 68 103 69 104 70 105 71 106
REMARK H PARENT 27 7 17 28 34 40 93 59 61 70
REMARK Flexibility Score: inf
ROOT
ATOM      1  C   UNL A   1      37.345  32.457  33.908  1.00  0.00     0.002 C 
ENDROOT
BRANCH   1   2
ATOM      2  C   UNL A   1      37.405  32.451  35.442  1.00  0.00     0.021 C 
BRANCH   2   3
ATOM      3  C   UNL A   1      38.188  31.264  36.006  1.00  0.00     0.116 C 
BRANCH   3   4
ATOM      4  N   UNL A   1      39.328  31.732  36.767  1.00  0.00    -0.352 N 
ATOM      5  C   UNL A   1      40.492  32.369  36.423  1.00  0.00     0.251 C 
ATOM      6  O   UNL A   1      41.266  32.646  37.341  1.00  0.00    -0.269 OA
ATOM      7  H   UNL A   1      39.252  31.557  37.733  1.00  0.00     0.163 HD
BRANCH   5   8
ATOM      8  C   UNL A   1      40.818  32.818  35.036  1.00  0.00     0.039 A 
ATOM      9  C   UNL A   1      41.173  33.846  32.443  1.00  0.00     0.067 A 
ATOM     10  C   UNL A   1      40.961  34.721  33.510  1.00  0.00     0.029 A 
ATOM     11  C   UNL A   1      41.304  32.475  32.678  1.00  0.00     0.029 A 
ATOM     12  C   UNL A   1      40.748  34.201  34.789  1.00  0.00     0.016 A 
ATOM     13  C   UNL A   1      41.188  31.980  33.982  1.00  0.00     0.016 A 
BRANCH   9  14
ATOM     14  N   UNL A   1      41.293  34.356  31.133  1.00  0.00    -0.217 N 
ATOM     15  C   UNL A   1      43.728  35.085  31.133  1.00  0.00     0.069 C 
ATOM     16  C   UNL A   1      42.362  35.021  30.561  1.00  0.00     0.071 A 
ATOM     17  C   UNL A   1      41.858  35.423  29.340  1.00  0.00     0.137 A 
ATOM     18  N   UNL A   1      40.626  34.874  29.135  1.00  0.00    -0.128 NA
ATOM     19  N   UNL A   1      40.327  34.149  30.206  1.00  0.00    -0.061 NA
BRANCH  17  20
ATOM     20  C   UNL A   1      42.550  36.143  28.280  1.00  0.00     0.124 A 
ATOM     21  N   UNL A   1      42.638  37.479  28.288  1.00  0.00    -0.165 NA
ATOM     22  C   UNL A   1      43.127  35.569  27.123  1.00  0.00     0.044 A 
ATOM     23  N   UNL A   1      43.134  37.786  27.073  1.00  0.00    -0.240 N 
ATOM     24  C   UNL A   1      43.437  36.666  26.337  1.00  0.00     0.125 A 
BRANCH  22  25
ATOM     25  C   UNL A   1      43.374  34.198  26.753  1.00  0.00     0.166 C 
ATOM     26  N   UNL A   1      43.730  33.904  25.548  1.00  0.00    -0.097 NA
BRANCH  26  27
ATOM     27  O   UNL A   1      43.855  32.511  25.446  1.00  0.00    -0.411 OA
ATOM     28  H   UNL A   1      43.665  32.082  24.635  1.00  0.00     0.330 HD
ENDBRANCH  26  27
ENDBRANCH  22  25
BRANCH  23  29
ATOM     29  C   UNL A   1      43.255  39.135  26.678  1.00  0.00     0.065 A 
ATOM     30  C   UNL A   1      44.513  39.748  26.730  1.00  0.00     0.028 A 
ATOM     31  C   UNL A   1      42.127  39.860  26.278  1.00  0.00     0.028 A 
ATOM     32  C   UNL A   1      44.648  41.083  26.355  1.00  0.00     0.002 A 
ATOM     33  C   UNL A   1      42.263  41.213  25.960  1.00  0.00     0.002 A 
ATOM     34  C   UNL A   1      43.522  41.819  25.985  1.00  0.00     0.000 A 
ENDBRANCH  23  29
ENDBRANCH  17  20
ENDBRANCH   9  14
ENDBRANCH   5   8
ENDBRANCH   3   4
ENDBRANCH   2   3
ENDBRANCH   1   2
BRANCH   1  35
ATOM     35  C   UNL A   1      37.330  31.067  33.248  1.00  0.00     0.002 C 
BRANCH  35  36
ATOM     36  C   UNL A   1      36.182  30.814  32.260  1.00  0.00     0.021 C 
BRANCH  36  37
ATOM     37  C   UNL A   1      35.833  32.044  31.438  1.00  0.00     0.116 C 
BRANCH  37  38
ATOM     38  N   UNL A   1      35.132  31.682  30.208  1.00  0.00    -0.352 N 
ATOM     39  C   UNL A   1      35.659  31.183  29.038  1.00  0.00     0.251 C 
ATOM     40  H   UNL A   1      34.155  31.813  30.217  1.00  0.00     0.163 HD
ATOM     41  O   UNL A   1      35.034  31.247  27.990  1.00  0.00    -0.269 OA
BRANCH  39  42
ATOM     42  C   UNL A   1      36.995  30.564  29.077  1.00  0.00     0.039 A 
ATOM     43  C   UNL A   1      38.141  31.348  29.236  1.00  0.00     0.014 A 
ATOM     44  C   UNL A   1      37.084  29.177  28.964  1.00  0.00     0.014 A 
ATOM     45  C   UNL A   1      39.373  30.714  29.346  1.00  0.00     0.010 A 
ATOM     46  C   UNL A   1      38.276  28.548  29.213  1.00  0.00     0.010 A 
ATOM     47  C   UNL A   1      39.429  29.313  29.347  1.00  0.00    -0.014 A 
BRANCH  47  48
ATOM     48  C   UNL A   1      40.682  28.624  29.622  1.00  0.00     0.031 A 
ATOM     49  C   UNL A   1      41.084  28.644  31.056  1.00  0.00     0.074 A 
ATOM     50  C   UNL A   1      41.294  27.843  28.704  1.00  0.00     0.049 A 
ATOM     51  N   UNL A   1      42.109  29.230  31.579  1.00  0.00    -0.248 NA
ATOM     52  C   UNL A   1      40.151  28.083  32.048  1.00  0.00     0.031 C 
ATOM     53  C   UNL A   1      40.810  27.476  27.366  1.00  0.00     0.029 A 
ATOM     54  N   UNL A   1      42.408  27.075  28.837  1.00  0.00    -0.354 N 
ATOM     55  C   UNL A   1      42.085  28.891  32.931  1.00  0.00     0.074 A 
ATOM     56  C   UNL A   1      40.764  28.386  33.193  1.00  0.00     0.031 C 
ATOM     57  C   UNL A   1      41.458  26.368  26.944  1.00  0.00     0.029 A 
ATOM     58  C   UNL A   1      42.509  26.056  27.893  1.00  0.00     0.049 A 
ATOM     59  H   UNL A   1      43.083  27.225  29.538  1.00  0.00     0.167 HD
ATOM     60  C   UNL A   1      43.236  28.797  33.654  1.00  0.00     0.034 A 
ATOM     61  C   UNL A   1      43.351  24.993  27.932  1.00  0.00     0.034 A 
ATOM     62  C   UNL A   1      44.336  29.427  32.969  1.00  0.00     0.049 A 
ATOM     63  C   UNL A   1      44.450  25.343  28.860  1.00  0.00     0.074 A 
ATOM     64  C   UNL A   1      44.580  30.693  32.471  1.00  0.00     0.029 A 
ATOM     65  N   UNL A   1      45.235  28.599  32.342  1.00  0.00    -0.354 N 
ATOM     66  N   UNL A   1      45.308  26.297  28.627  1.00  0.00    -0.248 NA
ATOM     67  C   UNL A   1      44.313  24.946  30.251  1.00  0.00     0.031 C 
ATOM     68  C   UNL A   1      45.244  30.471  31.229  1.00  0.00     0.029 A 
ATOM     69  C   UNL A   1      45.441  29.097  31.083  1.00  0.00     0.049 A 
ATOM     70  H   UNL A   1      45.654  27.795  32.727  1.00  0.00     0.167 HD
ATOM     71  C   UNL A   1      45.451  26.932  29.854  1.00  0.00     0.074 A 
ATOM     72  C   UNL A   1      44.899  25.995  30.833  1.00  0.00     0.031 C 
ATOM     73  C   UNL A   1      45.719  28.269  29.930  1.00  0.00     0.034 A 
BRANCH  60  74
ATOM     74  C   UNL A   1      43.477  27.813  34.780  1.00  0.00     0.023 A 
ATOM     75  C   UNL A   1      43.888  28.347  36.024  1.00  0.00     0.012 A 
ATOM     76  C   UNL A   1      43.602  26.415  34.616  1.00  0.00     0.148 A 
ATOM     77  C   UNL A   1      44.452  27.543  37.020  1.00  0.00     0.002 A 
ATOM     78  C   UNL A   1      44.086  25.608  35.640  1.00  0.00     0.091 A 
ATOM     79  F   UNL A   1      43.383  25.855  33.424  1.00  0.00    -0.205 F 
ATOM     80  C   UNL A   1      44.547  26.171  36.831  1.00  0.00     0.022 A 
BRANCH  78  81
ATOM     81  S   UNL A   1      44.180  23.821  35.467  1.00  0.00     0.127 S 
ATOM     82  O   UNL A   1      42.776  23.471  35.278  1.00  0.00    -0.237 OA
ATOM     83  O   UNL A   1      45.021  23.681  34.278  1.00  0.00    -0.237 OA
ATOM     84  O   UNL A   1      44.802  23.339  36.694  1.00  0.00    -0.744 OA
ENDBRANCH  78  81
ENDBRANCH  60  74
BRANCH  61  85
ATOM     85  C   UNL A   1      43.131  23.603  27.467  1.00  0.00     0.023 A 
ATOM     86  C   UNL A   1      41.891  22.974  27.695  1.00  0.00     0.012 A 
ATOM     87  C   UNL A   1      44.024  22.998  26.553  1.00  0.00     0.148 A 
ATOM     88  C   UNL A   1      41.540  21.801  27.015  1.00  0.00     0.002 A 
ATOM     89  C   UNL A   1      43.673  21.830  25.885  1.00  0.00     0.091 A 
ATOM     90  F   UNL A   1      45.175  23.622  26.267  1.00  0.00    -0.205 F 
ATOM     91  C   UNL A   1      42.427  21.232  26.104  1.00  0.00     0.022 A 
BRANCH  89  92
ATOM     92  S   UNL A   1      44.758  21.060  24.673  1.00  0.00     0.127 S 
ATOM     93  O   UNL A   1      44.105  19.769  24.460  1.00  0.00    -0.237 OA
ATOM     94  O   UNL A   1      44.664  21.989  23.550  1.00  0.00    -0.237 OA
ATOM     95  O   UNL A   1      46.067  20.972  25.309  1.00  0.00    -0.744 OA
ENDBRANCH  89  92
ENDBRANCH  61  85
BRANCH  73  96
ATOM     96  C   UNL A   1      46.100  28.999  28.666  1.00  0.00     0.023 A 
ATOM     97  C   UNL A   1      45.146  29.560  27.790  1.00  0.00     0.012 A 
ATOM     98  C   UNL A   1      47.459  29.284  28.459  1.00  0.00     0.148 A 
ATOM     99  C   UNL A   1      45.543  30.372  26.722  1.00  0.00     0.002 A 
ATOM    100  C   UNL A   1      47.847  30.128  27.427  1.00  0.00     0.091 A 
ATOM    101  F   UNL A   1      48.353  28.745  29.303  1.00  0.00    -0.205 F 
ATOM    102  C   UNL A   1      46.894  30.668  26.549  1.00  0.00     0.022 A 
BRANCH 100 103
ATOM    103  S   UNL A   1      49.554  30.644  27.236  1.00  0.00     0.127 S 
ATOM    104  O   UNL A   1      49.410  31.930  26.558  1.00  0.00    -0.237 OA
ATOM    105  O   UNL A   1      50.013  30.732  28.624  1.00  0.00    -0.237 OA
ATOM    106  O   UNL A   1      50.206  29.596  26.461  1.00  0.00    -0.744 OA
ENDBRANCH 100 103
ENDBRANCH  73  96
ENDBRANCH  47  48
ENDBRANCH  39  42
ENDBRANCH  37  38
ENDBRANCH  36  37
ENDBRANCH  35  36
ENDBRANCH   1  35
TORSDOF 21
ENDMDL
MODEL 2
REMARK VINA RESULT:      -9.7      5.330     12.186
REMARK SMILES Cc1c(-c2nn(-c3ccccc3)cc2/C=N/O)nnn1-c1ccc(C(=O)NCCCCCCNC(=O)c2ccc(-c3c4nc(c(-c5cccc(S(=O)(=O)[O-])c5F)c5ccc([nH]5)c(-c5cccc(S(=O)(=O)[O-])c5F)c5nc(c(-c6cccc(S(=O)(=O)[O-])c6F)c6ccc3[nH]6)C=C5)C=C4)cc2)cc1
REMARK SMILES IDX 30 1 29 2 28 3 27 4 25 5 26 6 24 8 21 9 22 10 101 11 23 12
REMARK SMILES IDX 100 13 20 14 1 15 2 16 3 17 18 18 19 19 4 20 5 21 14 22 6 23
REMARK SMILES IDX 13 24 15 25 16 26 17 27 7 29 8 30 12 31 9 32 11 33 10 34
REMARK SMILES IDX 31 35 32 36 33 37 34 38 35 39 36 41 37 42 38 43 99 44 39 45
REMARK SMILES IDX 98 46 40 47 41 48 42 49 92 50 43 51 97 52 91 53 93 54 44 55
REMARK SMILES IDX 96 56 90 57 89 58 45 60 77 61 57 62 76 63 58 64 61 65 75 66
REMARK SMILES IDX 94 67 59 68 60 69 74 71 95 72 62 73 46 74 47 75 55 76 48 77
REMARK SMILES IDX 50 78 56 79 49 80 51 81 52 82 53 83 54 84 78 85 79 86 87 87
REMARK SMILES IDX 80 88 82 89 88 90 81 91 83 92 84 93 85 94 86 95 63 96 64 97
REMARK SMILES IDX 72 98 65 99 67 100 73 101 66 102 68 103 69 104 70 105 71 106
REMARK H PARENT 27 7 17 28 34 40 93 59 61 70
REMARK Flexibility Score: inf
ROOT
ATOM      1  C   UNL A   1      40.091  23.292  26.912  1.00  0.00     0.002 C 
ENDROOT
BRANCH   1   2
ATOM      2  C   UNL A   1      39.414  22.009  26.410  1.00  0.00     0.021 C 
BRANCH   2   3
ATOM      3  C   UNL A   1      38.205  22.280  25.513  1.00  0.00     0.116 C 
BRANCH   3   4
ATOM      4  N   UNL A   1      37.505  21.044  25.228  1.00  0.00    -0.352 N 
ATOM      5  C   UNL A   1      36.182  20.730  25.057  1.00  0.00     0.251 C 
ATOM      6  O   UNL A   1      35.920  19.551  24.805  1.00  0.00    -0.269 OA
ATOM      7  H   UNL A   1      38.105  20.268  25.136  1.00  0.00     0.163 HD
BRANCH   5   8
ATOM      8  C   UNL A   1      35.077  21.735  25.068  1.00  0.00     0.039 A 
ATOM      9  C   UNL A   1      33.163  23.784  24.867  1.00  0.00     0.067 A 
ATOM     10  C   UNL A   1      33.625  23.155  23.710  1.00  0.00     0.029 A 
ATOM     11  C   UNL A   1      33.578  23.333  26.123  1.00  0.00     0.029 A 
ATOM     12  C   UNL A   1      34.604  22.163  23.815  1.00  0.00     0.016 A 
ATOM     13  C   UNL A   1      34.484  22.269  26.214  1.00  0.00     0.016 A 
BRANCH   9  14
ATOM     14  N   UNL A   1      32.246  24.851  24.765  1.00  0.00    -0.217 N 
ATOM     15  C   UNL A   1      33.806  26.751  24.117  1.00  0.00     0.069 C 
ATOM     16  C   UNL A   1      32.505  26.194  24.559  1.00  0.00     0.071 A 
ATOM     17  C   UNL A   1      31.262  26.776  24.715  1.00  0.00     0.137 A 
ATOM     18  N   UNL A   1      30.303  25.814  24.829  1.00  0.00    -0.128 NA
ATOM     19  N   UNL A   1      30.909  24.634  24.770  1.00  0.00    -0.061 NA
BRANCH  17  20
ATOM     20  C   UNL A   1      30.910  28.182  24.575  1.00  0.00     0.124 A 
ATOM     21  N   UNL A   1      29.925  28.575  23.759  1.00  0.00    -0.165 NA
ATOM     22  C   UNL A   1      31.572  29.272  25.188  1.00  0.00     0.044 A 
ATOM     23  N   UNL A   1      30.039  29.917  23.722  1.00  0.00    -0.240 N 
ATOM     24  C   UNL A   1      31.023  30.378  24.563  1.00  0.00     0.125 A 
BRANCH  22  25
ATOM     25  C   UNL A   1      32.584  29.325  26.214  1.00  0.00     0.166 C 
ATOM     26  N   UNL A   1      32.393  28.734  27.346  1.00  0.00    -0.097 NA
BRANCH  26  27
ATOM     27  O   UNL A   1      33.499  28.982  28.171  1.00  0.00    -0.411 OA
ATOM     28  H   UNL A   1      33.969  29.790  28.094  1.00  0.00     0.330 HD
ENDBRANCH  26  27
ENDBRANCH  22  25
BRANCH  23  29
ATOM     29  C   UNL A   1      29.222  30.674  22.855  1.00  0.00     0.065 A 
ATOM     30  C   UNL A   1      28.842  30.122  21.625  1.00  0.00     0.028 A 
ATOM     31  C   UNL A   1      28.831  31.971  23.203  1.00  0.00     0.028 A 
ATOM     32  C   UNL A   1      28.045  30.860  20.753  1.00  0.00     0.002 A 
ATOM     33  C   UNL A   1      28.082  32.724  22.297  1.00  0.00     0.002 A 
ATOM     34  C   UNL A   1      27.679  32.165  21.082  1.00  0.00     0.000 A 
ENDBRANCH  23  29
ENDBRANCH  17  20
ENDBRANCH   9  14
ENDBRANCH   5   8
ENDBRANCH   3   4
ENDBRANCH   2   3
ENDBRANCH   1   2
BRANCH   1  35
ATOM     35  C   UNL A   1      41.234  23.078  27.919  1.00  0.00     0.002 C 
BRANCH  35  36
ATOM     36  C   UNL A   1      42.654  23.242  27.356  1.00  0.00     0.021 C 
BRANCH  36  37
ATOM     37  C   UNL A   1      42.767  24.399  26.376  1.00  0.00     0.116 C 
BRANCH  37  38
ATOM     38  N   UNL A   1      44.108  24.482  25.801  1.00  0.00    -0.352 N 
ATOM     39  C   UNL A   1      44.857  25.608  25.537  1.00  0.00     0.251 C 
ATOM     40  H   UNL A   1      44.531  23.622  25.574  1.00  0.00     0.163 HD
ATOM     41  O   UNL A   1      45.795  25.567  24.755  1.00  0.00    -0.269 OA
BRANCH  39  42
ATOM     42  C   UNL A   1      44.504  26.863  26.222  1.00  0.00     0.039 A 
ATOM     43  C   UNL A   1      43.471  27.671  25.742  1.00  0.00     0.014 A 
ATOM     44  C   UNL A   1      45.220  27.215  27.364  1.00  0.00     0.014 A 
ATOM     45  C   UNL A   1      43.122  28.807  26.464  1.00  0.00     0.010 A 
ATOM     46  C   UNL A   1      44.785  28.251  28.149  1.00  0.00     0.010 A 
ATOM     47  C   UNL A   1      43.776  29.081  27.675  1.00  0.00    -0.014 A 
BRANCH  47  48
ATOM     48  C   UNL A   1      43.322  30.169  28.529  1.00  0.00     0.031 A 
ATOM     49  C   UNL A   1      43.884  31.500  28.168  1.00  0.00     0.074 A 
ATOM     50  C   UNL A   1      42.309  30.020  29.412  1.00  0.00     0.049 A 
ATOM     51  N   UNL A   1      44.689  32.231  28.864  1.00  0.00    -0.248 NA
ATOM     52  C   UNL A   1      43.652  32.006  26.804  1.00  0.00     0.031 C 
ATOM     53  C   UNL A   1      41.453  28.843  29.611  1.00  0.00     0.029 A 
ATOM     54  N   UNL A   1      41.720  30.953  30.208  1.00  0.00    -0.354 N 
ATOM     55  C   UNL A   1      44.857  33.405  28.132  1.00  0.00     0.074 A 
ATOM     56  C   UNL A   1      44.388  33.118  26.803  1.00  0.00     0.031 C 
ATOM     57  C   UNL A   1      40.316  29.217  30.238  1.00  0.00     0.029 A 
ATOM     58  C   UNL A   1      40.440  30.607  30.633  1.00  0.00     0.049 A 
ATOM     59  H   UNL A   1      42.159  31.797  30.459  1.00  0.00     0.167 HD
ATOM     60  C   UNL A   1      45.110  34.592  28.751  1.00  0.00     0.034 A 
ATOM     61  C   UNL A   1      39.524  31.429  31.203  1.00  0.00     0.034 A 
ATOM     62  C   UNL A   1      45.528  34.389  30.116  1.00  0.00     0.049 A 
ATOM     63  C   UNL A   1      40.261  32.598  31.734  1.00  0.00     0.074 A 
ATOM     64  C   UNL A   1      46.545  33.684  30.731  1.00  0.00     0.029 A 
ATOM     65  N   UNL A   1      44.596  34.633  31.095  1.00  0.00    -0.354 N 
ATOM     66  N   UNL A   1      41.125  32.520  32.706  1.00  0.00    -0.248 NA
ATOM     67  C   UNL A   1      40.381  33.766  30.877  1.00  0.00     0.031 C 
ATOM     68  C   UNL A   1      45.939  33.113  31.889  1.00  0.00     0.029 A 
ATOM     69  C   UNL A   1      44.622  33.570  31.957  1.00  0.00     0.049 A 
ATOM     70  H   UNL A   1      44.016  35.425  31.163  1.00  0.00     0.167 HD
ATOM     71  C   UNL A   1      42.167  33.345  32.302  1.00  0.00     0.074 A 
ATOM     72  C   UNL A   1      41.608  34.163  31.225  1.00  0.00     0.031 C 
ATOM     73  C   UNL A   1      43.458  33.082  32.663  1.00  0.00     0.034 A 
BRANCH  60  74
ATOM     74  C   UNL A   1      44.616  35.943  28.277  1.00  0.00     0.023 A 
ATOM     75  C   UNL A   1      43.216  36.121  28.188  1.00  0.00     0.012 A 
ATOM     76  C   UNL A   1      45.423  36.924  27.657  1.00  0.00     0.148 A 
ATOM     77  C   UNL A   1      42.652  37.177  27.464  1.00  0.00     0.002 A 
ATOM     78  C   UNL A   1      44.859  38.018  27.010  1.00  0.00     0.091 A 
ATOM     79  F   UNL A   1      46.743  36.750  27.564  1.00  0.00    -0.205 F 
ATOM     80  C   UNL A   1      43.474  38.131  26.879  1.00  0.00     0.022 A 
BRANCH  78  81
ATOM     81  S   UNL A   1      45.877  39.309  26.281  1.00  0.00     0.127 S 
ATOM     82  O   UNL A   1      44.867  40.169  25.673  1.00  0.00    -0.237 OA
ATOM     83  O   UNL A   1      46.541  39.866  27.460  1.00  0.00    -0.237 OA
ATOM     84  O   UNL A   1      46.777  38.626  25.359  1.00  0.00    -0.744 OA
ENDBRANCH  78  81
ENDBRANCH  60  74
BRANCH  61  85
ATOM     85  C   UNL A   1      38.048  31.426  31.071  1.00  0.00     0.023 A 
ATOM     86  C   UNL A   1      37.240  31.632  32.207  1.00  0.00     0.012 A 
ATOM     87  C   UNL A   1      37.438  31.511  29.798  1.00  0.00     0.148 A 
ATOM     88  C   UNL A   1      35.880  31.940  32.081  1.00  0.00     0.002 A 
ATOM     89  C   UNL A   1      36.085  31.812  29.678  1.00  0.00     0.091 A 
ATOM     90  F   UNL A   1      38.204  31.393  28.706  1.00  0.00    -0.205 F 
ATOM     91  C   UNL A   1      35.303  32.038  30.817  1.00  0.00     0.022 A 
BRANCH  89  92
ATOM     92  S   UNL A   1      35.283  31.984  28.077  1.00  0.00     0.127 S 
ATOM     93  O   UNL A   1      33.872  32.071  28.453  1.00  0.00    -0.237 OA
ATOM     94  O   UNL A   1      35.864  33.229  27.580  1.00  0.00    -0.237 OA
ATOM     95  O   UNL A   1      35.631  30.784  27.326  1.00  0.00    -0.744 OA
ENDBRANCH  89  92
ENDBRANCH  61  85
BRANCH  73  96
ATOM     96  C   UNL A   1      43.710  32.024  33.708  1.00  0.00     0.023 A 
ATOM     97  C   UNL A   1      43.783  32.313  35.087  1.00  0.00     0.012 A 
ATOM     98  C   UNL A   1      43.686  30.680  33.298  1.00  0.00     0.148 A 
ATOM     99  C   UNL A   1      43.849  31.284  36.033  1.00  0.00     0.002 A 
ATOM    100  C   UNL A   1      43.702  29.662  34.242  1.00  0.00     0.091 A 
ATOM    101  F   UNL A   1      43.612  30.423  31.983  1.00  0.00    -0.205 F 
ATOM    102  C   UNL A   1      43.794  29.958  35.611  1.00  0.00     0.022 A 
BRANCH 100 103
ATOM    103  S   UNL A   1      43.505  27.944  33.763  1.00  0.00     0.127 S 
ATOM    104  O   UNL A   1      43.873  27.242  34.990  1.00  0.00    -0.237 OA
ATOM    105  O   UNL A   1      42.084  27.875  33.420  1.00  0.00    -0.237 OA
ATOM    106  O   UNL A   1      44.400  27.738  32.630  1.00  0.00    -0.744 OA
ENDBRANCH 100 103
ENDBRANCH  73  96
ENDBRANCH  47  48
ENDBRANCH  39  42
ENDBRANCH  37  38
ENDBRANCH  36  37
ENDBRANCH  35  36
ENDBRANCH   1  35
TORSDOF 21
ENDMDL
MODEL 3
REMARK VINA RESULT:      -9.7      5.050     11.646
REMARK SMILES Cc1c(-c2nn(-c3ccccc3)cc2/C=N/O)nnn1-c1ccc(C(=O)NCCCCCCNC(=O)c2ccc(-c3c4nc(c(-c5cccc(S(=O)(=O)[O-])c5F)c5ccc([nH]5)c(-c5cccc(S(=O)(=O)[O-])c5F)c5nc(c(-c6cccc(S(=O)(=O)[O-])c6F)c6ccc3[nH]6)C=C5)C=C4)cc2)cc1
REMARK SMILES IDX 30 1 29 2 28 3 27 4 25 5 26 6 24 8 21 9 22 10 101 11 23 12
REMARK SMILES IDX 100 13 20 14 1 15 2 16 3 17 18 18 19 19 4 20 5 21 14 22 6 23
REMARK SMILES IDX 13 24 15 25 16 26 17 27 7 29 8 30 12 31 9 32 11 33 10 34
REMARK SMILES IDX 31 35 32 36 33 37 34 38 35 39 36 41 37 42 38 43 99 44 39 45
REMARK SMILES IDX 98 46 40 47 41 48 42 49 92 50 43 51 97 52 91 53 93 54 44 55
REMARK SMILES IDX 96 56 90 57 89 58 45 60 77 61 57 62 76 63 58 64 61 65 75 66
REMARK SMILES IDX 94 67 59 68 60 69 74 71 95 72 62 73 46 74 47 75 55 76 48 77
REMARK SMILES IDX 50 78 56 79 49 80 51 81 52 82 53 83 54 84 78 85 79 86 87 87
REMARK SMILES IDX 80 88 82 89 88 90 81 91 83 92 84 93 85 94 86 95 63 96 64 97
REMARK SMILES IDX 72 98 65 99 67 100 73 101 66 102 68 103 69 104 70 105 71 106
REMARK H PARENT 27 7 17 28 34 40 93 59 61 70
REMARK Flexibility Score: inf
ROOT
ATOM      1  C   UNL A   1      39.977  22.297  26.901  1.00  0.00     0.002 C 
ENDROOT
BRANCH   1   2
ATOM      2  C   UNL A   1      39.295  21.150  26.142  1.00  0.00     0.021 C 
BRANCH   2   3
ATOM      3  C   UNL A   1      38.085  21.608  25.326  1.00  0.00     0.116 C 
BRANCH   3   4
ATOM      4  N   UNL A   1      37.210  20.486  25.054  1.00  0.00    -0.352 N 
ATOM      5  C   UNL A   1      35.849  20.328  25.077  1.00  0.00     0.251 C 
ATOM      6  O   UNL A   1      35.414  19.215  24.772  1.00  0.00    -0.269 OA
ATOM      7  H   UNL A   1      37.693  19.667  24.799  1.00  0.00     0.163 HD
BRANCH   5   8
ATOM      8  C   UNL A   1      34.884  21.434  25.355  1.00  0.00     0.039 A 
ATOM      9  C   UNL A   1      33.147  23.631  25.593  1.00  0.00     0.067 A 
ATOM     10  C   UNL A   1      33.100  22.835  24.447  1.00  0.00     0.029 A 
ATOM     11  C   UNL A   1      33.983  23.282  26.655  1.00  0.00     0.029 A 
ATOM     12  C   UNL A   1      33.993  21.768  24.320  1.00  0.00     0.016 A 
ATOM     13  C   UNL A   1      34.799  22.149  26.552  1.00  0.00     0.016 A 
BRANCH   9  14
ATOM     14  N   UNL A   1      32.316  24.768  25.688  1.00  0.00    -0.217 N 
ATOM     15  C   UNL A   1      33.395  26.286  23.959  1.00  0.00     0.069 C 
ATOM     16  C   UNL A   1      32.466  26.000  25.078  1.00  0.00     0.071 A 
ATOM     17  C   UNL A   1      31.468  26.757  25.660  1.00  0.00     0.137 A 
ATOM     18  N   UNL A   1      30.670  25.968  26.434  1.00  0.00    -0.128 NA
ATOM     19  N   UNL A   1      31.148  24.731  26.374  1.00  0.00    -0.061 NA
BRANCH  17  20
ATOM     20  C   UNL A   1      31.119  28.142  25.379  1.00  0.00     0.124 A 
ATOM     21  N   UNL A   1      30.180  28.453  24.477  1.00  0.00    -0.165 NA
ATOM     22  C   UNL A   1      31.739  29.287  25.932  1.00  0.00     0.044 A 
ATOM     23  N   UNL A   1      30.291  29.789  24.330  1.00  0.00    -0.240 N 
ATOM     24  C   UNL A   1      31.222  30.330  25.183  1.00  0.00     0.125 A 
BRANCH  22  25
ATOM     25  C   UNL A   1      32.690  29.439  27.005  1.00  0.00     0.166 C 
ATOM     26  N   UNL A   1      33.796  28.773  26.993  1.00  0.00    -0.097 NA
BRANCH  26  27
ATOM     27  O   UNL A   1      34.507  29.065  28.165  1.00  0.00    -0.411 OA
ATOM     28  H   UNL A   1      34.531  28.443  28.865  1.00  0.00     0.330 HD
ENDBRANCH  26  27
ENDBRANCH  22  25
BRANCH  23  29
ATOM     29  C   UNL A   1      29.522  30.460  23.356  1.00  0.00     0.065 A 
ATOM     30  C   UNL A   1      29.226  29.805  22.154  1.00  0.00     0.028 A 
ATOM     31  C   UNL A   1      29.095  31.775  23.572  1.00  0.00     0.028 A 
ATOM     32  C   UNL A   1      28.477  30.457  21.177  1.00  0.00     0.002 A 
ATOM     33  C   UNL A   1      28.396  32.440  22.563  1.00  0.00     0.002 A 
ATOM     34  C   UNL A   1      28.076  31.779  21.375  1.00  0.00     0.000 A 
ENDBRANCH  23  29
ENDBRANCH  17  20
ENDBRANCH   9  14
ENDBRANCH   5   8
ENDBRANCH   3   4
ENDBRANCH   2   3
ENDBRANCH   1   2
BRANCH   1  35
ATOM     35  C   UNL A   1      41.336  21.946  27.533  1.00  0.00     0.002 C 
BRANCH  35  36
ATOM     36  C   UNL A   1      42.460  21.606  26.542  1.00  0.00     0.021 C 
BRANCH  36  37
ATOM     37  C   UNL A   1      42.512  22.564  25.363  1.00  0.00     0.116 C 
BRANCH  37  38
ATOM     38  N   UNL A   1      43.832  22.564  24.734  1.00  0.00    -0.352 N 
ATOM     39  C   UNL A   1      44.701  23.620  24.570  1.00  0.00     0.251 C 
ATOM     40  H   UNL A   1      44.139  21.697  24.383  1.00  0.00     0.163 HD
ATOM     41  O   UNL A   1      45.599  23.571  23.742  1.00  0.00    -0.269 OA
BRANCH  39  42
ATOM     42  C   UNL A   1      44.528  24.811  25.420  1.00  0.00     0.039 A 
ATOM     43  C   UNL A   1      43.561  25.771  25.114  1.00  0.00     0.014 A 
ATOM     44  C   UNL A   1      45.346  24.946  26.540  1.00  0.00     0.014 A 
ATOM     45  C   UNL A   1      43.381  26.839  25.986  1.00  0.00     0.010 A 
ATOM     46  C   UNL A   1      45.073  25.917  27.469  1.00  0.00     0.010 A 
ATOM     47  C   UNL A   1      44.133  26.895  27.169  1.00  0.00    -0.014 A 
BRANCH  47  48
ATOM     48  C   UNL A   1      43.851  27.910  28.174  1.00  0.00     0.031 A 
ATOM     49  C   UNL A   1      44.598  29.183  27.977  1.00  0.00     0.074 A 
ATOM     50  C   UNL A   1      42.837  27.789  29.059  1.00  0.00     0.049 A 
ATOM     51  N   UNL A   1      45.509  29.689  28.741  1.00  0.00    -0.248 NA
ATOM     52  C   UNL A   1      44.429  29.899  26.702  1.00  0.00     0.031 C 
ATOM     53  C   UNL A   1      41.819  26.731  29.124  1.00  0.00     0.029 A 
ATOM     54  N   UNL A   1      42.398  28.679  29.989  1.00  0.00    -0.354 N 
ATOM     55  C   UNL A   1      45.839  30.916  28.168  1.00  0.00     0.074 A 
ATOM     56  C   UNL A   1      45.320  30.884  26.827  1.00  0.00     0.031 C 
ATOM     57  C   UNL A   1      40.756  27.175  29.829  1.00  0.00     0.029 A 
ATOM     58  C   UNL A   1      41.085  28.465  30.403  1.00  0.00     0.049 A 
ATOM     59  H   UNL A   1      42.959  29.409  30.338  1.00  0.00     0.167 HD
ATOM     60  C   UNL A   1      46.270  31.958  28.933  1.00  0.00     0.034 A 
ATOM     61  C   UNL A   1      40.306  29.325  31.105  1.00  0.00     0.034 A 
ATOM     62  C   UNL A   1      46.667  31.513  30.245  1.00  0.00     0.049 A 
ATOM     63  C   UNL A   1      41.211  30.293  31.765  1.00  0.00     0.074 A 
ATOM     64  C   UNL A   1      47.576  30.592  30.730  1.00  0.00     0.029 A 
ATOM     65  N   UNL A   1      45.790  31.752  31.275  1.00  0.00    -0.354 N 
ATOM     66  N   UNL A   1      42.064  29.959  32.692  1.00  0.00    -0.248 NA
ATOM     67  C   UNL A   1      41.492  31.537  31.069  1.00  0.00     0.031 C 
ATOM     68  C   UNL A   1      46.905  29.961  31.818  1.00  0.00     0.029 A 
ATOM     69  C   UNL A   1      45.669  30.588  31.986  1.00  0.00     0.049 A 
ATOM     70  H   UNL A   1      45.333  32.602  31.466  1.00  0.00     0.167 HD
ATOM     71  C   UNL A   1      43.211  30.673  32.371  1.00  0.00     0.074 A 
ATOM     72  C   UNL A   1      42.767  31.703  31.430  1.00  0.00     0.031 C 
ATOM     73  C   UNL A   1      44.453  30.181  32.654  1.00  0.00     0.034 A 
BRANCH  60  74
ATOM     74  C   UNL A   1      45.974  33.418  28.659  1.00  0.00     0.023 A 
ATOM     75  C   UNL A   1      47.044  34.330  28.807  1.00  0.00     0.012 A 
ATOM     76  C   UNL A   1      44.677  33.970  28.550  1.00  0.00     0.148 A 
ATOM     77  C   UNL A   1      46.828  35.709  28.909  1.00  0.00     0.002 A 
ATOM     78  C   UNL A   1      44.475  35.346  28.567  1.00  0.00     0.091 A 
ATOM     79  F   UNL A   1      43.604  33.177  28.562  1.00  0.00    -0.205 F 
ATOM     80  C   UNL A   1      45.543  36.219  28.782  1.00  0.00     0.022 A 
BRANCH  78  81
ATOM     81  S   UNL A   1      42.839  36.061  28.355  1.00  0.00     0.127 S 
ATOM     82  O   UNL A   1      42.094  35.407  29.426  1.00  0.00    -0.237 OA
ATOM     83  O   UNL A   1      43.106  37.484  28.564  1.00  0.00    -0.237 OA
ATOM     84  O   UNL A   1      42.436  35.726  26.995  1.00  0.00    -0.744 OA
ENDBRANCH  78  81
ENDBRANCH  60  74
BRANCH  61  85
ATOM     85  C   UNL A   1      38.844  29.553  31.017  1.00  0.00     0.023 A 
ATOM     86  C   UNL A   1      38.019  29.255  32.121  1.00  0.00     0.012 A 
ATOM     87  C   UNL A   1      38.296  30.324  29.967  1.00  0.00     0.148 A 
ATOM     88  C   UNL A   1      36.705  29.735  32.191  1.00  0.00     0.002 A 
ATOM     89  C   UNL A   1      36.987  30.793  30.038  1.00  0.00     0.091 A 
ATOM     90  F   UNL A   1      39.087  30.679  28.946  1.00  0.00    -0.205 F 
ATOM     91  C   UNL A   1      36.191  30.510  31.154  1.00  0.00     0.022 A 
BRANCH  89  92
ATOM     92  S   UNL A   1      36.271  31.825  28.750  1.00  0.00     0.127 S 
ATOM     93  O   UNL A   1      34.894  31.982  29.219  1.00  0.00    -0.237 OA
ATOM     94  O   UNL A   1      37.091  33.030  28.837  1.00  0.00    -0.237 OA
ATOM     95  O   UNL A   1      36.400  31.064  27.513  1.00  0.00    -0.744 OA
ENDBRANCH  89  92
ENDBRANCH  61  85
BRANCH  73  96
ATOM     96  C   UNL A   1      44.558  28.964  33.541  1.00  0.00     0.023 A 
ATOM     97  C   UNL A   1      44.626  27.650  33.031  1.00  0.00     0.012 A 
ATOM     98  C   UNL A   1      44.781  29.171  34.912  1.00  0.00     0.148 A 
ATOM     99  C   UNL A   1      44.892  26.566  33.874  1.00  0.00     0.002 A 
ATOM    100  C   UNL A   1      45.093  28.099  35.738  1.00  0.00     0.091 A 
ATOM    101  F   UNL A   1      44.716  30.427  35.380  1.00  0.00    -0.205 F 
ATOM    102  C   UNL A   1      45.140  26.793  35.226  1.00  0.00     0.022 A 
BRANCH 100 103
ATOM    103  S   UNL A   1      45.546  28.347  37.456  1.00  0.00     0.127 S 
ATOM    104  O   UNL A   1      44.420  29.132  37.957  1.00  0.00    -0.237 OA
ATOM    105  O   UNL A   1      45.610  26.976  37.965  1.00  0.00    -0.237 OA
ATOM    106  O   UNL A   1      46.831  29.034  37.437  1.00  0.00    -0.744 OA
ENDBRANCH 100 103
ENDBRANCH  73  96
ENDBRANCH  47  48
ENDBRANCH  39  42
ENDBRANCH  37  38
ENDBRANCH  36  37
ENDBRANCH  35  36
ENDBRANCH   1  35
TORSDOF 21
ENDMDL
