MODEL 1
REMARK VINA RESULT:     -12.1      0.000      0.000
REMARK SMILES O=C(NCCCCCCNC(=O)[C@H]1C=C[C@H](NS(=O)(=O)c2ccc3c(c2)CCO3)C1)c1ccc(-c2c3nc(c(-c4cccc(S(=O)(=O)[O-])c4F)c4ccc([nH]4)c(-c4cccc(S(=O)(=O)[O-])c4F)c4nc(c(-c5cccc(S(=O)(=O)[O-])c5F)c5ccc2[nH]5)C=C4)C=C3)cc1
REMARK SMILES IDX 6 1 5 2 4 3 3 4 1 5 2 6 31 8 32 9 93 10 33 11 92 12 34 13
REMARK SMILES IDX 35 14 36 15 86 16 37 17 91 18 85 19 87 20 38 21 90 22 84 23
REMARK SMILES IDX 83 24 39 26 71 27 51 28 70 29 52 30 55 31 69 32 88 33 53 34
REMARK SMILES IDX 54 35 68 37 89 38 56 39 40 40 41 41 49 42 42 43 44 44 50 45
REMARK SMILES IDX 43 46 45 47 46 48 47 49 48 50 72 51 73 52 81 53 74 54 76 55
REMARK SMILES IDX 82 56 75 57 77 58 78 59 79 60 80 61 57 62 58 63 66 64 59 65
REMARK SMILES IDX 61 66 67 67 60 68 62 69 63 70 64 71 65 72 7 73 8 74 9 75
REMARK SMILES IDX 10 76 11 77 12 79 13 80 14 81 30 82 15 83 16 84 17 85 18 87
REMARK SMILES IDX 19 88 20 89 21 90 22 91 26 92 23 93 25 94 24 95 27 96 29 97
REMARK SMILES IDX 28 98
REMARK H PARENT 3 7 87 25 55 36 10 78 17 86
REMARK Flexibility Score: inf
ROOT
ATOM      1  C   UNL A   1      31.657  29.872  25.348  1.00  0.00     0.002 C 
ENDROOT
BRANCH   1   2
ATOM      2  C   UNL A   1      31.399  31.188  26.087  1.00  0.00     0.021 C 
BRANCH   2   3
ATOM      3  C   UNL A   1      32.567  31.674  26.937  1.00  0.00     0.116 C 
BRANCH   3   4
ATOM      4  N   UNL A   1      32.487  33.100  27.199  1.00  0.00    -0.352 N 
ATOM      5  O   UNL A   1      32.850  35.003  28.347  1.00  0.00    -0.269 OA
ATOM      6  C   UNL A   1      33.201  33.854  28.098  1.00  0.00     0.251 C 
ATOM      7  H   UNL A   1      31.830  33.595  26.658  1.00  0.00     0.163 HD
BRANCH   6   8
ATOM      8  C   UNL A   1      34.382  33.266  28.771  1.00  0.00     0.039 A 
ATOM      9  C   UNL A   1      34.224  32.447  29.892  1.00  0.00     0.014 A 
ATOM     10  C   UNL A   1      35.658  33.511  28.253  1.00  0.00     0.014 A 
ATOM     11  C   UNL A   1      35.344  31.963  30.560  1.00  0.00     0.010 A 
ATOM     12  C   UNL A   1      36.778  32.959  28.880  1.00  0.00     0.010 A 
ATOM     13  C   UNL A   1      36.632  32.192  30.046  1.00  0.00    -0.014 A 
BRANCH  13  14
ATOM     14  C   UNL A   1      37.792  31.505  30.668  1.00  0.00     0.031 A 
ATOM     15  C   UNL A   1      38.574  30.453  29.936  1.00  0.00     0.074 A 
ATOM     16  C   UNL A   1      38.119  31.839  31.932  1.00  0.00     0.049 A 
ATOM     17  N   UNL A   1      39.625  29.787  30.340  1.00  0.00    -0.248 NA
ATOM     18  C   UNL A   1      38.123  30.093  28.581  1.00  0.00     0.031 C 
ATOM     19  C   UNL A   1      37.389  32.803  32.762  1.00  0.00     0.029 A 
ATOM     20  N   UNL A   1      39.132  31.404  32.748  1.00  0.00    -0.354 N 
ATOM     21  C   UNL A   1      39.939  28.904  29.314  1.00  0.00     0.074 A 
ATOM     22  C   UNL A   1      38.969  29.120  28.262  1.00  0.00     0.031 C 
ATOM     23  C   UNL A   1      37.982  32.894  33.960  1.00  0.00     0.029 A 
ATOM     24  C   UNL A   1      39.102  31.962  34.004  1.00  0.00     0.049 A 
ATOM     25  H   UNL A   1      39.813  30.753  32.462  1.00  0.00     0.167 HD
ATOM     26  C   UNL A   1      40.950  28.004  29.258  1.00  0.00     0.034 A 
ATOM     27  C   UNL A   1      39.873  31.735  35.084  1.00  0.00     0.034 A 
ATOM     28  C   UNL A   1      41.932  27.822  30.296  1.00  0.00     0.049 A 
ATOM     29  C   UNL A   1      41.000  30.751  34.973  1.00  0.00     0.074 A 
ATOM     30  C   UNL A   1      43.052  27.008  30.284  1.00  0.00     0.029 A 
ATOM     31  N   UNL A   1      41.902  28.442  31.534  1.00  0.00    -0.354 N 
ATOM     32  N   UNL A   1      41.386  30.056  33.931  1.00  0.00    -0.248 NA
ATOM     33  C   UNL A   1      41.815  30.536  36.176  1.00  0.00     0.031 C 
ATOM     34  C   UNL A   1      43.685  27.117  31.527  1.00  0.00     0.029 A 
ATOM     35  C   UNL A   1      42.971  28.013  32.304  1.00  0.00     0.049 A 
ATOM     36  H   UNL A   1      41.221  29.092  31.825  1.00  0.00     0.167 HD
ATOM     37  C   UNL A   1      42.495  29.333  34.347  1.00  0.00     0.074 A 
ATOM     38  C   UNL A   1      42.745  29.706  35.725  1.00  0.00     0.031 C 
ATOM     39  C   UNL A   1      43.229  28.424  33.660  1.00  0.00     0.034 A 
BRANCH  26  40
ATOM     40  C   UNL A   1      41.093  27.164  28.016  1.00  0.00     0.023 A 
ATOM     41  C   UNL A   1      41.727  27.706  26.880  1.00  0.00     0.012 A 
ATOM     42  C   UNL A   1      40.715  25.806  28.015  1.00  0.00     0.148 A 
ATOM     43  C   UNL A   1      41.974  26.915  25.759  1.00  0.00     0.002 A 
ATOM     44  C   UNL A   1      40.996  25.014  26.908  1.00  0.00     0.091 A 
ATOM     45  F   UNL A   1      40.100  25.315  29.100  1.00  0.00    -0.205 F 
ATOM     46  C   UNL A   1      41.620  25.568  25.778  1.00  0.00     0.022 A 
BRANCH  44  47
ATOM     47  S   UNL A   1      40.648  23.252  26.858  1.00  0.00     0.127 S 
ATOM     48  O   UNL A   1      41.499  22.817  25.750  1.00  0.00    -0.237 OA
ATOM     49  O   UNL A   1      41.097  22.813  28.179  1.00  0.00    -0.237 OA
ATOM     50  O   UNL A   1      39.217  23.130  26.626  1.00  0.00    -0.744 OA
ENDBRANCH  44  47
ENDBRANCH  26  40
BRANCH  27  51
ATOM     51  C   UNL A   1      39.614  32.475  36.350  1.00  0.00     0.023 A 
ATOM     52  C   UNL A   1      40.326  33.659  36.623  1.00  0.00     0.012 A 
ATOM     53  C   UNL A   1      38.643  32.030  37.268  1.00  0.00     0.148 A 
ATOM     54  C   UNL A   1      40.094  34.369  37.801  1.00  0.00     0.002 A 
ATOM     55  C   UNL A   1      38.374  32.776  38.409  1.00  0.00     0.091 A 
ATOM     56  F   UNL A   1      37.990  30.888  37.004  1.00  0.00    -0.205 F 
ATOM     57  C   UNL A   1      39.111  33.937  38.687  1.00  0.00     0.022 A 
BRANCH  55  58
ATOM     58  S   UNL A   1      37.019  32.357  39.509  1.00  0.00     0.127 S 
ATOM     59  O   UNL A   1      37.387  31.011  39.939  1.00  0.00    -0.237 OA
ATOM     60  O   UNL A   1      37.127  33.387  40.543  1.00  0.00    -0.237 OA
ATOM     61  O   UNL A   1      35.817  32.464  38.690  1.00  0.00    -0.744 OA
ENDBRANCH  55  58
ENDBRANCH  27  51
BRANCH  39  62
ATOM     62  C   UNL A   1      44.374  27.772  34.386  1.00  0.00     0.023 A 
ATOM     63  C   UNL A   1      45.633  28.405  34.404  1.00  0.00     0.012 A 
ATOM     64  C   UNL A   1      44.192  26.570  35.096  1.00  0.00     0.148 A 
ATOM     65  C   UNL A   1      46.704  27.832  35.089  1.00  0.00     0.002 A 
ATOM     66  C   UNL A   1      45.251  26.029  35.815  1.00  0.00     0.091 A 
ATOM     67  F   UNL A   1      42.991  25.975  35.050  1.00  0.00    -0.205 F 
ATOM     68  C   UNL A   1      46.510  26.653  35.803  1.00  0.00     0.022 A 
BRANCH  66  69
ATOM     69  S   UNL A   1      45.069  24.563  36.836  1.00  0.00     0.127 S 
ATOM     70  O   UNL A   1      46.413  24.416  37.389  1.00  0.00    -0.237 OA
ATOM     71  O   UNL A   1      44.052  24.979  37.801  1.00  0.00    -0.237 OA
ATOM     72  O   UNL A   1      44.644  23.500  35.934  1.00  0.00    -0.744 OA
ENDBRANCH  66  69
ENDBRANCH  39  62
ENDBRANCH  13  14
ENDBRANCH   6   8
ENDBRANCH   3   4
ENDBRANCH   2   3
ENDBRANCH   1   2
BRANCH   1  73
ATOM     73  C   UNL A   1      30.654  29.545  24.235  1.00  0.00     0.002 C 
BRANCH  73  74
ATOM     74  C   UNL A   1      31.276  29.182  22.881  1.00  0.00     0.021 C 
BRANCH  74  75
ATOM     75  C   UNL A   1      32.755  28.799  22.953  1.00  0.00     0.116 C 
BRANCH  75  76
ATOM     76  N   UNL A   1      33.094  27.791  21.964  1.00  0.00    -0.356 N 
ATOM     77  C   UNL A   1      32.933  26.433  22.021  1.00  0.00     0.226 C 
ATOM     78  H   UNL A   1      33.496  28.133  21.134  1.00  0.00     0.163 HD
ATOM     79  O   UNL A   1      33.294  25.759  21.056  1.00  0.00    -0.274 OA
BRANCH  77  80
ATOM     80  C   UNL A   1      32.293  25.827  23.274  1.00  0.00     0.103 C 
ATOM     81  C   UNL A   1      31.106  24.959  22.992  1.00  0.00    -0.016 C 
ATOM     82  C   UNL A   1      33.258  24.864  23.979  1.00  0.00     0.042 C 
ATOM     83  C   UNL A   1      31.203  23.762  23.582  1.00  0.00    -0.011 C 
ATOM     84  C   UNL A   1      32.486  23.589  24.319  1.00  0.00     0.093 C 
BRANCH  84  85
ATOM     85  N   UNL A   1      32.201  23.516  25.737  1.00  0.00    -0.204 NA
ATOM     86  H   UNL A   1      31.307  23.033  25.828  1.00  0.00     0.142 HD
BRANCH  85  87
ATOM     87  S   UNL A   1      33.251  22.765  26.801  1.00  0.00     0.241 S 
ATOM     88  O   UNL A   1      34.412  23.626  26.876  1.00  0.00    -0.207 OA
ATOM     89  O   UNL A   1      32.507  22.387  27.980  1.00  0.00    -0.207 OA
BRANCH  87  90
ATOM     90  C   UNL A   1      33.726  21.273  25.952  1.00  0.00     0.083 A 
ATOM     91  C   UNL A   1      35.082  21.078  25.617  1.00  0.00     0.025 A 
ATOM     92  C   UNL A   1      32.752  20.333  25.584  1.00  0.00     0.029 A 
ATOM     93  C   UNL A   1      35.492  19.896  24.998  1.00  0.00     0.048 A 
ATOM     94  C   UNL A   1      33.180  19.179  24.946  1.00  0.00    -0.001 A 
ATOM     95  C   UNL A   1      34.525  18.960  24.689  1.00  0.00     0.122 A 
ATOM     96  C   UNL A   1      32.394  18.075  24.347  1.00  0.00     0.081 C 
ATOM     97  O   UNL A   1      34.784  17.762  24.076  1.00  0.00    -0.493 OA
ATOM     98  C   UNL A   1      33.519  17.058  24.151  1.00  0.00     0.234 C 
ENDBRANCH  87  90
ENDBRANCH  85  87
ENDBRANCH  84  85
ENDBRANCH  77  80
ENDBRANCH  75  76
ENDBRANCH  74  75
ENDBRANCH  73  74
ENDBRANCH   1  73
TORSDOF 19
ENDMDL
MODEL 2
REMARK VINA RESULT:     -11.4      6.317     11.484
REMARK SMILES O=C(NCCCCCCNC(=O)[C@H]1C=C[C@H](NS(=O)(=O)c2ccc3c(c2)CCO3)C1)c1ccc(-c2c3nc(c(-c4cccc(S(=O)(=O)[O-])c4F)c4ccc([nH]4)c(-c4cccc(S(=O)(=O)[O-])c4F)c4nc(c(-c5cccc(S(=O)(=O)[O-])c5F)c5ccc2[nH]5)C=C4)C=C3)cc1
REMARK SMILES IDX 6 1 5 2 4 3 3 4 1 5 2 6 31 8 32 9 93 10 33 11 92 12 34 13
REMARK SMILES IDX 35 14 36 15 86 16 37 17 91 18 85 19 87 20 38 21 90 22 84 23
REMARK SMILES IDX 83 24 39 26 71 27 51 28 70 29 52 30 55 31 69 32 88 33 53 34
REMARK SMILES IDX 54 35 68 37 89 38 56 39 40 40 41 41 49 42 42 43 44 44 50 45
REMARK SMILES IDX 43 46 45 47 46 48 47 49 48 50 72 51 73 52 81 53 74 54 76 55
REMARK SMILES IDX 82 56 75 57 77 58 78 59 79 60 80 61 57 62 58 63 66 64 59 65
REMARK SMILES IDX 61 66 67 67 60 68 62 69 63 70 64 71 65 72 7 73 8 74 9 75
REMARK SMILES IDX 10 76 11 77 12 79 13 80 14 81 30 82 15 83 16 84 17 85 18 87
REMARK SMILES IDX 19 88 20 89 21 90 22 91 26 92 23 93 25 94 24 95 27 96 29 97
REMARK SMILES IDX 28 98
REMARK H PARENT 3 7 87 25 55 36 10 78 17 86
REMARK Flexibility Score: inf
ROOT
ATOM      1  C   UNL A   1      39.725  22.577  26.923  1.00  0.00     0.002 C 
ENDROOT
BRANCH   1   2
ATOM      2  C   UNL A   1      39.758  21.265  26.135  1.00  0.00     0.021 C 
BRANCH   2   3
ATOM      3  C   UNL A   1      40.280  20.069  26.923  1.00  0.00     0.116 C 
BRANCH   3   4
ATOM      4  N   UNL A   1      41.303  19.345  26.190  1.00  0.00    -0.352 N 
ATOM      5  O   UNL A   1      43.111  19.115  24.867  1.00  0.00    -0.269 OA
ATOM      6  C   UNL A   1      42.473  19.817  25.646  1.00  0.00     0.251 C 
ATOM      7  H   UNL A   1      41.136  18.383  26.066  1.00  0.00     0.163 HD
BRANCH   6   8
ATOM      8  C   UNL A   1      42.944  21.177  25.991  1.00  0.00     0.039 A 
ATOM      9  C   UNL A   1      43.018  22.172  25.013  1.00  0.00     0.014 A 
ATOM     10  C   UNL A   1      43.284  21.468  27.316  1.00  0.00     0.014 A 
ATOM     11  C   UNL A   1      43.533  23.423  25.334  1.00  0.00     0.010 A 
ATOM     12  C   UNL A   1      43.728  22.750  27.653  1.00  0.00     0.010 A 
ATOM     13  C   UNL A   1      43.869  23.734  26.662  1.00  0.00    -0.014 A 
BRANCH  13  14
ATOM     14  C   UNL A   1      44.233  25.131  27.010  1.00  0.00     0.031 A 
ATOM     15  C   UNL A   1      43.235  26.085  27.598  1.00  0.00     0.074 A 
ATOM     16  C   UNL A   1      45.495  25.535  26.760  1.00  0.00     0.049 A 
ATOM     17  N   UNL A   1      43.414  27.325  27.976  1.00  0.00    -0.248 NA
ATOM     18  C   UNL A   1      41.858  25.597  27.785  1.00  0.00     0.031 C 
ATOM     19  C   UNL A   1      46.531  24.709  26.131  1.00  0.00     0.029 A 
ATOM     20  N   UNL A   1      46.121  26.733  26.989  1.00  0.00    -0.354 N 
ATOM     21  C   UNL A   1      42.174  27.780  28.406  1.00  0.00     0.074 A 
ATOM     22  C   UNL A   1      41.245  26.681  28.249  1.00  0.00     0.031 C 
ATOM     23  C   UNL A   1      47.664  25.420  26.034  1.00  0.00     0.029 A 
ATOM     24  C   UNL A   1      47.423  26.763  26.547  1.00  0.00     0.049 A 
ATOM     25  H   UNL A   1      45.681  27.497  27.425  1.00  0.00     0.167 HD
ATOM     26  C   UNL A   1      41.848  29.000  28.896  1.00  0.00     0.034 A 
ATOM     27  C   UNL A   1      48.321  27.766  26.530  1.00  0.00     0.034 A 
ATOM     28  C   UNL A   1      42.787  30.076  29.082  1.00  0.00     0.049 A 
ATOM     29  C   UNL A   1      47.930  29.095  27.106  1.00  0.00     0.074 A 
ATOM     30  C   UNL A   1      42.571  31.312  29.666  1.00  0.00     0.029 A 
ATOM     31  N   UNL A   1      44.110  30.055  28.672  1.00  0.00    -0.354 N 
ATOM     32  N   UNL A   1      46.801  29.447  27.670  1.00  0.00    -0.248 NA
ATOM     33  C   UNL A   1      48.943  30.158  27.067  1.00  0.00     0.031 C 
ATOM     34  C   UNL A   1      43.757  32.049  29.585  1.00  0.00     0.029 A 
ATOM     35  C   UNL A   1      44.717  31.264  28.969  1.00  0.00     0.049 A 
ATOM     36  H   UNL A   1      44.554  29.293  28.233  1.00  0.00     0.167 HD
ATOM     37  C   UNL A   1      46.971  30.767  28.067  1.00  0.00     0.074 A 
ATOM     38  C   UNL A   1      48.327  31.138  27.714  1.00  0.00     0.031 C 
ATOM     39  C   UNL A   1      46.079  31.605  28.648  1.00  0.00     0.034 A 
BRANCH  26  40
ATOM     40  C   UNL A   1      40.422  29.246  29.315  1.00  0.00     0.023 A 
ATOM     41  C   UNL A   1      39.457  29.567  28.339  1.00  0.00     0.012 A 
ATOM     42  C   UNL A   1      40.016  29.037  30.648  1.00  0.00     0.148 A 
ATOM     43  C   UNL A   1      38.112  29.687  28.684  1.00  0.00     0.002 A 
ATOM     44  C   UNL A   1      38.668  29.123  30.978  1.00  0.00     0.091 A 
ATOM     45  F   UNL A   1      40.951  28.747  31.563  1.00  0.00    -0.205 F 
ATOM     46  C   UNL A   1      37.716  29.454  29.999  1.00  0.00     0.022 A 
BRANCH  44  47
ATOM     47  S   UNL A   1      38.043  28.770  32.625  1.00  0.00     0.127 S 
ATOM     48  O   UNL A   1      36.667  29.257  32.528  1.00  0.00    -0.237 OA
ATOM     49  O   UNL A   1      38.171  27.315  32.696  1.00  0.00    -0.237 OA
ATOM     50  O   UNL A   1      38.898  29.504  33.547  1.00  0.00    -0.744 OA
ENDBRANCH  44  47
ENDBRANCH  26  40
BRANCH  27  51
ATOM     51  C   UNL A   1      49.682  27.535  25.970  1.00  0.00     0.023 A 
ATOM     52  C   UNL A   1      50.726  27.130  26.823  1.00  0.00     0.012 A 
ATOM     53  C   UNL A   1      49.937  27.682  24.593  1.00  0.00     0.148 A 
ATOM     54  C   UNL A   1      52.006  26.904  26.318  1.00  0.00     0.002 A 
ATOM     55  C   UNL A   1      51.199  27.395  24.088  1.00  0.00     0.091 A 
ATOM     56  F   UNL A   1      48.937  28.091  23.798  1.00  0.00    -0.205 F 
ATOM     57  C   UNL A   1      52.241  27.023  24.950  1.00  0.00     0.022 A 
BRANCH  55  58
ATOM     58  S   UNL A   1      51.524  27.382  22.322  1.00  0.00     0.127 S 
ATOM     59  O   UNL A   1      52.785  26.648  22.254  1.00  0.00    -0.237 OA
ATOM     60  O   UNL A   1      50.362  26.663  21.797  1.00  0.00    -0.237 OA
ATOM     61  O   UNL A   1      51.575  28.786  21.935  1.00  0.00    -0.744 OA
ENDBRANCH  55  58
ENDBRANCH  27  51
BRANCH  39  62
ATOM     62  C   UNL A   1      46.542  33.005  28.945  1.00  0.00     0.023 A 
ATOM     63  C   UNL A   1      47.265  33.260  30.128  1.00  0.00     0.012 A 
ATOM     64  C   UNL A   1      46.314  34.052  28.032  1.00  0.00     0.148 A 
ATOM     65  C   UNL A   1      47.724  34.545  30.413  1.00  0.00     0.002 A 
ATOM     66  C   UNL A   1      46.815  35.320  28.301  1.00  0.00     0.091 A 
ATOM     67  F   UNL A   1      45.607  33.792  26.922  1.00  0.00    -0.205 F 
ATOM     68  C   UNL A   1      47.510  35.571  29.496  1.00  0.00     0.022 A 
BRANCH  66  69
ATOM     69  S   UNL A   1      46.665  36.679  27.137  1.00  0.00     0.127 S 
ATOM     70  O   UNL A   1      47.316  37.768  27.863  1.00  0.00    -0.237 OA
ATOM     71  O   UNL A   1      47.411  36.184  25.981  1.00  0.00    -0.237 OA
ATOM     72  O   UNL A   1      45.236  36.848  26.904  1.00  0.00    -0.744 OA
ENDBRANCH  66  69
ENDBRANCH  39  62
ENDBRANCH  13  14
ENDBRANCH   6   8
ENDBRANCH   3   4
ENDBRANCH   2   3
ENDBRANCH   1   2
BRANCH   1  73
ATOM     73  C   UNL A   1      39.042  23.748  26.207  1.00  0.00     0.002 C 
BRANCH  73  74
ATOM     74  C   UNL A   1      37.510  23.688  26.172  1.00  0.00     0.021 C 
BRANCH  74  75
ATOM     75  C   UNL A   1      36.946  22.537  25.338  1.00  0.00     0.116 C 
BRANCH  75  76
ATOM     76  N   UNL A   1      35.882  21.841  26.041  1.00  0.00    -0.356 N 
ATOM     77  C   UNL A   1      34.612  21.552  25.622  1.00  0.00     0.226 C 
ATOM     78  H   UNL A   1      36.108  21.531  26.947  1.00  0.00     0.163 HD
ATOM     79  O   UNL A   1      33.866  20.944  26.390  1.00  0.00    -0.274 OA
BRANCH  77  80
ATOM     80  C   UNL A   1      34.193  21.983  24.213  1.00  0.00     0.103 C 
ATOM     81  C   UNL A   1      33.001  21.248  23.681  1.00  0.00    -0.016 C 
ATOM     82  C   UNL A   1      33.727  23.445  24.196  1.00  0.00     0.042 C 
ATOM     83  C   UNL A   1      32.059  22.079  23.219  1.00  0.00    -0.011 C 
ATOM     84  C   UNL A   1      32.421  23.513  23.403  1.00  0.00     0.093 C 
BRANCH  84  85
ATOM     85  N   UNL A   1      32.634  24.109  22.100  1.00  0.00    -0.204 NA
ATOM     86  H   UNL A   1      31.954  23.681  21.472  1.00  0.00     0.142 HD
BRANCH  85  87
ATOM     87  S   UNL A   1      32.515  25.761  21.866  1.00  0.00     0.241 S 
ATOM     88  O   UNL A   1      33.859  26.212  21.575  1.00  0.00    -0.207 OA
ATOM     89  O   UNL A   1      31.416  26.012  20.963  1.00  0.00    -0.207 OA
BRANCH  87  90
ATOM     90  C   UNL A   1      32.059  26.389  23.470  1.00  0.00     0.083 A 
ATOM     91  C   UNL A   1      30.725  26.246  23.906  1.00  0.00     0.025 A 
ATOM     92  C   UNL A   1      33.007  27.054  24.259  1.00  0.00     0.029 A 
ATOM     93  C   UNL A   1      30.351  26.681  25.179  1.00  0.00     0.048 A 
ATOM     94  C   UNL A   1      32.605  27.502  25.508  1.00  0.00    -0.001 A 
ATOM     95  C   UNL A   1      31.311  27.290  25.962  1.00  0.00     0.122 A 
ATOM     96  C   UNL A   1      33.332  28.321  26.506  1.00  0.00     0.081 C 
ATOM     97  O   UNL A   1      31.082  27.770  27.225  1.00  0.00    -0.493 OA
ATOM     98  C   UNL A   1      32.404  28.119  27.705  1.00  0.00     0.234 C 
ENDBRANCH  87  90
ENDBRANCH  85  87
ENDBRANCH  84  85
ENDBRANCH  77  80
ENDBRANCH  75  76
ENDBRANCH  74  75
ENDBRANCH  73  74
ENDBRANCH   1  73
TORSDOF 19
ENDMDL
MODEL 3
REMARK VINA RESULT:     -11.4      6.762     10.571
REMARK SMILES O=C(NCCCCCCNC(=O)[C@H]1C=C[C@H](NS(=O)(=O)c2ccc3c(c2)CCO3)C1)c1ccc(-c2c3nc(c(-c4cccc(S(=O)(=O)[O-])c4F)c4ccc([nH]4)c(-c4cccc(S(=O)(=O)[O-])c4F)c4nc(c(-c5cccc(S(=O)(=O)[O-])c5F)c5ccc2[nH]5)C=C4)C=C3)cc1
REMARK SMILES IDX 6 1 5 2 4 3 3 4 1 5 2 6 31 8 32 9 93 10 33 11 92 12 34 13
REMARK SMILES IDX 35 14 36 15 86 16 37 17 91 18 85 19 87 20 38 21 90 22 84 23
REMARK SMILES IDX 83 24 39 26 71 27 51 28 70 29 52 30 55 31 69 32 88 33 53 34
REMARK SMILES IDX 54 35 68 37 89 38 56 39 40 40 41 41 49 42 42 43 44 44 50 45
REMARK SMILES IDX 43 46 45 47 46 48 47 49 48 50 72 51 73 52 81 53 74 54 76 55
REMARK SMILES IDX 82 56 75 57 77 58 78 59 79 60 80 61 57 62 58 63 66 64 59 65
REMARK SMILES IDX 61 66 67 67 60 68 62 69 63 70 64 71 65 72 7 73 8 74 9 75
REMARK SMILES IDX 10 76 11 77 12 79 13 80 14 81 30 82 15 83 16 84 17 85 18 87
REMARK SMILES IDX 19 88 20 89 21 90 22 91 26 92 23 93 25 94 24 95 27 96 29 97
REMARK SMILES IDX 28 98
REMARK H PARENT 3 7 87 25 55 36 10 78 17 86
REMARK Flexibility Score: inf
ROOT
ATOM      1  C   UNL A   1      41.461  21.816  28.031  1.00  0.00     0.002 C 
ENDROOT
BRANCH   1   2
ATOM      2  C   UNL A   1      41.577  20.394  27.477  1.00  0.00     0.021 C 
BRANCH   2   3
ATOM      3  C   UNL A   1      41.521  20.303  25.957  1.00  0.00     0.116 C 
BRANCH   3   4
ATOM      4  N   UNL A   1      42.670  19.598  25.416  1.00  0.00    -0.352 N 
ATOM      5  O   UNL A   1      44.665  19.400  24.391  1.00  0.00    -0.269 OA
ATOM      6  C   UNL A   1      43.891  20.100  25.036  1.00  0.00     0.251 C 
ATOM      7  H   UNL A   1      42.558  18.626  25.305  1.00  0.00     0.163 HD
BRANCH   6   8
ATOM      8  C   UNL A   1      44.254  21.489  25.396  1.00  0.00     0.039 A 
ATOM      9  C   UNL A   1      43.925  22.551  24.549  1.00  0.00     0.014 A 
ATOM     10  C   UNL A   1      44.901  21.735  26.611  1.00  0.00     0.014 A 
ATOM     11  C   UNL A   1      44.339  23.841  24.861  1.00  0.00     0.010 A 
ATOM     12  C   UNL A   1      45.247  23.043  26.961  1.00  0.00     0.010 A 
ATOM     13  C   UNL A   1      44.980  24.106  26.083  1.00  0.00    -0.014 A 
BRANCH  13  14
ATOM     14  C   UNL A   1      45.237  25.514  26.476  1.00  0.00     0.031 A 
ATOM     15  C   UNL A   1      46.617  26.106  26.442  1.00  0.00     0.074 A 
ATOM     16  C   UNL A   1      44.190  26.254  26.891  1.00  0.00     0.049 A 
ATOM     17  N   UNL A   1      46.990  27.326  26.731  1.00  0.00    -0.248 NA
ATOM     18  C   UNL A   1      47.724  25.222  26.039  1.00  0.00     0.031 C 
ATOM     19  C   UNL A   1      42.814  25.762  27.024  1.00  0.00     0.029 A 
ATOM     20  N   UNL A   1      44.111  27.564  27.288  1.00  0.00    -0.354 N 
ATOM     21  C   UNL A   1      48.371  27.351  26.587  1.00  0.00     0.074 A 
ATOM     22  C   UNL A   1      48.775  26.022  26.178  1.00  0.00     0.031 C 
ATOM     23  C   UNL A   1      42.029  26.757  27.460  1.00  0.00     0.029 A 
ATOM     24  C   UNL A   1      42.849  27.941  27.684  1.00  0.00     0.049 A 
ATOM     25  H   UNL A   1      44.883  28.175  27.291  1.00  0.00     0.167 HD
ATOM     26  C   UNL A   1      49.218  28.392  26.770  1.00  0.00     0.034 A 
ATOM     27  C   UNL A   1      42.400  29.103  28.196  1.00  0.00     0.034 A 
ATOM     28  C   UNL A   1      48.802  29.720  27.142  1.00  0.00     0.049 A 
ATOM     29  C   UNL A   1      43.365  30.241  28.358  1.00  0.00     0.074 A 
ATOM     30  C   UNL A   1      49.576  30.862  27.251  1.00  0.00     0.029 A 
ATOM     31  N   UNL A   1      47.509  30.079  27.485  1.00  0.00    -0.354 N 
ATOM     32  N   UNL A   1      44.637  30.292  28.046  1.00  0.00    -0.248 NA
ATOM     33  C   UNL A   1      42.829  31.489  28.919  1.00  0.00     0.031 C 
ATOM     34  C   UNL A   1      48.755  31.908  27.686  1.00  0.00     0.029 A 
ATOM     35  C   UNL A   1      47.466  31.421  27.828  1.00  0.00     0.049 A 
ATOM     36  H   UNL A   1      46.734  29.472  27.486  1.00  0.00     0.167 HD
ATOM     37  C   UNL A   1      45.051  31.580  28.359  1.00  0.00     0.074 A 
ATOM     38  C   UNL A   1      43.884  32.289  28.847  1.00  0.00     0.031 C 
ATOM     39  C   UNL A   1      46.290  32.122  28.273  1.00  0.00     0.034 A 
BRANCH  26  40
ATOM     40  C   UNL A   1      50.689  28.169  26.531  1.00  0.00     0.023 A 
ATOM     41  C   UNL A   1      51.526  27.841  27.617  1.00  0.00     0.012 A 
ATOM     42  C   UNL A   1      51.215  28.161  25.224  1.00  0.00     0.148 A 
ATOM     43  C   UNL A   1      52.866  27.518  27.407  1.00  0.00     0.002 A 
ATOM     44  C   UNL A   1      52.542  27.803  25.018  1.00  0.00     0.091 A 
ATOM     45  F   UNL A   1      50.405  28.490  24.208  1.00  0.00    -0.205 F 
ATOM     46  C   UNL A   1      53.370  27.488  26.109  1.00  0.00     0.022 A 
BRANCH  44  47
ATOM     47  S   UNL A   1      53.271  27.662  23.383  1.00  0.00     0.127 S 
ATOM     48  O   UNL A   1      54.628  27.217  23.703  1.00  0.00    -0.237 OA
ATOM     49  O   UNL A   1      52.428  26.643  22.758  1.00  0.00    -0.237 OA
ATOM     50  O   UNL A   1      53.178  28.985  22.783  1.00  0.00    -0.744 OA
ENDBRANCH  44  47
ENDBRANCH  26  40
BRANCH  27  51
ATOM     51  C   UNL A   1      40.965  29.247  28.564  1.00  0.00     0.023 A 
ATOM     52  C   UNL A   1      40.000  29.418  27.553  1.00  0.00     0.012 A 
ATOM     53  C   UNL A   1      40.547  29.180  29.907  1.00  0.00     0.148 A 
ATOM     54  C   UNL A   1      38.650  29.550  27.876  1.00  0.00     0.002 A 
ATOM     55  C   UNL A   1      39.194  29.250  30.217  1.00  0.00     0.091 A 
ATOM     56  F   UNL A   1      41.481  29.039  30.860  1.00  0.00    -0.205 F 
ATOM     57  C   UNL A   1      38.245  29.452  29.205  1.00  0.00     0.022 A 
BRANCH  55  58
ATOM     58  S   UNL A   1      38.597  28.979  31.889  1.00  0.00     0.127 S 
ATOM     59  O   UNL A   1      37.151  28.950  31.690  1.00  0.00    -0.237 OA
ATOM     60  O   UNL A   1      39.200  27.689  32.230  1.00  0.00    -0.237 OA
ATOM     61  O   UNL A   1      39.118  30.099  32.664  1.00  0.00    -0.744 OA
ENDBRANCH  55  58
ENDBRANCH  27  51
BRANCH  39  62
ATOM     62  C   UNL A   1      46.448  33.553  28.712  1.00  0.00     0.023 A 
ATOM     63  C   UNL A   1      46.898  33.831  30.018  1.00  0.00     0.012 A 
ATOM     64  C   UNL A   1      46.207  34.615  27.821  1.00  0.00     0.148 A 
ATOM     65  C   UNL A   1      47.073  35.147  30.441  1.00  0.00     0.002 A 
ATOM     66  C   UNL A   1      46.428  35.923  28.234  1.00  0.00     0.091 A 
ATOM     67  F   UNL A   1      45.760  34.328  26.589  1.00  0.00    -0.205 F 
ATOM     68  C   UNL A   1      46.850  36.192  29.547  1.00  0.00     0.022 A 
BRANCH  66  69
ATOM     69  S   UNL A   1      46.254  37.323  27.123  1.00  0.00     0.127 S 
ATOM     70  O   UNL A   1      47.105  36.924  26.004  1.00  0.00    -0.237 OA
ATOM     71  O   UNL A   1      44.820  37.315  26.834  1.00  0.00    -0.237 OA
ATOM     72  O   UNL A   1      46.710  38.486  27.873  1.00  0.00    -0.744 OA
ENDBRANCH  66  69
ENDBRANCH  39  62
ENDBRANCH  13  14
ENDBRANCH   6   8
ENDBRANCH   3   4
ENDBRANCH   2   3
ENDBRANCH   1   2
BRANCH   1  73
ATOM     73  C   UNL A   1      40.940  22.860  27.036  1.00  0.00     0.002 C 
BRANCH  73  74
ATOM     74  C   UNL A   1      39.846  23.789  27.577  1.00  0.00     0.021 C 
BRANCH  74  75
ATOM     75  C   UNL A   1      38.776  24.162  26.550  1.00  0.00     0.116 C 
BRANCH  75  76
ATOM     76  N   UNL A   1      38.451  23.039  25.687  1.00  0.00    -0.356 N 
ATOM     77  C   UNL A   1      37.227  22.603  25.258  1.00  0.00     0.226 C 
ATOM     78  H   UNL A   1      39.221  22.519  25.364  1.00  0.00     0.163 HD
ATOM     79  O   UNL A   1      37.182  21.618  24.520  1.00  0.00    -0.274 OA
BRANCH  77  80
ATOM     80  C   UNL A   1      35.981  23.375  25.702  1.00  0.00     0.103 C 
ATOM     81  C   UNL A   1      35.349  24.188  24.614  1.00  0.00    -0.016 C 
ATOM     82  C   UNL A   1      34.852  22.419  26.111  1.00  0.00     0.042 C 
ATOM     83  C   UNL A   1      34.037  23.951  24.503  1.00  0.00    -0.011 C 
ATOM     84  C   UNL A   1      33.561  22.906  25.452  1.00  0.00     0.093 C 
BRANCH  84  85
ATOM     85  N   UNL A   1      32.684  23.526  26.424  1.00  0.00    -0.204 NA
ATOM     86  H   UNL A   1      33.090  24.437  26.640  1.00  0.00     0.142 HD
BRANCH  85  87
ATOM     87  S   UNL A   1      31.068  23.800  26.092  1.00  0.00     0.241 S 
ATOM     88  O   UNL A   1      30.766  22.994  24.928  1.00  0.00    -0.207 OA
ATOM     89  O   UNL A   1      30.323  23.667  27.323  1.00  0.00    -0.207 OA
BRANCH  87  90
ATOM     90  C   UNL A   1      31.016  25.512  25.604  1.00  0.00     0.083 A 
ATOM     91  C   UNL A   1      31.769  26.455  26.334  1.00  0.00     0.025 A 
ATOM     92  C   UNL A   1      30.199  25.914  24.537  1.00  0.00     0.029 A 
ATOM     93  C   UNL A   1      31.789  27.796  25.943  1.00  0.00     0.048 A 
ATOM     94  C   UNL A   1      30.215  27.255  24.184  1.00  0.00    -0.001 A 
ATOM     95  C   UNL A   1      31.017  28.163  24.859  1.00  0.00     0.122 A 
ATOM     96  C   UNL A   1      29.392  27.989  23.194  1.00  0.00     0.081 C 
ATOM     97  O   UNL A   1      30.937  29.442  24.372  1.00  0.00    -0.493 OA
ATOM     98  C   UNL A   1      30.189  29.293  23.139  1.00  0.00     0.234 C 
ENDBRANCH  87  90
ENDBRANCH  85  87
ENDBRANCH  84  85
ENDBRANCH  77  80
ENDBRANCH  75  76
ENDBRANCH  74  75
ENDBRANCH  73  74
ENDBRANCH   1  73
TORSDOF 19
ENDMDL
