MODEL 1
REMARK VINA RESULT:     -11.5      0.000      0.000
REMARK SMILES COCCCN1C(=O)CC[C@@H](C(=O)NCCCCCCNC(=O)c2ccc(-c3c4nc(c(-c5cccc(S(=O)(=O)[O-])c5F)c5ccc([nH]5)c(-c5cccc(S(=O)(=O)[O-])c5F)c5nc(c(-c6cccc(S(=O)(=O)[O-])c6F)c6ccc3[nH]6)C=C5)C=C4)cc2)[C@@H]1c1ccc(F)cc1
REMARK SMILES IDX 17 1 16 2 15 3 14 4 12 5 13 6 11 8 6 9 7 10 87 11 8 12 9 13
REMARK SMILES IDX 10 14 5 15 4 16 3 17 2 18 1 19 88 20 89 21 94 22 90 23 93 24
REMARK SMILES IDX 91 25 92 26 18 27 19 28 20 29 21 30 22 31 23 33 24 34 25 35
REMARK SMILES IDX 86 36 26 37 85 38 27 39 28 40 29 41 79 42 30 43 84 44 78 45
REMARK SMILES IDX 80 46 31 47 83 48 77 49 76 50 32 52 64 53 44 54 63 55 45 56
REMARK SMILES IDX 48 57 62 58 81 59 46 60 47 61 61 63 82 64 49 65 33 66 34 67
REMARK SMILES IDX 42 68 35 69 37 70 43 71 36 72 38 73 39 74 40 75 41 76 65 77
REMARK SMILES IDX 66 78 74 79 67 80 69 81 75 82 68 83 70 84 71 85 72 86 73 87
REMARK SMILES IDX 50 88 51 89 59 90 52 91 54 92 60 93 53 94 55 95 56 96 57 97
REMARK SMILES IDX 58 98
REMARK H PARENT 14 7 21 32 80 51 48 62
REMARK Flexibility Score: inf
ROOT
ATOM      1  C   UNL A   1      30.893  27.379  24.759  1.00  0.00     0.002 C 
ENDROOT
BRANCH   1   2
ATOM      2  C   UNL A   1      30.323  25.967  24.932  1.00  0.00     0.021 C 
BRANCH   2   3
ATOM      3  C   UNL A   1      30.822  25.227  26.171  1.00  0.00     0.116 C 
BRANCH   3   4
ATOM      4  N   UNL A   1      30.414  23.835  26.164  1.00  0.00    -0.356 N 
ATOM      5  C   UNL A   1      31.058  22.730  25.694  1.00  0.00     0.225 C 
ATOM      6  O   UNL A   1      30.431  21.671  25.678  1.00  0.00    -0.275 OA
ATOM      7  H   UNL A   1      29.531  23.661  26.565  1.00  0.00     0.163 HD
BRANCH   5   8
ATOM      8  C   UNL A   1      32.504  22.838  25.221  1.00  0.00     0.106 C 
ATOM      9  N   UNL A   1      32.713  20.472  24.456  1.00  0.00    -0.335 N 
ATOM     10  C   UNL A   1      32.320  20.769  23.161  1.00  0.00     0.223 C 
ATOM     11  C   UNL A   1      33.222  21.489  25.388  1.00  0.00     0.128 C 
ATOM     12  O   UNL A   1      32.055  19.889  22.337  1.00  0.00    -0.275 OA
ATOM     13  C   UNL A   1      32.143  22.225  22.772  1.00  0.00     0.101 C 
ATOM     14  C   UNL A   1      32.603  23.284  23.762  1.00  0.00     0.026 C 
BRANCH   9  15
ATOM     15  C   UNL A   1      32.531  19.093  24.935  1.00  0.00     0.122 C 
BRANCH  15  16
ATOM     16  C   UNL A   1      33.649  18.112  24.578  1.00  0.00     0.050 C 
BRANCH  16  17
ATOM     17  C   UNL A   1      33.246  16.904  23.739  1.00  0.00     0.161 C 
BRANCH  17  18
ATOM     18  O   UNL A   1      33.656  15.672  24.327  1.00  0.00    -0.385 OA
ATOM     19  C   UNL A   1      32.820  15.211  25.379  1.00  0.00     0.194 C 
ENDBRANCH  17  18
ENDBRANCH  16  17
ENDBRANCH  15  16
ENDBRANCH   9  15
BRANCH  11  20
ATOM     20  C   UNL A   1      34.746  21.648  25.352  1.00  0.00    -0.024 A 
ATOM     21  C   UNL A   1      35.612  20.630  24.912  1.00  0.00     0.009 A 
ATOM     22  C   UNL A   1      35.318  22.848  25.820  1.00  0.00     0.009 A 
ATOM     23  C   UNL A   1      36.999  20.783  25.005  1.00  0.00     0.039 A 
ATOM     24  C   UNL A   1      36.703  23.004  25.902  1.00  0.00     0.039 A 
ATOM     25  C   UNL A   1      37.531  21.963  25.508  1.00  0.00     0.123 A 
ATOM     26  F   UNL A   1      38.858  22.093  25.623  1.00  0.00    -0.207 F 
ENDBRANCH  11  20
ENDBRANCH   5   8
ENDBRANCH   3   4
ENDBRANCH   2   3
ENDBRANCH   1   2
BRANCH   1  27
ATOM     27  C   UNL A   1      31.448  28.022  26.033  1.00  0.00     0.002 C 
BRANCH  27  28
ATOM     28  C   UNL A   1      32.970  27.963  26.187  1.00  0.00     0.021 C 
BRANCH  28  29
ATOM     29  C   UNL A   1      33.723  29.153  25.602  1.00  0.00     0.116 C 
BRANCH  29  30
ATOM     30  N   UNL A   1      33.212  30.423  26.086  1.00  0.00    -0.352 N 
ATOM     31  C   UNL A   1      33.656  31.196  27.128  1.00  0.00     0.251 C 
ATOM     32  H   UNL A   1      32.436  30.780  25.596  1.00  0.00     0.163 HD
ATOM     33  O   UNL A   1      32.982  32.164  27.492  1.00  0.00    -0.269 OA
BRANCH  31  34
ATOM     34  C   UNL A   1      34.921  30.874  27.822  1.00  0.00     0.039 A 
ATOM     35  C   UNL A   1      35.940  31.829  27.844  1.00  0.00     0.014 A 
ATOM     36  C   UNL A   1      35.124  29.625  28.418  1.00  0.00     0.014 A 
ATOM     37  C   UNL A   1      37.150  31.541  28.480  1.00  0.00     0.010 A 
ATOM     38  C   UNL A   1      36.300  29.371  29.122  1.00  0.00     0.010 A 
ATOM     39  C   UNL A   1      37.337  30.313  29.134  1.00  0.00    -0.014 A 
BRANCH  39  40
ATOM     40  C   UNL A   1      38.629  29.987  29.792  1.00  0.00     0.031 A 
ATOM     41  C   UNL A   1      38.930  30.518  31.171  1.00  0.00     0.074 A 
ATOM     42  C   UNL A   1      39.552  29.258  29.137  1.00  0.00     0.049 A 
ATOM     43  N   UNL A   1      39.998  30.343  31.908  1.00  0.00    -0.248 NA
ATOM     44  C   UNL A   1      37.914  31.382  31.793  1.00  0.00     0.031 C 
ATOM     45  C   UNL A   1      39.420  28.757  27.768  1.00  0.00     0.029 A 
ATOM     46  N   UNL A   1      40.795  28.825  29.529  1.00  0.00    -0.354 N 
ATOM     47  C   UNL A   1      39.797  31.099  33.057  1.00  0.00     0.074 A 
ATOM     48  C   UNL A   1      38.526  31.771  32.902  1.00  0.00     0.031 C 
ATOM     49  C   UNL A   1      40.529  28.075  27.439  1.00  0.00     0.029 A 
ATOM     50  C   UNL A   1      41.459  28.106  28.564  1.00  0.00     0.049 A 
ATOM     51  H   UNL A   1      41.174  29.013  30.418  1.00  0.00     0.167 HD
ATOM     52  C   UNL A   1      40.578  31.199  34.159  1.00  0.00     0.034 A 
ATOM     53  C   UNL A   1      42.677  27.530  28.587  1.00  0.00     0.034 A 
ATOM     54  C   UNL A   1      41.817  30.491  34.334  1.00  0.00     0.049 A 
ATOM     55  C   UNL A   1      43.495  27.599  29.849  1.00  0.00     0.074 A 
ATOM     56  C   UNL A   1      42.642  30.459  35.443  1.00  0.00     0.029 A 
ATOM     57  N   UNL A   1      42.411  29.691  33.370  1.00  0.00    -0.354 N 
ATOM     58  N   UNL A   1      43.214  28.188  30.985  1.00  0.00    -0.248 NA
ATOM     59  C   UNL A   1      44.777  26.880  29.846  1.00  0.00     0.031 C 
ATOM     60  C   UNL A   1      43.747  29.652  35.143  1.00  0.00     0.029 A 
ATOM     61  C   UNL A   1      43.592  29.159  33.858  1.00  0.00     0.049 A 
ATOM     62  H   UNL A   1      42.047  29.524  32.471  1.00  0.00     0.167 HD
ATOM     63  C   UNL A   1      44.261  27.878  31.845  1.00  0.00     0.074 A 
ATOM     64  C   UNL A   1      45.169  27.027  31.104  1.00  0.00     0.031 C 
ATOM     65  C   UNL A   1      44.460  28.271  33.129  1.00  0.00     0.034 A 
BRANCH  52  66
ATOM     66  C   UNL A   1      40.084  32.067  35.288  1.00  0.00     0.023 A 
ATOM     67  C   UNL A   1      40.497  33.414  35.364  1.00  0.00     0.012 A 
ATOM     68  C   UNL A   1      39.179  31.570  36.246  1.00  0.00     0.148 A 
ATOM     69  C   UNL A   1      40.051  34.239  36.396  1.00  0.00     0.002 A 
ATOM     70  C   UNL A   1      38.701  32.412  37.243  1.00  0.00     0.091 A 
ATOM     71  F   UNL A   1      38.812  30.282  36.173  1.00  0.00    -0.205 F 
ATOM     72  C   UNL A   1      39.146  33.741  37.329  1.00  0.00     0.022 A 
BRANCH  70  73
ATOM     73  S   UNL A   1      37.470  31.891  38.445  1.00  0.00     0.127 S 
ATOM     74  O   UNL A   1      38.181  32.100  39.705  1.00  0.00    -0.237 OA
ATOM     75  O   UNL A   1      36.379  32.835  38.197  1.00  0.00    -0.237 OA
ATOM     76  O   UNL A   1      37.158  30.506  38.126  1.00  0.00    -0.744 OA
ENDBRANCH  70  73
ENDBRANCH  52  66
BRANCH  53  77
ATOM     77  C   UNL A   1      43.162  26.764  27.404  1.00  0.00     0.023 A 
ATOM     78  C   UNL A   1      44.015  27.391  26.474  1.00  0.00     0.012 A 
ATOM     79  C   UNL A   1      42.799  25.418  27.204  1.00  0.00     0.148 A 
ATOM     80  C   UNL A   1      44.465  26.705  25.346  1.00  0.00     0.002 A 
ATOM     81  C   UNL A   1      43.297  24.723  26.109  1.00  0.00     0.091 A 
ATOM     82  F   UNL A   1      41.979  24.843  28.095  1.00  0.00    -0.205 F 
ATOM     83  C   UNL A   1      44.114  25.369  25.168  1.00  0.00     0.022 A 
BRANCH  81  84
ATOM     84  S   UNL A   1      43.005  22.967  25.870  1.00  0.00     0.127 S 
ATOM     85  O   UNL A   1      41.608  22.837  26.278  1.00  0.00    -0.237 OA
ATOM     86  O   UNL A   1      43.246  22.813  24.435  1.00  0.00    -0.237 OA
ATOM     87  O   UNL A   1      43.978  22.290  26.716  1.00  0.00    -0.744 OA
ENDBRANCH  81  84
ENDBRANCH  53  77
BRANCH  65  88
ATOM     88  C   UNL A   1      45.685  27.747  33.833  1.00  0.00     0.023 A 
ATOM     89  C   UNL A   1      46.889  28.478  33.796  1.00  0.00     0.012 A 
ATOM     90  C   UNL A   1      45.629  26.549  34.572  1.00  0.00     0.148 A 
ATOM     91  C   UNL A   1      48.029  28.002  34.442  1.00  0.00     0.002 A 
ATOM     92  C   UNL A   1      46.755  26.107  35.258  1.00  0.00     0.091 A 
ATOM     93  F   UNL A   1      44.482  25.853  34.582  1.00  0.00    -0.205 F 
ATOM     94  C   UNL A   1      47.960  26.824  35.181  1.00  0.00     0.022 A 
BRANCH  92  95
ATOM     95  S   UNL A   1      46.720  24.654  36.313  1.00  0.00     0.127 S 
ATOM     96  O   UNL A   1      45.663  25.000  37.262  1.00  0.00    -0.237 OA
ATOM     97  O   UNL A   1      46.370  23.591  35.371  1.00  0.00    -0.237 OA
ATOM     98  O   UNL A   1      48.059  24.541  36.875  1.00  0.00    -0.744 OA
ENDBRANCH  92  95
ENDBRANCH  65  88
ENDBRANCH  39  40
ENDBRANCH  31  34
ENDBRANCH  29  30
ENDBRANCH  28  29
ENDBRANCH  27  28
ENDBRANCH   1  27
TORSDOF 21
ENDMDL
MODEL 2
REMARK VINA RESULT:     -11.4      2.490      2.982
REMARK SMILES COCCCN1C(=O)CC[C@@H](C(=O)NCCCCCCNC(=O)c2ccc(-c3c4nc(c(-c5cccc(S(=O)(=O)[O-])c5F)c5ccc([nH]5)c(-c5cccc(S(=O)(=O)[O-])c5F)c5nc(c(-c6cccc(S(=O)(=O)[O-])c6F)c6ccc3[nH]6)C=C5)C=C4)cc2)[C@@H]1c1ccc(F)cc1
REMARK SMILES IDX 17 1 16 2 15 3 14 4 12 5 13 6 11 8 6 9 7 10 87 11 8 12 9 13
REMARK SMILES IDX 10 14 5 15 4 16 3 17 2 18 1 19 88 20 89 21 94 22 90 23 93 24
REMARK SMILES IDX 91 25 92 26 18 27 19 28 20 29 21 30 22 31 23 33 24 34 25 35
REMARK SMILES IDX 86 36 26 37 85 38 27 39 28 40 29 41 79 42 30 43 84 44 78 45
REMARK SMILES IDX 80 46 31 47 83 48 77 49 76 50 32 52 64 53 44 54 63 55 45 56
REMARK SMILES IDX 48 57 62 58 81 59 46 60 47 61 61 63 82 64 49 65 33 66 34 67
REMARK SMILES IDX 42 68 35 69 37 70 43 71 36 72 38 73 39 74 40 75 41 76 65 77
REMARK SMILES IDX 66 78 74 79 67 80 69 81 75 82 68 83 70 84 71 85 72 86 73 87
REMARK SMILES IDX 50 88 51 89 59 90 52 91 54 92 60 93 53 94 55 95 56 96 57 97
REMARK SMILES IDX 58 98
REMARK H PARENT 14 7 21 32 80 51 48 62
REMARK Flexibility Score: inf
ROOT
ATOM      1  C   UNL A   1      31.160  27.890  24.793  1.00  0.00     0.002 C 
ENDROOT
BRANCH   1   2
ATOM      2  C   UNL A   1      30.727  27.204  26.092  1.00  0.00     0.021 C 
BRANCH   2   3
ATOM      3  C   UNL A   1      31.665  26.099  26.572  1.00  0.00     0.116 C 
BRANCH   3   4
ATOM      4  N   UNL A   1      31.045  24.791  26.481  1.00  0.00    -0.356 N 
ATOM      5  C   UNL A   1      31.512  23.630  25.943  1.00  0.00     0.225 C 
ATOM      6  O   UNL A   1      30.726  22.685  25.863  1.00  0.00    -0.275 OA
ATOM      7  H   UNL A   1      30.142  24.734  26.871  1.00  0.00     0.163 HD
BRANCH   5   8
ATOM      8  C   UNL A   1      32.961  23.538  25.476  1.00  0.00     0.106 C 
ATOM      9  N   UNL A   1      32.881  21.130  24.826  1.00  0.00    -0.335 N 
ATOM     10  C   UNL A   1      32.529  21.410  23.515  1.00  0.00     0.223 C 
ATOM     11  C   UNL A   1      33.508  22.121  25.712  1.00  0.00     0.128 C 
ATOM     12  O   UNL A   1      32.160  20.531  22.732  1.00  0.00    -0.275 OA
ATOM     13  C   UNL A   1      32.532  22.857  23.056  1.00  0.00     0.101 C 
ATOM     14  C   UNL A   1      33.115  23.898  23.999  1.00  0.00     0.026 C 
BRANCH   9  15
ATOM     15  C   UNL A   1      32.532  19.808  25.368  1.00  0.00     0.122 C 
BRANCH  15  16
ATOM     16  C   UNL A   1      33.251  18.618  24.732  1.00  0.00     0.050 C 
BRANCH  16  17
ATOM     17  C   UNL A   1      32.540  17.271  24.822  1.00  0.00     0.161 C 
BRANCH  17  18
ATOM     18  O   UNL A   1      33.437  16.172  24.688  1.00  0.00    -0.385 OA
ATOM     19  C   UNL A   1      34.810  16.531  24.636  1.00  0.00     0.194 C 
ENDBRANCH  17  18
ENDBRANCH  16  17
ENDBRANCH  15  16
ENDBRANCH   9  15
BRANCH  11  20
ATOM     20  C   UNL A   1      35.041  22.091  25.680  1.00  0.00    -0.024 A 
ATOM     21  C   UNL A   1      35.836  23.170  26.106  1.00  0.00     0.009 A 
ATOM     22  C   UNL A   1      35.691  20.953  25.162  1.00  0.00     0.009 A 
ATOM     23  C   UNL A   1      37.226  23.137  25.951  1.00  0.00     0.039 A 
ATOM     24  C   UNL A   1      37.079  20.917  25.018  1.00  0.00     0.039 A 
ATOM     25  C   UNL A   1      37.833  22.016  25.400  1.00  0.00     0.123 A 
ATOM     26  F   UNL A   1      39.160  22.001  25.227  1.00  0.00    -0.207 F 
ENDBRANCH  11  20
ENDBRANCH   5   8
ENDBRANCH   3   4
ENDBRANCH   2   3
ENDBRANCH   1   2
BRANCH   1  27
ATOM     27  C   UNL A   1      32.586  27.577  24.330  1.00  0.00     0.002 C 
BRANCH  27  28
ATOM     28  C   UNL A   1      33.623  28.663  24.624  1.00  0.00     0.021 C 
BRANCH  28  29
ATOM     29  C   UNL A   1      33.990  28.822  26.096  1.00  0.00     0.116 C 
BRANCH  29  30
ATOM     30  N   UNL A   1      33.878  30.197  26.549  1.00  0.00    -0.352 N 
ATOM     31  C   UNL A   1      34.652  30.877  27.455  1.00  0.00     0.251 C 
ATOM     32  H   UNL A   1      33.143  30.715  26.150  1.00  0.00     0.163 HD
ATOM     33  O   UNL A   1      34.294  31.995  27.836  1.00  0.00    -0.269 OA
BRANCH  31  34
ATOM     34  C   UNL A   1      35.897  30.279  27.983  1.00  0.00     0.039 A 
ATOM     35  C   UNL A   1      35.863  29.636  29.223  1.00  0.00     0.014 A 
ATOM     36  C   UNL A   1      37.104  30.380  27.283  1.00  0.00     0.014 A 
ATOM     37  C   UNL A   1      37.030  29.078  29.749  1.00  0.00     0.010 A 
ATOM     38  C   UNL A   1      38.247  29.752  27.772  1.00  0.00     0.010 A 
ATOM     39  C   UNL A   1      38.232  29.121  29.023  1.00  0.00    -0.014 A 
BRANCH  39  40
ATOM     40  C   UNL A   1      39.484  28.552  29.584  1.00  0.00     0.031 A 
ATOM     41  C   UNL A   1      40.118  29.174  30.804  1.00  0.00     0.074 A 
ATOM     42  C   UNL A   1      40.081  27.510  28.975  1.00  0.00     0.049 A 
ATOM     43  N   UNL A   1      41.206  28.820  31.439  1.00  0.00    -0.248 NA
ATOM     44  C   UNL A   1      39.460  30.365  31.366  1.00  0.00     0.031 C 
ATOM     45  C   UNL A   1      39.619  26.872  27.741  1.00  0.00     0.029 A 
ATOM     46  N   UNL A   1      41.219  26.814  29.301  1.00  0.00    -0.354 N 
ATOM     47  C   UNL A   1      41.381  29.760  32.448  1.00  0.00     0.074 A 
ATOM     48  C   UNL A   1      40.313  30.726  32.313  1.00  0.00     0.031 C 
ATOM     49  C   UNL A   1      40.455  25.871  27.422  1.00  0.00     0.029 A 
ATOM     50  C   UNL A   1      41.523  25.807  28.416  1.00  0.00     0.049 A 
ATOM     51  H   UNL A   1      41.765  27.017  30.095  1.00  0.00     0.167 HD
ATOM     52  C   UNL A   1      42.322  29.801  33.422  1.00  0.00     0.034 A 
ATOM     53  C   UNL A   1      42.545  24.928  28.409  1.00  0.00     0.034 A 
ATOM     54  C   UNL A   1      43.353  28.812  33.586  1.00  0.00     0.049 A 
ATOM     55  C   UNL A   1      43.537  24.952  29.541  1.00  0.00     0.074 A 
ATOM     56  C   UNL A   1      44.303  28.715  34.586  1.00  0.00     0.029 A 
ATOM     57  N   UNL A   1      43.570  27.748  32.724  1.00  0.00    -0.354 N 
ATOM     58  N   UNL A   1      43.591  25.754  30.576  1.00  0.00    -0.248 NA
ATOM     59  C   UNL A   1      44.579  23.916  29.529  1.00  0.00     0.031 C 
ATOM     60  C   UNL A   1      45.108  27.601  34.319  1.00  0.00     0.029 A 
ATOM     61  C   UNL A   1      44.638  26.989  33.168  1.00  0.00     0.049 A 
ATOM     62  H   UNL A   1      43.042  27.560  31.914  1.00  0.00     0.167 HD
ATOM     63  C   UNL A   1      44.645  25.296  31.359  1.00  0.00     0.074 A 
ATOM     64  C   UNL A   1      45.183  24.129  30.689  1.00  0.00     0.031 C 
ATOM     65  C   UNL A   1      45.131  25.800  32.521  1.00  0.00     0.034 A 
BRANCH  52  66
ATOM     66  C   UNL A   1      42.242  30.925  34.423  1.00  0.00     0.023 A 
ATOM     67  C   UNL A   1      41.509  30.746  35.616  1.00  0.00     0.012 A 
ATOM     68  C   UNL A   1      42.925  32.138  34.211  1.00  0.00     0.148 A 
ATOM     69  C   UNL A   1      41.424  31.768  36.560  1.00  0.00     0.002 A 
ATOM     70  C   UNL A   1      42.875  33.135  35.179  1.00  0.00     0.091 A 
ATOM     71  F   UNL A   1      43.599  32.301  33.063  1.00  0.00    -0.205 F 
ATOM     72  C   UNL A   1      42.114  32.958  36.346  1.00  0.00     0.022 A 
BRANCH  70  73
ATOM     73  S   UNL A   1      43.795  34.672  35.037  1.00  0.00     0.127 S 
ATOM     74  O   UNL A   1      45.121  34.187  34.657  1.00  0.00    -0.237 OA
ATOM     75  O   UNL A   1      43.072  35.366  33.970  1.00  0.00    -0.237 OA
ATOM     76  O   UNL A   1      43.713  35.311  36.342  1.00  0.00    -0.744 OA
ENDBRANCH  70  73
ENDBRANCH  52  66
BRANCH  53  77
ATOM     77  C   UNL A   1      42.633  23.895  27.338  1.00  0.00     0.023 A 
ATOM     78  C   UNL A   1      43.260  24.214  26.118  1.00  0.00     0.012 A 
ATOM     79  C   UNL A   1      42.116  22.599  27.527  1.00  0.00     0.148 A 
ATOM     80  C   UNL A   1      43.336  23.274  25.090  1.00  0.00     0.002 A 
ATOM     81  C   UNL A   1      42.246  21.650  26.520  1.00  0.00     0.091 A 
ATOM     82  F   UNL A   1      41.515  22.319  28.692  1.00  0.00    -0.205 F 
ATOM     83  C   UNL A   1      42.838  21.989  25.294  1.00  0.00     0.022 A 
BRANCH  81  84
ATOM     84  S   UNL A   1      41.752  19.937  26.744  1.00  0.00     0.127 S 
ATOM     85  O   UNL A   1      40.332  20.073  27.058  1.00  0.00    -0.237 OA
ATOM     86  O   UNL A   1      42.042  19.366  25.429  1.00  0.00    -0.237 OA
ATOM     87  O   UNL A   1      42.592  19.424  27.818  1.00  0.00    -0.744 OA
ENDBRANCH  81  84
ENDBRANCH  53  77
BRANCH  65  88
ATOM     88  C   UNL A   1      46.277  25.067  33.171  1.00  0.00     0.023 A 
ATOM     89  C   UNL A   1      47.600  25.506  32.970  1.00  0.00     0.012 A 
ATOM     90  C   UNL A   1      46.035  23.968  34.019  1.00  0.00     0.148 A 
ATOM     91  C   UNL A   1      48.668  24.834  33.565  1.00  0.00     0.002 A 
ATOM     92  C   UNL A   1      47.100  23.337  34.650  1.00  0.00     0.091 A 
ATOM     93  F   UNL A   1      44.771  23.550  34.184  1.00  0.00    -0.205 F 
ATOM     94  C   UNL A   1      48.418  23.758  34.412  1.00  0.00     0.022 A 
BRANCH  92  95
ATOM     95  S   UNL A   1      46.855  22.008  35.834  1.00  0.00     0.127 S 
ATOM     96  O   UNL A   1      46.894  20.829  34.972  1.00  0.00    -0.237 OA
ATOM     97  O   UNL A   1      48.012  22.158  36.717  1.00  0.00    -0.237 OA
ATOM     98  O   UNL A   1      45.574  22.279  36.473  1.00  0.00    -0.744 OA
ENDBRANCH  92  95
ENDBRANCH  65  88
ENDBRANCH  39  40
ENDBRANCH  31  34
ENDBRANCH  29  30
ENDBRANCH  28  29
ENDBRANCH  27  28
ENDBRANCH   1  27
TORSDOF 21
ENDMDL
MODEL 3
REMARK VINA RESULT:     -10.8      1.174      7.438
REMARK SMILES COCCCN1C(=O)CC[C@@H](C(=O)NCCCCCCNC(=O)c2ccc(-c3c4nc(c(-c5cccc(S(=O)(=O)[O-])c5F)c5ccc([nH]5)c(-c5cccc(S(=O)(=O)[O-])c5F)c5nc(c(-c6cccc(S(=O)(=O)[O-])c6F)c6ccc3[nH]6)C=C5)C=C4)cc2)[C@@H]1c1ccc(F)cc1
REMARK SMILES IDX 17 1 16 2 15 3 14 4 12 5 13 6 11 8 6 9 7 10 87 11 8 12 9 13
REMARK SMILES IDX 10 14 5 15 4 16 3 17 2 18 1 19 88 20 89 21 94 22 90 23 93 24
REMARK SMILES IDX 91 25 92 26 18 27 19 28 20 29 21 30 22 31 23 33 24 34 25 35
REMARK SMILES IDX 86 36 26 37 85 38 27 39 28 40 29 41 79 42 30 43 84 44 78 45
REMARK SMILES IDX 80 46 31 47 83 48 77 49 76 50 32 52 64 53 44 54 63 55 45 56
REMARK SMILES IDX 48 57 62 58 81 59 46 60 47 61 61 63 82 64 49 65 33 66 34 67
REMARK SMILES IDX 42 68 35 69 37 70 43 71 36 72 38 73 39 74 40 75 41 76 65 77
REMARK SMILES IDX 66 78 74 79 67 80 69 81 75 82 68 83 70 84 71 85 72 86 73 87
REMARK SMILES IDX 50 88 51 89 59 90 52 91 54 92 60 93 53 94 55 95 56 96 57 97
REMARK SMILES IDX 58 98
REMARK H PARENT 14 7 21 32 80 51 48 62
REMARK Flexibility Score: inf
ROOT
ATOM      1  C   UNL A   1      31.017  27.682  24.714  1.00  0.00     0.002 C 
ENDROOT
BRANCH   1   2
ATOM      2  C   UNL A   1      30.929  26.152  24.698  1.00  0.00     0.021 C 
BRANCH   2   3
ATOM      3  C   UNL A   1      31.314  25.479  26.013  1.00  0.00     0.116 C 
BRANCH   3   4
ATOM      4  N   UNL A   1      30.776  24.135  26.105  1.00  0.00    -0.356 N 
ATOM      5  C   UNL A   1      31.290  22.948  25.678  1.00  0.00     0.225 C 
ATOM      6  O   UNL A   1      30.564  21.956  25.750  1.00  0.00    -0.275 OA
ATOM      7  H   UNL A   1      29.899  24.071  26.549  1.00  0.00     0.163 HD
BRANCH   5   8
ATOM      8  C   UNL A   1      32.718  22.888  25.145  1.00  0.00     0.106 C 
ATOM      9  N   UNL A   1      32.765  20.418  24.787  1.00  0.00    -0.335 N 
ATOM     10  C   UNL A   1      32.332  20.516  23.474  1.00  0.00     0.223 C 
ATOM     11  C   UNL A   1      33.368  21.544  25.515  1.00  0.00     0.128 C 
ATOM     12  O   UNL A   1      31.985  19.529  22.822  1.00  0.00    -0.275 OA
ATOM     13  C   UNL A   1      32.218  21.895  22.850  1.00  0.00     0.101 C 
ATOM     14  C   UNL A   1      32.777  23.075  23.629  1.00  0.00     0.026 C 
BRANCH   9  15
ATOM     15  C   UNL A   1      32.530  19.153  25.500  1.00  0.00     0.122 C 
BRANCH  15  16
ATOM     16  C   UNL A   1      33.608  18.082  25.326  1.00  0.00     0.050 C 
BRANCH  16  17
ATOM     17  C   UNL A   1      33.115  16.664  25.055  1.00  0.00     0.161 C 
BRANCH  17  18
ATOM     18  O   UNL A   1      33.933  15.973  24.115  1.00  0.00    -0.385 OA
ATOM     19  C   UNL A   1      34.088  16.633  22.867  1.00  0.00     0.194 C 
ENDBRANCH  17  18
ENDBRANCH  16  17
ENDBRANCH  15  16
ENDBRANCH   9  15
BRANCH  11  20
ATOM     20  C   UNL A   1      34.896  21.602  25.401  1.00  0.00    -0.024 A 
ATOM     21  C   UNL A   1      35.670  20.527  24.927  1.00  0.00     0.009 A 
ATOM     22  C   UNL A   1      35.569  22.765  25.828  1.00  0.00     0.009 A 
ATOM     23  C   UNL A   1      37.066  20.589  24.949  1.00  0.00     0.039 A 
ATOM     24  C   UNL A   1      36.963  22.830  25.839  1.00  0.00     0.039 A 
ATOM     25  C   UNL A   1      37.699  21.734  25.414  1.00  0.00     0.123 A 
ATOM     26  F   UNL A   1      39.037  21.778  25.460  1.00  0.00    -0.207 F 
ENDBRANCH  11  20
ENDBRANCH   5   8
ENDBRANCH   3   4
ENDBRANCH   2   3
ENDBRANCH   1   2
BRANCH   1  27
ATOM     27  C   UNL A   1      32.284  28.272  24.087  1.00  0.00     0.002 C 
BRANCH  27  28
ATOM     28  C   UNL A   1      32.998  29.331  24.929  1.00  0.00     0.021 C 
BRANCH  28  29
ATOM     29  C   UNL A   1      32.344  29.636  26.273  1.00  0.00     0.116 C 
BRANCH  29  30
ATOM     30  N   UNL A   1      32.009  31.042  26.420  1.00  0.00    -0.352 N 
ATOM     31  C   UNL A   1      32.613  32.000  27.191  1.00  0.00     0.251 C 
ATOM     32  H   UNL A   1      31.239  31.350  25.890  1.00  0.00     0.163 HD
ATOM     33  O   UNL A   1      32.077  33.105  27.312  1.00  0.00    -0.269 OA
BRANCH  31  34
ATOM     34  C   UNL A   1      33.889  31.719  27.883  1.00  0.00     0.039 A 
ATOM     35  C   UNL A   1      34.326  30.395  27.980  1.00  0.00     0.014 A 
ATOM     36  C   UNL A   1      34.638  32.744  28.469  1.00  0.00     0.014 A 
ATOM     37  C   UNL A   1      35.521  30.103  28.643  1.00  0.00     0.010 A 
ATOM     38  C   UNL A   1      35.869  32.460  29.058  1.00  0.00     0.010 A 
ATOM     39  C   UNL A   1      36.309  31.134  29.179  1.00  0.00    -0.014 A 
BRANCH  39  40
ATOM     40  C   UNL A   1      37.568  30.833  29.907  1.00  0.00     0.031 A 
ATOM     41  C   UNL A   1      38.661  30.041  29.234  1.00  0.00     0.074 A 
ATOM     42  C   UNL A   1      37.714  31.225  31.188  1.00  0.00     0.049 A 
ATOM     43  N   UNL A   1      39.827  29.679  29.704  1.00  0.00    -0.248 NA
ATOM     44  C   UNL A   1      38.398  29.568  27.865  1.00  0.00     0.031 C 
ATOM     45  C   UNL A   1      36.701  31.921  31.982  1.00  0.00     0.029 A 
ATOM     46  N   UNL A   1      38.769  31.076  32.055  1.00  0.00    -0.354 N 
ATOM     47  C   UNL A   1      40.419  28.912  28.707  1.00  0.00     0.074 A 
ATOM     48  C   UNL A   1      39.465  28.821  27.624  1.00  0.00     0.031 C 
ATOM     49  C   UNL A   1      37.186  32.152  33.212  1.00  0.00     0.029 A 
ATOM     50  C   UNL A   1      38.536  31.604  33.302  1.00  0.00     0.049 A 
ATOM     51  H   UNL A   1      39.613  30.634  31.805  1.00  0.00     0.167 HD
ATOM     52  C   UNL A   1      41.657  28.362  28.676  1.00  0.00     0.034 A 
ATOM     53  C   UNL A   1      39.325  31.646  34.395  1.00  0.00     0.034 A 
ATOM     54  C   UNL A   1      42.623  28.496  29.732  1.00  0.00     0.049 A 
ATOM     55  C   UNL A   1      40.721  31.088  34.310  1.00  0.00     0.074 A 
ATOM     56  C   UNL A   1      43.931  28.048  29.766  1.00  0.00     0.029 A 
ATOM     57  N   UNL A   1      42.385  29.124  30.945  1.00  0.00    -0.354 N 
ATOM     58  N   UNL A   1      41.319  30.505  33.300  1.00  0.00    -0.248 NA
ATOM     59  C   UNL A   1      41.567  31.239  35.503  1.00  0.00     0.031 C 
ATOM     60  C   UNL A   1      44.479  28.390  31.008  1.00  0.00     0.029 A 
ATOM     61  C   UNL A   1      43.520  29.077  31.735  1.00  0.00     0.049 A 
ATOM     62  H   UNL A   1      41.533  29.543  31.207  1.00  0.00     0.167 HD
ATOM     63  C   UNL A   1      42.621  30.257  33.718  1.00  0.00     0.074 A 
ATOM     64  C   UNL A   1      42.730  30.778  35.066  1.00  0.00     0.031 C 
ATOM     65  C   UNL A   1      43.633  29.645  33.053  1.00  0.00     0.034 A 
BRANCH  52  66
ATOM     66  C   UNL A   1      42.055  27.610  27.432  1.00  0.00     0.023 A 
ATOM     67  C   UNL A   1      42.479  28.325  26.291  1.00  0.00     0.012 A 
ATOM     68  C   UNL A   1      42.056  26.202  27.401  1.00  0.00     0.148 A 
ATOM     69  C   UNL A   1      42.857  27.654  25.129  1.00  0.00     0.002 A 
ATOM     70  C   UNL A   1      42.481  25.540  26.255  1.00  0.00     0.091 A 
ATOM     71  F   UNL A   1      41.631  25.538  28.485  1.00  0.00    -0.205 F 
ATOM     72  C   UNL A   1      42.868  26.262  25.115  1.00  0.00     0.022 A 
BRANCH  70  73
ATOM     73  S   UNL A   1      42.610  23.750  26.161  1.00  0.00     0.127 S 
ATOM     74  O   UNL A   1      41.222  23.343  26.379  1.00  0.00    -0.237 OA
ATOM     75  O   UNL A   1      43.096  23.547  24.797  1.00  0.00    -0.237 OA
ATOM     76  O   UNL A   1      43.546  23.359  27.205  1.00  0.00    -0.744 OA
ENDBRANCH  70  73
ENDBRANCH  52  66
BRANCH  53  77
ATOM     77  C   UNL A   1      38.845  32.317  35.636  1.00  0.00     0.023 A 
ATOM     78  C   UNL A   1      39.012  33.708  35.782  1.00  0.00     0.012 A 
ATOM     79  C   UNL A   1      38.210  31.589  36.662  1.00  0.00     0.148 A 
ATOM     80  C   UNL A   1      38.592  34.357  36.943  1.00  0.00     0.002 A 
ATOM     81  C   UNL A   1      37.743  32.251  37.791  1.00  0.00     0.091 A 
ATOM     82  F   UNL A   1      38.069  30.265  36.507  1.00  0.00    -0.205 F 
ATOM     83  C   UNL A   1      37.949  33.631  37.943  1.00  0.00     0.022 A 
BRANCH  81  84
ATOM     84  S   UNL A   1      36.789  31.421  39.066  1.00  0.00     0.127 S 
ATOM     85  O   UNL A   1      37.745  31.371  40.170  1.00  0.00    -0.237 OA
ATOM     86  O   UNL A   1      35.672  32.346  39.258  1.00  0.00    -0.237 OA
ATOM     87  O   UNL A   1      36.410  30.135  38.497  1.00  0.00    -0.744 OA
ENDBRANCH  81  84
ENDBRANCH  53  77
BRANCH  65  88
ATOM     88  C   UNL A   1      44.963  29.543  33.753  1.00  0.00     0.023 A 
ATOM     89  C   UNL A   1      45.923  30.562  33.598  1.00  0.00     0.012 A 
ATOM     90  C   UNL A   1      45.244  28.454  34.603  1.00  0.00     0.148 A 
ATOM     91  C   UNL A   1      47.158  30.477  34.239  1.00  0.00     0.002 A 
ATOM     92  C   UNL A   1      46.456  28.403  35.280  1.00  0.00     0.091 A 
ATOM     93  F   UNL A   1      44.328  27.482  34.725  1.00  0.00    -0.205 F 
ATOM     94  C   UNL A   1      47.421  29.404  35.088  1.00  0.00     0.022 A 
BRANCH  92  95
ATOM     95  S   UNL A   1      46.831  27.108  36.469  1.00  0.00     0.127 S 
ATOM     96  O   UNL A   1      45.749  27.271  37.438  1.00  0.00    -0.237 OA
ATOM     97  O   UNL A   1      46.741  25.898  35.652  1.00  0.00    -0.237 OA
ATOM     98  O   UNL A   1      48.170  27.400  36.963  1.00  0.00    -0.744 OA
ENDBRANCH  92  95
ENDBRANCH  65  88
ENDBRANCH  39  40
ENDBRANCH  31  34
ENDBRANCH  29  30
ENDBRANCH  28  29
ENDBRANCH  27  28
ENDBRANCH   1  27
TORSDOF 21
ENDMDL
