MODEL 1
REMARK VINA RESULT:     -11.4      0.000      0.000
REMARK SMILES O=C(NCCCCCCNC(=O)[C@H]1C=C[C@@H](NS(=O)(=O)c2ccc(Br)cc2)C1)c1ccc(-c2c3nc(c(-c4cccc(S(=O)(=O)[O-])c4F)c4ccc([nH]4)c(-c4cccc(S(=O)(=O)[O-])c4F)c4nc(c(-c5cccc(S(=O)(=O)[O-])c5F)c5ccc2[nH]5)C=C4)C=C3)cc1
REMARK SMILES IDX 6 1 5 2 4 3 3 4 1 5 2 6 29 8 30 9 91 10 31 11 90 12 32 13
REMARK SMILES IDX 33 14 34 15 84 16 35 17 89 18 83 19 85 20 36 21 88 22 82 23
REMARK SMILES IDX 81 24 37 26 69 27 49 28 68 29 50 30 53 31 67 32 86 33 51 34
REMARK SMILES IDX 52 35 66 37 87 38 54 39 38 40 39 41 47 42 40 43 42 44 48 45
REMARK SMILES IDX 41 46 43 47 44 48 45 49 46 50 70 51 71 52 79 53 72 54 74 55
REMARK SMILES IDX 80 56 73 57 75 58 76 59 77 60 78 61 55 62 56 63 64 64 57 65
REMARK SMILES IDX 59 66 65 67 58 68 60 69 61 70 62 71 63 72 7 73 8 74 9 75
REMARK SMILES IDX 10 76 11 77 12 79 13 80 14 81 28 82 15 83 16 84 17 85 18 87
REMARK SMILES IDX 19 88 20 89 21 90 22 91 27 92 23 93 26 94 24 95 25 96
REMARK H PARENT 3 7 85 25 53 36 10 78 17 86
REMARK Flexibility Score: inf
ROOT
ATOM      1  C   UNL A   1      37.128  20.430  24.955  1.00  0.00     0.002 C 
ENDROOT
BRANCH   1   2
ATOM      2  C   UNL A   1      38.362  19.529  25.004  1.00  0.00     0.021 C 
BRANCH   2   3
ATOM      3  C   UNL A   1      39.365  19.901  26.087  1.00  0.00     0.116 C 
BRANCH   3   4
ATOM      4  N   UNL A   1      40.529  19.029  26.074  1.00  0.00    -0.352 N 
ATOM      5  O   UNL A   1      42.713  18.519  25.854  1.00  0.00    -0.269 OA
ATOM      6  C   UNL A   1      41.859  19.369  26.087  1.00  0.00     0.251 C 
ATOM      7  H   UNL A   1      40.336  18.064  26.052  1.00  0.00     0.163 HD
BRANCH   6   8
ATOM      8  C   UNL A   1      42.241  20.770  26.363  1.00  0.00     0.039 A 
ATOM      9  C   UNL A   1      42.570  21.162  27.663  1.00  0.00     0.014 A 
ATOM     10  C   UNL A   1      42.254  21.699  25.321  1.00  0.00     0.014 A 
ATOM     11  C   UNL A   1      42.766  22.506  27.948  1.00  0.00     0.010 A 
ATOM     12  C   UNL A   1      42.556  23.036  25.594  1.00  0.00     0.010 A 
ATOM     13  C   UNL A   1      42.788  23.455  26.914  1.00  0.00    -0.014 A 
BRANCH  13  14
ATOM     14  C   UNL A   1      43.153  24.858  27.231  1.00  0.00     0.031 A 
ATOM     15  C   UNL A   1      42.176  25.800  27.876  1.00  0.00     0.074 A 
ATOM     16  C   UNL A   1      44.397  25.278  26.921  1.00  0.00     0.049 A 
ATOM     17  N   UNL A   1      42.349  27.051  28.218  1.00  0.00    -0.248 NA
ATOM     18  C   UNL A   1      40.831  25.280  28.167  1.00  0.00     0.031 C 
ATOM     19  C   UNL A   1      45.417  24.460  26.255  1.00  0.00     0.029 A 
ATOM     20  N   UNL A   1      45.015  26.485  27.114  1.00  0.00    -0.354 N 
ATOM     21  C   UNL A   1      41.130  27.481  28.727  1.00  0.00     0.074 A 
ATOM     22  C   UNL A   1      40.221  26.358  28.642  1.00  0.00     0.031 C 
ATOM     23  C   UNL A   1      46.539  25.180  26.120  1.00  0.00     0.029 A 
ATOM     24  C   UNL A   1      46.299  26.526  26.623  1.00  0.00     0.049 A 
ATOM     25  H   UNL A   1      44.583  27.248  27.561  1.00  0.00     0.167 HD
ATOM     26  C   UNL A   1      40.805  28.699  29.229  1.00  0.00     0.034 A 
ATOM     27  C   UNL A   1      47.180  27.540  26.554  1.00  0.00     0.034 A 
ATOM     28  C   UNL A   1      41.725  29.803  29.327  1.00  0.00     0.049 A 
ATOM     29  C   UNL A   1      46.789  28.875  27.117  1.00  0.00     0.074 A 
ATOM     30  C   UNL A   1      41.509  31.054  29.876  1.00  0.00     0.029 A 
ATOM     31  N   UNL A   1      43.027  29.797  28.850  1.00  0.00    -0.354 N 
ATOM     32  N   UNL A   1      45.672  29.226  27.706  1.00  0.00    -0.248 NA
ATOM     33  C   UNL A   1      47.790  29.947  27.032  1.00  0.00     0.031 C 
ATOM     34  C   UNL A   1      42.666  31.818  29.694  1.00  0.00     0.029 A 
ATOM     35  C   UNL A   1      43.621  31.028  29.074  1.00  0.00     0.049 A 
ATOM     36  H   UNL A   1      43.466  29.030  28.415  1.00  0.00     0.167 HD
ATOM     37  C   UNL A   1      45.846  30.549  28.090  1.00  0.00     0.074 A 
ATOM     38  C   UNL A   1      47.185  30.928  27.688  1.00  0.00     0.031 C 
ATOM     39  C   UNL A   1      44.970  31.379  28.707  1.00  0.00     0.034 A 
BRANCH  26  40
ATOM     40  C   UNL A   1      39.397  28.903  29.731  1.00  0.00     0.023 A 
ATOM     41  C   UNL A   1      39.058  28.531  31.047  1.00  0.00     0.012 A 
ATOM     42  C   UNL A   1      38.428  29.531  28.922  1.00  0.00     0.148 A 
ATOM     43  C   UNL A   1      37.772  28.749  31.540  1.00  0.00     0.002 A 
ATOM     44  C   UNL A   1      37.161  29.788  29.436  1.00  0.00     0.091 A 
ATOM     45  F   UNL A   1      38.761  29.865  27.667  1.00  0.00    -0.205 F 
ATOM     46  C   UNL A   1      36.828  29.385  30.739  1.00  0.00     0.022 A 
BRANCH  44  47
ATOM     47  S   UNL A   1      35.900  30.675  28.513  1.00  0.00     0.127 S 
ATOM     48  O   UNL A   1      35.320  29.604  27.703  1.00  0.00    -0.237 OA
ATOM     49  O   UNL A   1      35.030  31.168  29.582  1.00  0.00    -0.237 OA
ATOM     50  O   UNL A   1      36.599  31.713  27.769  1.00  0.00    -0.744 OA
ENDBRANCH  44  47
ENDBRANCH  26  40
BRANCH  27  51
ATOM     51  C   UNL A   1      48.520  27.317  25.947  1.00  0.00     0.023 A 
ATOM     52  C   UNL A   1      49.581  26.855  26.749  1.00  0.00     0.012 A 
ATOM     53  C   UNL A   1      48.737  27.523  24.570  1.00  0.00     0.148 A 
ATOM     54  C   UNL A   1      50.843  26.636  26.198  1.00  0.00     0.002 A 
ATOM     55  C   UNL A   1      49.979  27.243  24.016  1.00  0.00     0.091 A 
ATOM     56  F   UNL A   1      47.715  27.969  23.827  1.00  0.00    -0.205 F 
ATOM     57  C   UNL A   1      51.040  26.818  24.831  1.00  0.00     0.022 A 
BRANCH  55  58
ATOM     58  S   UNL A   1      50.283  27.318  22.247  1.00  0.00     0.127 S 
ATOM     59  O   UNL A   1      49.248  26.426  21.730  1.00  0.00    -0.237 OA
ATOM     60  O   UNL A   1      50.072  28.738  21.966  1.00  0.00    -0.237 OA
ATOM     61  O   UNL A   1      51.656  26.866  22.064  1.00  0.00    -0.744 OA
ENDBRANCH  55  58
ENDBRANCH  27  51
BRANCH  39  62
ATOM     62  C   UNL A   1      45.445  32.773  29.028  1.00  0.00     0.023 A 
ATOM     63  C   UNL A   1      46.056  33.043  30.269  1.00  0.00     0.012 A 
ATOM     64  C   UNL A   1      45.334  33.802  28.073  1.00  0.00     0.148 A 
ATOM     65  C   UNL A   1      46.514  34.325  30.568  1.00  0.00     0.002 A 
ATOM     66  C   UNL A   1      45.842  35.062  28.356  1.00  0.00     0.091 A 
ATOM     67  F   UNL A   1      44.731  33.529  26.905  1.00  0.00    -0.205 F 
ATOM     68  C   UNL A   1      46.419  35.331  29.609  1.00  0.00     0.022 A 
BRANCH  66  69
ATOM     69  S   UNL A   1      45.852  36.392  27.147  1.00  0.00     0.127 S 
ATOM     70  O   UNL A   1      44.445  36.790  27.132  1.00  0.00    -0.237 OA
ATOM     71  O   UNL A   1      46.754  37.363  27.766  1.00  0.00    -0.237 OA
ATOM     72  O   UNL A   1      46.348  35.808  25.909  1.00  0.00    -0.744 OA
ENDBRANCH  66  69
ENDBRANCH  39  62
ENDBRANCH  13  14
ENDBRANCH   6   8
ENDBRANCH   3   4
ENDBRANCH   2   3
ENDBRANCH   1   2
BRANCH   1  73
ATOM     73  C   UNL A   1      37.407  21.891  24.582  1.00  0.00     0.002 C 
BRANCH  73  74
ATOM     74  C   UNL A   1      37.392  22.874  25.756  1.00  0.00     0.021 C 
BRANCH  74  75
ATOM     75  C   UNL A   1      36.163  23.774  25.799  1.00  0.00     0.116 C 
BRANCH  75  76
ATOM     76  N   UNL A   1      35.009  23.094  26.351  1.00  0.00    -0.356 N 
ATOM     77  C   UNL A   1      34.001  22.420  25.734  1.00  0.00     0.226 C 
ATOM     78  H   UNL A   1      34.944  23.123  27.333  1.00  0.00     0.163 HD
ATOM     79  O   UNL A   1      33.099  21.967  26.445  1.00  0.00    -0.274 OA
BRANCH  77  80
ATOM     80  C   UNL A   1      33.961  22.208  24.217  1.00  0.00     0.103 C 
ATOM     81  C   UNL A   1      32.742  21.483  23.748  1.00  0.00    -0.016 C 
ATOM     82  C   UNL A   1      33.981  23.497  23.385  1.00  0.00     0.042 C 
ATOM     83  C   UNL A   1      32.158  22.111  22.724  1.00  0.00    -0.011 C 
ATOM     84  C   UNL A   1      32.871  23.357  22.320  1.00  0.00     0.093 C 
BRANCH  84  85
ATOM     85  N   UNL A   1      31.989  24.512  22.374  1.00  0.00    -0.204 NA
ATOM     86  H   UNL A   1      31.870  24.727  23.364  1.00  0.00     0.142 HD
BRANCH  85  87
ATOM     87  S   UNL A   1      32.340  25.966  21.626  1.00  0.00     0.241 S 
ATOM     88  O   UNL A   1      33.702  25.911  21.151  1.00  0.00    -0.207 OA
ATOM     89  O   UNL A   1      31.230  26.219  20.734  1.00  0.00    -0.207 OA
BRANCH  87  90
ATOM     90  C   UNL A   1      32.253  27.146  22.949  1.00  0.00     0.082 A 
ATOM     91  C   UNL A   1      31.007  27.651  23.340  1.00  0.00     0.023 A 
ATOM     92  C   UNL A   1      33.425  27.560  23.590  1.00  0.00     0.023 A 
ATOM     93  C   UNL A   1      30.937  28.599  24.361  1.00  0.00     0.017 A 
ATOM     94  C   UNL A   1      33.348  28.513  24.609  1.00  0.00     0.017 A 
ATOM     95  C   UNL A   1      32.107  29.031  24.985  1.00  0.00     0.018 A 
ATOM     96  Br  UNL A   1      32.008  30.332  26.353  1.00  0.00    -0.051 Br
ENDBRANCH  87  90
ENDBRANCH  85  87
ENDBRANCH  84  85
ENDBRANCH  77  80
ENDBRANCH  75  76
ENDBRANCH  74  75
ENDBRANCH  73  74
ENDBRANCH   1  73
TORSDOF 19
ENDMDL
MODEL 2
REMARK VINA RESULT:     -11.1      0.683      7.450
REMARK SMILES O=C(NCCCCCCNC(=O)[C@H]1C=C[C@@H](NS(=O)(=O)c2ccc(Br)cc2)C1)c1ccc(-c2c3nc(c(-c4cccc(S(=O)(=O)[O-])c4F)c4ccc([nH]4)c(-c4cccc(S(=O)(=O)[O-])c4F)c4nc(c(-c5cccc(S(=O)(=O)[O-])c5F)c5ccc2[nH]5)C=C4)C=C3)cc1
REMARK SMILES IDX 6 1 5 2 4 3 3 4 1 5 2 6 29 8 30 9 91 10 31 11 90 12 32 13
REMARK SMILES IDX 33 14 34 15 84 16 35 17 89 18 83 19 85 20 36 21 88 22 82 23
REMARK SMILES IDX 81 24 37 26 69 27 49 28 68 29 50 30 53 31 67 32 86 33 51 34
REMARK SMILES IDX 52 35 66 37 87 38 54 39 38 40 39 41 47 42 40 43 42 44 48 45
REMARK SMILES IDX 41 46 43 47 44 48 45 49 46 50 70 51 71 52 79 53 72 54 74 55
REMARK SMILES IDX 80 56 73 57 75 58 76 59 77 60 78 61 55 62 56 63 64 64 57 65
REMARK SMILES IDX 59 66 65 67 58 68 60 69 61 70 62 71 63 72 7 73 8 74 9 75
REMARK SMILES IDX 10 76 11 77 12 79 13 80 14 81 28 82 15 83 16 84 17 85 18 87
REMARK SMILES IDX 19 88 20 89 21 90 22 91 27 92 23 93 26 94 24 95 25 96
REMARK H PARENT 3 7 85 25 53 36 10 78 17 86
REMARK Flexibility Score: inf
ROOT
ATOM      1  C   UNL A   1      37.125  20.486  24.941  1.00  0.00     0.002 C 
ENDROOT
BRANCH   1   2
ATOM      2  C   UNL A   1      38.359  19.583  24.973  1.00  0.00     0.021 C 
BRANCH   2   3
ATOM      3  C   UNL A   1      39.350  19.920  26.078  1.00  0.00     0.116 C 
BRANCH   3   4
ATOM      4  N   UNL A   1      40.556  19.111  25.993  1.00  0.00    -0.352 N 
ATOM      5  O   UNL A   1      42.760  18.729  25.720  1.00  0.00    -0.269 OA
ATOM      6  C   UNL A   1      41.868  19.516  26.021  1.00  0.00     0.251 C 
ATOM      7  H   UNL A   1      40.411  18.141  25.902  1.00  0.00     0.163 HD
BRANCH   6   8
ATOM      8  C   UNL A   1      42.182  20.910  26.396  1.00  0.00     0.039 A 
ATOM      9  C   UNL A   1      42.310  21.889  25.408  1.00  0.00     0.014 A 
ATOM     10  C   UNL A   1      42.366  21.237  27.742  1.00  0.00     0.014 A 
ATOM     11  C   UNL A   1      42.765  23.155  25.748  1.00  0.00     0.010 A 
ATOM     12  C   UNL A   1      42.723  22.541  28.091  1.00  0.00     0.010 A 
ATOM     13  C   UNL A   1      42.952  23.505  27.095  1.00  0.00    -0.014 A 
BRANCH  13  14
ATOM     14  C   UNL A   1      43.290  24.909  27.434  1.00  0.00     0.031 A 
ATOM     15  C   UNL A   1      44.685  25.444  27.277  1.00  0.00     0.074 A 
ATOM     16  C   UNL A   1      42.305  25.706  27.897  1.00  0.00     0.049 A 
ATOM     17  N   UNL A   1      45.134  26.648  27.527  1.00  0.00    -0.248 NA
ATOM     18  C   UNL A   1      45.712  24.512  26.788  1.00  0.00     0.031 C 
ATOM     19  C   UNL A   1      40.920  25.282  28.128  1.00  0.00     0.029 A 
ATOM     20  N   UNL A   1      42.311  27.027  28.260  1.00  0.00    -0.354 N 
ATOM     21  C   UNL A   1      46.497  26.611  27.265  1.00  0.00     0.074 A 
ATOM     22  C   UNL A   1      46.806  25.261  26.842  1.00  0.00     0.031 C 
ATOM     23  C   UNL A   1      40.206  26.327  28.568  1.00  0.00     0.029 A 
ATOM     24  C   UNL A   1      41.093  27.473  28.716  1.00  0.00     0.049 A 
ATOM     25  H   UNL A   1      43.108  27.601  28.200  1.00  0.00     0.167 HD
ATOM     26  C   UNL A   1      47.404  27.615  27.358  1.00  0.00     0.034 A 
ATOM     27  C   UNL A   1      40.731  28.664  29.228  1.00  0.00     0.034 A 
ATOM     28  C   UNL A   1      47.080  28.960  27.760  1.00  0.00     0.049 A 
ATOM     29  C   UNL A   1      41.757  29.754  29.319  1.00  0.00     0.074 A 
ATOM     30  C   UNL A   1      47.915  30.061  27.826  1.00  0.00     0.029 A 
ATOM     31  N   UNL A   1      45.829  29.384  28.183  1.00  0.00    -0.354 N 
ATOM     32  N   UNL A   1      43.015  29.734  28.949  1.00  0.00    -0.248 NA
ATOM     33  C   UNL A   1      41.310  31.039  29.870  1.00  0.00     0.031 C 
ATOM     34  C   UNL A   1      47.179  31.140  28.326  1.00  0.00     0.029 A 
ATOM     35  C   UNL A   1      45.874  30.724  28.529  1.00  0.00     0.049 A 
ATOM     36  H   UNL A   1      45.026  28.815  28.230  1.00  0.00     0.167 HD
ATOM     37  C   UNL A   1      43.502  31.011  29.194  1.00  0.00     0.074 A 
ATOM     38  C   UNL A   1      42.396  31.785  29.720  1.00  0.00     0.031 C 
ATOM     39  C   UNL A   1      44.755  31.495  29.011  1.00  0.00     0.034 A 
BRANCH  26  40
ATOM     40  C   UNL A   1      48.838  27.308  27.001  1.00  0.00     0.023 A 
ATOM     41  C   UNL A   1      49.675  26.672  27.940  1.00  0.00     0.012 A 
ATOM     42  C   UNL A   1      49.334  27.584  25.711  1.00  0.00     0.148 A 
ATOM     43  C   UNL A   1      50.991  26.345  27.613  1.00  0.00     0.002 A 
ATOM     44  C   UNL A   1      50.633  27.214  25.378  1.00  0.00     0.091 A 
ATOM     45  F   UNL A   1      48.530  28.204  24.836  1.00  0.00    -0.205 F 
ATOM     46  C   UNL A   1      51.466  26.607  26.331  1.00  0.00     0.022 A 
BRANCH  44  47
ATOM     47  S   UNL A   1      51.313  27.433  23.729  1.00  0.00     0.127 S 
ATOM     48  O   UNL A   1      51.383  28.890  23.631  1.00  0.00    -0.237 OA
ATOM     49  O   UNL A   1      52.611  26.766  23.843  1.00  0.00    -0.237 OA
ATOM     50  O   UNL A   1      50.376  26.790  22.818  1.00  0.00    -0.744 OA
ENDBRANCH  44  47
ENDBRANCH  26  40
BRANCH  27  51
ATOM     51  C   UNL A   1      39.326  28.883  29.671  1.00  0.00     0.023 A 
ATOM     52  C   UNL A   1      38.956  28.580  30.995  1.00  0.00     0.012 A 
ATOM     53  C   UNL A   1      38.366  29.427  28.795  1.00  0.00     0.148 A 
ATOM     54  C   UNL A   1      37.647  28.782  31.429  1.00  0.00     0.002 A 
ATOM     55  C   UNL A   1      37.081  29.685  29.252  1.00  0.00     0.091 A 
ATOM     56  F   UNL A   1      38.738  29.703  27.538  1.00  0.00    -0.205 F 
ATOM     57  C   UNL A   1      36.713  29.345  30.563  1.00  0.00     0.022 A 
BRANCH  55  58
ATOM     58  S   UNL A   1      35.854  30.532  28.250  1.00  0.00     0.127 S 
ATOM     59  O   UNL A   1      35.445  29.478  27.326  1.00  0.00    -0.237 OA
ATOM     60  O   UNL A   1      34.852  30.900  29.251  1.00  0.00    -0.237 OA
ATOM     61  O   UNL A   1      36.548  31.664  27.651  1.00  0.00    -0.744 OA
ENDBRANCH  55  58
ENDBRANCH  27  51
BRANCH  39  62
ATOM     62  C   UNL A   1      44.992  32.945  29.343  1.00  0.00     0.023 A 
ATOM     63  C   UNL A   1      45.444  33.313  30.626  1.00  0.00     0.012 A 
ATOM     64  C   UNL A   1      44.818  33.939  28.360  1.00  0.00     0.148 A 
ATOM     65  C   UNL A   1      45.682  34.651  30.936  1.00  0.00     0.002 A 
ATOM     66  C   UNL A   1      45.109  35.263  28.660  1.00  0.00     0.091 A 
ATOM     67  F   UNL A   1      44.367  33.571  27.151  1.00  0.00    -0.205 F 
ATOM     68  C   UNL A   1      45.527  35.624  29.952  1.00  0.00     0.022 A 
BRANCH  66  69
ATOM     69  S   UNL A   1      45.033  36.570  27.429  1.00  0.00     0.127 S 
ATOM     70  O   UNL A   1      45.490  37.728  28.196  1.00  0.00    -0.237 OA
ATOM     71  O   UNL A   1      45.978  36.096  26.418  1.00  0.00    -0.237 OA
ATOM     72  O   UNL A   1      43.648  36.624  26.985  1.00  0.00    -0.744 OA
ENDBRANCH  66  69
ENDBRANCH  39  62
ENDBRANCH  13  14
ENDBRANCH   6   8
ENDBRANCH   3   4
ENDBRANCH   2   3
ENDBRANCH   1   2
BRANCH   1  73
ATOM     73  C   UNL A   1      37.410  21.962  24.639  1.00  0.00     0.002 C 
BRANCH  73  74
ATOM     74  C   UNL A   1      37.327  22.899  25.848  1.00  0.00     0.021 C 
BRANCH  74  75
ATOM     75  C   UNL A   1      36.062  23.748  25.891  1.00  0.00     0.116 C 
BRANCH  75  76
ATOM     76  N   UNL A   1      34.930  23.012  26.417  1.00  0.00    -0.356 N 
ATOM     77  C   UNL A   1      33.954  22.316  25.775  1.00  0.00     0.226 C 
ATOM     78  H   UNL A   1      34.856  23.016  27.399  1.00  0.00     0.163 HD
ATOM     79  O   UNL A   1      33.064  21.812  26.467  1.00  0.00    -0.274 OA
BRANCH  77  80
ATOM     80  C   UNL A   1      33.934  22.139  24.253  1.00  0.00     0.103 C 
ATOM     81  C   UNL A   1      32.742  21.390  23.755  1.00  0.00    -0.016 C 
ATOM     82  C   UNL A   1      33.924  23.448  23.452  1.00  0.00     0.042 C 
ATOM     83  C   UNL A   1      32.148  22.025  22.740  1.00  0.00    -0.011 C 
ATOM     84  C   UNL A   1      32.829  23.301  22.372  1.00  0.00     0.093 C 
BRANCH  84  85
ATOM     85  N   UNL A   1      31.913  24.427  22.445  1.00  0.00    -0.204 NA
ATOM     86  H   UNL A   1      31.736  24.582  23.438  1.00  0.00     0.142 HD
BRANCH  85  87
ATOM     87  S   UNL A   1      32.261  25.931  21.800  1.00  0.00     0.241 S 
ATOM     88  O   UNL A   1      33.627  25.917  21.334  1.00  0.00    -0.207 OA
ATOM     89  O   UNL A   1      31.156  26.238  20.918  1.00  0.00    -0.207 OA
BRANCH  87  90
ATOM     90  C   UNL A   1      32.155  27.019  23.200  1.00  0.00     0.082 A 
ATOM     91  C   UNL A   1      31.465  28.230  23.079  1.00  0.00     0.023 A 
ATOM     92  C   UNL A   1      32.759  26.657  24.408  1.00  0.00     0.023 A 
ATOM     93  C   UNL A   1      31.402  29.100  24.167  1.00  0.00     0.017 A 
ATOM     94  C   UNL A   1      32.696  27.535  25.494  1.00  0.00     0.017 A 
ATOM     95  C   UNL A   1      32.024  28.752  25.367  1.00  0.00     0.018 A 
ATOM     96  Br  UNL A   1      31.955  29.944  26.832  1.00  0.00    -0.051 Br
ENDBRANCH  87  90
ENDBRANCH  85  87
ENDBRANCH  84  85
ENDBRANCH  77  80
ENDBRANCH  75  76
ENDBRANCH  74  75
ENDBRANCH  73  74
ENDBRANCH   1  73
TORSDOF 19
ENDMDL
MODEL 3
REMARK VINA RESULT:     -10.8      2.315      3.159
REMARK SMILES O=C(NCCCCCCNC(=O)[C@H]1C=C[C@@H](NS(=O)(=O)c2ccc(Br)cc2)C1)c1ccc(-c2c3nc(c(-c4cccc(S(=O)(=O)[O-])c4F)c4ccc([nH]4)c(-c4cccc(S(=O)(=O)[O-])c4F)c4nc(c(-c5cccc(S(=O)(=O)[O-])c5F)c5ccc2[nH]5)C=C4)C=C3)cc1
REMARK SMILES IDX 6 1 5 2 4 3 3 4 1 5 2 6 29 8 30 9 91 10 31 11 90 12 32 13
REMARK SMILES IDX 33 14 34 15 84 16 35 17 89 18 83 19 85 20 36 21 88 22 82 23
REMARK SMILES IDX 81 24 37 26 69 27 49 28 68 29 50 30 53 31 67 32 86 33 51 34
REMARK SMILES IDX 52 35 66 37 87 38 54 39 38 40 39 41 47 42 40 43 42 44 48 45
REMARK SMILES IDX 41 46 43 47 44 48 45 49 46 50 70 51 71 52 79 53 72 54 74 55
REMARK SMILES IDX 80 56 73 57 75 58 76 59 77 60 78 61 55 62 56 63 64 64 57 65
REMARK SMILES IDX 59 66 65 67 58 68 60 69 61 70 62 71 63 72 7 73 8 74 9 75
REMARK SMILES IDX 10 76 11 77 12 79 13 80 14 81 28 82 15 83 16 84 17 85 18 87
REMARK SMILES IDX 19 88 20 89 21 90 22 91 27 92 23 93 26 94 24 95 25 96
REMARK H PARENT 3 7 85 25 53 36 10 78 17 86
REMARK Flexibility Score: inf
ROOT
ATOM      1  C   UNL A   1      42.081  21.184  27.785  1.00  0.00     0.002 C 
ENDROOT
BRANCH   1   2
ATOM      2  C   UNL A   1      42.231  19.779  27.199  1.00  0.00     0.021 C 
BRANCH   2   3
ATOM      3  C   UNL A   1      42.080  19.714  25.686  1.00  0.00     0.116 C 
BRANCH   3   4
ATOM      4  N   UNL A   1      43.237  19.106  25.049  1.00  0.00    -0.352 N 
ATOM      5  O   UNL A   1      45.176  19.082  23.899  1.00  0.00    -0.269 OA
ATOM      6  C   UNL A   1      44.393  19.705  24.609  1.00  0.00     0.251 C 
ATOM      7  H   UNL A   1      43.184  18.132  24.913  1.00  0.00     0.163 HD
BRANCH   6   8
ATOM      8  C   UNL A   1      44.664  21.108  24.987  1.00  0.00     0.039 A 
ATOM      9  C   UNL A   1      45.344  21.395  26.172  1.00  0.00     0.014 A 
ATOM     10  C   UNL A   1      44.221  22.142  24.159  1.00  0.00     0.014 A 
ATOM     11  C   UNL A   1      45.451  22.709  26.604  1.00  0.00     0.010 A 
ATOM     12  C   UNL A   1      44.424  23.469  24.546  1.00  0.00     0.010 A 
ATOM     13  C   UNL A   1      45.017  23.763  25.785  1.00  0.00    -0.014 A 
BRANCH  13  14
ATOM     14  C   UNL A   1      45.286  25.161  26.206  1.00  0.00     0.031 A 
ATOM     15  C   UNL A   1      44.189  26.057  26.706  1.00  0.00     0.074 A 
ATOM     16  C   UNL A   1      46.553  25.617  26.126  1.00  0.00     0.049 A 
ATOM     17  N   UNL A   1      44.267  27.299  27.114  1.00  0.00    -0.248 NA
ATOM     18  C   UNL A   1      42.828  25.500  26.746  1.00  0.00     0.031 C 
ATOM     19  C   UNL A   1      47.692  24.846  25.617  1.00  0.00     0.029 A 
ATOM     20  N   UNL A   1      47.097  26.829  26.462  1.00  0.00    -0.354 N 
ATOM     21  C   UNL A   1      42.969  27.684  27.422  1.00  0.00     0.074 A 
ATOM     22  C   UNL A   1      42.118  26.546  27.146  1.00  0.00     0.031 C 
ATOM     23  C   UNL A   1      48.801  25.593  25.699  1.00  0.00     0.029 A 
ATOM     24  C   UNL A   1      48.443  26.914  26.198  1.00  0.00     0.049 A 
ATOM     25  H   UNL A   1      46.575  27.565  26.853  1.00  0.00     0.167 HD
ATOM     26  C   UNL A   1      42.531  28.875  27.901  1.00  0.00     0.034 A 
ATOM     27  C   UNL A   1      49.296  27.948  26.314  1.00  0.00     0.034 A 
ATOM     28  C   UNL A   1      43.392  29.993  28.190  1.00  0.00     0.049 A 
ATOM     29  C   UNL A   1      48.781  29.253  26.846  1.00  0.00     0.074 A 
ATOM     30  C   UNL A   1      43.054  31.219  28.736  1.00  0.00     0.029 A 
ATOM     31  N   UNL A   1      44.756  30.033  27.942  1.00  0.00    -0.354 N 
ATOM     32  N   UNL A   1      47.571  29.559  27.247  1.00  0.00    -0.248 NA
ATOM     33  C   UNL A   1      49.752  30.347  26.968  1.00  0.00     0.031 C 
ATOM     34  C   UNL A   1      44.204  32.013  28.779  1.00  0.00     0.029 A 
ATOM     35  C   UNL A   1      45.270  31.266  28.305  1.00  0.00     0.049 A 
ATOM     36  H   UNL A   1      45.282  29.291  27.564  1.00  0.00     0.167 HD
ATOM     37  C   UNL A   1      47.642  30.870  27.698  1.00  0.00     0.074 A 
ATOM     38  C   UNL A   1      49.019  31.290  27.544  1.00  0.00     0.031 C 
ATOM     39  C   UNL A   1      46.652  31.658  28.185  1.00  0.00     0.034 A 
BRANCH  26  40
ATOM     40  C   UNL A   1      41.054  29.032  28.162  1.00  0.00     0.023 A 
ATOM     41  C   UNL A   1      40.169  29.251  27.087  1.00  0.00     0.012 A 
ATOM     42  C   UNL A   1      40.534  28.891  29.465  1.00  0.00     0.148 A 
ATOM     43  C   UNL A   1      38.795  29.359  27.306  1.00  0.00     0.002 A 
ATOM     44  C   UNL A   1      39.159  28.953  29.669  1.00  0.00     0.091 A 
ATOM     45  F   UNL A   1      41.390  28.699  30.478  1.00  0.00    -0.205 F 
ATOM     46  C   UNL A   1      38.291  29.201  28.594  1.00  0.00     0.022 A 
BRANCH  44  47
ATOM     47  S   UNL A   1      38.403  28.681  31.276  1.00  0.00     0.127 S 
ATOM     48  O   UNL A   1      39.062  29.703  32.088  1.00  0.00    -0.237 OA
ATOM     49  O   UNL A   1      36.990  28.942  30.997  1.00  0.00    -0.237 OA
ATOM     50  O   UNL A   1      38.708  27.304  31.638  1.00  0.00    -0.744 OA
ENDBRANCH  44  47
ENDBRANCH  26  40
BRANCH  27  51
ATOM     51  C   UNL A   1      50.726  27.775  25.937  1.00  0.00     0.023 A 
ATOM     52  C   UNL A   1      51.683  27.508  26.934  1.00  0.00     0.012 A 
ATOM     53  C   UNL A   1      51.133  27.836  24.589  1.00  0.00     0.148 A 
ATOM     54  C   UNL A   1      53.026  27.338  26.600  1.00  0.00     0.002 A 
ATOM     55  C   UNL A   1      52.462  27.604  24.258  1.00  0.00     0.091 A 
ATOM     56  F   UNL A   1      50.207  28.098  23.657  1.00  0.00    -0.205 F 
ATOM     57  C   UNL A   1      53.414  27.375  25.263  1.00  0.00     0.022 A 
BRANCH  55  58
ATOM     58  S   UNL A   1      53.024  27.496  22.555  1.00  0.00     0.127 S 
ATOM     59  O   UNL A   1      51.939  26.744  21.931  1.00  0.00    -0.237 OA
ATOM     60  O   UNL A   1      53.097  28.906  22.173  1.00  0.00    -0.237 OA
ATOM     61  O   UNL A   1      54.313  26.820  22.608  1.00  0.00    -0.744 OA
ENDBRANCH  55  58
ENDBRANCH  27  51
BRANCH  39  62
ATOM     62  C   UNL A   1      47.029  33.048  28.628  1.00  0.00     0.023 A 
ATOM     63  C   UNL A   1      47.412  33.285  29.963  1.00  0.00     0.012 A 
ATOM     64  C   UNL A   1      47.056  34.109  27.702  1.00  0.00     0.148 A 
ATOM     65  C   UNL A   1      47.778  34.565  30.378  1.00  0.00     0.002 A 
ATOM     66  C   UNL A   1      47.475  35.369  28.109  1.00  0.00     0.091 A 
ATOM     67  F   UNL A   1      46.669  33.867  26.440  1.00  0.00    -0.205 F 
ATOM     68  C   UNL A   1      47.822  35.603  29.450  1.00  0.00     0.022 A 
BRANCH  66  69
ATOM     69  S   UNL A   1      47.656  36.741  26.964  1.00  0.00     0.127 S 
ATOM     70  O   UNL A   1      47.887  37.861  27.877  1.00  0.00    -0.237 OA
ATOM     71  O   UNL A   1      48.827  36.339  26.185  1.00  0.00    -0.237 OA
ATOM     72  O   UNL A   1      46.415  36.801  26.207  1.00  0.00    -0.744 OA
ENDBRANCH  66  69
ENDBRANCH  39  62
ENDBRANCH  13  14
ENDBRANCH   6   8
ENDBRANCH   3   4
ENDBRANCH   2   3
ENDBRANCH   1   2
BRANCH   1  73
ATOM     73  C   UNL A   1      41.361  22.190  26.879  1.00  0.00     0.002 C 
BRANCH  73  74
ATOM     74  C   UNL A   1      40.373  23.116  27.595  1.00  0.00     0.021 C 
BRANCH  74  75
ATOM     75  C   UNL A   1      39.104  23.404  26.802  1.00  0.00     0.116 C 
BRANCH  75  76
ATOM     76  N   UNL A   1      38.628  22.233  26.093  1.00  0.00    -0.356 N 
ATOM     77  C   UNL A   1      37.528  22.059  25.312  1.00  0.00     0.226 C 
ATOM     78  H   UNL A   1      39.193  21.432  26.194  1.00  0.00     0.163 HD
ATOM     79  O   UNL A   1      37.324  20.929  24.857  1.00  0.00    -0.274 OA
BRANCH  77  80
ATOM     80  C   UNL A   1      36.564  23.203  24.982  1.00  0.00     0.103 C 
ATOM     81  C   UNL A   1      35.968  23.106  23.616  1.00  0.00    -0.016 C 
ATOM     82  C   UNL A   1      35.353  23.316  25.918  1.00  0.00     0.042 C 
ATOM     83  C   UNL A   1      34.641  23.258  23.644  1.00  0.00    -0.011 C 
ATOM     84  C   UNL A   1      34.109  23.485  25.019  1.00  0.00     0.093 C 
BRANCH  84  85
ATOM     85  N   UNL A   1      33.110  22.489  25.369  1.00  0.00    -0.204 NA
ATOM     86  H   UNL A   1      33.586  21.811  25.965  1.00  0.00     0.142 HD
BRANCH  85  87
ATOM     87  S   UNL A   1      31.681  22.864  26.153  1.00  0.00     0.241 S 
ATOM     88  O   UNL A   1      30.715  21.837  25.845  1.00  0.00    -0.207 OA
ATOM     89  O   UNL A   1      32.056  23.175  27.515  1.00  0.00    -0.207 OA
BRANCH  87  90
ATOM     90  C   UNL A   1      31.163  24.374  25.375  1.00  0.00     0.082 A 
ATOM     91  C   UNL A   1      30.724  24.347  24.046  1.00  0.00     0.023 A 
ATOM     92  C   UNL A   1      31.196  25.573  26.094  1.00  0.00     0.023 A 
ATOM     93  C   UNL A   1      30.342  25.535  23.423  1.00  0.00     0.017 A 
ATOM     94  C   UNL A   1      30.816  26.760  25.462  1.00  0.00     0.017 A 
ATOM     95  C   UNL A   1      30.397  26.736  24.130  1.00  0.00     0.018 A 
ATOM     96  Br  UNL A   1      29.899  28.346  23.273  1.00  0.00    -0.051 Br
ENDBRANCH  87  90
ENDBRANCH  85  87
ENDBRANCH  84  85
ENDBRANCH  77  80
ENDBRANCH  75  76
ENDBRANCH  74  75
ENDBRANCH  73  74
ENDBRANCH   1  73
TORSDOF 19
ENDMDL
