MODEL 1
REMARK VINA RESULT:     -11.6      0.000      0.000
REMARK SMILES C[C@H](C(=O)NCCCCCCNC(=O)c1ccc(-c2c3nc(c(-c4cccc(S(=O)(=O)[O-])c4F)c4ccc([nH]4)c(-c4cccc(S(=O)(=O)[O-])c4F)c4nc(c(-c5cccc(S(=O)(=O)[O-])c5F)c5ccc2[nH]5)C=C4)C=C3)cc1)c1ccc(C[C@H]2CCC[C@@H]2O)cc1
REMARK SMILES IDX 8 1 7 2 6 3 5 4 3 5 4 6 2 8 1 9 78 10 79 11 90 12 80 13
REMARK SMILES IDX 89 14 81 15 82 16 83 17 84 18 87 19 85 20 86 21 88 22 9 24
REMARK SMILES IDX 10 25 11 26 12 27 13 28 14 30 15 31 16 32 77 33 17 34 76 35
REMARK SMILES IDX 18 36 19 37 20 38 70 39 21 40 75 41 69 42 71 43 22 44 74 45
REMARK SMILES IDX 68 46 67 47 23 49 55 50 35 51 54 52 36 53 39 54 53 55 72 56
REMARK SMILES IDX 37 57 38 58 52 60 73 61 40 62 24 63 25 64 33 65 26 66 28 67
REMARK SMILES IDX 34 68 27 69 29 70 30 71 31 72 32 73 56 74 57 75 65 76 58 77
REMARK SMILES IDX 60 78 66 79 59 80 61 81 62 82 63 83 64 84 41 85 42 86 50 87
REMARK SMILES IDX 43 88 45 89 51 90 44 91 46 92 47 93 48 94 49 95
REMARK H PARENT 5 7 88 23 12 29 71 48 39 59
REMARK Flexibility Score: inf
ROOT
ATOM      1  C   UNL A   1      34.857  21.703  24.191  1.00  0.00     0.002 C 
ENDROOT
BRANCH   1   2
ATOM      2  C   UNL A   1      33.438  22.276  24.227  1.00  0.00     0.021 C 
BRANCH   2   3
ATOM      3  C   UNL A   1      32.666  22.298  22.911  1.00  0.00     0.116 C 
BRANCH   3   4
ATOM      4  N   UNL A   1      32.939  23.445  22.066  1.00  0.00    -0.356 N 
ATOM      5  C   UNL A   1      33.167  24.749  22.394  1.00  0.00     0.227 C 
ATOM      6  O   UNL A   1      33.651  25.451  21.494  1.00  0.00    -0.274 OA
ATOM      7  H   UNL A   1      32.964  23.251  21.101  1.00  0.00     0.163 HD
BRANCH   5   8
ATOM      8  C   UNL A   1      32.726  25.422  23.708  1.00  0.00     0.105 C 
ATOM      9  C   UNL A   1      34.022  25.874  24.404  1.00  0.00     0.023 C 
BRANCH   8  10
ATOM     10  C   UNL A   1      31.638  26.488  23.639  1.00  0.00    -0.036 A 
ATOM     11  C   UNL A   1      30.330  26.201  24.059  1.00  0.00     0.005 A 
ATOM     12  C   UNL A   1      31.893  27.777  23.150  1.00  0.00     0.005 A 
ATOM     13  C   UNL A   1      29.278  27.070  23.749  1.00  0.00     0.004 A 
ATOM     14  C   UNL A   1      30.851  28.667  22.893  1.00  0.00     0.004 A 
ATOM     15  C   UNL A   1      29.526  28.278  23.089  1.00  0.00    -0.048 A 
BRANCH  15  16
ATOM     16  C   UNL A   1      28.397  29.110  22.528  1.00  0.00     0.041 C 
BRANCH  16  17
ATOM     17  C   UNL A   1      28.775  30.558  22.143  1.00  0.00     0.022 C 
ATOM     18  C   UNL A   1      28.034  31.152  20.927  1.00  0.00     0.007 C 
ATOM     19  C   UNL A   1      28.578  31.620  23.232  1.00  0.00     0.117 C 
ATOM     20  C   UNL A   1      27.915  32.658  21.184  1.00  0.00     0.003 C 
ATOM     21  C   UNL A   1      28.710  32.921  22.451  1.00  0.00     0.032 C 
BRANCH  19  22
ATOM     22  O   UNL A   1      29.541  31.593  24.265  1.00  0.00    -0.393 OA
ATOM     23  H   UNL A   1      29.398  32.344  24.860  1.00  0.00     0.210 HD
ENDBRANCH  19  22
ENDBRANCH  16  17
ENDBRANCH  15  16
ENDBRANCH   8  10
ENDBRANCH   5   8
ENDBRANCH   3   4
ENDBRANCH   2   3
ENDBRANCH   1   2
BRANCH   1  24
ATOM     24  C   UNL A   1      35.954  22.576  23.576  1.00  0.00     0.002 C 
BRANCH  24  25
ATOM     25  C   UNL A   1      36.738  23.477  24.531  1.00  0.00     0.021 C 
BRANCH  25  26
ATOM     26  C   UNL A   1      36.908  22.968  25.957  1.00  0.00     0.116 C 
BRANCH  26  27
ATOM     27  N   UNL A   1      38.113  22.176  26.153  1.00  0.00    -0.352 N 
ATOM     28  C   UNL A   1      39.366  22.590  26.544  1.00  0.00     0.251 C 
ATOM     29  H   UNL A   1      38.019  21.211  25.981  1.00  0.00     0.163 HD
ATOM     30  O   UNL A   1      40.300  21.792  26.571  1.00  0.00    -0.269 OA
BRANCH  28  31
ATOM     31  C   UNL A   1      39.595  24.007  26.903  1.00  0.00     0.039 A 
ATOM     32  C   UNL A   1      39.320  24.432  28.207  1.00  0.00     0.014 A 
ATOM     33  C   UNL A   1      40.100  24.908  25.963  1.00  0.00     0.014 A 
ATOM     34  C   UNL A   1      39.623  25.742  28.591  1.00  0.00     0.010 A 
ATOM     35  C   UNL A   1      40.467  26.188  26.366  1.00  0.00     0.010 A 
ATOM     36  C   UNL A   1      40.231  26.619  27.681  1.00  0.00    -0.014 A 
BRANCH  36  37
ATOM     37  C   UNL A   1      40.639  27.998  28.058  1.00  0.00     0.031 A 
ATOM     38  C   UNL A   1      42.099  28.344  28.135  1.00  0.00     0.074 A 
ATOM     39  C   UNL A   1      39.713  28.884  28.471  1.00  0.00     0.049 A 
ATOM     40  N   UNL A   1      42.672  29.415  28.617  1.00  0.00    -0.248 NA
ATOM     41  C   UNL A   1      43.042  27.330  27.635  1.00  0.00     0.031 C 
ATOM     42  C   UNL A   1      38.271  28.642  28.511  1.00  0.00     0.029 A 
ATOM     43  N   UNL A   1      39.854  30.149  28.990  1.00  0.00    -0.354 N 
ATOM     44  C   UNL A   1      44.039  29.180  28.536  1.00  0.00     0.074 A 
ATOM     45  C   UNL A   1      44.208  27.857  27.976  1.00  0.00     0.031 C 
ATOM     46  C   UNL A   1      37.661  29.710  29.050  1.00  0.00     0.029 A 
ATOM     47  C   UNL A   1      38.671  30.696  29.429  1.00  0.00     0.049 A 
ATOM     48  H   UNL A   1      40.718  30.617  29.042  1.00  0.00     0.167 HD
ATOM     49  C   UNL A   1      45.061  29.998  28.879  1.00  0.00     0.034 A 
ATOM     50  C   UNL A   1      38.427  31.845  30.089  1.00  0.00     0.034 A 
ATOM     51  C   UNL A   1      44.886  31.330  29.388  1.00  0.00     0.049 A 
ATOM     52  C   UNL A   1      39.570  32.767  30.410  1.00  0.00     0.074 A 
ATOM     53  C   UNL A   1      45.853  32.279  29.669  1.00  0.00     0.029 A 
ATOM     54  N   UNL A   1      43.662  31.902  29.700  1.00  0.00    -0.354 N 
ATOM     55  N   UNL A   1      40.852  32.594  30.190  1.00  0.00    -0.248 NA
ATOM     56  C   UNL A   1      39.239  34.055  31.037  1.00  0.00     0.031 C 
ATOM     57  C   UNL A   1      45.215  33.417  30.172  1.00  0.00     0.029 A 
ATOM     58  C   UNL A   1      43.848  33.188  30.178  1.00  0.00     0.049 A 
ATOM     59  H   UNL A   1      42.789  31.459  29.597  1.00  0.00     0.167 HD
ATOM     60  C   UNL A   1      41.475  33.763  30.611  1.00  0.00     0.074 A 
ATOM     61  C   UNL A   1      40.430  34.641  31.097  1.00  0.00     0.031 C 
ATOM     62  C   UNL A   1      42.794  34.075  30.599  1.00  0.00     0.034 A 
BRANCH  49  63
ATOM     63  C   UNL A   1      46.463  29.483  28.677  1.00  0.00     0.023 A 
ATOM     64  C   UNL A   1      47.131  29.734  27.460  1.00  0.00     0.012 A 
ATOM     65  C   UNL A   1      47.128  28.772  29.694  1.00  0.00     0.148 A 
ATOM     66  C   UNL A   1      48.417  29.243  27.241  1.00  0.00     0.002 A 
ATOM     67  C   UNL A   1      48.429  28.327  29.485  1.00  0.00     0.091 A 
ATOM     68  F   UNL A   1      46.472  28.520  30.837  1.00  0.00    -0.205 F 
ATOM     69  C   UNL A   1      49.069  28.548  28.256  1.00  0.00     0.022 A 
BRANCH  67  70
ATOM     70  S   UNL A   1      49.374  27.496  30.768  1.00  0.00     0.127 S 
ATOM     71  O   UNL A   1      50.731  27.566  30.229  1.00  0.00    -0.237 OA
ATOM     72  O   UNL A   1      49.137  28.351  31.933  1.00  0.00    -0.237 OA
ATOM     73  O   UNL A   1      48.804  26.162  30.877  1.00  0.00    -0.744 OA
ENDBRANCH  67  70
ENDBRANCH  49  63
BRANCH  50  74
ATOM     74  C   UNL A   1      37.022  32.201  30.436  1.00  0.00     0.023 A 
ATOM     75  C   UNL A   1      36.553  31.965  31.743  1.00  0.00     0.012 A 
ATOM     76  C   UNL A   1      36.180  32.844  29.507  1.00  0.00     0.148 A 
ATOM     77  C   UNL A   1      35.263  32.346  32.113  1.00  0.00     0.002 A 
ATOM     78  C   UNL A   1      34.916  33.269  29.898  1.00  0.00     0.091 A 
ATOM     79  F   UNL A   1      36.645  33.053  28.268  1.00  0.00    -0.205 F 
ATOM     80  C   UNL A   1      34.449  33.009  31.196  1.00  0.00     0.022 A 
BRANCH  78  81
ATOM     81  S   UNL A   1      33.851  34.247  28.831  1.00  0.00     0.127 S 
ATOM     82  O   UNL A   1      34.768  35.284  28.363  1.00  0.00    -0.237 OA
ATOM     83  O   UNL A   1      33.461  33.266  27.818  1.00  0.00    -0.237 OA
ATOM     84  O   UNL A   1      32.757  34.710  29.674  1.00  0.00    -0.744 OA
ENDBRANCH  78  81
ENDBRANCH  50  74
BRANCH  62  85
ATOM     85  C   UNL A   1      43.205  35.443  31.076  1.00  0.00     0.023 A 
ATOM     86  C   UNL A   1      43.571  35.639  32.421  1.00  0.00     0.012 A 
ATOM     87  C   UNL A   1      43.351  36.500  30.156  1.00  0.00     0.148 A 
ATOM     88  C   UNL A   1      44.067  36.873  32.846  1.00  0.00     0.002 A 
ATOM     89  C   UNL A   1      43.890  37.710  30.574  1.00  0.00     0.091 A 
ATOM     90  F   UNL A   1      42.979  36.294  28.883  1.00  0.00    -0.205 F 
ATOM     91  C   UNL A   1      44.241  37.901  31.920  1.00  0.00     0.022 A 
BRANCH  89  92
ATOM     92  S   UNL A   1      44.245  39.055  29.437  1.00  0.00     0.127 S 
ATOM     93  O   UNL A   1      45.140  38.407  28.479  1.00  0.00    -0.237 OA
ATOM     94  O   UNL A   1      42.916  39.373  28.910  1.00  0.00    -0.237 OA
ATOM     95  O   UNL A   1      44.849  40.112  30.236  1.00  0.00    -0.744 OA
ENDBRANCH  89  92
ENDBRANCH  62  85
ENDBRANCH  36  37
ENDBRANCH  28  31
ENDBRANCH  26  27
ENDBRANCH  25  26
ENDBRANCH  24  25
ENDBRANCH   1  24
TORSDOF 20
ENDMDL
MODEL 2
REMARK VINA RESULT:     -11.5      5.308      9.193
REMARK SMILES C[C@H](C(=O)NCCCCCCNC(=O)c1ccc(-c2c3nc(c(-c4cccc(S(=O)(=O)[O-])c4F)c4ccc([nH]4)c(-c4cccc(S(=O)(=O)[O-])c4F)c4nc(c(-c5cccc(S(=O)(=O)[O-])c5F)c5ccc2[nH]5)C=C4)C=C3)cc1)c1ccc(C[C@H]2CCC[C@@H]2O)cc1
REMARK SMILES IDX 8 1 7 2 6 3 5 4 3 5 4 6 2 8 1 9 78 10 79 11 90 12 80 13
REMARK SMILES IDX 89 14 81 15 82 16 83 17 84 18 87 19 85 20 86 21 88 22 9 24
REMARK SMILES IDX 10 25 11 26 12 27 13 28 14 30 15 31 16 32 77 33 17 34 76 35
REMARK SMILES IDX 18 36 19 37 20 38 70 39 21 40 75 41 69 42 71 43 22 44 74 45
REMARK SMILES IDX 68 46 67 47 23 49 55 50 35 51 54 52 36 53 39 54 53 55 72 56
REMARK SMILES IDX 37 57 38 58 52 60 73 61 40 62 24 63 25 64 33 65 26 66 28 67
REMARK SMILES IDX 34 68 27 69 29 70 30 71 31 72 32 73 56 74 57 75 65 76 58 77
REMARK SMILES IDX 60 78 66 79 59 80 61 81 62 82 63 83 64 84 41 85 42 86 50 87
REMARK SMILES IDX 43 88 45 89 51 90 44 91 46 92 47 93 48 94 49 95
REMARK H PARENT 5 7 88 23 12 29 71 48 39 59
REMARK Flexibility Score: inf
ROOT
ATOM      1  C   UNL A   1      32.992  29.991  26.949  1.00  0.00     0.002 C 
ENDROOT
BRANCH   1   2
ATOM      2  C   UNL A   1      33.449  29.010  25.866  1.00  0.00     0.021 C 
BRANCH   2   3
ATOM      3  C   UNL A   1      33.011  29.306  24.434  1.00  0.00     0.116 C 
BRANCH   3   4
ATOM      4  N   UNL A   1      32.997  28.152  23.554  1.00  0.00    -0.356 N 
ATOM      5  C   UNL A   1      32.203  27.044  23.564  1.00  0.00     0.227 C 
ATOM      6  O   UNL A   1      32.225  26.359  22.530  1.00  0.00    -0.274 OA
ATOM      7  H   UNL A   1      33.670  28.173  22.836  1.00  0.00     0.163 HD
BRANCH   5   8
ATOM      8  C   UNL A   1      31.433  26.515  24.790  1.00  0.00     0.105 C 
ATOM      9  C   UNL A   1      29.943  26.575  24.408  1.00  0.00     0.023 C 
BRANCH   8  10
ATOM     10  C   UNL A   1      31.878  25.193  25.402  1.00  0.00    -0.036 A 
ATOM     11  C   UNL A   1      33.224  24.976  25.735  1.00  0.00     0.005 A 
ATOM     12  C   UNL A   1      30.975  24.147  25.643  1.00  0.00     0.005 A 
ATOM     13  C   UNL A   1      33.683  23.689  26.036  1.00  0.00     0.004 A 
ATOM     14  C   UNL A   1      31.427  22.876  25.999  1.00  0.00     0.004 A 
ATOM     15  C   UNL A   1      32.793  22.613  26.091  1.00  0.00    -0.048 A 
BRANCH  15  16
ATOM     16  C   UNL A   1      33.290  21.188  26.168  1.00  0.00     0.041 C 
BRANCH  16  17
ATOM     17  C   UNL A   1      32.532  20.177  25.279  1.00  0.00     0.022 C 
ATOM     18  C   UNL A   1      32.583  20.439  23.760  1.00  0.00     0.007 C 
ATOM     19  C   UNL A   1      32.968  18.712  25.401  1.00  0.00     0.117 C 
ATOM     20  C   UNL A   1      32.524  19.067  23.080  1.00  0.00     0.003 C 
ATOM     21  C   UNL A   1      32.293  18.066  24.198  1.00  0.00     0.032 C 
BRANCH  19  22
ATOM     22  O   UNL A   1      32.542  18.065  26.582  1.00  0.00    -0.393 OA
ATOM     23  H   UNL A   1      32.753  18.619  27.349  1.00  0.00     0.210 HD
ENDBRANCH  19  22
ENDBRANCH  16  17
ENDBRANCH  15  16
ENDBRANCH   8  10
ENDBRANCH   5   8
ENDBRANCH   3   4
ENDBRANCH   2   3
ENDBRANCH   1   2
BRANCH   1  24
ATOM     24  C   UNL A   1      31.574  30.558  26.833  1.00  0.00     0.002 C 
BRANCH  24  25
ATOM     25  C   UNL A   1      31.435  32.081  26.843  1.00  0.00     0.021 C 
BRANCH  25  26
ATOM     26  C   UNL A   1      32.704  32.876  27.129  1.00  0.00     0.116 C 
BRANCH  26  27
ATOM     27  N   UNL A   1      32.458  34.137  27.813  1.00  0.00    -0.352 N 
ATOM     28  C   UNL A   1      33.153  34.706  28.855  1.00  0.00     0.251 C 
ATOM     29  H   UNL A   1      31.686  34.654  27.484  1.00  0.00     0.163 HD
ATOM     30  O   UNL A   1      32.749  35.744  29.374  1.00  0.00    -0.269 OA
BRANCH  28  31
ATOM     31  C   UNL A   1      34.375  34.050  29.370  1.00  0.00     0.039 A 
ATOM     32  C   UNL A   1      35.625  34.477  28.907  1.00  0.00     0.014 A 
ATOM     33  C   UNL A   1      34.291  33.033  30.323  1.00  0.00     0.014 A 
ATOM     34  C   UNL A   1      36.792  33.937  29.455  1.00  0.00     0.010 A 
ATOM     35  C   UNL A   1      35.452  32.549  30.918  1.00  0.00     0.010 A 
ATOM     36  C   UNL A   1      36.714  32.994  30.490  1.00  0.00    -0.014 A 
BRANCH  36  37
ATOM     37  C   UNL A   1      37.922  32.442  31.156  1.00  0.00     0.031 A 
ATOM     38  C   UNL A   1      38.649  31.285  30.531  1.00  0.00     0.074 A 
ATOM     39  C   UNL A   1      38.273  32.878  32.380  1.00  0.00     0.049 A 
ATOM     40  N   UNL A   1      39.600  30.539  31.029  1.00  0.00    -0.248 NA
ATOM     41  C   UNL A   1      38.221  30.892  29.179  1.00  0.00     0.031 C 
ATOM     42  C   UNL A   1      37.602  33.946  33.122  1.00  0.00     0.029 A 
ATOM     43  N   UNL A   1      39.249  32.436  33.241  1.00  0.00    -0.354 N 
ATOM     44  C   UNL A   1      39.840  29.553  30.080  1.00  0.00     0.074 A 
ATOM     45  C   UNL A   1      38.923  29.787  28.986  1.00  0.00     0.031 C 
ATOM     46  C   UNL A   1      38.167  34.060  34.334  1.00  0.00     0.029 A 
ATOM     47  C   UNL A   1      39.213  33.050  34.472  1.00  0.00     0.049 A 
ATOM     48  H   UNL A   1      39.910  31.748  33.000  1.00  0.00     0.167 HD
ATOM     49  C   UNL A   1      40.755  28.556  30.107  1.00  0.00     0.034 A 
ATOM     50  C   UNL A   1      39.919  32.808  35.595  1.00  0.00     0.034 A 
ATOM     51  C   UNL A   1      41.697  28.360  31.174  1.00  0.00     0.049 A 
ATOM     52  C   UNL A   1      40.969  31.733  35.586  1.00  0.00     0.074 A 
ATOM     53  C   UNL A   1      42.731  27.445  31.253  1.00  0.00     0.029 A 
ATOM     54  N   UNL A   1      41.715  29.088  32.355  1.00  0.00    -0.354 N 
ATOM     55  N   UNL A   1      41.289  30.903  34.622  1.00  0.00    -0.248 NA
ATOM     56  C   UNL A   1      41.783  31.579  36.801  1.00  0.00     0.031 C 
ATOM     57  C   UNL A   1      43.361  27.605  32.492  1.00  0.00     0.029 A 
ATOM     58  C   UNL A   1      42.738  28.638  33.172  1.00  0.00     0.049 A 
ATOM     59  H   UNL A   1      41.092  29.816  32.579  1.00  0.00     0.167 HD
ATOM     60  C   UNL A   1      42.363  30.159  35.095  1.00  0.00     0.074 A 
ATOM     61  C   UNL A   1      42.644  30.637  36.433  1.00  0.00     0.031 C 
ATOM     62  C   UNL A   1      43.048  29.166  34.477  1.00  0.00     0.034 A 
BRANCH  49  63
ATOM     63  C   UNL A   1      40.803  27.622  28.925  1.00  0.00     0.023 A 
ATOM     64  C   UNL A   1      39.876  26.562  28.835  1.00  0.00     0.012 A 
ATOM     65  C   UNL A   1      41.745  27.803  27.895  1.00  0.00     0.148 A 
ATOM     66  C   UNL A   1      39.919  25.669  27.765  1.00  0.00     0.002 A 
ATOM     67  C   UNL A   1      41.750  26.937  26.807  1.00  0.00     0.091 A 
ATOM     68  F   UNL A   1      42.635  28.800  28.005  1.00  0.00    -0.205 F 
ATOM     69  C   UNL A   1      40.849  25.862  26.747  1.00  0.00     0.022 A 
BRANCH  67  70
ATOM     70  S   UNL A   1      42.859  27.161  25.411  1.00  0.00     0.127 S 
ATOM     71  O   UNL A   1      42.244  28.294  24.722  1.00  0.00    -0.237 OA
ATOM     72  O   UNL A   1      44.131  27.467  26.069  1.00  0.00    -0.237 OA
ATOM     73  O   UNL A   1      42.846  25.897  24.689  1.00  0.00    -0.744 OA
ENDBRANCH  67  70
ENDBRANCH  49  63
BRANCH  50  74
ATOM     74  C   UNL A   1      39.678  33.648  36.801  1.00  0.00     0.023 A 
ATOM     75  C   UNL A   1      40.069  35.002  36.789  1.00  0.00     0.012 A 
ATOM     76  C   UNL A   1      38.995  33.139  37.923  1.00  0.00     0.148 A 
ATOM     77  C   UNL A   1      39.800  35.827  37.881  1.00  0.00     0.002 A 
ATOM     78  C   UNL A   1      38.682  33.980  38.984  1.00  0.00     0.091 A 
ATOM     79  F   UNL A   1      38.638  31.846  37.915  1.00  0.00    -0.205 F 
ATOM     80  C   UNL A   1      39.096  35.322  38.972  1.00  0.00     0.022 A 
BRANCH  78  81
ATOM     81  S   UNL A   1      37.665  33.454  40.368  1.00  0.00     0.127 S 
ATOM     82  O   UNL A   1      36.441  33.027  39.695  1.00  0.00    -0.237 OA
ATOM     83  O   UNL A   1      38.467  32.370  40.934  1.00  0.00    -0.237 OA
ATOM     84  O   UNL A   1      37.532  34.620  41.232  1.00  0.00    -0.744 OA
ENDBRANCH  78  81
ENDBRANCH  50  74
BRANCH  62  85
ATOM     85  C   UNL A   1      44.213  28.547  35.203  1.00  0.00     0.023 A 
ATOM     86  C   UNL A   1      45.512  29.051  35.007  1.00  0.00     0.012 A 
ATOM     87  C   UNL A   1      43.994  27.552  36.177  1.00  0.00     0.148 A 
ATOM     88  C   UNL A   1      46.581  28.565  35.763  1.00  0.00     0.002 A 
ATOM     89  C   UNL A   1      45.051  27.107  36.959  1.00  0.00     0.091 A 
ATOM     90  F   UNL A   1      42.750  27.076  36.333  1.00  0.00    -0.205 F 
ATOM     91  C   UNL A   1      46.347  27.607  36.747  1.00  0.00     0.022 A 
BRANCH  89  92
ATOM     92  S   UNL A   1      44.830  25.952  38.317  1.00  0.00     0.127 S 
ATOM     93  O   UNL A   1      43.918  26.689  39.189  1.00  0.00    -0.237 OA
ATOM     94  O   UNL A   1      44.233  24.797  37.645  1.00  0.00    -0.237 OA
ATOM     95  O   UNL A   1      46.158  25.714  38.866  1.00  0.00    -0.744 OA
ENDBRANCH  89  92
ENDBRANCH  62  85
ENDBRANCH  36  37
ENDBRANCH  28  31
ENDBRANCH  26  27
ENDBRANCH  25  26
ENDBRANCH  24  25
ENDBRANCH   1  24
TORSDOF 20
ENDMDL
MODEL 3
REMARK VINA RESULT:     -11.4      4.408      9.668
REMARK SMILES C[C@H](C(=O)NCCCCCCNC(=O)c1ccc(-c2c3nc(c(-c4cccc(S(=O)(=O)[O-])c4F)c4ccc([nH]4)c(-c4cccc(S(=O)(=O)[O-])c4F)c4nc(c(-c5cccc(S(=O)(=O)[O-])c5F)c5ccc2[nH]5)C=C4)C=C3)cc1)c1ccc(C[C@H]2CCC[C@@H]2O)cc1
REMARK SMILES IDX 8 1 7 2 6 3 5 4 3 5 4 6 2 8 1 9 78 10 79 11 90 12 80 13
REMARK SMILES IDX 89 14 81 15 82 16 83 17 84 18 87 19 85 20 86 21 88 22 9 24
REMARK SMILES IDX 10 25 11 26 12 27 13 28 14 30 15 31 16 32 77 33 17 34 76 35
REMARK SMILES IDX 18 36 19 37 20 38 70 39 21 40 75 41 69 42 71 43 22 44 74 45
REMARK SMILES IDX 68 46 67 47 23 49 55 50 35 51 54 52 36 53 39 54 53 55 72 56
REMARK SMILES IDX 37 57 38 58 52 60 73 61 40 62 24 63 25 64 33 65 26 66 28 67
REMARK SMILES IDX 34 68 27 69 29 70 30 71 31 72 32 73 56 74 57 75 65 76 58 77
REMARK SMILES IDX 60 78 66 79 59 80 61 81 62 82 63 83 64 84 41 85 42 86 50 87
REMARK SMILES IDX 43 88 45 89 51 90 44 91 46 92 47 93 48 94 49 95
REMARK H PARENT 5 7 88 23 12 29 71 48 39 59
REMARK Flexibility Score: inf
ROOT
ATOM      1  C   UNL A   1      33.735  27.433  25.229  1.00  0.00     0.002 C 
ENDROOT
BRANCH   1   2
ATOM      2  C   UNL A   1      33.411  27.968  23.831  1.00  0.00     0.021 C 
BRANCH   2   3
ATOM      3  C   UNL A   1      32.577  29.243  23.753  1.00  0.00     0.116 C 
BRANCH   3   4
ATOM      4  N   UNL A   1      31.704  29.327  22.598  1.00  0.00    -0.356 N 
ATOM      5  C   UNL A   1      30.372  29.063  22.477  1.00  0.00     0.227 C 
ATOM      6  O   UNL A   1      29.832  29.490  21.446  1.00  0.00    -0.274 OA
ATOM      7  H   UNL A   1      32.144  29.621  21.768  1.00  0.00     0.163 HD
BRANCH   5   8
ATOM      8  C   UNL A   1      29.558  28.158  23.423  1.00  0.00     0.105 C 
ATOM      9  C   UNL A   1      28.104  28.229  22.925  1.00  0.00     0.023 C 
BRANCH   8  10
ATOM     10  C   UNL A   1      30.070  26.747  23.685  1.00  0.00    -0.036 A 
ATOM     11  C   UNL A   1      29.817  26.111  24.910  1.00  0.00     0.005 A 
ATOM     12  C   UNL A   1      30.815  26.039  22.731  1.00  0.00     0.005 A 
ATOM     13  C   UNL A   1      30.505  24.944  25.261  1.00  0.00     0.004 A 
ATOM     14  C   UNL A   1      31.456  24.845  23.061  1.00  0.00     0.004 A 
ATOM     15  C   UNL A   1      31.393  24.347  24.361  1.00  0.00    -0.048 A 
BRANCH  15  16
ATOM     16  C   UNL A   1      32.325  23.240  24.798  1.00  0.00     0.041 C 
BRANCH  16  17
ATOM     17  C   UNL A   1      33.815  23.637  24.907  1.00  0.00     0.022 C 
ATOM     18  C   UNL A   1      34.459  23.478  26.299  1.00  0.00     0.007 C 
ATOM     19  C   UNL A   1      34.781  22.891  23.979  1.00  0.00     0.117 C 
ATOM     20  C   UNL A   1      35.934  23.140  26.058  1.00  0.00     0.003 C 
ATOM     21  C   UNL A   1      36.142  23.258  24.559  1.00  0.00     0.032 C 
BRANCH  19  22
ATOM     22  O   UNL A   1      34.726  23.286  22.625  1.00  0.00    -0.393 OA
ATOM     23  H   UNL A   1      34.164  22.669  22.131  1.00  0.00     0.210 HD
ENDBRANCH  19  22
ENDBRANCH  16  17
ENDBRANCH  15  16
ENDBRANCH   8  10
ENDBRANCH   5   8
ENDBRANCH   3   4
ENDBRANCH   2   3
ENDBRANCH   1   2
BRANCH   1  24
ATOM     24  C   UNL A   1      32.654  27.574  26.305  1.00  0.00     0.002 C 
BRANCH  24  25
ATOM     25  C   UNL A   1      32.776  28.764  27.256  1.00  0.00     0.021 C 
BRANCH  25  26
ATOM     26  C   UNL A   1      33.937  29.719  27.002  1.00  0.00     0.116 C 
BRANCH  26  27
ATOM     27  N   UNL A   1      33.854  30.952  27.771  1.00  0.00    -0.352 N 
ATOM     28  C   UNL A   1      34.719  31.436  28.726  1.00  0.00     0.251 C 
ATOM     29  H   UNL A   1      33.071  31.518  27.582  1.00  0.00     0.163 HD
ATOM     30  O   UNL A   1      34.446  32.461  29.345  1.00  0.00    -0.269 OA
BRANCH  28  31
ATOM     31  C   UNL A   1      35.968  30.702  29.028  1.00  0.00     0.039 A 
ATOM     32  C   UNL A   1      37.131  31.015  28.315  1.00  0.00     0.014 A 
ATOM     33  C   UNL A   1      35.998  29.725  30.025  1.00  0.00     0.014 A 
ATOM     34  C   UNL A   1      38.341  30.402  28.655  1.00  0.00     0.010 A 
ATOM     35  C   UNL A   1      37.215  29.170  30.408  1.00  0.00     0.010 A 
ATOM     36  C   UNL A   1      38.398  29.500  29.728  1.00  0.00    -0.014 A 
BRANCH  36  37
ATOM     37  C   UNL A   1      39.670  28.876  30.175  1.00  0.00     0.031 A 
ATOM     38  C   UNL A   1      40.479  29.536  31.256  1.00  0.00     0.074 A 
ATOM     39  C   UNL A   1      40.166  27.813  29.515  1.00  0.00     0.049 A 
ATOM     40  N   UNL A   1      41.692  29.268  31.662  1.00  0.00    -0.248 NA
ATOM     41  C   UNL A   1      39.849  30.673  31.947  1.00  0.00     0.031 C 
ATOM     42  C   UNL A   1      39.509  27.128  28.401  1.00  0.00     0.029 A 
ATOM     43  N   UNL A   1      41.366  27.156  29.650  1.00  0.00    -0.354 N 
ATOM     44  C   UNL A   1      41.995  30.240  32.609  1.00  0.00     0.074 A 
ATOM     45  C   UNL A   1      40.844  31.112  32.702  1.00  0.00     0.031 C 
ATOM     46  C   UNL A   1      40.323  26.166  27.937  1.00  0.00     0.029 A 
ATOM     47  C   UNL A   1      41.573  26.191  28.692  1.00  0.00     0.049 A 
ATOM     48  H   UNL A   1      42.014  27.358  30.362  1.00  0.00     0.167 HD
ATOM     49  C   UNL A   1      43.120  30.381  33.347  1.00  0.00     0.034 A 
ATOM     50  C   UNL A   1      42.655  25.431  28.430  1.00  0.00     0.034 A 
ATOM     51  C   UNL A   1      44.239  29.482  33.285  1.00  0.00     0.049 A 
ATOM     52  C   UNL A   1      43.875  25.565  29.299  1.00  0.00     0.074 A 
ATOM     53  C   UNL A   1      45.383  29.475  34.063  1.00  0.00     0.029 A 
ATOM     54  N   UNL A   1      44.358  28.430  32.388  1.00  0.00    -0.354 N 
ATOM     55  N   UNL A   1      44.089  26.392  30.293  1.00  0.00    -0.248 NA
ATOM     56  C   UNL A   1      44.990  24.642  29.038  1.00  0.00     0.031 C 
ATOM     57  C   UNL A   1      46.204  28.433  33.621  1.00  0.00     0.029 A 
ATOM     58  C   UNL A   1      45.560  27.773  32.587  1.00  0.00     0.049 A 
ATOM     59  H   UNL A   1      43.688  28.188  31.709  1.00  0.00     0.167 HD
ATOM     60  C   UNL A   1      45.340  26.064  30.803  1.00  0.00     0.074 A 
ATOM     61  C   UNL A   1      45.838  24.959  30.009  1.00  0.00     0.031 C 
ATOM     62  C   UNL A   1      46.016  26.634  31.832  1.00  0.00     0.034 A 
BRANCH  49  63
ATOM     63  C   UNL A   1      43.177  31.535  34.315  1.00  0.00     0.023 A 
ATOM     64  C   UNL A   1      43.845  32.722  33.948  1.00  0.00     0.012 A 
ATOM     65  C   UNL A   1      42.553  31.456  35.575  1.00  0.00     0.148 A 
ATOM     66  C   UNL A   1      43.935  33.792  34.837  1.00  0.00     0.002 A 
ATOM     67  C   UNL A   1      42.606  32.546  36.437  1.00  0.00     0.091 A 
ATOM     68  F   UNL A   1      41.942  30.314  35.920  1.00  0.00    -0.205 F 
ATOM     69  C   UNL A   1      43.308  33.707  36.077  1.00  0.00     0.022 A 
BRANCH  67  70
ATOM     70  S   UNL A   1      41.756  32.555  38.021  1.00  0.00     0.127 S 
ATOM     71  O   UNL A   1      41.964  33.933  38.461  1.00  0.00    -0.237 OA
ATOM     72  O   UNL A   1      40.378  32.241  37.637  1.00  0.00    -0.237 OA
ATOM     73  O   UNL A   1      42.405  31.529  38.823  1.00  0.00    -0.744 OA
ENDBRANCH  67  70
ENDBRANCH  49  63
BRANCH  50  74
ATOM     74  C   UNL A   1      42.598  24.439  27.320  1.00  0.00     0.023 A 
ATOM     75  C   UNL A   1      43.193  24.752  26.082  1.00  0.00     0.012 A 
ATOM     76  C   UNL A   1      42.031  23.163  27.509  1.00  0.00     0.148 A 
ATOM     77  C   UNL A   1      43.208  23.818  25.046  1.00  0.00     0.002 A 
ATOM     78  C   UNL A   1      42.098  22.219  26.491  1.00  0.00     0.091 A 
ATOM     79  F   UNL A   1      41.465  22.889  28.693  1.00  0.00    -0.205 F 
ATOM     80  C   UNL A   1      42.673  22.548  25.254  1.00  0.00     0.022 A 
BRANCH  78  81
ATOM     81  S   UNL A   1      41.559  20.519  26.712  1.00  0.00     0.127 S 
ATOM     82  O   UNL A   1      40.792  20.288  25.491  1.00  0.00    -0.237 OA
ATOM     83  O   UNL A   1      42.834  19.807  26.784  1.00  0.00    -0.237 OA
ATOM     84  O   UNL A   1      40.789  20.502  27.950  1.00  0.00    -0.744 OA
ENDBRANCH  78  81
ENDBRANCH  50  74
BRANCH  62  85
ATOM     85  C   UNL A   1      47.351  26.052  32.214  1.00  0.00     0.023 A 
ATOM     86  C   UNL A   1      48.531  26.566  31.645  1.00  0.00     0.012 A 
ATOM     87  C   UNL A   1      47.437  25.086  33.236  1.00  0.00     0.148 A 
ATOM     88  C   UNL A   1      49.779  26.117  32.079  1.00  0.00     0.002 A 
ATOM     89  C   UNL A   1      48.681  24.679  33.698  1.00  0.00     0.091 A 
ATOM     90  F   UNL A   1      46.298  24.599  33.752  1.00  0.00    -0.205 F 
ATOM     91  C   UNL A   1      49.854  25.187  33.115  1.00  0.00     0.022 A 
BRANCH  89  92
ATOM     92  S   UNL A   1      48.878  23.564  35.093  1.00  0.00     0.127 S 
ATOM     93  O   UNL A   1      48.301  22.326  34.569  1.00  0.00    -0.237 OA
ATOM     94  O   UNL A   1      50.331  23.535  35.263  1.00  0.00    -0.237 OA
ATOM     95  O   UNL A   1      48.149  24.168  36.199  1.00  0.00    -0.744 OA
ENDBRANCH  89  92
ENDBRANCH  62  85
ENDBRANCH  36  37
ENDBRANCH  28  31
ENDBRANCH  26  27
ENDBRANCH  25  26
ENDBRANCH  24  25
ENDBRANCH   1  24
TORSDOF 20
ENDMDL
