MODEL 1
REMARK VINA RESULT:     -10.7      0.000      0.000
REMARK SMILES COCc1cccc(O[C@@H](F)C(=O)NCCCCCCNC(=O)c2ccc(-c3c4nc(c(-c5cccc(S(=O)(=O)[O-])c5F)c5ccc([nH]5)c(-c5cccc(S(=O)(=O)[O-])c5F)c5nc(c(-c6cccc(S(=O)(=O)[O-])c6F)c6ccc3[nH]6)C=C5)C=C4)cc2)c1
REMARK SMILES IDX 17 1 16 2 15 3 14 4 12 5 13 6 10 8 11 9 9 10 8 11 4 12 5 13
REMARK SMILES IDX 87 14 6 15 7 16 3 17 2 18 1 19 18 20 19 21 20 22 21 23 22 24
REMARK SMILES IDX 23 26 24 27 25 28 86 29 26 30 85 31 27 32 28 33 29 34 79 35
REMARK SMILES IDX 30 36 84 37 78 38 80 39 31 40 83 41 77 42 76 43 32 45 64 46
REMARK SMILES IDX 44 47 63 48 45 49 48 50 62 51 81 52 46 53 47 54 61 56 82 57
REMARK SMILES IDX 49 58 33 59 34 60 42 61 35 62 37 63 43 64 36 65 38 66 39 67
REMARK SMILES IDX 40 68 41 69 65 70 66 71 74 72 67 73 69 74 75 75 68 76 70 77
REMARK SMILES IDX 71 78 72 79 73 80 50 81 51 82 59 83 52 84 54 85 60 86 53 87
REMARK SMILES IDX 55 88 56 89 57 90 58 91
REMARK H PARENT 14 7 21 25 80 44 48 55
REMARK Flexibility Score: inf
ROOT
ATOM      1  C   UNL A   1      32.040  29.542  25.835  1.00  0.00     0.002 C 
ENDROOT
BRANCH   1   2
ATOM      2  C   UNL A   1      33.232  29.201  24.931  1.00  0.00     0.021 C 
BRANCH   2   3
ATOM      3  C   UNL A   1      33.406  27.703  24.653  1.00  0.00     0.116 C 
BRANCH   3   4
ATOM      4  N   UNL A   1      33.364  27.425  23.230  1.00  0.00    -0.350 N 
ATOM      5  C   UNL A   1      33.591  26.270  22.535  1.00  0.00     0.294 C 
ATOM      6  O   UNL A   1      33.530  26.358  21.300  1.00  0.00    -0.267 OA
ATOM      7  H   UNL A   1      33.133  28.201  22.668  1.00  0.00     0.163 HD
BRANCH   5   8
ATOM      8  C   UNL A   1      33.865  24.895  23.215  1.00  0.00     0.440 C 
ATOM      9  F   UNL A   1      33.753  24.960  24.574  1.00  0.00    -0.191 F 
BRANCH   8  10
ATOM     10  O   UNL A   1      34.989  24.111  22.814  1.00  0.00    -0.452 OA
BRANCH  10  11
ATOM     11  C   UNL A   1      35.299  22.974  23.495  1.00  0.00     0.124 A 
ATOM     12  C   UNL A   1      34.793  21.121  24.991  1.00  0.00    -0.019 A 
ATOM     13  C   UNL A   1      36.154  20.806  25.052  1.00  0.00     0.006 A 
ATOM     14  C   UNL A   1      34.376  22.152  24.134  1.00  0.00     0.052 A 
ATOM     15  C   UNL A   1      37.075  21.533  24.294  1.00  0.00     0.004 A 
ATOM     16  C   UNL A   1      36.649  22.624  23.532  1.00  0.00     0.046 A 
BRANCH  12  17
ATOM     17  C   UNL A   1      33.750  20.523  25.908  1.00  0.00     0.195 C 
BRANCH  17  18
ATOM     18  O   UNL A   1      32.925  21.492  26.543  1.00  0.00    -0.380 OA
ATOM     19  C   UNL A   1      33.556  22.044  27.695  1.00  0.00     0.195 C 
ENDBRANCH  17  18
ENDBRANCH  12  17
ENDBRANCH  10  11
ENDBRANCH   8  10
ENDBRANCH   5   8
ENDBRANCH   3   4
ENDBRANCH   2   3
ENDBRANCH   1   2
BRANCH   1  20
ATOM     20  C   UNL A   1      31.367  30.895  25.559  1.00  0.00     0.002 C 
BRANCH  20  21
ATOM     21  C   UNL A   1      31.289  31.860  26.747  1.00  0.00     0.021 C 
BRANCH  21  22
ATOM     22  C   UNL A   1      32.615  32.467  27.198  1.00  0.00     0.116 C 
BRANCH  22  23
ATOM     23  N   UNL A   1      32.487  33.872  27.560  1.00  0.00    -0.352 N 
ATOM     24  C   UNL A   1      33.131  34.618  28.517  1.00  0.00     0.251 C 
ATOM     25  H   UNL A   1      31.825  34.372  27.029  1.00  0.00     0.163 HD
ATOM     26  O   UNL A   1      32.710  35.743  28.779  1.00  0.00    -0.269 OA
BRANCH  24  27
ATOM     27  C   UNL A   1      34.314  34.095  29.246  1.00  0.00     0.039 A 
ATOM     28  C   UNL A   1      34.106  33.282  30.367  1.00  0.00     0.014 A 
ATOM     29  C   UNL A   1      35.618  34.441  28.885  1.00  0.00     0.014 A 
ATOM     30  C   UNL A   1      35.197  32.773  31.081  1.00  0.00     0.010 A 
ATOM     31  C   UNL A   1      36.705  33.874  29.550  1.00  0.00     0.010 A 
ATOM     32  C   UNL A   1      36.509  33.036  30.660  1.00  0.00    -0.014 A 
BRANCH  32  33
ATOM     33  C   UNL A   1      37.683  32.440  31.355  1.00  0.00     0.031 A 
ATOM     34  C   UNL A   1      38.437  31.290  30.739  1.00  0.00     0.074 A 
ATOM     35  C   UNL A   1      38.025  32.878  32.583  1.00  0.00     0.049 A 
ATOM     36  N   UNL A   1      39.432  30.597  31.229  1.00  0.00    -0.248 NA
ATOM     37  C   UNL A   1      38.000  30.845  29.405  1.00  0.00     0.031 C 
ATOM     38  C   UNL A   1      37.341  33.940  33.323  1.00  0.00     0.029 A 
ATOM     39  N   UNL A   1      39.015  32.463  33.442  1.00  0.00    -0.354 N 
ATOM     40  C   UNL A   1      39.715  29.613  30.289  1.00  0.00     0.074 A 
ATOM     41  C   UNL A   1      38.768  29.783  29.207  1.00  0.00     0.031 C 
ATOM     42  C   UNL A   1      37.928  34.093  34.520  1.00  0.00     0.029 A 
ATOM     43  C   UNL A   1      39.004  33.116  34.653  1.00  0.00     0.049 A 
ATOM     44  H   UNL A   1      39.669  31.764  33.212  1.00  0.00     0.167 HD
ATOM     45  C   UNL A   1      40.689  28.671  30.308  1.00  0.00     0.034 A 
ATOM     46  C   UNL A   1      39.760  32.939  35.754  1.00  0.00     0.034 A 
ATOM     47  C   UNL A   1      41.655  28.528  31.364  1.00  0.00     0.049 A 
ATOM     48  C   UNL A   1      40.846  31.897  35.744  1.00  0.00     0.074 A 
ATOM     49  C   UNL A   1      42.733  27.662  31.431  1.00  0.00     0.029 A 
ATOM     50  N   UNL A   1      41.657  29.257  32.542  1.00  0.00    -0.354 N 
ATOM     51  N   UNL A   1      41.196  31.080  34.780  1.00  0.00    -0.248 NA
ATOM     52  C   UNL A   1      41.662  31.771  36.961  1.00  0.00     0.031 C 
ATOM     53  C   UNL A   1      43.368  27.846  32.663  1.00  0.00     0.029 A 
ATOM     54  C   UNL A   1      42.705  28.850  33.351  1.00  0.00     0.049 A 
ATOM     55  H   UNL A   1      41.009  29.962  32.771  1.00  0.00     0.167 HD
ATOM     56  C   UNL A   1      42.290  30.369  35.260  1.00  0.00     0.074 A 
ATOM     57  C   UNL A   1      42.559  30.866  36.594  1.00  0.00     0.031 C 
ATOM     58  C   UNL A   1      42.998  29.383  34.656  1.00  0.00     0.034 A 
BRANCH  45  59
ATOM     59  C   UNL A   1      40.789  27.739  29.127  1.00  0.00     0.023 A 
ATOM     60  C   UNL A   1      39.967  26.595  29.071  1.00  0.00     0.012 A 
ATOM     61  C   UNL A   1      41.644  28.029  28.045  1.00  0.00     0.148 A 
ATOM     62  C   UNL A   1      40.020  25.734  27.975  1.00  0.00     0.002 A 
ATOM     63  C   UNL A   1      41.657  27.190  26.935  1.00  0.00     0.091 A 
ATOM     64  F   UNL A   1      42.430  29.111  28.123  1.00  0.00    -0.205 F 
ATOM     65  C   UNL A   1      40.856  26.038  26.904  1.00  0.00     0.022 A 
BRANCH  63  66
ATOM     66  S   UNL A   1      42.639  27.539  25.472  1.00  0.00     0.127 S 
ATOM     67  O   UNL A   1      43.997  27.532  26.021  1.00  0.00    -0.237 OA
ATOM     68  O   UNL A   1      42.327  26.393  24.613  1.00  0.00    -0.237 OA
ATOM     69  O   UNL A   1      42.176  28.820  24.970  1.00  0.00    -0.744 OA
ENDBRANCH  63  66
ENDBRANCH  45  59
BRANCH  46  70
ATOM     70  C   UNL A   1      39.543  33.802  36.951  1.00  0.00     0.023 A 
ATOM     71  C   UNL A   1      39.952  35.149  36.920  1.00  0.00     0.012 A 
ATOM     72  C   UNL A   1      38.911  33.303  38.107  1.00  0.00     0.148 A 
ATOM     73  C   UNL A   1      39.764  35.975  38.028  1.00  0.00     0.002 A 
ATOM     74  C   UNL A   1      38.673  34.147  39.185  1.00  0.00     0.091 A 
ATOM     75  F   UNL A   1      38.542  32.014  38.124  1.00  0.00    -0.205 F 
ATOM     76  C   UNL A   1      39.116  35.478  39.155  1.00  0.00     0.022 A 
BRANCH  74  77
ATOM     77  S   UNL A   1      37.722  33.628  40.617  1.00  0.00     0.127 S 
ATOM     78  O   UNL A   1      38.606  32.635  41.222  1.00  0.00    -0.237 OA
ATOM     79  O   UNL A   1      37.594  34.878  41.366  1.00  0.00    -0.237 OA
ATOM     80  O   UNL A   1      36.462  33.117  40.089  1.00  0.00    -0.744 OA
ENDBRANCH  74  77
ENDBRANCH  46  70
BRANCH  58  81
ATOM     81  C   UNL A   1      44.160  28.789  35.408  1.00  0.00     0.023 A 
ATOM     82  C   UNL A   1      45.439  29.371  35.299  1.00  0.00     0.012 A 
ATOM     83  C   UNL A   1      43.967  27.707  36.292  1.00  0.00     0.148 A 
ATOM     84  C   UNL A   1      46.512  28.869  36.034  1.00  0.00     0.002 A 
ATOM     85  C   UNL A   1      45.029  27.244  37.058  1.00  0.00     0.091 A 
ATOM     86  F   UNL A   1      42.746  27.157  36.369  1.00  0.00    -0.205 F 
ATOM     87  C   UNL A   1      46.305  27.815  36.921  1.00  0.00     0.022 A 
BRANCH  85  88
ATOM     88  S   UNL A   1      44.839  25.957  38.296  1.00  0.00     0.127 S 
ATOM     89  O   UNL A   1      46.231  25.625  38.597  1.00  0.00    -0.237 OA
ATOM     90  O   UNL A   1      44.135  26.662  39.368  1.00  0.00    -0.237 OA
ATOM     91  O   UNL A   1      44.070  24.896  37.661  1.00  0.00    -0.744 OA
ENDBRANCH  85  88
ENDBRANCH  58  81
ENDBRANCH  32  33
ENDBRANCH  24  27
ENDBRANCH  22  23
ENDBRANCH  21  22
ENDBRANCH  20  21
ENDBRANCH   1  20
TORSDOF 20
ENDMDL
MODEL 2
REMARK VINA RESULT:     -10.6      2.468      8.289
REMARK SMILES COCc1cccc(O[C@@H](F)C(=O)NCCCCCCNC(=O)c2ccc(-c3c4nc(c(-c5cccc(S(=O)(=O)[O-])c5F)c5ccc([nH]5)c(-c5cccc(S(=O)(=O)[O-])c5F)c5nc(c(-c6cccc(S(=O)(=O)[O-])c6F)c6ccc3[nH]6)C=C5)C=C4)cc2)c1
REMARK SMILES IDX 17 1 16 2 15 3 14 4 12 5 13 6 10 8 11 9 9 10 8 11 4 12 5 13
REMARK SMILES IDX 87 14 6 15 7 16 3 17 2 18 1 19 18 20 19 21 20 22 21 23 22 24
REMARK SMILES IDX 23 26 24 27 25 28 86 29 26 30 85 31 27 32 28 33 29 34 79 35
REMARK SMILES IDX 30 36 84 37 78 38 80 39 31 40 83 41 77 42 76 43 32 45 64 46
REMARK SMILES IDX 44 47 63 48 45 49 48 50 62 51 81 52 46 53 47 54 61 56 82 57
REMARK SMILES IDX 49 58 33 59 34 60 42 61 35 62 37 63 43 64 36 65 38 66 39 67
REMARK SMILES IDX 40 68 41 69 65 70 66 71 74 72 67 73 69 74 75 75 68 76 70 77
REMARK SMILES IDX 71 78 72 79 73 80 50 81 51 82 59 83 52 84 54 85 60 86 53 87
REMARK SMILES IDX 55 88 56 89 57 90 58 91
REMARK H PARENT 14 7 21 25 80 44 48 55
REMARK Flexibility Score: inf
ROOT
ATOM      1  C   UNL A   1      30.644  28.473  24.261  1.00  0.00     0.002 C 
ENDROOT
BRANCH   1   2
ATOM      2  C   UNL A   1      30.357  26.977  24.441  1.00  0.00     0.021 C 
BRANCH   2   3
ATOM      3  C   UNL A   1      31.356  26.246  25.348  1.00  0.00     0.116 C 
BRANCH   3   4
ATOM      4  N   UNL A   1      30.672  25.395  26.303  1.00  0.00    -0.350 N 
ATOM      5  C   UNL A   1      30.540  24.036  26.360  1.00  0.00     0.294 C 
ATOM      6  O   UNL A   1      29.841  23.596  27.284  1.00  0.00    -0.267 OA
ATOM      7  H   UNL A   1      30.227  25.880  27.037  1.00  0.00     0.163 HD
BRANCH   5   8
ATOM      8  C   UNL A   1      31.246  23.061  25.372  1.00  0.00     0.440 C 
ATOM      9  F   UNL A   1      30.896  23.298  24.074  1.00  0.00    -0.191 F 
BRANCH   8  10
ATOM     10  O   UNL A   1      31.294  21.663  25.660  1.00  0.00    -0.452 OA
BRANCH  10  11
ATOM     11  C   UNL A   1      32.373  20.929  25.273  1.00  0.00     0.124 A 
ATOM     12  C   UNL A   1      33.474  18.878  24.560  1.00  0.00    -0.019 A 
ATOM     13  C   UNL A   1      34.718  19.482  24.760  1.00  0.00     0.006 A 
ATOM     14  C   UNL A   1      32.313  19.648  24.734  1.00  0.00     0.052 A 
ATOM     15  C   UNL A   1      34.790  20.819  25.158  1.00  0.00     0.004 A 
ATOM     16  C   UNL A   1      33.621  21.533  25.430  1.00  0.00     0.046 A 
BRANCH  12  17
ATOM     17  C   UNL A   1      33.289  17.397  24.313  1.00  0.00     0.195 C 
BRANCH  17  18
ATOM     18  O   UNL A   1      33.521  16.594  25.465  1.00  0.00    -0.380 OA
ATOM     19  C   UNL A   1      32.666  15.454  25.489  1.00  0.00     0.195 C 
ENDBRANCH  17  18
ENDBRANCH  12  17
ENDBRANCH  10  11
ENDBRANCH   8  10
ENDBRANCH   5   8
ENDBRANCH   3   4
ENDBRANCH   2   3
ENDBRANCH   1   2
BRANCH   1  20
ATOM     20  C   UNL A   1      32.078  28.825  23.838  1.00  0.00     0.002 C 
BRANCH  20  21
ATOM     21  C   UNL A   1      32.978  29.402  24.936  1.00  0.00     0.021 C 
BRANCH  21  22
ATOM     22  C   UNL A   1      32.275  29.804  26.230  1.00  0.00     0.116 C 
BRANCH  22  23
ATOM     23  N   UNL A   1      32.281  31.245  26.439  1.00  0.00    -0.352 N 
ATOM     24  C   UNL A   1      33.082  32.037  27.227  1.00  0.00     0.251 C 
ATOM     25  H   UNL A   1      31.595  31.735  25.930  1.00  0.00     0.163 HD
ATOM     26  O   UNL A   1      32.768  33.214  27.402  1.00  0.00    -0.269 OA
BRANCH  24  27
ATOM     27  C   UNL A   1      34.306  31.506  27.875  1.00  0.00     0.039 A 
ATOM     28  C   UNL A   1      35.384  32.374  28.087  1.00  0.00     0.014 A 
ATOM     29  C   UNL A   1      34.435  30.158  28.219  1.00  0.00     0.014 A 
ATOM     30  C   UNL A   1      36.556  31.908  28.694  1.00  0.00     0.010 A 
ATOM     31  C   UNL A   1      35.573  29.711  28.891  1.00  0.00     0.010 A 
ATOM     32  C   UNL A   1      36.650  30.579  29.133  1.00  0.00    -0.014 A 
BRANCH  32  33
ATOM     33  C   UNL A   1      37.856  30.081  29.853  1.00  0.00     0.031 A 
ATOM     34  C   UNL A   1      38.171  30.563  31.245  1.00  0.00     0.074 A 
ATOM     35  C   UNL A   1      38.716  29.256  29.224  1.00  0.00     0.049 A 
ATOM     36  N   UNL A   1      39.211  30.300  31.995  1.00  0.00    -0.248 NA
ATOM     37  C   UNL A   1      37.203  31.481  31.868  1.00  0.00     0.031 C 
ATOM     38  C   UNL A   1      38.565  28.762  27.853  1.00  0.00     0.029 A 
ATOM     39  N   UNL A   1      39.906  28.710  29.641  1.00  0.00    -0.354 N 
ATOM     40  C   UNL A   1      39.044  31.045  33.156  1.00  0.00     0.074 A 
ATOM     41  C   UNL A   1      37.814  31.792  33.002  1.00  0.00     0.031 C 
ATOM     42  C   UNL A   1      39.618  27.990  27.544  1.00  0.00     0.029 A 
ATOM     43  C   UNL A   1      40.540  27.963  28.675  1.00  0.00     0.049 A 
ATOM     44  H   UNL A   1      40.270  28.841  30.547  1.00  0.00     0.167 HD
ATOM     45  C   UNL A   1      39.826  31.087  34.262  1.00  0.00     0.034 A 
ATOM     46  C   UNL A   1      41.735  27.340  28.688  1.00  0.00     0.034 A 
ATOM     47  C   UNL A   1      41.028  30.313  34.431  1.00  0.00     0.049 A 
ATOM     48  C   UNL A   1      42.578  27.387  29.934  1.00  0.00     0.074 A 
ATOM     49  C   UNL A   1      41.839  30.219  35.550  1.00  0.00     0.029 A 
ATOM     50  N   UNL A   1      41.599  29.511  33.457  1.00  0.00    -0.354 N 
ATOM     51  N   UNL A   1      42.325  27.973  31.079  1.00  0.00    -0.248 NA
ATOM     52  C   UNL A   1      43.856  26.662  29.902  1.00  0.00     0.031 C 
ATOM     53  C   UNL A   1      42.918  29.385  35.240  1.00  0.00     0.029 A 
ATOM     54  C   UNL A   1      42.762  28.933  33.940  1.00  0.00     0.049 A 
ATOM     55  H   UNL A   1      41.233  29.371  32.554  1.00  0.00     0.167 HD
ATOM     56  C   UNL A   1      43.393  27.661  31.912  1.00  0.00     0.074 A 
ATOM     57  C   UNL A   1      44.287  26.816  31.148  1.00  0.00     0.031 C 
ATOM     58  C   UNL A   1      43.620  28.052  33.190  1.00  0.00     0.034 A 
BRANCH  45  59
ATOM     59  C   UNL A   1      39.388  31.969  35.403  1.00  0.00     0.023 A 
ATOM     60  C   UNL A   1      39.679  33.348  35.369  1.00  0.00     0.012 A 
ATOM     61  C   UNL A   1      38.631  31.450  36.472  1.00  0.00     0.148 A 
ATOM     62  C   UNL A   1      39.256  34.190  36.397  1.00  0.00     0.002 A 
ATOM     63  C   UNL A   1      38.174  32.304  37.470  1.00  0.00     0.091 A 
ATOM     64  F   UNL A   1      38.377  30.134  36.497  1.00  0.00    -0.205 F 
ATOM     65  C   UNL A   1      38.496  33.670  37.439  1.00  0.00     0.022 A 
BRANCH  63  66
ATOM     66  S   UNL A   1      37.119  31.745  38.813  1.00  0.00     0.127 S 
ATOM     67  O   UNL A   1      36.870  30.354  38.431  1.00  0.00    -0.237 OA
ATOM     68  O   UNL A   1      37.995  31.907  39.977  1.00  0.00    -0.237 OA
ATOM     69  O   UNL A   1      35.956  32.613  38.802  1.00  0.00    -0.744 OA
ENDBRANCH  63  66
ENDBRANCH  45  59
BRANCH  46  70
ATOM     70  C   UNL A   1      42.190  26.580  27.489  1.00  0.00     0.023 A 
ATOM     71  C   UNL A   1      42.898  27.247  26.470  1.00  0.00     0.012 A 
ATOM     72  C   UNL A   1      41.948  25.198  27.364  1.00  0.00     0.148 A 
ATOM     73  C   UNL A   1      43.331  26.559  25.337  1.00  0.00     0.002 A 
ATOM     74  C   UNL A   1      42.432  24.507  26.261  1.00  0.00     0.091 A 
ATOM     75  F   UNL A   1      41.259  24.583  28.336  1.00  0.00    -0.205 F 
ATOM     76  C   UNL A   1      43.108  25.189  25.236  1.00  0.00     0.022 A 
BRANCH  74  77
ATOM     77  S   UNL A   1      42.313  22.720  26.120  1.00  0.00     0.127 S 
ATOM     78  O   UNL A   1      42.957  22.477  24.831  1.00  0.00    -0.237 OA
ATOM     79  O   UNL A   1      43.075  22.272  27.285  1.00  0.00    -0.237 OA
ATOM     80  O   UNL A   1      40.889  22.415  26.184  1.00  0.00    -0.744 OA
ENDBRANCH  74  77
ENDBRANCH  46  70
BRANCH  58  81
ATOM     81  C   UNL A   1      44.867  27.548  33.870  1.00  0.00     0.023 A 
ATOM     82  C   UNL A   1      46.031  28.342  33.880  1.00  0.00     0.012 A 
ATOM     83  C   UNL A   1      44.858  26.326  34.574  1.00  0.00     0.148 A 
ATOM     84  C   UNL A   1      47.174  27.916  34.555  1.00  0.00     0.002 A 
ATOM     85  C   UNL A   1      45.984  25.932  35.285  1.00  0.00     0.091 A 
ATOM     86  F   UNL A   1      43.745  25.577  34.538  1.00  0.00    -0.205 F 
ATOM     87  C   UNL A   1      47.147  26.719  35.266  1.00  0.00     0.022 A 
BRANCH  85  88
ATOM     88  S   UNL A   1      46.013  24.456  36.309  1.00  0.00     0.127 S 
ATOM     89  O   UNL A   1      46.704  23.504  35.440  1.00  0.00    -0.237 OA
ATOM     90  O   UNL A   1      46.789  24.899  37.467  1.00  0.00    -0.237 OA
ATOM     91  O   UNL A   1      44.621  24.137  36.597  1.00  0.00    -0.744 OA
ENDBRANCH  85  88
ENDBRANCH  58  81
ENDBRANCH  32  33
ENDBRANCH  24  27
ENDBRANCH  22  23
ENDBRANCH  21  22
ENDBRANCH  20  21
ENDBRANCH   1  20
TORSDOF 20
ENDMDL
MODEL 3
REMARK VINA RESULT:     -10.6      5.885     10.540
REMARK SMILES COCc1cccc(O[C@@H](F)C(=O)NCCCCCCNC(=O)c2ccc(-c3c4nc(c(-c5cccc(S(=O)(=O)[O-])c5F)c5ccc([nH]5)c(-c5cccc(S(=O)(=O)[O-])c5F)c5nc(c(-c6cccc(S(=O)(=O)[O-])c6F)c6ccc3[nH]6)C=C5)C=C4)cc2)c1
REMARK SMILES IDX 17 1 16 2 15 3 14 4 12 5 13 6 10 8 11 9 9 10 8 11 4 12 5 13
REMARK SMILES IDX 87 14 6 15 7 16 3 17 2 18 1 19 18 20 19 21 20 22 21 23 22 24
REMARK SMILES IDX 23 26 24 27 25 28 86 29 26 30 85 31 27 32 28 33 29 34 79 35
REMARK SMILES IDX 30 36 84 37 78 38 80 39 31 40 83 41 77 42 76 43 32 45 64 46
REMARK SMILES IDX 44 47 63 48 45 49 48 50 62 51 81 52 46 53 47 54 61 56 82 57
REMARK SMILES IDX 49 58 33 59 34 60 42 61 35 62 37 63 43 64 36 65 38 66 39 67
REMARK SMILES IDX 40 68 41 69 65 70 66 71 74 72 67 73 69 74 75 75 68 76 70 77
REMARK SMILES IDX 71 78 72 79 73 80 50 81 51 82 59 83 52 84 54 85 60 86 53 87
REMARK SMILES IDX 55 88 56 89 57 90 58 91
REMARK H PARENT 14 7 21 25 80 44 48 55
REMARK Flexibility Score: inf
ROOT
ATOM      1  C   UNL A   1      34.848  24.359  24.374  1.00  0.00     0.002 C 
ENDROOT
BRANCH   1   2
ATOM      2  C   UNL A   1      34.070  25.502  23.708  1.00  0.00     0.021 C 
BRANCH   2   3
ATOM      3  C   UNL A   1      33.664  26.632  24.663  1.00  0.00     0.116 C 
BRANCH   3   4
ATOM      4  N   UNL A   1      32.261  26.967  24.513  1.00  0.00    -0.350 N 
ATOM      5  C   UNL A   1      31.141  26.406  25.061  1.00  0.00     0.294 C 
ATOM      6  O   UNL A   1      30.059  26.887  24.696  1.00  0.00    -0.267 OA
ATOM      7  H   UNL A   1      32.085  27.729  23.913  1.00  0.00     0.163 HD
BRANCH   5   8
ATOM      8  C   UNL A   1      31.180  25.264  26.119  1.00  0.00     0.440 C 
ATOM      9  F   UNL A   1      32.442  25.037  26.588  1.00  0.00    -0.191 F 
BRANCH   8  10
ATOM     10  O   UNL A   1      30.478  24.044  25.879  1.00  0.00    -0.452 OA
BRANCH  10  11
ATOM     11  C   UNL A   1      31.055  23.066  25.129  1.00  0.00     0.124 A 
ATOM     12  C   UNL A   1      32.337  21.019  24.827  1.00  0.00    -0.019 A 
ATOM     13  C   UNL A   1      32.422  21.281  23.456  1.00  0.00     0.006 A 
ATOM     14  C   UNL A   1      31.571  21.876  25.632  1.00  0.00     0.052 A 
ATOM     15  C   UNL A   1      31.779  22.397  22.916  1.00  0.00     0.004 A 
ATOM     16  C   UNL A   1      31.113  23.295  23.753  1.00  0.00     0.046 A 
BRANCH  12  17
ATOM     17  C   UNL A   1      33.146  19.952  25.530  1.00  0.00     0.195 C 
BRANCH  17  18
ATOM     18  O   UNL A   1      33.930  19.156  24.648  1.00  0.00    -0.380 OA
ATOM     19  C   UNL A   1      33.232  17.983  24.241  1.00  0.00     0.195 C 
ENDBRANCH  17  18
ENDBRANCH  12  17
ENDBRANCH  10  11
ENDBRANCH   8  10
ENDBRANCH   5   8
ENDBRANCH   3   4
ENDBRANCH   2   3
ENDBRANCH   1   2
BRANCH   1  20
ATOM     20  C   UNL A   1      35.328  23.248  23.430  1.00  0.00     0.002 C 
BRANCH  20  21
ATOM     21  C   UNL A   1      36.618  22.530  23.841  1.00  0.00     0.021 C 
BRANCH  21  22
ATOM     22  C   UNL A   1      36.811  22.315  25.340  1.00  0.00     0.116 C 
BRANCH  22  23
ATOM     23  N   UNL A   1      37.792  21.278  25.629  1.00  0.00    -0.352 N 
ATOM     24  C   UNL A   1      39.091  21.365  26.068  1.00  0.00     0.251 C 
ATOM     25  H   UNL A   1      37.470  20.358  25.484  1.00  0.00     0.163 HD
ATOM     26  O   UNL A   1      39.796  20.357  26.046  1.00  0.00    -0.269 OA
BRANCH  24  27
ATOM     27  C   UNL A   1      39.663  22.643  26.557  1.00  0.00     0.039 A 
ATOM     28  C   UNL A   1      40.608  22.604  27.590  1.00  0.00     0.014 A 
ATOM     29  C   UNL A   1      39.241  23.880  26.064  1.00  0.00     0.014 A 
ATOM     30  C   UNL A   1      41.168  23.790  28.080  1.00  0.00     0.010 A 
ATOM     31  C   UNL A   1      39.853  25.056  26.499  1.00  0.00     0.010 A 
ATOM     32  C   UNL A   1      40.821  25.027  27.516  1.00  0.00    -0.014 A 
BRANCH  32  33
ATOM     33  C   UNL A   1      41.463  26.294  27.964  1.00  0.00     0.031 A 
ATOM     34  C   UNL A   1      40.657  27.354  28.669  1.00  0.00     0.074 A 
ATOM     35  C   UNL A   1      42.756  26.529  27.665  1.00  0.00     0.049 A 
ATOM     36  N   UNL A   1      41.026  28.546  29.063  1.00  0.00    -0.248 NA
ATOM     37  C   UNL A   1      39.245  27.044  28.947  1.00  0.00     0.031 C 
ATOM     38  C   UNL A   1      43.634  25.616  26.930  1.00  0.00     0.029 A 
ATOM     39  N   UNL A   1      43.551  27.623  27.912  1.00  0.00    -0.354 N 
ATOM     40  C   UNL A   1      39.889  29.142  29.597  1.00  0.00     0.074 A 
ATOM     41  C   UNL A   1      38.810  28.189  29.454  1.00  0.00     0.031 C 
ATOM     42  C   UNL A   1      44.841  26.184  26.787  1.00  0.00     0.029 A 
ATOM     43  C   UNL A   1      44.816  27.517  27.381  1.00  0.00     0.049 A 
ATOM     44  H   UNL A   1      43.244  28.407  28.421  1.00  0.00     0.167 HD
ATOM     45  C   UNL A   1      39.758  30.359  30.178  1.00  0.00     0.034 A 
ATOM     46  C   UNL A   1      45.836  28.397  27.358  1.00  0.00     0.034 A 
ATOM     47  C   UNL A   1      40.841  31.291  30.357  1.00  0.00     0.049 A 
ATOM     48  C   UNL A   1      45.671  29.736  28.025  1.00  0.00     0.074 A 
ATOM     49  C   UNL A   1      40.826  32.509  31.013  1.00  0.00     0.029 A 
ATOM     50  N   UNL A   1      42.126  31.116  29.870  1.00  0.00    -0.354 N 
ATOM     51  N   UNL A   1      44.631  30.217  28.661  1.00  0.00    -0.248 NA
ATOM     52  C   UNL A   1      46.829  30.642  27.997  1.00  0.00     0.031 C 
ATOM     53  C   UNL A   1      42.094  33.086  30.896  1.00  0.00     0.029 A 
ATOM     54  C   UNL A   1      42.909  32.212  30.195  1.00  0.00     0.049 A 
ATOM     55  H   UNL A   1      42.438  30.329  29.368  1.00  0.00     0.167 HD
ATOM     56  C   UNL A   1      45.019  31.464  29.138  1.00  0.00     0.074 A 
ATOM     57  C   UNL A   1      46.396  31.657  28.734  1.00  0.00     0.031 C 
ATOM     58  C   UNL A   1      44.294  32.375  29.834  1.00  0.00     0.034 A 
BRANCH  45  59
ATOM     59  C   UNL A   1      38.400  30.745  30.706  1.00  0.00     0.023 A 
ATOM     60  C   UNL A   1      38.054  30.429  32.036  1.00  0.00     0.012 A 
ATOM     61  C   UNL A   1      37.494  31.477  29.913  1.00  0.00     0.148 A 
ATOM     62  C   UNL A   1      36.816  30.803  32.557  1.00  0.00     0.002 A 
ATOM     63  C   UNL A   1      36.280  31.886  30.454  1.00  0.00     0.091 A 
ATOM     64  F   UNL A   1      37.832  31.753  28.646  1.00  0.00    -0.205 F 
ATOM     65  C   UNL A   1      35.936  31.540  31.771  1.00  0.00     0.022 A 
BRANCH  63  66
ATOM     66  S   UNL A   1      35.113  32.907  29.548  1.00  0.00     0.127 S 
ATOM     67  O   UNL A   1      35.976  33.991  29.076  1.00  0.00    -0.237 OA
ATOM     68  O   UNL A   1      34.658  31.992  28.497  1.00  0.00    -0.237 OA
ATOM     69  O   UNL A   1      34.089  33.295  30.501  1.00  0.00    -0.744 OA
ENDBRANCH  63  66
ENDBRANCH  45  59
BRANCH  46  70
ATOM     70  C   UNL A   1      47.126  28.021  26.712  1.00  0.00     0.023 A 
ATOM     71  C   UNL A   1      48.240  27.706  27.515  1.00  0.00     0.012 A 
ATOM     72  C   UNL A   1      47.249  27.949  25.311  1.00  0.00     0.148 A 
ATOM     73  C   UNL A   1      49.459  27.355  26.934  1.00  0.00     0.002 A 
ATOM     74  C   UNL A   1      48.448  27.542  24.740  1.00  0.00     0.091 A 
ATOM     75  F   UNL A   1      46.182  28.267  24.562  1.00  0.00    -0.205 F 
ATOM     76  C   UNL A   1      49.561  27.263  25.549  1.00  0.00     0.022 A 
BRANCH  74  77
ATOM     77  S   UNL A   1      48.624  27.261  22.974  1.00  0.00     0.127 S 
ATOM     78  O   UNL A   1      50.050  27.507  22.772  1.00  0.00    -0.237 OA
ATOM     79  O   UNL A   1      48.215  25.863  22.847  1.00  0.00    -0.237 OA
ATOM     80  O   UNL A   1      47.720  28.208  22.333  1.00  0.00    -0.744 OA
ENDBRANCH  74  77
ENDBRANCH  46  70
BRANCH  58  81
ATOM     81  C   UNL A   1      44.975  33.655  30.241  1.00  0.00     0.023 A 
ATOM     82  C   UNL A   1      45.689  33.714  31.455  1.00  0.00     0.012 A 
ATOM     83  C   UNL A   1      44.981  34.772  29.381  1.00  0.00     0.148 A 
ATOM     84  C   UNL A   1      46.374  34.873  31.818  1.00  0.00     0.002 A 
ATOM     85  C   UNL A   1      45.707  35.905  29.727  1.00  0.00     0.091 A 
ATOM     86  F   UNL A   1      44.282  34.701  28.238  1.00  0.00    -0.205 F 
ATOM     87  C   UNL A   1      46.394  35.962  30.951  1.00  0.00     0.022 A 
BRANCH  85  88
ATOM     88  S   UNL A   1      45.871  37.319  28.632  1.00  0.00     0.127 S 
ATOM     89  O   UNL A   1      44.486  37.778  28.530  1.00  0.00    -0.237 OA
ATOM     90  O   UNL A   1      46.752  38.202  29.397  1.00  0.00    -0.237 OA
ATOM     91  O   UNL A   1      46.449  36.809  27.396  1.00  0.00    -0.744 OA
ENDBRANCH  85  88
ENDBRANCH  58  81
ENDBRANCH  32  33
ENDBRANCH  24  27
ENDBRANCH  22  23
ENDBRANCH  21  22
ENDBRANCH  20  21
ENDBRANCH   1  20
TORSDOF 20
ENDMDL
