MODEL 1
REMARK VINA RESULT:     -10.9      0.000      0.000
REMARK SMILES C[C@H](CNS(=O)(=O)CCC(=O)NCCCCCCNC(=O)c1ccc(-c2c3nc(c(-c4cccc(S(=O)(=O)[O-])c4F)c4ccc([nH]4)c(-c4cccc(S(=O)(=O)[O-])c4F)c4nc(c(-c5cccc(S(=O)(=O)[O-])c5F)c5ccc2[nH]5)C=C4)C=C3)cc1)c1ccccc1
REMARK SMILES IDX 14 1 13 2 12 3 10 4 11 5 9 7 8 8 5 9 6 10 7 11 4 12 3 14
REMARK SMILES IDX 2 15 1 16 85 17 86 18 90 19 87 20 89 21 88 22 15 23 16 24
REMARK SMILES IDX 17 25 18 26 19 27 20 28 21 30 22 31 23 32 84 33 24 34 83 35
REMARK SMILES IDX 25 36 26 37 27 38 77 39 28 40 82 41 76 42 78 43 29 44 81 45
REMARK SMILES IDX 75 46 74 47 30 49 62 50 42 51 61 52 43 53 46 54 60 55 79 56
REMARK SMILES IDX 44 57 45 58 59 60 80 61 47 62 31 63 32 64 40 65 33 66 35 67
REMARK SMILES IDX 41 68 34 69 36 70 37 71 38 72 39 73 63 74 64 75 72 76 65 77
REMARK SMILES IDX 67 78 73 79 66 80 68 81 69 82 70 83 71 84 48 85 49 86 57 87
REMARK SMILES IDX 50 88 52 89 58 90 51 91 53 92 54 93 55 94 56 95
REMARK H PARENT 12 6 4 13 19 29 78 48 46 59
REMARK Flexibility Score: inf
ROOT
ATOM      1  C   UNL A   1      32.775  22.176  22.868  1.00  0.00     0.021 C 
ENDROOT
BRANCH   1   2
ATOM      2  C   UNL A   1      33.400  23.227  21.935  1.00  0.00     0.116 C 
BRANCH   2   3
ATOM      3  N   UNL A   1      32.508  24.284  21.457  1.00  0.00    -0.356 N 
ATOM      4  C   UNL A   1      32.602  25.644  21.464  1.00  0.00     0.221 C 
ATOM      5  O   UNL A   1      31.750  26.289  20.848  1.00  0.00    -0.275 OA
ATOM      6  H   UNL A   1      31.679  23.946  21.049  1.00  0.00     0.163 HD
BRANCH   4   7
ATOM      7  C   UNL A   1      33.625  26.364  22.299  1.00  0.00     0.117 C 
BRANCH   7   8
ATOM      8  C   UNL A   1      33.186  27.798  22.574  1.00  0.00     0.164 C 
BRANCH   8   9
ATOM      9  S   UNL A   1      32.114  27.967  23.994  1.00  0.00     0.212 S 
ATOM     10  O   UNL A   1      31.983  29.372  24.291  1.00  0.00    -0.212 OA
ATOM     11  O   UNL A   1      32.619  27.043  24.989  1.00  0.00    -0.212 OA
BRANCH   9  12
ATOM     12  N   UNL A   1      30.606  27.409  23.450  1.00  0.00    -0.215 NA
ATOM     13  H   UNL A   1      30.556  27.588  22.447  1.00  0.00     0.141 HD
BRANCH  12  14
ATOM     14  C   UNL A   1      29.399  28.003  24.068  1.00  0.00     0.106 C 
BRANCH  14  15
ATOM     15  C   UNL A   1      28.267  28.546  23.123  1.00  0.00     0.031 C 
ATOM     16  C   UNL A   1      26.817  28.203  23.501  1.00  0.00     0.014 C 
BRANCH  15  17
ATOM     17  C   UNL A   1      28.352  29.991  22.601  1.00  0.00    -0.044 A 
ATOM     18  C   UNL A   1      28.689  31.029  23.499  1.00  0.00     0.004 A 
ATOM     19  C   UNL A   1      28.028  30.366  21.292  1.00  0.00     0.004 A 
ATOM     20  C   UNL A   1      28.727  32.368  23.103  1.00  0.00     0.000 A 
ATOM     21  C   UNL A   1      28.045  31.711  20.898  1.00  0.00     0.000 A 
ATOM     22  C   UNL A   1      28.398  32.710  21.799  1.00  0.00     0.000 A 
ENDBRANCH  15  17
ENDBRANCH  14  15
ENDBRANCH  12  14
ENDBRANCH   9  12
ENDBRANCH   8   9
ENDBRANCH   7   8
ENDBRANCH   4   7
ENDBRANCH   2   3
ENDBRANCH   1   2
BRANCH   1  23
ATOM     23  C   UNL A   1      33.203  22.164  24.336  1.00  0.00     0.002 C 
BRANCH  23  24
ATOM     24  C   UNL A   1      34.413  21.306  24.675  1.00  0.00     0.002 C 
BRANCH  24  25
ATOM     25  C   UNL A   1      35.741  22.024  24.471  1.00  0.00     0.021 C 
BRANCH  25  26
ATOM     26  C   UNL A   1      36.620  22.068  25.716  1.00  0.00     0.116 C 
BRANCH  26  27
ATOM     27  N   UNL A   1      37.611  20.998  25.731  1.00  0.00    -0.352 N 
ATOM     28  C   UNL A   1      38.951  21.127  26.019  1.00  0.00     0.251 C 
ATOM     29  H   UNL A   1      37.290  20.094  25.513  1.00  0.00     0.163 HD
ATOM     30  O   UNL A   1      39.745  20.215  25.827  1.00  0.00    -0.269 OA
BRANCH  28  31
ATOM     31  C   UNL A   1      39.397  22.425  26.557  1.00  0.00     0.039 A 
ATOM     32  C   UNL A   1      40.403  22.461  27.522  1.00  0.00     0.014 A 
ATOM     33  C   UNL A   1      38.913  23.598  25.970  1.00  0.00     0.014 A 
ATOM     34  C   UNL A   1      40.963  23.691  27.869  1.00  0.00     0.010 A 
ATOM     35  C   UNL A   1      39.531  24.807  26.258  1.00  0.00     0.010 A 
ATOM     36  C   UNL A   1      40.553  24.868  27.219  1.00  0.00    -0.014 A 
BRANCH  36  37
ATOM     37  C   UNL A   1      41.173  26.178  27.537  1.00  0.00     0.031 A 
ATOM     38  C   UNL A   1      42.583  26.460  27.096  1.00  0.00     0.074 A 
ATOM     39  C   UNL A   1      40.502  27.077  28.283  1.00  0.00     0.049 A 
ATOM     40  N   UNL A   1      43.315  27.523  27.304  1.00  0.00    -0.248 NA
ATOM     41  C   UNL A   1      43.273  25.397  26.344  1.00  0.00     0.031 C 
ATOM     42  C   UNL A   1      39.160  26.885  28.840  1.00  0.00     0.029 A 
ATOM     43  N   UNL A   1      40.865  28.326  28.723  1.00  0.00    -0.354 N 
ATOM     44  C   UNL A   1      44.555  27.244  26.744  1.00  0.00     0.074 A 
ATOM     45  C   UNL A   1      44.494  25.895  26.226  1.00  0.00     0.031 C 
ATOM     46  C   UNL A   1      38.809  27.978  29.535  1.00  0.00     0.029 A 
ATOM     47  C   UNL A   1      39.910  28.936  29.505  1.00  0.00     0.049 A 
ATOM     48  H   UNL A   1      41.726  28.746  28.499  1.00  0.00     0.167 HD
ATOM     49  C   UNL A   1      45.639  28.046  26.642  1.00  0.00     0.034 A 
ATOM     50  C   UNL A   1      39.927  30.129  30.133  1.00  0.00     0.034 A 
ATOM     51  C   UNL A   1      45.682  29.397  27.129  1.00  0.00     0.049 A 
ATOM     52  C   UNL A   1      41.135  31.014  29.980  1.00  0.00     0.074 A 
ATOM     53  C   UNL A   1      46.699  30.325  26.999  1.00  0.00     0.029 A 
ATOM     54  N   UNL A   1      44.670  30.008  27.853  1.00  0.00    -0.354 N 
ATOM     55  N   UNL A   1      42.239  30.795  29.307  1.00  0.00    -0.248 NA
ATOM     56  C   UNL A   1      41.087  32.326  30.643  1.00  0.00     0.031 C 
ATOM     57  C   UNL A   1      46.317  31.486  27.679  1.00  0.00     0.029 A 
ATOM     58  C   UNL A   1      45.044  31.295  28.193  1.00  0.00     0.049 A 
ATOM     59  H   UNL A   1      43.812  29.587  28.091  1.00  0.00     0.167 HD
ATOM     60  C   UNL A   1      43.000  31.951  29.434  1.00  0.00     0.074 A 
ATOM     61  C   UNL A   1      42.221  32.877  30.231  1.00  0.00     0.031 C 
ATOM     62  C   UNL A   1      44.237  32.220  28.947  1.00  0.00     0.034 A 
BRANCH  49  63
ATOM     63  C   UNL A   1      46.854  27.496  25.941  1.00  0.00     0.023 A 
ATOM     64  C   UNL A   1      47.003  27.677  24.550  1.00  0.00     0.012 A 
ATOM     65  C   UNL A   1      47.871  26.842  26.665  1.00  0.00     0.148 A 
ATOM     66  C   UNL A   1      48.123  27.181  23.884  1.00  0.00     0.002 A 
ATOM     67  C   UNL A   1      49.008  26.397  26.002  1.00  0.00     0.091 A 
ATOM     68  F   UNL A   1      47.703  26.661  27.983  1.00  0.00    -0.205 F 
ATOM     69  C   UNL A   1      49.129  26.552  24.611  1.00  0.00     0.022 A 
BRANCH  67  70
ATOM     70  S   UNL A   1      50.400  25.652  26.858  1.00  0.00     0.127 S 
ATOM     71  O   UNL A   1      49.787  24.454  27.431  1.00  0.00    -0.237 OA
ATOM     72  O   UNL A   1      51.331  25.393  25.760  1.00  0.00    -0.237 OA
ATOM     73  O   UNL A   1      50.856  26.640  27.824  1.00  0.00    -0.744 OA
ENDBRANCH  67  70
ENDBRANCH  49  63
BRANCH  50  74
ATOM     74  C   UNL A   1      38.742  30.578  30.918  1.00  0.00     0.023 A 
ATOM     75  C   UNL A   1      38.695  30.337  32.306  1.00  0.00     0.012 A 
ATOM     76  C   UNL A   1      37.672  31.256  30.304  1.00  0.00     0.148 A 
ATOM     77  C   UNL A   1      37.588  30.729  33.059  1.00  0.00     0.002 A 
ATOM     78  C   UNL A   1      36.597  31.694  31.070  1.00  0.00     0.091 A 
ATOM     79  F   UNL A   1      37.730  31.469  28.982  1.00  0.00    -0.205 F 
ATOM     80  C   UNL A   1      36.544  31.415  32.445  1.00  0.00     0.022 A 
BRANCH  78  81
ATOM     81  S   UNL A   1      35.273  32.698  30.390  1.00  0.00     0.127 S 
ATOM     82  O   UNL A   1      34.877  31.918  29.219  1.00  0.00    -0.237 OA
ATOM     83  O   UNL A   1      34.303  32.699  31.486  1.00  0.00    -0.237 OA
ATOM     84  O   UNL A   1      35.865  33.999  30.111  1.00  0.00    -0.744 OA
ENDBRANCH  78  81
ENDBRANCH  50  74
BRANCH  62  85
ATOM     85  C   UNL A   1      44.815  33.586  29.216  1.00  0.00     0.023 A 
ATOM     86  C   UNL A   1      45.723  33.771  30.276  1.00  0.00     0.012 A 
ATOM     87  C   UNL A   1      44.516  34.666  28.361  1.00  0.00     0.148 A 
ATOM     88  C   UNL A   1      46.301  35.020  30.502  1.00  0.00     0.002 A 
ATOM     89  C   UNL A   1      45.138  35.892  28.559  1.00  0.00     0.091 A 
ATOM     90  F   UNL A   1      43.637  34.471  27.368  1.00  0.00    -0.205 F 
ATOM     91  C   UNL A   1      46.019  36.075  29.638  1.00  0.00     0.022 A 
BRANCH  89  92
ATOM     92  S   UNL A   1      44.916  37.278  27.439  1.00  0.00     0.127 S 
ATOM     93  O   UNL A   1      45.094  38.418  28.337  1.00  0.00    -0.237 OA
ATOM     94  O   UNL A   1      46.005  37.078  26.482  1.00  0.00    -0.237 OA
ATOM     95  O   UNL A   1      43.580  37.133  26.876  1.00  0.00    -0.744 OA
ENDBRANCH  89  92
ENDBRANCH  62  85
ENDBRANCH  36  37
ENDBRANCH  28  31
ENDBRANCH  26  27
ENDBRANCH  25  26
ENDBRANCH  24  25
ENDBRANCH  23  24
ENDBRANCH   1  23
TORSDOF 22
ENDMDL
MODEL 2
REMARK VINA RESULT:     -10.8      1.608      2.060
REMARK SMILES C[C@H](CNS(=O)(=O)CCC(=O)NCCCCCCNC(=O)c1ccc(-c2c3nc(c(-c4cccc(S(=O)(=O)[O-])c4F)c4ccc([nH]4)c(-c4cccc(S(=O)(=O)[O-])c4F)c4nc(c(-c5cccc(S(=O)(=O)[O-])c5F)c5ccc2[nH]5)C=C4)C=C3)cc1)c1ccccc1
REMARK SMILES IDX 14 1 13 2 12 3 10 4 11 5 9 7 8 8 5 9 6 10 7 11 4 12 3 14
REMARK SMILES IDX 2 15 1 16 85 17 86 18 90 19 87 20 89 21 88 22 15 23 16 24
REMARK SMILES IDX 17 25 18 26 19 27 20 28 21 30 22 31 23 32 84 33 24 34 83 35
REMARK SMILES IDX 25 36 26 37 27 38 77 39 28 40 82 41 76 42 78 43 29 44 81 45
REMARK SMILES IDX 75 46 74 47 30 49 62 50 42 51 61 52 43 53 46 54 60 55 79 56
REMARK SMILES IDX 44 57 45 58 59 60 80 61 47 62 31 63 32 64 40 65 33 66 35 67
REMARK SMILES IDX 41 68 34 69 36 70 37 71 38 72 39 73 63 74 64 75 72 76 65 77
REMARK SMILES IDX 67 78 73 79 66 80 68 81 69 82 70 83 71 84 48 85 49 86 57 87
REMARK SMILES IDX 50 88 52 89 58 90 51 91 53 92 54 93 55 94 56 95
REMARK H PARENT 12 6 4 13 19 29 78 48 46 59
REMARK Flexibility Score: inf
ROOT
ATOM      1  C   UNL A   1      32.343  23.457  23.143  1.00  0.00     0.021 C 
ENDROOT
BRANCH   1   2
ATOM      2  C   UNL A   1      31.711  22.969  24.458  1.00  0.00     0.116 C 
BRANCH   2   3
ATOM      3  N   UNL A   1      30.643  23.801  25.013  1.00  0.00    -0.356 N 
ATOM      4  C   UNL A   1      30.656  24.947  25.752  1.00  0.00     0.221 C 
ATOM      5  O   UNL A   1      29.583  25.518  25.958  1.00  0.00    -0.275 OA
ATOM      6  H   UNL A   1      29.739  23.469  24.812  1.00  0.00     0.163 HD
BRANCH   4   7
ATOM      7  C   UNL A   1      31.909  25.447  26.417  1.00  0.00     0.117 C 
BRANCH   7   8
ATOM      8  C   UNL A   1      31.970  26.971  26.379  1.00  0.00     0.164 C 
BRANCH   8   9
ATOM      9  S   UNL A   1      33.233  27.619  25.294  1.00  0.00     0.212 S 
ATOM     10  O   UNL A   1      33.950  26.504  24.726  1.00  0.00    -0.212 OA
ATOM     11  O   UNL A   1      33.928  28.637  26.054  1.00  0.00    -0.212 OA
BRANCH   9  12
ATOM     12  N   UNL A   1      32.366  28.371  24.043  1.00  0.00    -0.215 NA
ATOM     13  H   UNL A   1      32.919  29.165  23.722  1.00  0.00     0.141 HD
BRANCH  12  14
ATOM     14  C   UNL A   1      31.011  28.871  24.362  1.00  0.00     0.106 C 
BRANCH  14  15
ATOM     15  C   UNL A   1      29.920  28.842  23.231  1.00  0.00     0.031 C 
ATOM     16  C   UNL A   1      28.888  27.703  23.284  1.00  0.00     0.014 C 
BRANCH  15  17
ATOM     17  C   UNL A   1      29.239  30.155  22.808  1.00  0.00    -0.044 A 
ATOM     18  C   UNL A   1      28.772  30.291  21.480  1.00  0.00     0.004 A 
ATOM     19  C   UNL A   1      29.124  31.276  23.638  1.00  0.00     0.004 A 
ATOM     20  C   UNL A   1      28.197  31.476  21.015  1.00  0.00     0.000 A 
ATOM     21  C   UNL A   1      28.567  32.473  23.166  1.00  0.00     0.000 A 
ATOM     22  C   UNL A   1      28.099  32.572  21.860  1.00  0.00     0.000 A 
ENDBRANCH  15  17
ENDBRANCH  14  15
ENDBRANCH  12  14
ENDBRANCH   9  12
ENDBRANCH   8   9
ENDBRANCH   7   8
ENDBRANCH   4   7
ENDBRANCH   2   3
ENDBRANCH   1   2
BRANCH   1  23
ATOM     23  C   UNL A   1      33.839  23.226  22.929  1.00  0.00     0.002 C 
BRANCH  23  24
ATOM     24  C   UNL A   1      34.693  23.153  24.186  1.00  0.00     0.002 C 
BRANCH  24  25
ATOM     25  C   UNL A   1      35.897  22.229  24.048  1.00  0.00     0.021 C 
BRANCH  25  26
ATOM     26  C   UNL A   1      37.022  22.526  25.033  1.00  0.00     0.116 C 
BRANCH  26  27
ATOM     27  N   UNL A   1      37.791  21.333  25.369  1.00  0.00    -0.352 N 
ATOM     28  C   UNL A   1      39.001  21.295  26.025  1.00  0.00     0.251 C 
ATOM     29  H   UNL A   1      37.407  20.468  25.100  1.00  0.00     0.163 HD
ATOM     30  O   UNL A   1      39.665  20.270  26.101  1.00  0.00    -0.269 OA
BRANCH  28  31
ATOM     31  C   UNL A   1      39.476  22.557  26.622  1.00  0.00     0.039 A 
ATOM     32  C   UNL A   1      40.642  22.560  27.387  1.00  0.00     0.014 A 
ATOM     33  C   UNL A   1      38.833  23.749  26.276  1.00  0.00     0.014 A 
ATOM     34  C   UNL A   1      41.197  23.782  27.768  1.00  0.00     0.010 A 
ATOM     35  C   UNL A   1      39.434  24.960  26.587  1.00  0.00     0.010 A 
ATOM     36  C   UNL A   1      40.615  24.990  27.347  1.00  0.00    -0.014 A 
BRANCH  36  37
ATOM     37  C   UNL A   1      41.218  26.299  27.700  1.00  0.00     0.031 A 
ATOM     38  C   UNL A   1      42.642  26.589  27.314  1.00  0.00     0.074 A 
ATOM     39  C   UNL A   1      40.517  27.189  28.429  1.00  0.00     0.049 A 
ATOM     40  N   UNL A   1      43.363  27.652  27.558  1.00  0.00    -0.248 NA
ATOM     41  C   UNL A   1      43.364  25.534  26.579  1.00  0.00     0.031 C 
ATOM     42  C   UNL A   1      39.156  26.988  28.933  1.00  0.00     0.029 A 
ATOM     43  N   UNL A   1      40.859  28.435  28.892  1.00  0.00    -0.354 N 
ATOM     44  C   UNL A   1      44.624  27.381  27.043  1.00  0.00     0.074 A 
ATOM     45  C   UNL A   1      44.586  26.037  26.511  1.00  0.00     0.031 C 
ATOM     46  C   UNL A   1      38.776  28.075  29.624  1.00  0.00     0.029 A 
ATOM     47  C   UNL A   1      39.875  29.035  29.643  1.00  0.00     0.049 A 
ATOM     48  H   UNL A   1      41.727  28.859  28.705  1.00  0.00     0.167 HD
ATOM     49  C   UNL A   1      45.709  28.187  26.988  1.00  0.00     0.034 A 
ATOM     50  C   UNL A   1      39.865  30.223  30.282  1.00  0.00     0.034 A 
ATOM     51  C   UNL A   1      45.730  29.534  27.489  1.00  0.00     0.049 A 
ATOM     52  C   UNL A   1      41.075  31.113  30.183  1.00  0.00     0.074 A 
ATOM     53  C   UNL A   1      46.748  30.466  27.405  1.00  0.00     0.029 A 
ATOM     54  N   UNL A   1      44.690  30.135  28.180  1.00  0.00    -0.354 N 
ATOM     55  N   UNL A   1      42.204  30.902  29.549  1.00  0.00    -0.248 NA
ATOM     56  C   UNL A   1      40.998  32.419  30.854  1.00  0.00     0.031 C 
ATOM     57  C   UNL A   1      46.338  31.619  28.080  1.00  0.00     0.029 A 
ATOM     58  C   UNL A   1      45.047  31.421  28.545  1.00  0.00     0.049 A 
ATOM     59  H   UNL A   1      43.825  29.710  28.382  1.00  0.00     0.167 HD
ATOM     60  C   UNL A   1      42.956  32.060  29.715  1.00  0.00     0.074 A 
ATOM     61  C   UNL A   1      42.145  32.976  30.491  1.00  0.00     0.031 C 
ATOM     62  C   UNL A   1      44.209  32.337  29.276  1.00  0.00     0.034 A 
BRANCH  49  63
ATOM     63  C   UNL A   1      46.950  27.646  26.328  1.00  0.00     0.023 A 
ATOM     64  C   UNL A   1      47.839  26.835  27.064  1.00  0.00     0.012 A 
ATOM     65  C   UNL A   1      47.215  27.901  24.968  1.00  0.00     0.148 A 
ATOM     66  C   UNL A   1      48.990  26.320  26.470  1.00  0.00     0.002 A 
ATOM     67  C   UNL A   1      48.337  27.341  24.370  1.00  0.00     0.091 A 
ATOM     68  F   UNL A   1      46.371  28.691  24.289  1.00  0.00    -0.205 F 
ATOM     69  C   UNL A   1      49.233  26.564  25.122  1.00  0.00     0.022 A 
BRANCH  67  70
ATOM     70  S   UNL A   1      48.695  27.522  22.619  1.00  0.00     0.127 S 
ATOM     71  O   UNL A   1      48.519  26.152  22.139  1.00  0.00    -0.237 OA
ATOM     72  O   UNL A   1      47.654  28.457  22.189  1.00  0.00    -0.237 OA
ATOM     73  O   UNL A   1      50.053  28.042  22.536  1.00  0.00    -0.744 OA
ENDBRANCH  67  70
ENDBRANCH  49  63
BRANCH  50  74
ATOM     74  C   UNL A   1      38.650  30.662  31.027  1.00  0.00     0.023 A 
ATOM     75  C   UNL A   1      38.560  30.425  32.414  1.00  0.00     0.012 A 
ATOM     76  C   UNL A   1      37.593  31.326  30.376  1.00  0.00     0.148 A 
ATOM     77  C   UNL A   1      37.425  30.807  33.129  1.00  0.00     0.002 A 
ATOM     78  C   UNL A   1      36.489  31.755  31.105  1.00  0.00     0.091 A 
ATOM     79  F   UNL A   1      37.692  31.535  29.056  1.00  0.00    -0.205 F 
ATOM     80  C   UNL A   1      36.394  31.480  32.478  1.00  0.00     0.022 A 
BRANCH  78  81
ATOM     81  S   UNL A   1      35.177  32.742  30.378  1.00  0.00     0.127 S 
ATOM     82  O   UNL A   1      34.806  31.937  29.216  1.00  0.00    -0.237 OA
ATOM     83  O   UNL A   1      34.186  32.764  31.455  1.00  0.00    -0.237 OA
ATOM     84  O   UNL A   1      35.773  34.038  30.084  1.00  0.00    -0.744 OA
ENDBRANCH  78  81
ENDBRANCH  50  74
BRANCH  62  85
ATOM     85  C   UNL A   1      44.773  33.701  29.579  1.00  0.00     0.023 A 
ATOM     86  C   UNL A   1      45.545  33.904  30.739  1.00  0.00     0.012 A 
ATOM     87  C   UNL A   1      44.602  34.760  28.665  1.00  0.00     0.148 A 
ATOM     88  C   UNL A   1      46.111  35.151  31.001  1.00  0.00     0.002 A 
ATOM     89  C   UNL A   1      45.215  35.983  28.905  1.00  0.00     0.091 A 
ATOM     90  F   UNL A   1      43.850  34.549  27.575  1.00  0.00    -0.205 F 
ATOM     91  C   UNL A   1      45.958  36.184  30.081  1.00  0.00     0.022 A 
BRANCH  89  92
ATOM     92  S   UNL A   1      45.158  37.339  27.730  1.00  0.00     0.127 S 
ATOM     93  O   UNL A   1      45.871  36.771  26.586  1.00  0.00    -0.237 OA
ATOM     94  O   UNL A   1      43.720  37.513  27.528  1.00  0.00    -0.237 OA
ATOM     95  O   UNL A   1      45.820  38.464  28.378  1.00  0.00    -0.744 OA
ENDBRANCH  89  92
ENDBRANCH  62  85
ENDBRANCH  36  37
ENDBRANCH  28  31
ENDBRANCH  26  27
ENDBRANCH  25  26
ENDBRANCH  24  25
ENDBRANCH  23  24
ENDBRANCH   1  23
TORSDOF 22
ENDMDL
MODEL 3
REMARK VINA RESULT:     -10.7      5.655     12.086
REMARK SMILES C[C@H](CNS(=O)(=O)CCC(=O)NCCCCCCNC(=O)c1ccc(-c2c3nc(c(-c4cccc(S(=O)(=O)[O-])c4F)c4ccc([nH]4)c(-c4cccc(S(=O)(=O)[O-])c4F)c4nc(c(-c5cccc(S(=O)(=O)[O-])c5F)c5ccc2[nH]5)C=C4)C=C3)cc1)c1ccccc1
REMARK SMILES IDX 14 1 13 2 12 3 10 4 11 5 9 7 8 8 5 9 6 10 7 11 4 12 3 14
REMARK SMILES IDX 2 15 1 16 85 17 86 18 90 19 87 20 89 21 88 22 15 23 16 24
REMARK SMILES IDX 17 25 18 26 19 27 20 28 21 30 22 31 23 32 84 33 24 34 83 35
REMARK SMILES IDX 25 36 26 37 27 38 77 39 28 40 82 41 76 42 78 43 29 44 81 45
REMARK SMILES IDX 75 46 74 47 30 49 62 50 42 51 61 52 43 53 46 54 60 55 79 56
REMARK SMILES IDX 44 57 45 58 59 60 80 61 47 62 31 63 32 64 40 65 33 66 35 67
REMARK SMILES IDX 41 68 34 69 36 70 37 71 38 72 39 73 63 74 64 75 72 76 65 77
REMARK SMILES IDX 67 78 73 79 66 80 68 81 69 82 70 83 71 84 48 85 49 86 57 87
REMARK SMILES IDX 50 88 52 89 58 90 51 91 53 92 54 93 55 94 56 95
REMARK H PARENT 12 6 4 13 19 29 78 48 46 59
REMARK Flexibility Score: inf
ROOT
ATOM      1  C   UNL A   1      35.654  32.290  32.811  1.00  0.00     0.021 C 
ENDROOT
BRANCH   1   2
ATOM      2  C   UNL A   1      35.498  33.314  33.947  1.00  0.00     0.116 C 
BRANCH   2   3
ATOM      3  N   UNL A   1      36.597  34.265  34.120  1.00  0.00    -0.356 N 
ATOM      4  C   UNL A   1      37.873  34.127  34.578  1.00  0.00     0.221 C 
ATOM      5  O   UNL A   1      38.637  35.090  34.472  1.00  0.00    -0.275 OA
ATOM      6  H   UNL A   1      36.369  35.184  33.852  1.00  0.00     0.163 HD
BRANCH   4   7
ATOM      7  C   UNL A   1      38.323  32.894  35.313  1.00  0.00     0.117 C 
BRANCH   7   8
ATOM      8  C   UNL A   1      39.134  31.984  34.397  1.00  0.00     0.164 C 
BRANCH   8   9
ATOM      9  S   UNL A   1      38.912  30.241  34.725  1.00  0.00     0.212 S 
ATOM     10  O   UNL A   1      37.937  29.730  33.794  1.00  0.00    -0.212 OA
ATOM     11  O   UNL A   1      38.701  30.128  36.154  1.00  0.00    -0.212 OA
BRANCH   9  12
ATOM     12  N   UNL A   1      40.412  29.547  34.340  1.00  0.00    -0.215 NA
ATOM     13  H   UNL A   1      40.263  28.909  33.559  1.00  0.00     0.141 HD
BRANCH  12  14
ATOM     14  C   UNL A   1      41.103  28.790  35.408  1.00  0.00     0.106 C 
BRANCH  14  15
ATOM     15  C   UNL A   1      42.495  28.139  35.079  1.00  0.00     0.031 C 
ATOM     16  C   UNL A   1      43.734  28.768  35.738  1.00  0.00     0.014 C 
BRANCH  15  17
ATOM     17  C   UNL A   1      42.624  26.606  35.061  1.00  0.00    -0.044 A 
ATOM     18  C   UNL A   1      43.566  26.005  34.194  1.00  0.00     0.004 A 
ATOM     19  C   UNL A   1      41.799  25.746  35.795  1.00  0.00     0.004 A 
ATOM     20  C   UNL A   1      43.694  24.618  34.088  1.00  0.00     0.000 A 
ATOM     21  C   UNL A   1      41.912  24.354  35.673  1.00  0.00     0.000 A 
ATOM     22  C   UNL A   1      42.860  23.790  34.825  1.00  0.00     0.000 A 
ENDBRANCH  15  17
ENDBRANCH  14  15
ENDBRANCH  12  14
ENDBRANCH   9  12
ENDBRANCH   8   9
ENDBRANCH   7   8
ENDBRANCH   4   7
ENDBRANCH   2   3
ENDBRANCH   1   2
BRANCH   1  23
ATOM     23  C   UNL A   1      35.174  32.681  31.412  1.00  0.00     0.002 C 
BRANCH  23  24
ATOM     24  C   UNL A   1      36.207  33.333  30.506  1.00  0.00     0.002 C 
BRANCH  24  25
ATOM     25  C   UNL A   1      35.603  33.976  29.263  1.00  0.00     0.021 C 
BRANCH  25  26
ATOM     26  C   UNL A   1      35.713  33.119  28.007  1.00  0.00     0.116 C 
BRANCH  26  27
ATOM     27  N   UNL A   1      34.557  32.247  27.830  1.00  0.00    -0.352 N 
ATOM     28  C   UNL A   1      34.568  30.871  27.786  1.00  0.00     0.251 C 
ATOM     29  H   UNL A   1      33.682  32.686  27.734  1.00  0.00     0.163 HD
ATOM     30  O   UNL A   1      33.583  30.226  27.448  1.00  0.00    -0.269 OA
BRANCH  28  31
ATOM     31  C   UNL A   1      35.831  30.201  28.146  1.00  0.00     0.039 A 
ATOM     32  C   UNL A   1      36.882  30.173  27.229  1.00  0.00     0.014 A 
ATOM     33  C   UNL A   1      36.002  29.749  29.458  1.00  0.00     0.014 A 
ATOM     34  C   UNL A   1      38.135  29.728  27.650  1.00  0.00     0.010 A 
ATOM     35  C   UNL A   1      37.270  29.387  29.892  1.00  0.00     0.010 A 
ATOM     36  C   UNL A   1      38.346  29.360  28.990  1.00  0.00    -0.014 A 
BRANCH  36  37
ATOM     37  C   UNL A   1      39.683  28.933  29.469  1.00  0.00     0.031 A 
ATOM     38  C   UNL A   1      40.521  29.883  30.280  1.00  0.00     0.074 A 
ATOM     39  C   UNL A   1      40.173  27.729  29.112  1.00  0.00     0.049 A 
ATOM     40  N   UNL A   1      41.726  29.716  30.760  1.00  0.00    -0.248 NA
ATOM     41  C   UNL A   1      39.941  31.207  30.567  1.00  0.00     0.031 C 
ATOM     42  C   UNL A   1      39.489  26.754  28.260  1.00  0.00     0.029 A 
ATOM     43  N   UNL A   1      41.373  27.128  29.404  1.00  0.00    -0.354 N 
ATOM     44  C   UNL A   1      42.059  30.919  31.370  1.00  0.00     0.074 A 
ATOM     45  C   UNL A   1      40.950  31.822  31.164  1.00  0.00     0.031 C 
ATOM     46  C   UNL A   1      40.273  25.674  28.107  1.00  0.00     0.029 A 
ATOM     47  C   UNL A   1      41.527  25.891  28.820  1.00  0.00     0.049 A 
ATOM     48  H   UNL A   1      42.057  27.542  29.977  1.00  0.00     0.167 HD
ATOM     49  C   UNL A   1      43.174  31.234  32.068  1.00  0.00     0.034 A 
ATOM     50  C   UNL A   1      42.568  25.035  28.850  1.00  0.00     0.034 A 
ATOM     51  C   UNL A   1      44.259  30.320  32.299  1.00  0.00     0.049 A 
ATOM     52  C   UNL A   1      43.787  25.399  29.656  1.00  0.00     0.074 A 
ATOM     53  C   UNL A   1      45.394  30.510  33.065  1.00  0.00     0.029 A 
ATOM     54  N   UNL A   1      44.349  29.050  31.752  1.00  0.00    -0.354 N 
ATOM     55  N   UNL A   1      44.016  26.480  30.363  1.00  0.00    -0.248 NA
ATOM     56  C   UNL A   1      44.876  24.412  29.699  1.00  0.00     0.031 C 
ATOM     57  C   UNL A   1      46.191  29.367  32.951  1.00  0.00     0.029 A 
ATOM     58  C   UNL A   1      45.530  28.448  32.149  1.00  0.00     0.049 A 
ATOM     59  H   UNL A   1      43.674  28.636  31.167  1.00  0.00     0.167 HD
ATOM     60  C   UNL A   1      45.255  26.288  30.963  1.00  0.00     0.074 A 
ATOM     61  C   UNL A   1      45.718  24.978  30.553  1.00  0.00     0.031 C 
ATOM     62  C   UNL A   1      45.954  27.125  31.770  1.00  0.00     0.034 A 
BRANCH  49  63
ATOM     63  C   UNL A   1      43.259  32.614  32.666  1.00  0.00     0.023 A 
ATOM     64  C   UNL A   1      43.556  33.719  31.841  1.00  0.00     0.012 A 
ATOM     65  C   UNL A   1      42.998  32.826  34.034  1.00  0.00     0.148 A 
ATOM     66  C   UNL A   1      43.632  35.005  32.374  1.00  0.00     0.002 A 
ATOM     67  C   UNL A   1      43.025  34.116  34.547  1.00  0.00     0.091 A 
ATOM     68  F   UNL A   1      42.738  31.762  34.808  1.00  0.00    -0.205 F 
ATOM     69  C   UNL A   1      43.356  35.204  33.723  1.00  0.00     0.022 A 
BRANCH  67  70
ATOM     70  S   UNL A   1      42.601  34.492  36.252  1.00  0.00     0.127 S 
ATOM     71  O   UNL A   1      43.658  33.792  36.980  1.00  0.00    -0.237 OA
ATOM     72  O   UNL A   1      42.705  35.951  36.278  1.00  0.00    -0.237 OA
ATOM     73  O   UNL A   1      41.256  33.973  36.456  1.00  0.00    -0.744 OA
ENDBRANCH  67  70
ENDBRANCH  49  63
BRANCH  50  74
ATOM     74  C   UNL A   1      42.484  23.728  28.138  1.00  0.00     0.023 A 
ATOM     75  C   UNL A   1      41.506  22.788  28.523  1.00  0.00     0.012 A 
ATOM     76  C   UNL A   1      43.353  23.417  27.075  1.00  0.00     0.148 A 
ATOM     77  C   UNL A   1      41.422  21.549  27.887  1.00  0.00     0.002 A 
ATOM     78  C   UNL A   1      43.225  22.203  26.407  1.00  0.00     0.091 A 
ATOM     79  F   UNL A   1      44.281  24.319  26.729  1.00  0.00    -0.205 F 
ATOM     80  C   UNL A   1      42.273  21.259  26.824  1.00  0.00     0.022 A 
BRANCH  78  81
ATOM     81  S   UNL A   1      44.189  21.799  24.947  1.00  0.00     0.127 S 
ATOM     82  O   UNL A   1      45.550  22.077  25.401  1.00  0.00    -0.237 OA
ATOM     83  O   UNL A   1      43.877  20.382  24.764  1.00  0.00    -0.237 OA
ATOM     84  O   UNL A   1      43.687  22.666  23.890  1.00  0.00    -0.744 OA
ENDBRANCH  78  81
ENDBRANCH  50  74
BRANCH  62  85
ATOM     85  C   UNL A   1      47.275  26.639  32.308  1.00  0.00     0.023 A 
ATOM     86  C   UNL A   1      47.332  25.980  33.551  1.00  0.00     0.012 A 
ATOM     87  C   UNL A   1      48.447  26.766  31.535  1.00  0.00     0.148 A 
ATOM     88  C   UNL A   1      48.543  25.484  34.033  1.00  0.00     0.002 A 
ATOM     89  C   UNL A   1      49.638  26.221  31.997  1.00  0.00     0.091 A 
ATOM     90  F   UNL A   1      48.373  27.410  30.362  1.00  0.00    -0.205 F 
ATOM     91  C   UNL A   1      49.691  25.592  33.253  1.00  0.00     0.022 A 
BRANCH  89  92
ATOM     92  S   UNL A   1      51.144  26.221  31.018  1.00  0.00     0.127 S 
ATOM     93  O   UNL A   1      50.711  25.522  29.808  1.00  0.00    -0.237 OA
ATOM     94  O   UNL A   1      51.396  27.651  30.840  1.00  0.00    -0.237 OA
ATOM     95  O   UNL A   1      52.144  25.523  31.815  1.00  0.00    -0.744 OA
ENDBRANCH  89  92
ENDBRANCH  62  85
ENDBRANCH  36  37
ENDBRANCH  28  31
ENDBRANCH  26  27
ENDBRANCH  25  26
ENDBRANCH  24  25
ENDBRANCH  23  24
ENDBRANCH   1  23
TORSDOF 22
ENDMDL
