MODEL 1
REMARK VINA RESULT:     -11.4      0.000      0.000
REMARK SMILES O=C(COc1ccccc1C[NH+]1CCC2(CC[NH2+]CC2)CC1)NCCCCCCNC(=O)c1ccc(-c2c3nc(c(-c4cccc(S(=O)(=O)[O-])c4F)c4ccc([nH]4)c(-c4cccc(S(=O)(=O)[O-])c4F)c4nc(c(-c5cccc(S(=O)(=O)[O-])c5F)c5ccc2[nH]5)C=C4)C=C3)cc1
REMARK SMILES IDX 26 1 25 2 24 3 23 4 1 5 2 6 3 8 4 9 5 10 6 11 10 12 7 13
REMARK SMILES IDX 9 14 8 15 11 16 12 17 13 18 22 19 14 21 21 22 15 23 16 24
REMARK SMILES IDX 20 25 17 26 19 27 18 28 27 31 28 32 29 33 30 34 31 35 32 37
REMARK SMILES IDX 33 38 34 39 95 40 35 41 94 42 36 43 37 44 38 45 88 46 39 47
REMARK SMILES IDX 93 48 87 49 89 50 40 51 92 52 86 53 85 54 41 56 73 57 53 58
REMARK SMILES IDX 72 59 54 60 57 61 71 62 90 63 55 64 56 65 70 67 91 68 58 69
REMARK SMILES IDX 42 70 43 71 51 72 44 73 46 74 52 75 45 76 47 77 48 78 49 79
REMARK SMILES IDX 50 80 74 81 75 82 83 83 76 84 78 85 84 86 77 87 79 88 80 89
REMARK SMILES IDX 81 90 82 91 59 92 60 93 68 94 61 95 63 96 69 97 62 98 64 99
REMARK SMILES IDX 65 100 66 101 67 102
REMARK H PARENT 23 7 12 20 18 29 18 30 30 36 89 55 57 66
REMARK Flexibility Score: inf
ROOT
ATOM      1  C   UNL A   1      34.015  21.062  24.622  1.00  0.00     0.002 C 
ENDROOT
BRANCH   1   2
ATOM      2  C   UNL A   1      32.672  21.744  24.338  1.00  0.00     0.021 C 
BRANCH   2   3
ATOM      3  C   UNL A   1      31.617  21.636  25.433  1.00  0.00     0.116 C 
BRANCH   3   4
ATOM      4  N   UNL A   1      30.653  22.726  25.477  1.00  0.00    -0.353 N 
ATOM      5  O   UNL A   1      31.270  23.582  27.529  1.00  0.00    -0.271 OA
ATOM      6  C   UNL A   1      30.738  23.728  26.431  1.00  0.00     0.257 C 
ATOM      7  H   UNL A   1      29.925  22.752  24.815  1.00  0.00     0.163 HD
BRANCH   6   8
ATOM      8  C   UNL A   1      30.153  25.079  25.991  1.00  0.00     0.329 C 
BRANCH   8   9
ATOM      9  O   UNL A   1      31.165  26.067  25.762  1.00  0.00    -0.483 OA
BRANCH   9  10
ATOM     10  C   UNL A   1      32.060  25.712  24.780  1.00  0.00     0.128 A 
ATOM     11  C   UNL A   1      33.340  25.330  25.199  1.00  0.00     0.047 A 
ATOM     12  C   UNL A   1      31.805  25.918  23.412  1.00  0.00     0.048 A 
ATOM     13  C   UNL A   1      34.350  25.092  24.262  1.00  0.00     0.004 A 
ATOM     14  C   UNL A   1      32.806  25.581  22.484  1.00  0.00     0.013 A 
ATOM     15  C   UNL A   1      34.076  25.192  22.903  1.00  0.00     0.001 A 
BRANCH  12  16
ATOM     16  C   UNL A   1      30.561  26.587  22.881  1.00  0.00     0.302 C 
BRANCH  16  17
ATOM     17  N   UNL A   1      30.029  27.728  23.630  1.00  0.00    -0.331 N 
ATOM     18  C   UNL A   1      30.646  29.027  23.425  1.00  0.00     0.263 C 
ATOM     19  C   UNL A   1      28.581  27.809  23.759  1.00  0.00     0.263 C 
ATOM     20  H   UNL A   1      30.366  27.447  24.551  1.00  0.00     0.348 HD
ATOM     21  C   UNL A   1      30.058  29.854  22.287  1.00  0.00     0.069 C 
ATOM     22  C   UNL A   1      27.891  28.607  22.651  1.00  0.00     0.069 C 
ATOM     23  C   UNL A   1      28.522  29.992  22.366  1.00  0.00    -0.008 C 
ATOM     24  C   UNL A   1      28.106  31.007  23.458  1.00  0.00     0.069 C 
ATOM     25  C   UNL A   1      27.990  30.505  21.004  1.00  0.00     0.069 C 
ATOM     26  C   UNL A   1      28.466  32.452  23.095  1.00  0.00     0.261 C 
ATOM     27  C   UNL A   1      28.393  31.952  20.730  1.00  0.00     0.261 C 
ATOM     28  N   UNL A   1      27.929  32.848  21.789  1.00  0.00    -0.346 N 
ATOM     29  H   UNL A   1      28.234  33.798  21.579  1.00  0.00     0.346 HD
ATOM     30  H   UNL A   1      26.911  32.797  21.832  1.00  0.00     0.346 HD
ENDBRANCH  16  17
ENDBRANCH  12  16
ENDBRANCH   9  10
ENDBRANCH   8   9
ENDBRANCH   6   8
ENDBRANCH   3   4
ENDBRANCH   2   3
ENDBRANCH   1   2
BRANCH   1  31
ATOM     31  C   UNL A   1      35.031  21.853  25.450  1.00  0.00     0.002 C 
BRANCH  31  32
ATOM     32  C   UNL A   1      36.479  21.844  24.958  1.00  0.00     0.021 C 
BRANCH  32  33
ATOM     33  C   UNL A   1      37.475  22.598  25.833  1.00  0.00     0.116 C 
BRANCH  33  34
ATOM     34  N   UNL A   1      38.708  21.856  26.064  1.00  0.00    -0.352 N 
ATOM     35  C   UNL A   1      39.927  22.305  26.509  1.00  0.00     0.251 C 
ATOM     36  H   UNL A   1      38.660  20.892  25.872  1.00  0.00     0.163 HD
ATOM     37  O   UNL A   1      40.893  21.544  26.525  1.00  0.00    -0.269 OA
BRANCH  35  38
ATOM     38  C   UNL A   1      40.087  23.712  26.939  1.00  0.00     0.039 A 
ATOM     39  C   UNL A   1      40.346  23.980  28.286  1.00  0.00     0.014 A 
ATOM     40  C   UNL A   1      40.002  24.758  26.018  1.00  0.00     0.014 A 
ATOM     41  C   UNL A   1      40.600  25.293  28.694  1.00  0.00     0.010 A 
ATOM     42  C   UNL A   1      40.329  26.054  26.412  1.00  0.00     0.010 A 
ATOM     43  C   UNL A   1      40.638  26.333  27.752  1.00  0.00    -0.014 A 
BRANCH  43  44
ATOM     44  C   UNL A   1      41.043  27.710  28.138  1.00  0.00     0.031 A 
ATOM     45  C   UNL A   1      42.494  28.103  28.161  1.00  0.00     0.074 A 
ATOM     46  C   UNL A   1      40.105  28.577  28.570  1.00  0.00     0.049 A 
ATOM     47  N   UNL A   1      43.036  29.231  28.542  1.00  0.00    -0.248 NA
ATOM     48  C   UNL A   1      43.465  27.086  27.728  1.00  0.00     0.031 C 
ATOM     49  C   UNL A   1      38.675  28.286  28.680  1.00  0.00     0.029 A 
ATOM     50  N   UNL A   1      40.219  29.864  29.035  1.00  0.00    -0.354 N 
ATOM     51  C   UNL A   1      44.409  29.051  28.425  1.00  0.00     0.074 A 
ATOM     52  C   UNL A   1      44.618  27.691  27.974  1.00  0.00     0.031 C 
ATOM     53  C   UNL A   1      38.045  29.357  29.187  1.00  0.00     0.029 A 
ATOM     54  C   UNL A   1      39.028  30.397  29.473  1.00  0.00     0.049 A 
ATOM     55  H   UNL A   1      41.070  30.358  29.052  1.00  0.00     0.167 HD
ATOM     56  C   UNL A   1      45.406  29.942  28.645  1.00  0.00     0.034 A 
ATOM     57  C   UNL A   1      38.758  31.579  30.061  1.00  0.00     0.034 A 
ATOM     58  C   UNL A   1      45.192  31.299  29.074  1.00  0.00     0.049 A 
ATOM     59  C   UNL A   1      39.875  32.563  30.275  1.00  0.00     0.074 A 
ATOM     60  C   UNL A   1      46.126  32.306  29.240  1.00  0.00     0.029 A 
ATOM     61  N   UNL A   1      43.962  31.834  29.427  1.00  0.00    -0.354 N 
ATOM     62  N   UNL A   1      41.150  32.435  29.997  1.00  0.00    -0.248 NA
ATOM     63  C   UNL A   1      39.514  33.867  30.849  1.00  0.00     0.031 C 
ATOM     64  C   UNL A   1      45.465  33.439  29.727  1.00  0.00     0.029 A 
ATOM     65  C   UNL A   1      44.114  33.150  29.828  1.00  0.00     0.049 A 
ATOM     66  H   UNL A   1      43.106  31.349  29.395  1.00  0.00     0.167 HD
ATOM     67  C   UNL A   1      41.739  33.646  30.338  1.00  0.00     0.074 A 
ATOM     68  C   UNL A   1      40.676  34.505  30.819  1.00  0.00     0.031 C 
ATOM     69  C   UNL A   1      43.044  34.009  30.272  1.00  0.00     0.034 A 
BRANCH  56  70
ATOM     70  C   UNL A   1      46.819  29.484  28.386  1.00  0.00     0.023 A 
ATOM     71  C   UNL A   1      47.413  29.731  27.130  1.00  0.00     0.012 A 
ATOM     72  C   UNL A   1      47.571  28.841  29.388  1.00  0.00     0.148 A 
ATOM     73  C   UNL A   1      48.712  29.302  26.860  1.00  0.00     0.002 A 
ATOM     74  C   UNL A   1      48.884  28.462  29.127  1.00  0.00     0.091 A 
ATOM     75  F   UNL A   1      46.988  28.597  30.570  1.00  0.00    -0.205 F 
ATOM     76  C   UNL A   1      49.449  28.677  27.860  1.00  0.00     0.022 A 
BRANCH  74  77
ATOM     77  S   UNL A   1      49.944  27.723  30.376  1.00  0.00     0.127 S 
ATOM     78  O   UNL A   1      50.233  28.872  31.233  1.00  0.00    -0.237 OA
ATOM     79  O   UNL A   1      49.061  26.722  30.975  1.00  0.00    -0.237 OA
ATOM     80  O   UNL A   1      51.085  27.174  29.657  1.00  0.00    -0.744 OA
ENDBRANCH  74  77
ENDBRANCH  56  70
BRANCH  57  81
ATOM     81  C   UNL A   1      37.358  31.901  30.454  1.00  0.00     0.023 A 
ATOM     82  C   UNL A   1      36.906  31.587  31.750  1.00  0.00     0.012 A 
ATOM     83  C   UNL A   1      36.491  32.568  29.565  1.00  0.00     0.148 A 
ATOM     84  C   UNL A   1      35.606  31.907  32.146  1.00  0.00     0.002 A 
ATOM     85  C   UNL A   1      35.218  32.938  29.986  1.00  0.00     0.091 A 
ATOM     86  F   UNL A   1      36.938  32.851  28.334  1.00  0.00    -0.205 F 
ATOM     87  C   UNL A   1      34.768  32.593  31.270  1.00  0.00     0.022 A 
BRANCH  85  88
ATOM     88  S   UNL A   1      34.123  33.944  28.978  1.00  0.00     0.127 S 
ATOM     89  O   UNL A   1      33.127  34.373  29.956  1.00  0.00    -0.237 OA
ATOM     90  O   UNL A   1      35.027  34.997  28.514  1.00  0.00    -0.237 OA
ATOM     91  O   UNL A   1      33.634  33.065  27.925  1.00  0.00    -0.744 OA
ENDBRANCH  85  88
ENDBRANCH  57  81
BRANCH  69  92
ATOM     92  C   UNL A   1      43.405  35.406  30.709  1.00  0.00     0.023 A 
ATOM     93  C   UNL A   1      43.809  35.645  32.038  1.00  0.00     0.012 A 
ATOM     94  C   UNL A   1      43.417  36.468  29.782  1.00  0.00     0.148 A 
ATOM     95  C   UNL A   1      44.190  36.923  32.444  1.00  0.00     0.002 A 
ATOM     96  C   UNL A   1      43.846  37.727  30.181  1.00  0.00     0.091 A 
ATOM     97  F   UNL A   1      43.013  36.224  28.527  1.00  0.00    -0.205 F 
ATOM     98  C   UNL A   1      44.220  37.960  31.514  1.00  0.00     0.022 A 
BRANCH  96  99
ATOM     99  S   UNL A   1      44.011  39.101  29.035  1.00  0.00     0.127 S 
ATOM    100  O   UNL A   1      42.972  40.013  29.512  1.00  0.00    -0.237 OA
ATOM    101  O   UNL A   1      45.380  39.551  29.288  1.00  0.00    -0.237 OA
ATOM    102  O   UNL A   1      43.791  38.547  27.706  1.00  0.00    -0.744 OA
ENDBRANCH  96  99
ENDBRANCH  69  92
ENDBRANCH  43  44
ENDBRANCH  35  38
ENDBRANCH  33  34
ENDBRANCH  32  33
ENDBRANCH  31  32
ENDBRANCH   1  31
TORSDOF 20
ENDMDL
MODEL 2
REMARK VINA RESULT:     -11.3      5.219      9.137
REMARK SMILES O=C(COc1ccccc1C[NH+]1CCC2(CC[NH2+]CC2)CC1)NCCCCCCNC(=O)c1ccc(-c2c3nc(c(-c4cccc(S(=O)(=O)[O-])c4F)c4ccc([nH]4)c(-c4cccc(S(=O)(=O)[O-])c4F)c4nc(c(-c5cccc(S(=O)(=O)[O-])c5F)c5ccc2[nH]5)C=C4)C=C3)cc1
REMARK SMILES IDX 26 1 25 2 24 3 23 4 1 5 2 6 3 8 4 9 5 10 6 11 10 12 7 13
REMARK SMILES IDX 9 14 8 15 11 16 12 17 13 18 22 19 14 21 21 22 15 23 16 24
REMARK SMILES IDX 20 25 17 26 19 27 18 28 27 31 28 32 29 33 30 34 31 35 32 37
REMARK SMILES IDX 33 38 34 39 95 40 35 41 94 42 36 43 37 44 38 45 88 46 39 47
REMARK SMILES IDX 93 48 87 49 89 50 40 51 92 52 86 53 85 54 41 56 73 57 53 58
REMARK SMILES IDX 72 59 54 60 57 61 71 62 90 63 55 64 56 65 70 67 91 68 58 69
REMARK SMILES IDX 42 70 43 71 51 72 44 73 46 74 52 75 45 76 47 77 48 78 49 79
REMARK SMILES IDX 50 80 74 81 75 82 83 83 76 84 78 85 84 86 77 87 79 88 80 89
REMARK SMILES IDX 81 90 82 91 59 92 60 93 68 94 61 95 63 96 69 97 62 98 64 99
REMARK SMILES IDX 65 100 66 101 67 102
REMARK H PARENT 23 7 12 20 18 29 18 30 30 36 89 55 57 66
REMARK Flexibility Score: inf
ROOT
ATOM      1  C   UNL A   1      33.158  29.633  27.110  1.00  0.00     0.002 C 
ENDROOT
BRANCH   1   2
ATOM      2  C   UNL A   1      33.049  28.114  27.278  1.00  0.00     0.021 C 
BRANCH   2   3
ATOM      3  C   UNL A   1      31.646  27.525  27.185  1.00  0.00     0.116 C 
BRANCH   3   4
ATOM      4  N   UNL A   1      31.206  27.176  25.842  1.00  0.00    -0.353 N 
ATOM      5  O   UNL A   1      29.921  25.349  26.418  1.00  0.00    -0.271 OA
ATOM      6  C   UNL A   1      30.198  26.250  25.629  1.00  0.00     0.257 C 
ATOM      7  H   UNL A   1      31.635  27.608  25.068  1.00  0.00     0.163 HD
BRANCH   6   8
ATOM      8  C   UNL A   1      29.399  26.462  24.334  1.00  0.00     0.329 C 
BRANCH   8   9
ATOM      9  O   UNL A   1      30.172  26.182  23.161  1.00  0.00    -0.483 OA
BRANCH   9  10
ATOM     10  C   UNL A   1      31.237  27.037  22.994  1.00  0.00     0.128 A 
ATOM     11  C   UNL A   1      30.955  28.408  23.012  1.00  0.00     0.047 A 
ATOM     12  C   UNL A   1      32.513  26.591  22.607  1.00  0.00     0.048 A 
ATOM     13  C   UNL A   1      31.953  29.340  22.709  1.00  0.00     0.004 A 
ATOM     14  C   UNL A   1      33.525  27.545  22.400  1.00  0.00     0.013 A 
ATOM     15  C   UNL A   1      33.244  28.910  22.428  1.00  0.00     0.001 A 
BRANCH  12  16
ATOM     16  C   UNL A   1      32.840  25.152  22.289  1.00  0.00     0.302 C 
BRANCH  16  17
ATOM     17  N   UNL A   1      32.873  24.200  23.402  1.00  0.00    -0.331 N 
ATOM     18  C   UNL A   1      33.509  22.913  23.180  1.00  0.00     0.263 C 
ATOM     19  C   UNL A   1      33.154  24.744  24.722  1.00  0.00     0.263 C 
ATOM     20  H   UNL A   1      31.878  23.975  23.409  1.00  0.00     0.348 HD
ATOM     21  C   UNL A   1      35.007  22.871  23.464  1.00  0.00     0.069 C 
ATOM     22  C   UNL A   1      34.637  24.763  25.097  1.00  0.00     0.069 C 
ATOM     23  C   UNL A   1      35.378  23.426  24.856  1.00  0.00    -0.008 C 
ATOM     24  C   UNL A   1      35.033  22.411  25.973  1.00  0.00     0.069 C 
ATOM     25  C   UNL A   1      36.904  23.692  24.904  1.00  0.00     0.069 C 
ATOM     26  C   UNL A   1      35.935  21.172  25.951  1.00  0.00     0.261 C 
ATOM     27  C   UNL A   1      37.721  22.403  24.883  1.00  0.00     0.261 C 
ATOM     28  N   UNL A   1      37.359  21.520  25.991  1.00  0.00    -0.346 N 
ATOM     29  H   UNL A   1      37.912  20.665  25.929  1.00  0.00     0.346 HD
ATOM     30  H   UNL A   1      37.546  22.008  26.866  1.00  0.00     0.346 HD
ENDBRANCH  16  17
ENDBRANCH  12  16
ENDBRANCH   9  10
ENDBRANCH   8   9
ENDBRANCH   6   8
ENDBRANCH   3   4
ENDBRANCH   2   3
ENDBRANCH   1   2
BRANCH   1  31
ATOM     31  C   UNL A   1      32.037  30.325  26.331  1.00  0.00     0.002 C 
BRANCH  31  32
ATOM     32  C   UNL A   1      31.742  31.782  26.692  1.00  0.00     0.021 C 
BRANCH  32  33
ATOM     33  C   UNL A   1      32.844  32.504  27.461  1.00  0.00     0.116 C 
BRANCH  33  34
ATOM     34  N   UNL A   1      32.535  33.904  27.721  1.00  0.00    -0.352 N 
ATOM     35  C   UNL A   1      33.119  34.778  28.606  1.00  0.00     0.251 C 
ATOM     36  H   UNL A   1      31.800  34.279  27.184  1.00  0.00     0.163 HD
ATOM     37  O   UNL A   1      32.638  35.897  28.771  1.00  0.00    -0.269 OA
BRANCH  35  38
ATOM     38  C   UNL A   1      34.308  34.362  29.381  1.00  0.00     0.039 A 
ATOM     39  C   UNL A   1      34.124  33.767  30.632  1.00  0.00     0.014 A 
ATOM     40  C   UNL A   1      35.597  34.539  28.870  1.00  0.00     0.014 A 
ATOM     41  C   UNL A   1      35.228  33.276  31.334  1.00  0.00     0.010 A 
ATOM     42  C   UNL A   1      36.686  33.983  29.536  1.00  0.00     0.010 A 
ATOM     43  C   UNL A   1      36.513  33.339  30.771  1.00  0.00    -0.014 A 
BRANCH  43  44
ATOM     44  C   UNL A   1      37.679  32.700  31.434  1.00  0.00     0.031 A 
ATOM     45  C   UNL A   1      38.365  31.520  30.805  1.00  0.00     0.074 A 
ATOM     46  C   UNL A   1      38.054  33.120  32.659  1.00  0.00     0.049 A 
ATOM     47  N   UNL A   1      39.345  30.791  31.272  1.00  0.00    -0.248 NA
ATOM     48  C   UNL A   1      37.865  31.083  29.492  1.00  0.00     0.031 C 
ATOM     49  C   UNL A   1      37.411  34.197  33.415  1.00  0.00     0.029 A 
ATOM     50  N   UNL A   1      39.040  32.668  33.500  1.00  0.00    -0.354 N 
ATOM     51  C   UNL A   1      39.560  29.793  30.330  1.00  0.00     0.074 A 
ATOM     52  C   UNL A   1      38.581  29.987  29.281  1.00  0.00     0.031 C 
ATOM     53  C   UNL A   1      38.011  34.317  34.609  1.00  0.00     0.029 A 
ATOM     54  C   UNL A   1      39.056  33.303  34.721  1.00  0.00     0.049 A 
ATOM     55  H   UNL A   1      39.675  31.957  33.254  1.00  0.00     0.167 HD
ATOM     56  C   UNL A   1      40.502  28.819  30.320  1.00  0.00     0.034 A 
ATOM     57  C   UNL A   1      39.809  33.084  35.816  1.00  0.00     0.034 A 
ATOM     58  C   UNL A   1      41.486  28.641  31.356  1.00  0.00     0.049 A 
ATOM     59  C   UNL A   1      40.864  32.014  35.777  1.00  0.00     0.074 A 
ATOM     60  C   UNL A   1      42.537  27.743  31.398  1.00  0.00     0.029 A 
ATOM     61  N   UNL A   1      41.528  29.361  32.540  1.00  0.00    -0.354 N 
ATOM     62  N   UNL A   1      41.165  31.188  34.804  1.00  0.00    -0.248 NA
ATOM     63  C   UNL A   1      41.709  31.867  36.971  1.00  0.00     0.031 C 
ATOM     64  C   UNL A   1      43.193  27.896  32.625  1.00  0.00     0.029 A 
ATOM     65  C   UNL A   1      42.574  28.915  33.330  1.00  0.00     0.049 A 
ATOM     66  H   UNL A   1      40.905  30.084  32.784  1.00  0.00     0.167 HD
ATOM     67  C   UNL A   1      42.246  30.441  35.256  1.00  0.00     0.074 A 
ATOM     68  C   UNL A   1      42.565  30.931  36.582  1.00  0.00     0.031 C 
ATOM     69  C   UNL A   1      42.906  29.433  34.635  1.00  0.00     0.034 A 
BRANCH  56  70
ATOM     70  C   UNL A   1      40.534  27.893  29.131  1.00  0.00     0.023 A 
ATOM     71  C   UNL A   1      39.621  26.820  29.057  1.00  0.00     0.012 A 
ATOM     72  C   UNL A   1      41.440  28.100  28.071  1.00  0.00     0.148 A 
ATOM     73  C   UNL A   1      39.641  25.940  27.975  1.00  0.00     0.002 A 
ATOM     74  C   UNL A   1      41.420  27.248  26.972  1.00  0.00     0.091 A 
ATOM     75  F   UNL A   1      42.313  29.112  28.164  1.00  0.00    -0.205 F 
ATOM     76  C   UNL A   1      40.533  26.160  26.930  1.00  0.00     0.022 A 
BRANCH  74  77
ATOM     77  S   UNL A   1      42.473  27.494  25.537  1.00  0.00     0.127 S 
ATOM     78  O   UNL A   1      42.165  26.308  24.740  1.00  0.00    -0.237 OA
ATOM     79  O   UNL A   1      41.956  28.749  24.989  1.00  0.00    -0.237 OA
ATOM     80  O   UNL A   1      43.834  27.570  26.049  1.00  0.00    -0.744 OA
ENDBRANCH  74  77
ENDBRANCH  56  70
BRANCH  57  81
ATOM     81  C   UNL A   1      39.606  33.925  37.029  1.00  0.00     0.023 A 
ATOM     82  C   UNL A   1      40.002  35.276  37.016  1.00  0.00     0.012 A 
ATOM     83  C   UNL A   1      38.970  33.405  38.174  1.00  0.00     0.148 A 
ATOM     84  C   UNL A   1      39.793  36.088  38.133  1.00  0.00     0.002 A 
ATOM     85  C   UNL A   1      38.712  34.234  39.260  1.00  0.00     0.091 A 
ATOM     86  F   UNL A   1      38.608  32.114  38.168  1.00  0.00    -0.205 F 
ATOM     87  C   UNL A   1      39.138  35.571  39.248  1.00  0.00     0.022 A 
BRANCH  85  88
ATOM     88  S   UNL A   1      37.751  33.695  40.678  1.00  0.00     0.127 S 
ATOM     89  O   UNL A   1      37.510  34.957  41.373  1.00  0.00    -0.237 OA
ATOM     90  O   UNL A   1      36.574  33.109  40.037  1.00  0.00    -0.237 OA
ATOM     91  O   UNL A   1      38.590  32.737  41.385  1.00  0.00    -0.744 OA
ENDBRANCH  85  88
ENDBRANCH  57  81
BRANCH  69  92
ATOM     92  C   UNL A   1      44.059  28.796  35.366  1.00  0.00     0.023 A 
ATOM     93  C   UNL A   1      45.368  29.287  35.179  1.00  0.00     0.012 A 
ATOM     94  C   UNL A   1      43.837  27.761  36.297  1.00  0.00     0.148 A 
ATOM     95  C   UNL A   1      46.438  28.739  35.884  1.00  0.00     0.002 A 
ATOM     96  C   UNL A   1      44.901  27.255  37.033  1.00  0.00     0.091 A 
ATOM     97  F   UNL A   1      42.589  27.297  36.448  1.00  0.00    -0.205 F 
ATOM     98  C   UNL A   1      46.204  27.733  36.818  1.00  0.00     0.022 A 
BRANCH  96  99
ATOM     99  S   UNL A   1      44.684  26.026  38.326  1.00  0.00     0.127 S 
ATOM    100  O   UNL A   1      44.232  24.866  37.561  1.00  0.00    -0.237 OA
ATOM    101  O   UNL A   1      46.038  25.909  38.869  1.00  0.00    -0.237 OA
ATOM    102  O   UNL A   1      43.707  26.582  39.251  1.00  0.00    -0.744 OA
ENDBRANCH  96  99
ENDBRANCH  69  92
ENDBRANCH  43  44
ENDBRANCH  35  38
ENDBRANCH  33  34
ENDBRANCH  32  33
ENDBRANCH  31  32
ENDBRANCH   1  31
TORSDOF 20
ENDMDL
MODEL 3
REMARK VINA RESULT:     -11.2      2.900      3.395
REMARK SMILES O=C(COc1ccccc1C[NH+]1CCC2(CC[NH2+]CC2)CC1)NCCCCCCNC(=O)c1ccc(-c2c3nc(c(-c4cccc(S(=O)(=O)[O-])c4F)c4ccc([nH]4)c(-c4cccc(S(=O)(=O)[O-])c4F)c4nc(c(-c5cccc(S(=O)(=O)[O-])c5F)c5ccc2[nH]5)C=C4)C=C3)cc1
REMARK SMILES IDX 26 1 25 2 24 3 23 4 1 5 2 6 3 8 4 9 5 10 6 11 10 12 7 13
REMARK SMILES IDX 9 14 8 15 11 16 12 17 13 18 22 19 14 21 21 22 15 23 16 24
REMARK SMILES IDX 20 25 17 26 19 27 18 28 27 31 28 32 29 33 30 34 31 35 32 37
REMARK SMILES IDX 33 38 34 39 95 40 35 41 94 42 36 43 37 44 38 45 88 46 39 47
REMARK SMILES IDX 93 48 87 49 89 50 40 51 92 52 86 53 85 54 41 56 73 57 53 58
REMARK SMILES IDX 72 59 54 60 57 61 71 62 90 63 55 64 56 65 70 67 91 68 58 69
REMARK SMILES IDX 42 70 43 71 51 72 44 73 46 74 52 75 45 76 47 77 48 78 49 79
REMARK SMILES IDX 50 80 74 81 75 82 83 83 76 84 78 85 84 86 77 87 79 88 80 89
REMARK SMILES IDX 81 90 82 91 59 92 60 93 68 94 61 95 63 96 69 97 62 98 64 99
REMARK SMILES IDX 65 100 66 101 67 102
REMARK H PARENT 23 7 12 20 18 29 18 30 30 36 89 55 57 66
REMARK Flexibility Score: inf
ROOT
ATOM      1  C   UNL A   1      33.721  21.222  25.640  1.00  0.00     0.002 C 
ENDROOT
BRANCH   1   2
ATOM      2  C   UNL A   1      32.573  21.917  24.901  1.00  0.00     0.021 C 
BRANCH   2   3
ATOM      3  C   UNL A   1      31.176  21.707  25.476  1.00  0.00     0.116 C 
BRANCH   3   4
ATOM      4  N   UNL A   1      30.374  22.912  25.617  1.00  0.00    -0.353 N 
ATOM      5  O   UNL A   1      31.365  23.703  27.544  1.00  0.00    -0.271 OA
ATOM      6  C   UNL A   1      30.712  23.905  26.522  1.00  0.00     0.257 C 
ATOM      7  H   UNL A   1      29.572  23.025  25.056  1.00  0.00     0.163 HD
BRANCH   6   8
ATOM      8  C   UNL A   1      30.249  25.316  26.126  1.00  0.00     0.329 C 
BRANCH   8   9
ATOM      9  O   UNL A   1      31.346  26.201  25.868  1.00  0.00    -0.483 OA
BRANCH   9  10
ATOM     10  C   UNL A   1      32.164  25.771  24.850  1.00  0.00     0.128 A 
ATOM     11  C   UNL A   1      33.475  25.421  25.196  1.00  0.00     0.047 A 
ATOM     12  C   UNL A   1      31.803  25.873  23.494  1.00  0.00     0.048 A 
ATOM     13  C   UNL A   1      34.411  25.112  24.205  1.00  0.00     0.004 A 
ATOM     14  C   UNL A   1      32.731  25.464  22.519  1.00  0.00     0.013 A 
ATOM     15  C   UNL A   1      34.032  25.108  22.867  1.00  0.00     0.001 A 
BRANCH  12  16
ATOM     16  C   UNL A   1      30.519  26.500  23.011  1.00  0.00     0.302 C 
BRANCH  16  17
ATOM     17  N   UNL A   1      30.015  27.666  23.741  1.00  0.00    -0.331 N 
ATOM     18  C   UNL A   1      30.662  28.947  23.511  1.00  0.00     0.263 C 
ATOM     19  C   UNL A   1      28.570  27.784  23.870  1.00  0.00     0.263 C 
ATOM     20  H   UNL A   1      30.347  27.395  24.665  1.00  0.00     0.348 HD
ATOM     21  C   UNL A   1      30.091  29.767  22.359  1.00  0.00     0.069 C 
ATOM     22  C   UNL A   1      27.896  28.578  22.749  1.00  0.00     0.069 C 
ATOM     23  C   UNL A   1      28.559  29.941  22.438  1.00  0.00    -0.008 C 
ATOM     24  C   UNL A   1      28.169  30.986  23.511  1.00  0.00     0.069 C 
ATOM     25  C   UNL A   1      28.036  30.442  21.068  1.00  0.00     0.069 C 
ATOM     26  C   UNL A   1      28.562  32.415  23.122  1.00  0.00     0.261 C 
ATOM     27  C   UNL A   1      28.472  31.874  20.767  1.00  0.00     0.261 C 
ATOM     28  N   UNL A   1      28.032  32.800  21.810  1.00  0.00    -0.346 N 
ATOM     29  H   UNL A   1      28.358  33.738  21.582  1.00  0.00     0.346 HD
ATOM     30  H   UNL A   1      27.013  32.773  21.855  1.00  0.00     0.346 HD
ENDBRANCH  16  17
ENDBRANCH  12  16
ENDBRANCH   9  10
ENDBRANCH   8   9
ENDBRANCH   6   8
ENDBRANCH   3   4
ENDBRANCH   2   3
ENDBRANCH   1   2
BRANCH   1  31
ATOM     31  C   UNL A   1      34.950  22.074  25.965  1.00  0.00     0.002 C 
BRANCH  31  32
ATOM     32  C   UNL A   1      36.189  21.860  25.094  1.00  0.00     0.021 C 
BRANCH  32  33
ATOM     33  C   UNL A   1      37.482  22.467  25.630  1.00  0.00     0.116 C 
BRANCH  33  34
ATOM     34  N   UNL A   1      38.437  21.466  26.086  1.00  0.00    -0.352 N 
ATOM     35  C   UNL A   1      39.676  21.635  26.654  1.00  0.00     0.251 C 
ATOM     36  H   UNL A   1      38.152  20.530  25.970  1.00  0.00     0.163 HD
ATOM     37  O   UNL A   1      40.393  20.658  26.864  1.00  0.00    -0.269 OA
BRANCH  35  38
ATOM     38  C   UNL A   1      40.161  22.993  26.983  1.00  0.00     0.039 A 
ATOM     39  C   UNL A   1      41.086  23.147  28.019  1.00  0.00     0.014 A 
ATOM     40  C   UNL A   1      39.722  24.106  26.262  1.00  0.00     0.014 A 
ATOM     41  C   UNL A   1      41.632  24.407  28.278  1.00  0.00     0.010 A 
ATOM     42  C   UNL A   1      40.322  25.346  26.472  1.00  0.00     0.010 A 
ATOM     43  C   UNL A   1      41.288  25.507  27.477  1.00  0.00    -0.014 A 
BRANCH  43  44
ATOM     44  C   UNL A   1      41.959  26.824  27.643  1.00  0.00     0.031 A 
ATOM     45  C   UNL A   1      43.381  27.019  27.196  1.00  0.00     0.074 A 
ATOM     46  C   UNL A   1      41.317  27.814  28.295  1.00  0.00     0.049 A 
ATOM     47  N   UNL A   1      44.149  28.070  27.328  1.00  0.00    -0.248 NA
ATOM     48  C   UNL A   1      44.035  25.876  26.541  1.00  0.00     0.031 C 
ATOM     49  C   UNL A   1      39.969  27.717  28.857  1.00  0.00     0.029 A 
ATOM     50  N   UNL A   1      41.727  29.080  28.630  1.00  0.00    -0.354 N 
ATOM     51  C   UNL A   1      45.383  27.707  26.803  1.00  0.00     0.074 A 
ATOM     52  C   UNL A   1      45.273  26.325  26.385  1.00  0.00     0.031 C 
ATOM     53  C   UNL A   1      39.665  28.870  29.474  1.00  0.00     0.029 A 
ATOM     54  C   UNL A   1      40.808  29.773  29.385  1.00  0.00     0.049 A 
ATOM     55  H   UNL A   1      42.594  29.457  28.357  1.00  0.00     0.167 HD
ATOM     56  C   UNL A   1      46.500  28.460  26.655  1.00  0.00     0.034 A 
ATOM     57  C   UNL A   1      40.883  30.989  29.961  1.00  0.00     0.034 A 
ATOM     58  C   UNL A   1      46.599  29.839  27.055  1.00  0.00     0.049 A 
ATOM     59  C   UNL A   1      42.121  31.818  29.766  1.00  0.00     0.074 A 
ATOM     60  C   UNL A   1      47.653  30.715  26.868  1.00  0.00     0.029 A 
ATOM     61  N   UNL A   1      45.616  30.538  27.739  1.00  0.00    -0.354 N 
ATOM     62  N   UNL A   1      43.220  31.518  29.116  1.00  0.00    -0.248 NA
ATOM     63  C   UNL A   1      42.120  33.166  30.350  1.00  0.00     0.031 C 
ATOM     64  C   UNL A   1      47.322  31.933  27.473  1.00  0.00     0.029 A 
ATOM     65  C   UNL A   1      46.046  31.828  28.002  1.00  0.00     0.049 A 
ATOM     66  H   UNL A   1      44.741  30.172  28.000  1.00  0.00     0.167 HD
ATOM     67  C   UNL A   1      44.030  32.644  29.191  1.00  0.00     0.074 A 
ATOM     68  C   UNL A   1      43.284  33.644  29.929  1.00  0.00     0.031 C 
ATOM     69  C   UNL A   1      45.282  32.828  28.706  1.00  0.00     0.034 A 
BRANCH  56  70
ATOM     70  C   UNL A   1      47.693  27.814  25.999  1.00  0.00     0.023 A 
ATOM     71  C   UNL A   1      48.634  27.121  26.790  1.00  0.00     0.012 A 
ATOM     72  C   UNL A   1      47.870  27.859  24.602  1.00  0.00     0.148 A 
ATOM     73  C   UNL A   1      49.755  26.528  26.210  1.00  0.00     0.002 A 
ATOM     74  C   UNL A   1      48.964  27.222  24.025  1.00  0.00     0.091 A 
ATOM     75  F   UNL A   1      46.978  28.536  23.865  1.00  0.00    -0.205 F 
ATOM     76  C   UNL A   1      49.914  26.571  24.828  1.00  0.00     0.022 A 
BRANCH  74  77
ATOM     77  S   UNL A   1      49.215  27.150  22.248  1.00  0.00     0.127 S 
ATOM     78  O   UNL A   1      48.625  28.415  21.816  1.00  0.00    -0.237 OA
ATOM     79  O   UNL A   1      50.674  27.092  22.146  1.00  0.00    -0.237 OA
ATOM     80  O   UNL A   1      48.527  25.949  21.795  1.00  0.00    -0.744 OA
ENDBRANCH  74  77
ENDBRANCH  56  70
BRANCH  57  81
ATOM     81  C   UNL A   1      39.726  31.501  30.749  1.00  0.00     0.023 A 
ATOM     82  C   UNL A   1      38.622  32.066  30.082  1.00  0.00     0.012 A 
ATOM     83  C   UNL A   1      39.695  31.379  32.153  1.00  0.00     0.148 A 
ATOM     84  C   UNL A   1      37.517  32.524  30.802  1.00  0.00     0.002 A 
ATOM     85  C   UNL A   1      38.566  31.783  32.857  1.00  0.00     0.091 A 
ATOM     86  F   UNL A   1      40.759  30.846  32.768  1.00  0.00    -0.205 F 
ATOM     87  C   UNL A   1      37.484  32.372  32.186  1.00  0.00     0.022 A 
BRANCH  85  88
ATOM     88  S   UNL A   1      38.376  31.497  34.621  1.00  0.00     0.127 S 
ATOM     89  O   UNL A   1      39.461  32.304  35.173  1.00  0.00    -0.237 OA
ATOM     90  O   UNL A   1      37.032  32.018  34.866  1.00  0.00    -0.237 OA
ATOM     91  O   UNL A   1      38.505  30.058  34.805  1.00  0.00    -0.744 OA
ENDBRANCH  85  88
ENDBRANCH  57  81
BRANCH  69  92
ATOM     92  C   UNL A   1      45.930  34.171  28.932  1.00  0.00     0.023 A 
ATOM     93  C   UNL A   1      46.787  34.361  30.035  1.00  0.00     0.012 A 
ATOM     94  C   UNL A   1      45.749  35.221  28.010  1.00  0.00     0.148 A 
ATOM     95  C   UNL A   1      47.429  35.583  30.231  1.00  0.00     0.002 A 
ATOM     96  C   UNL A   1      46.431  36.417  28.184  1.00  0.00     0.091 A 
ATOM     97  F   UNL A   1      44.916  35.025  26.977  1.00  0.00    -0.205 F 
ATOM     98  C   UNL A   1      47.261  36.605  29.301  1.00  0.00     0.022 A 
BRANCH  96  99
ATOM     99  S   UNL A   1      46.354  37.758  26.989  1.00  0.00     0.127 S 
ATOM    100  O   UNL A   1      44.931  38.090  27.006  1.00  0.00    -0.237 OA
ATOM    101  O   UNL A   1      47.223  38.765  27.599  1.00  0.00    -0.237 OA
ATOM    102  O   UNL A   1      46.850  37.209  25.735  1.00  0.00    -0.744 OA
ENDBRANCH  96  99
ENDBRANCH  69  92
ENDBRANCH  43  44
ENDBRANCH  35  38
ENDBRANCH  33  34
ENDBRANCH  32  33
ENDBRANCH  31  32
ENDBRANCH   1  31
TORSDOF 20
ENDMDL
