MODEL 1
REMARK VINA RESULT:     -11.3      0.000      0.000
REMARK SMILES O=C(NCCCCCCNC(=O)c1ccc(-n2cc(CSc3nc4ccccc4c(=O)n3-c3ccc(Br)cc3)nn2)cc1)c1ccc(-c2c3nc(c(-c4cccc(S(=O)(=O)[O-])c4F)c4ccc([nH]4)c(-c4cccc(S(=O)(=O)[O-])c4F)c4nc(c(-c5cccc(S(=O)(=O)[O-])c5F)c5ccc2[nH]5)C=C4)C=C3)cc1
REMARK SMILES IDX 7 1 6 2 5 3 4 4 3 5 1 6 2 7 44 9 45 10 106 11 46 12 105 13
REMARK SMILES IDX 47 14 48 15 49 16 99 17 50 18 104 19 98 20 100 21 51 22
REMARK SMILES IDX 103 23 97 24 96 25 52 27 84 28 64 29 83 30 65 31 68 32 82 33
REMARK SMILES IDX 101 34 66 35 67 36 81 38 102 39 69 40 53 41 54 42 62 43
REMARK SMILES IDX 55 44 57 45 63 46 56 47 58 48 59 49 60 50 61 51 85 52 86 53
REMARK SMILES IDX 94 54 87 55 89 56 95 57 88 58 90 59 91 60 92 61 93 62 70 63
REMARK SMILES IDX 71 64 79 65 72 66 74 67 80 68 73 69 75 70 76 71 77 72 78 73
REMARK SMILES IDX 8 74 9 75 10 76 11 77 12 79 13 80 14 81 43 82 15 83 42 84
REMARK SMILES IDX 16 85 17 86 18 87 41 88 19 89 40 90 20 91 21 92 22 93 23 94
REMARK SMILES IDX 32 95 24 96 30 97 25 98 29 99 31 100 26 101 28 102 27 103
REMARK SMILES IDX 33 104 34 105 39 106 35 107 38 108 36 109 37 110
REMARK H PARENT 3 8 100 26 68 37 10 78
REMARK Flexibility Score: inf
ROOT
ATOM      1  C   UNL A   1      35.657  34.972  33.003  1.00  0.00     0.002 C 
ENDROOT
BRANCH   1   2
ATOM      2  C   UNL A   1      34.251  35.122  32.415  1.00  0.00     0.002 C 
BRANCH   2   3
ATOM      3  C   UNL A   1      34.060  34.583  30.993  1.00  0.00     0.021 C 
BRANCH   3   4
ATOM      4  C   UNL A   1      34.963  33.408  30.615  1.00  0.00     0.116 C 
BRANCH   4   5
ATOM      5  N   UNL A   1      34.689  32.837  29.314  1.00  0.00    -0.352 N 
ATOM      6  O   UNL A   1      34.624  31.524  27.546  1.00  0.00    -0.269 OA
ATOM      7  C   UNL A   1      35.237  31.827  28.574  1.00  0.00     0.251 C 
ATOM      8  H   UNL A   1      33.934  33.276  28.859  1.00  0.00     0.163 HD
BRANCH   7   9
ATOM      9  C   UNL A   1      36.519  31.135  28.883  1.00  0.00     0.039 A 
ATOM     10  C   UNL A   1      37.775  31.741  28.947  1.00  0.00     0.014 A 
ATOM     11  C   UNL A   1      36.434  29.746  29.091  1.00  0.00     0.014 A 
ATOM     12  C   UNL A   1      38.923  30.975  29.119  1.00  0.00     0.010 A 
ATOM     13  C   UNL A   1      37.575  28.975  29.285  1.00  0.00     0.010 A 
ATOM     14  C   UNL A   1      38.823  29.591  29.263  1.00  0.00    -0.014 A 
BRANCH  14  15
ATOM     15  C   UNL A   1      40.048  28.844  29.526  1.00  0.00     0.031 A 
ATOM     16  C   UNL A   1      40.331  28.581  30.965  1.00  0.00     0.074 A 
ATOM     17  C   UNL A   1      40.799  28.297  28.550  1.00  0.00     0.049 A 
ATOM     18  N   UNL A   1      41.358  28.943  31.664  1.00  0.00    -0.248 NA
ATOM     19  C   UNL A   1      39.277  27.920  31.749  1.00  0.00     0.031 C 
ATOM     20  C   UNL A   1      40.471  28.205  27.126  1.00  0.00     0.029 A 
ATOM     21  N   UNL A   1      41.950  27.570  28.655  1.00  0.00    -0.354 N 
ATOM     22  C   UNL A   1      41.180  28.365  32.923  1.00  0.00     0.074 A 
ATOM     23  C   UNL A   1      39.819  27.906  32.967  1.00  0.00     0.031 C 
ATOM     24  C   UNL A   1      41.248  27.257  26.557  1.00  0.00     0.029 A 
ATOM     25  C   UNL A   1      42.203  26.779  27.540  1.00  0.00     0.049 A 
ATOM     26  H   UNL A   1      42.541  27.601  29.442  1.00  0.00     0.167 HD
ATOM     27  C   UNL A   1      42.234  28.097  33.746  1.00  0.00     0.034 A 
ATOM     28  C   UNL A   1      43.070  25.740  27.462  1.00  0.00     0.034 A 
ATOM     29  C   UNL A   1      43.406  28.843  33.364  1.00  0.00     0.049 A 
ATOM     30  C   UNL A   1      44.033  25.867  28.578  1.00  0.00     0.074 A 
ATOM     31  C   UNL A   1      43.730  30.176  33.221  1.00  0.00     0.029 A 
ATOM     32  N   UNL A   1      44.412  28.144  32.744  1.00  0.00    -0.354 N 
ATOM     33  N   UNL A   1      44.933  26.805  28.659  1.00  0.00    -0.248 NA
ATOM     34  C   UNL A   1      43.761  25.148  29.811  1.00  0.00     0.031 C 
ATOM     35  C   UNL A   1      44.654  30.219  32.137  1.00  0.00     0.029 A 
ATOM     36  C   UNL A   1      44.864  28.908  31.707  1.00  0.00     0.049 A 
ATOM     37  H   UNL A   1      44.747  27.256  33.002  1.00  0.00     0.167 HD
ATOM     38  C   UNL A   1      45.005  27.095  30.015  1.00  0.00     0.074 A 
ATOM     39  C   UNL A   1      44.369  25.961  30.678  1.00  0.00     0.031 C 
ATOM     40  C   UNL A   1      45.308  28.355  30.448  1.00  0.00     0.034 A 
BRANCH  27  41
ATOM     41  C   UNL A   1      42.352  26.879  34.651  1.00  0.00     0.023 A 
ATOM     42  C   UNL A   1      41.838  27.008  35.966  1.00  0.00     0.012 A 
ATOM     43  C   UNL A   1      43.192  25.769  34.409  1.00  0.00     0.148 A 
ATOM     44  C   UNL A   1      42.237  26.158  37.004  1.00  0.00     0.002 A 
ATOM     45  C   UNL A   1      43.528  24.883  35.430  1.00  0.00     0.091 A 
ATOM     46  F   UNL A   1      43.784  25.612  33.224  1.00  0.00    -0.205 F 
ATOM     47  C   UNL A   1      43.089  25.097  36.736  1.00  0.00     0.022 A 
BRANCH  45  48
ATOM     48  S   UNL A   1      44.587  23.463  35.118  1.00  0.00     0.127 S 
ATOM     49  O   UNL A   1      44.847  22.995  36.484  1.00  0.00    -0.237 OA
ATOM     50  O   UNL A   1      43.698  22.597  34.334  1.00  0.00    -0.237 OA
ATOM     51  O   UNL A   1      45.722  23.972  34.384  1.00  0.00    -0.744 OA
ENDBRANCH  45  48
ENDBRANCH  27  41
BRANCH  28  52
ATOM     52  C   UNL A   1      42.988  24.509  26.644  1.00  0.00     0.023 A 
ATOM     53  C   UNL A   1      44.056  24.164  25.793  1.00  0.00     0.012 A 
ATOM     54  C   UNL A   1      41.991  23.539  26.889  1.00  0.00     0.148 A 
ATOM     55  C   UNL A   1      44.143  22.887  25.226  1.00  0.00     0.002 A 
ATOM     56  C   UNL A   1      42.073  22.275  26.313  1.00  0.00     0.091 A 
ATOM     57  F   UNL A   1      41.014  23.822  27.760  1.00  0.00    -0.205 F 
ATOM     58  C   UNL A   1      43.155  21.941  25.489  1.00  0.00     0.022 A 
BRANCH  56  59
ATOM     59  S   UNL A   1      40.841  21.003  26.619  1.00  0.00     0.127 S 
ATOM     60  O   UNL A   1      41.438  19.838  25.965  1.00  0.00    -0.237 OA
ATOM     61  O   UNL A   1      40.822  20.943  28.077  1.00  0.00    -0.237 OA
ATOM     62  O   UNL A   1      39.616  21.477  25.987  1.00  0.00    -0.744 OA
ENDBRANCH  56  59
ENDBRANCH  28  52
BRANCH  40  63
ATOM     63  C   UNL A   1      45.867  29.339  29.454  1.00  0.00     0.023 A 
ATOM     64  C   UNL A   1      47.239  29.377  29.129  1.00  0.00     0.012 A 
ATOM     65  C   UNL A   1      44.967  30.112  28.701  1.00  0.00     0.148 A 
ATOM     66  C   UNL A   1      47.706  30.187  28.092  1.00  0.00     0.002 A 
ATOM     67  C   UNL A   1      45.428  30.877  27.637  1.00  0.00     0.091 A 
ATOM     68  F   UNL A   1      43.664  30.060  29.019  1.00  0.00    -0.205 F 
ATOM     69  C   UNL A   1      46.799  30.926  27.336  1.00  0.00     0.022 A 
BRANCH  67  70
ATOM     70  S   UNL A   1      44.297  31.734  26.540  1.00  0.00     0.127 S 
ATOM     71  O   UNL A   1      43.815  32.824  27.386  1.00  0.00    -0.237 OA
ATOM     72  O   UNL A   1      45.174  32.151  25.445  1.00  0.00    -0.237 OA
ATOM     73  O   UNL A   1      43.295  30.748  26.151  1.00  0.00    -0.744 OA
ENDBRANCH  67  70
ENDBRANCH  40  63
ENDBRANCH  14  15
ENDBRANCH   7   9
ENDBRANCH   4   5
ENDBRANCH   3   4
ENDBRANCH   2   3
ENDBRANCH   1   2
BRANCH   1  74
ATOM     74  C   UNL A   1      35.727  34.331  34.391  1.00  0.00     0.021 C 
BRANCH  74  75
ATOM     75  C   UNL A   1      36.999  33.532  34.664  1.00  0.00     0.116 C 
BRANCH  75  76
ATOM     76  N   UNL A   1      36.922  32.181  34.131  1.00  0.00    -0.352 N 
ATOM     77  C   UNL A   1      37.621  31.619  33.094  1.00  0.00     0.251 C 
ATOM     78  H   UNL A   1      36.276  31.587  34.577  1.00  0.00     0.163 HD
ATOM     79  O   UNL A   1      37.334  30.506  32.665  1.00  0.00    -0.269 OA
BRANCH  77  80
ATOM     80  C   UNL A   1      38.728  32.374  32.474  1.00  0.00     0.039 A 
ATOM     81  C   UNL A   1      38.432  33.514  31.719  1.00  0.00     0.016 A 
ATOM     82  C   UNL A   1      40.047  31.939  32.623  1.00  0.00     0.016 A 
ATOM     83  C   UNL A   1      39.467  34.267  31.159  1.00  0.00     0.029 A 
ATOM     84  C   UNL A   1      41.079  32.674  32.045  1.00  0.00     0.029 A 
ATOM     85  C   UNL A   1      40.790  33.836  31.307  1.00  0.00     0.066 A 
BRANCH  85  86
ATOM     86  N   UNL A   1      41.831  34.523  30.645  1.00  0.00    -0.220 N 
ATOM     87  C   UNL A   1      41.690  35.627  29.850  1.00  0.00     0.141 A 
ATOM     88  N   UNL A   1      43.142  34.198  30.725  1.00  0.00    -0.062 NA
ATOM     89  C   UNL A   1      42.962  36.000  29.490  1.00  0.00     0.093 A 
ATOM     90  N   UNL A   1      43.834  35.066  29.987  1.00  0.00    -0.134 NA
BRANCH  89  91
ATOM     91  C   UNL A   1      43.364  37.060  28.541  1.00  0.00     0.138 C 
BRANCH  91  92
ATOM     92  S   UNL A   1      42.173  38.080  27.666  1.00  0.00    -0.081 SA
BRANCH  92  93
ATOM     93  C   UNL A   1      42.763  39.694  27.362  1.00  0.00     0.176 A 
ATOM     94  N   UNL A   1      42.572  40.061  26.126  1.00  0.00    -0.223 NA
ATOM     95  N   UNL A   1      43.355  40.541  28.287  1.00  0.00    -0.255 N 
ATOM     96  C   UNL A   1      43.071  41.303  25.716  1.00  0.00     0.079 A 
ATOM     97  C   UNL A   1      44.375  41.335  27.750  1.00  0.00     0.266 A 
ATOM     98  C   UNL A   1      42.618  41.918  24.548  1.00  0.00     0.029 A 
ATOM     99  C   UNL A   1      44.095  41.907  26.427  1.00  0.00     0.066 A 
ATOM    100  O   UNL A   1      45.457  41.584  28.276  1.00  0.00    -0.268 OA
ATOM    101  C   UNL A   1      43.228  43.091  24.087  1.00  0.00     0.002 A 
ATOM    102  C   UNL A   1      44.754  43.046  25.955  1.00  0.00     0.016 A 
ATOM    103  C   UNL A   1      44.316  43.637  24.772  1.00  0.00     0.001 A 
BRANCH  95 104
ATOM    104  C   UNL A   1      43.067  40.661  29.704  1.00  0.00     0.051 A 
ATOM    105  C   UNL A   1      42.158  41.644  30.153  1.00  0.00     0.028 A 
ATOM    106  C   UNL A   1      43.622  39.850  30.700  1.00  0.00     0.028 A 
ATOM    107  C   UNL A   1      42.008  41.966  31.505  1.00  0.00     0.018 A 
ATOM    108  C   UNL A   1      43.523  40.195  32.060  1.00  0.00     0.018 A 
ATOM    109  C   UNL A   1      42.752  41.283  32.449  1.00  0.00     0.018 A 
ATOM    110  Br  UNL A   1      42.746  41.856  34.245  1.00  0.00    -0.051 Br
ENDBRANCH  95 104
ENDBRANCH  92  93
ENDBRANCH  91  92
ENDBRANCH  89  91
ENDBRANCH  85  86
ENDBRANCH  77  80
ENDBRANCH  75  76
ENDBRANCH  74  75
ENDBRANCH   1  74
TORSDOF 21
ENDMDL
MODEL 2
REMARK VINA RESULT:     -10.7      1.772      2.266
REMARK SMILES O=C(NCCCCCCNC(=O)c1ccc(-n2cc(CSc3nc4ccccc4c(=O)n3-c3ccc(Br)cc3)nn2)cc1)c1ccc(-c2c3nc(c(-c4cccc(S(=O)(=O)[O-])c4F)c4ccc([nH]4)c(-c4cccc(S(=O)(=O)[O-])c4F)c4nc(c(-c5cccc(S(=O)(=O)[O-])c5F)c5ccc2[nH]5)C=C4)C=C3)cc1
REMARK SMILES IDX 7 1 6 2 5 3 4 4 3 5 1 6 2 7 44 9 45 10 106 11 46 12 105 13
REMARK SMILES IDX 47 14 48 15 49 16 99 17 50 18 104 19 98 20 100 21 51 22
REMARK SMILES IDX 103 23 97 24 96 25 52 27 84 28 64 29 83 30 65 31 68 32 82 33
REMARK SMILES IDX 101 34 66 35 67 36 81 38 102 39 69 40 53 41 54 42 62 43
REMARK SMILES IDX 55 44 57 45 63 46 56 47 58 48 59 49 60 50 61 51 85 52 86 53
REMARK SMILES IDX 94 54 87 55 89 56 95 57 88 58 90 59 91 60 92 61 93 62 70 63
REMARK SMILES IDX 71 64 79 65 72 66 74 67 80 68 73 69 75 70 76 71 77 72 78 73
REMARK SMILES IDX 8 74 9 75 10 76 11 77 12 79 13 80 14 81 43 82 15 83 42 84
REMARK SMILES IDX 16 85 17 86 18 87 41 88 19 89 40 90 20 91 21 92 22 93 23 94
REMARK SMILES IDX 32 95 24 96 30 97 25 98 29 99 31 100 26 101 28 102 27 103
REMARK SMILES IDX 33 104 34 105 39 106 35 107 38 108 36 109 37 110
REMARK H PARENT 3 8 100 26 68 37 10 78
REMARK Flexibility Score: inf
ROOT
ATOM      1  C   UNL A   1      37.400  31.533  32.805  1.00  0.00     0.002 C 
ENDROOT
BRANCH   1   2
ATOM      2  C   UNL A   1      37.275  33.018  32.453  1.00  0.00     0.002 C 
BRANCH   2   3
ATOM      3  C   UNL A   1      35.903  33.470  31.941  1.00  0.00     0.021 C 
BRANCH   3   4
ATOM      4  C   UNL A   1      34.972  32.343  31.490  1.00  0.00     0.116 C 
BRANCH   4   5
ATOM      5  N   UNL A   1      34.826  32.225  30.056  1.00  0.00    -0.352 N 
ATOM      6  O   UNL A   1      34.941  31.553  27.961  1.00  0.00    -0.269 OA
ATOM      7  C   UNL A   1      35.454  31.500  29.082  1.00  0.00     0.251 C 
ATOM      8  H   UNL A   1      34.109  32.799  29.700  1.00  0.00     0.163 HD
BRANCH   7   9
ATOM      9  C   UNL A   1      36.712  30.726  29.267  1.00  0.00     0.039 A 
ATOM     10  C   UNL A   1      36.794  29.367  29.577  1.00  0.00     0.014 A 
ATOM     11  C   UNL A   1      37.908  31.460  29.150  1.00  0.00     0.014 A 
ATOM     12  C   UNL A   1      38.022  28.776  29.853  1.00  0.00     0.010 A 
ATOM     13  C   UNL A   1      39.142  30.871  29.404  1.00  0.00     0.010 A 
ATOM     14  C   UNL A   1      39.191  29.535  29.791  1.00  0.00    -0.014 A 
BRANCH  14  15
ATOM     15  C   UNL A   1      40.460  28.847  30.006  1.00  0.00     0.031 A 
ATOM     16  C   UNL A   1      40.896  28.756  31.428  1.00  0.00     0.074 A 
ATOM     17  C   UNL A   1      41.124  28.207  29.024  1.00  0.00     0.049 A 
ATOM     18  N   UNL A   1      41.977  29.217  31.970  1.00  0.00    -0.248 NA
ATOM     19  C   UNL A   1      39.949  28.170  32.388  1.00  0.00     0.031 C 
ATOM     20  C   UNL A   1      40.656  27.945  27.661  1.00  0.00     0.029 A 
ATOM     21  N   UNL A   1      42.302  27.519  29.089  1.00  0.00    -0.354 N 
ATOM     22  C   UNL A   1      41.947  28.783  33.298  1.00  0.00     0.074 A 
ATOM     23  C   UNL A   1      40.612  28.306  33.535  1.00  0.00     0.031 C 
ATOM     24  C   UNL A   1      41.400  26.954  27.124  1.00  0.00     0.029 A 
ATOM     25  C   UNL A   1      42.465  26.610  28.049  1.00  0.00     0.049 A 
ATOM     26  H   UNL A   1      42.969  27.652  29.801  1.00  0.00     0.167 HD
ATOM     27  C   UNL A   1      43.086  28.633  34.031  1.00  0.00     0.034 A 
ATOM     28  C   UNL A   1      43.351  25.586  27.998  1.00  0.00     0.034 A 
ATOM     29  C   UNL A   1      44.190  29.352  33.446  1.00  0.00     0.049 A 
ATOM     30  C   UNL A   1      44.419  25.859  28.985  1.00  0.00     0.074 A 
ATOM     31  C   UNL A   1      44.455  30.667  33.123  1.00  0.00     0.029 A 
ATOM     32  N   UNL A   1      45.149  28.607  32.807  1.00  0.00    -0.354 N 
ATOM     33  N   UNL A   1      45.292  26.818  28.866  1.00  0.00    -0.248 NA
ATOM     34  C   UNL A   1      44.297  25.282  30.313  1.00  0.00     0.031 C 
ATOM     35  C   UNL A   1      45.263  30.603  31.949  1.00  0.00     0.029 A 
ATOM     36  C   UNL A   1      45.468  29.255  31.649  1.00  0.00     0.049 A 
ATOM     37  H   UNL A   1      45.536  27.761  33.127  1.00  0.00     0.167 HD
ATOM     38  C   UNL A   1      45.494  27.264  30.166  1.00  0.00     0.074 A 
ATOM     39  C   UNL A   1      44.964  26.201  31.015  1.00  0.00     0.031 C 
ATOM     40  C   UNL A   1      45.799  28.570  30.420  1.00  0.00     0.034 A 
BRANCH  27  41
ATOM     41  C   UNL A   1      43.335  27.529  35.049  1.00  0.00     0.023 A 
ATOM     42  C   UNL A   1      43.717  27.936  36.352  1.00  0.00     0.012 A 
ATOM     43  C   UNL A   1      43.524  26.164  34.734  1.00  0.00     0.148 A 
ATOM     44  C   UNL A   1      44.364  27.069  37.240  1.00  0.00     0.002 A 
ATOM     45  C   UNL A   1      44.103  25.288  35.650  1.00  0.00     0.091 A 
ATOM     46  F   UNL A   1      43.267  25.709  33.508  1.00  0.00    -0.205 F 
ATOM     47  C   UNL A   1      44.562  25.743  36.885  1.00  0.00     0.022 A 
BRANCH  45  48
ATOM     48  S   UNL A   1      44.332  23.548  35.253  1.00  0.00     0.127 S 
ATOM     49  O   UNL A   1      45.275  23.634  34.132  1.00  0.00    -0.237 OA
ATOM     50  O   UNL A   1      44.910  23.033  36.500  1.00  0.00    -0.237 OA
ATOM     51  O   UNL A   1      43.016  23.036  34.951  1.00  0.00    -0.744 OA
ENDBRANCH  45  48
ENDBRANCH  27  41
BRANCH  28  52
ATOM     52  C   UNL A   1      43.225  24.268  27.336  1.00  0.00     0.023 A 
ATOM     53  C   UNL A   1      41.992  23.587  27.365  1.00  0.00     0.012 A 
ATOM     54  C   UNL A   1      44.224  23.800  26.455  1.00  0.00     0.148 A 
ATOM     55  C   UNL A   1      41.753  22.493  26.526  1.00  0.00     0.002 A 
ATOM     56  C   UNL A   1      43.988  22.704  25.632  1.00  0.00     0.091 A 
ATOM     57  F   UNL A   1      45.371  24.486  26.354  1.00  0.00    -0.205 F 
ATOM     58  C   UNL A   1      42.747  22.054  25.655  1.00  0.00     0.022 A 
BRANCH  56  59
ATOM     59  S   UNL A   1      45.222  22.091  24.477  1.00  0.00     0.127 S 
ATOM     60  O   UNL A   1      44.537  20.944  23.880  1.00  0.00    -0.237 OA
ATOM     61  O   UNL A   1      45.395  23.233  23.584  1.00  0.00    -0.237 OA
ATOM     62  O   UNL A   1      46.381  21.737  25.286  1.00  0.00    -0.744 OA
ENDBRANCH  56  59
ENDBRANCH  28  52
BRANCH  40  63
ATOM     63  C   UNL A   1      46.223  29.445  29.270  1.00  0.00     0.023 A 
ATOM     64  C   UNL A   1      47.516  29.372  28.712  1.00  0.00     0.012 A 
ATOM     65  C   UNL A   1      45.244  30.217  28.622  1.00  0.00     0.148 A 
ATOM     66  C   UNL A   1      47.833  30.077  27.548  1.00  0.00     0.002 A 
ATOM     67  C   UNL A   1      45.548  30.875  27.437  1.00  0.00     0.091 A 
ATOM     68  F   UNL A   1      44.016  30.271  29.163  1.00  0.00    -0.205 F 
ATOM     69  C   UNL A   1      46.845  30.816  26.902  1.00  0.00     0.022 A 
BRANCH  67  70
ATOM     70  S   UNL A   1      44.285  31.722  26.485  1.00  0.00     0.127 S 
ATOM     71  O   UNL A   1      43.345  30.642  26.193  1.00  0.00    -0.237 OA
ATOM     72  O   UNL A   1      43.793  32.723  27.434  1.00  0.00    -0.237 OA
ATOM     73  O   UNL A   1      44.971  32.291  25.330  1.00  0.00    -0.744 OA
ENDBRANCH  67  70
ENDBRANCH  40  63
ENDBRANCH  14  15
ENDBRANCH   7   9
ENDBRANCH   4   5
ENDBRANCH   3   4
ENDBRANCH   2   3
ENDBRANCH   1   2
BRANCH   1  74
ATOM     74  C   UNL A   1      38.003  31.229  34.178  1.00  0.00     0.021 C 
BRANCH  74  75
ATOM     75  C   UNL A   1      38.661  32.421  34.868  1.00  0.00     0.116 C 
BRANCH  75  76
ATOM     76  N   UNL A   1      39.948  32.077  35.450  1.00  0.00    -0.352 N 
ATOM     77  C   UNL A   1      41.203  32.217  34.918  1.00  0.00     0.251 C 
ATOM     78  H   UNL A   1      39.912  31.687  36.354  1.00  0.00     0.163 HD
ATOM     79  O   UNL A   1      42.186  31.737  35.476  1.00  0.00    -0.269 OA
BRANCH  77  80
ATOM     80  C   UNL A   1      41.373  32.942  33.644  1.00  0.00     0.039 A 
ATOM     81  C   UNL A   1      41.748  34.289  33.675  1.00  0.00     0.016 A 
ATOM     82  C   UNL A   1      41.141  32.294  32.428  1.00  0.00     0.016 A 
ATOM     83  C   UNL A   1      41.956  34.983  32.480  1.00  0.00     0.029 A 
ATOM     84  C   UNL A   1      41.323  32.990  31.236  1.00  0.00     0.029 A 
ATOM     85  C   UNL A   1      41.725  34.337  31.261  1.00  0.00     0.066 A 
BRANCH  85  86
ATOM     86  N   UNL A   1      41.816  35.063  30.053  1.00  0.00    -0.220 N 
ATOM     87  C   UNL A   1      42.545  36.204  29.851  1.00  0.00     0.141 A 
ATOM     88  N   UNL A   1      41.207  34.715  28.896  1.00  0.00    -0.062 NA
ATOM     89  C   UNL A   1      42.407  36.511  28.520  1.00  0.00     0.093 A 
ATOM     90  N   UNL A   1      41.526  35.618  27.968  1.00  0.00    -0.134 NA
BRANCH  89  91
ATOM     91  C   UNL A   1      42.895  37.712  27.809  1.00  0.00     0.138 C 
BRANCH  91  92
ATOM     92  S   UNL A   1      41.922  39.214  27.663  1.00  0.00    -0.081 SA
BRANCH  92  93
ATOM     93  C   UNL A   1      42.751  40.470  26.778  1.00  0.00     0.176 A 
ATOM     94  N   UNL A   1      42.109  40.812  25.696  1.00  0.00    -0.223 NA
ATOM     95  N   UNL A   1      43.940  41.084  27.142  1.00  0.00    -0.255 N 
ATOM     96  C   UNL A   1      42.699  41.752  24.843  1.00  0.00     0.079 A 
ATOM     97  C   UNL A   1      44.761  41.407  26.055  1.00  0.00     0.266 A 
ATOM     98  C   UNL A   1      41.950  42.425  23.877  1.00  0.00     0.029 A 
ATOM     99  C   UNL A   1      44.067  41.967  24.888  1.00  0.00     0.066 A 
ATOM    100  O   UNL A   1      45.979  41.262  25.994  1.00  0.00    -0.268 OA
ATOM    101  C   UNL A   1      42.585  43.257  22.946  1.00  0.00     0.002 A 
ATOM    102  C   UNL A   1      44.726  42.749  23.936  1.00  0.00     0.016 A 
ATOM    103  C   UNL A   1      43.976  43.393  22.955  1.00  0.00     0.001 A 
BRANCH  95 104
ATOM    104  C   UNL A   1      44.422  41.382  28.477  1.00  0.00     0.051 A 
ATOM    105  C   UNL A   1      44.482  42.723  28.917  1.00  0.00     0.028 A 
ATOM    106  C   UNL A   1      44.837  40.421  29.406  1.00  0.00     0.028 A 
ATOM    107  C   UNL A   1      45.142  43.099  30.090  1.00  0.00     0.018 A 
ATOM    108  C   UNL A   1      45.550  40.786  30.562  1.00  0.00     0.018 A 
ATOM    109  C   UNL A   1      45.739  42.126  30.872  1.00  0.00     0.018 A 
ATOM    110  Br  UNL A   1      46.832  42.627  32.324  1.00  0.00    -0.051 Br
ENDBRANCH  95 104
ENDBRANCH  92  93
ENDBRANCH  91  92
ENDBRANCH  89  91
ENDBRANCH  85  86
ENDBRANCH  77  80
ENDBRANCH  75  76
ENDBRANCH  74  75
ENDBRANCH   1  74
TORSDOF 21
ENDMDL
MODEL 3
REMARK VINA RESULT:     -10.6      5.518     11.528
REMARK SMILES O=C(NCCCCCCNC(=O)c1ccc(-n2cc(CSc3nc4ccccc4c(=O)n3-c3ccc(Br)cc3)nn2)cc1)c1ccc(-c2c3nc(c(-c4cccc(S(=O)(=O)[O-])c4F)c4ccc([nH]4)c(-c4cccc(S(=O)(=O)[O-])c4F)c4nc(c(-c5cccc(S(=O)(=O)[O-])c5F)c5ccc2[nH]5)C=C4)C=C3)cc1
REMARK SMILES IDX 7 1 6 2 5 3 4 4 3 5 1 6 2 7 44 9 45 10 106 11 46 12 105 13
REMARK SMILES IDX 47 14 48 15 49 16 99 17 50 18 104 19 98 20 100 21 51 22
REMARK SMILES IDX 103 23 97 24 96 25 52 27 84 28 64 29 83 30 65 31 68 32 82 33
REMARK SMILES IDX 101 34 66 35 67 36 81 38 102 39 69 40 53 41 54 42 62 43
REMARK SMILES IDX 55 44 57 45 63 46 56 47 58 48 59 49 60 50 61 51 85 52 86 53
REMARK SMILES IDX 94 54 87 55 89 56 95 57 88 58 90 59 91 60 92 61 93 62 70 63
REMARK SMILES IDX 71 64 79 65 72 66 74 67 80 68 73 69 75 70 76 71 77 72 78 73
REMARK SMILES IDX 8 74 9 75 10 76 11 77 12 79 13 80 14 81 43 82 15 83 42 84
REMARK SMILES IDX 16 85 17 86 18 87 41 88 19 89 40 90 20 91 21 92 22 93 23 94
REMARK SMILES IDX 32 95 24 96 30 97 25 98 29 99 31 100 26 101 28 102 27 103
REMARK SMILES IDX 33 104 34 105 39 106 35 107 38 108 36 109 37 110
REMARK H PARENT 3 8 100 26 68 37 10 78
REMARK Flexibility Score: inf
ROOT
ATOM      1  C   UNL A   1      34.945  32.825  29.696  1.00  0.00     0.002 C 
ENDROOT
BRANCH   1   2
ATOM      2  C   UNL A   1      35.156  32.165  31.062  1.00  0.00     0.002 C 
BRANCH   2   3
ATOM      3  C   UNL A   1      35.517  33.111  32.212  1.00  0.00     0.021 C 
BRANCH   3   4
ATOM      4  C   UNL A   1      36.983  33.545  32.263  1.00  0.00     0.116 C 
BRANCH   4   5
ATOM      5  N   UNL A   1      37.433  34.272  31.096  1.00  0.00    -0.352 N 
ATOM      6  O   UNL A   1      38.381  34.850  29.193  1.00  0.00    -0.269 OA
ATOM      7  C   UNL A   1      38.390  34.062  30.142  1.00  0.00     0.251 C 
ATOM      8  H   UNL A   1      36.936  35.111  30.958  1.00  0.00     0.163 HD
BRANCH   7   9
ATOM      9  C   UNL A   1      39.447  33.016  30.206  1.00  0.00     0.039 A 
ATOM     10  C   UNL A   1      40.803  33.243  30.449  1.00  0.00     0.014 A 
ATOM     11  C   UNL A   1      39.022  31.696  29.961  1.00  0.00     0.014 A 
ATOM     12  C   UNL A   1      41.722  32.204  30.359  1.00  0.00     0.010 A 
ATOM     13  C   UNL A   1      39.933  30.648  29.890  1.00  0.00     0.010 A 
ATOM     14  C   UNL A   1      41.289  30.913  30.055  1.00  0.00    -0.014 A 
BRANCH  14  15
ATOM     15  C   UNL A   1      42.282  29.844  30.057  1.00  0.00     0.031 A 
ATOM     16  C   UNL A   1      42.762  29.430  31.406  1.00  0.00     0.074 A 
ATOM     17  C   UNL A   1      42.638  29.170  28.946  1.00  0.00     0.049 A 
ATOM     18  N   UNL A   1      43.968  29.455  31.874  1.00  0.00    -0.248 NA
ATOM     19  C   UNL A   1      41.744  29.040  32.393  1.00  0.00     0.031 C 
ATOM     20  C   UNL A   1      42.018  29.254  27.622  1.00  0.00     0.029 A 
ATOM     21  N   UNL A   1      43.535  28.149  28.809  1.00  0.00    -0.354 N 
ATOM     22  C   UNL A   1      43.891  28.875  33.143  1.00  0.00     0.074 A 
ATOM     23  C   UNL A   1      42.493  28.806  33.470  1.00  0.00     0.031 C 
ATOM     24  C   UNL A   1      42.368  28.164  26.903  1.00  0.00     0.029 A 
ATOM     25  C   UNL A   1      43.327  27.385  27.666  1.00  0.00     0.049 A 
ATOM     26  H   UNL A   1      44.256  27.971  29.455  1.00  0.00     0.167 HD
ATOM     27  C   UNL A   1      44.970  28.281  33.729  1.00  0.00     0.034 A 
ATOM     28  C   UNL A   1      43.833  26.154  27.410  1.00  0.00     0.034 A 
ATOM     29  C   UNL A   1      46.203  28.696  33.110  1.00  0.00     0.049 A 
ATOM     30  C   UNL A   1      44.996  25.947  28.299  1.00  0.00     0.074 A 
ATOM     31  C   UNL A   1      46.852  29.896  32.903  1.00  0.00     0.029 A 
ATOM     32  N   UNL A   1      46.827  27.786  32.294  1.00  0.00    -0.354 N 
ATOM     33  N   UNL A   1      46.120  26.595  28.191  1.00  0.00    -0.248 NA
ATOM     34  C   UNL A   1      44.787  25.260  29.562  1.00  0.00     0.031 C 
ATOM     35  C   UNL A   1      47.515  29.746  31.649  1.00  0.00     0.029 A 
ATOM     36  C   UNL A   1      47.257  28.454  31.185  1.00  0.00     0.049 A 
ATOM     37  H   UNL A   1      46.943  26.826  32.477  1.00  0.00     0.167 HD
ATOM     38  C   UNL A   1      46.542  26.775  29.502  1.00  0.00     0.074 A 
ATOM     39  C   UNL A   1      45.759  25.822  30.283  1.00  0.00     0.031 C 
ATOM     40  C   UNL A   1      47.266  27.876  29.861  1.00  0.00     0.034 A 
BRANCH  27  41
ATOM     41  C   UNL A   1      44.920  27.026  34.590  1.00  0.00     0.023 A 
ATOM     42  C   UNL A   1      45.810  26.972  35.691  1.00  0.00     0.012 A 
ATOM     43  C   UNL A   1      44.309  25.809  34.212  1.00  0.00     0.148 A 
ATOM     44  C   UNL A   1      46.167  25.762  36.297  1.00  0.00     0.002 A 
ATOM     45  C   UNL A   1      44.613  24.617  34.867  1.00  0.00     0.091 A 
ATOM     46  F   UNL A   1      43.520  25.750  33.139  1.00  0.00    -0.205 F 
ATOM     47  C   UNL A   1      45.571  24.581  35.879  1.00  0.00     0.022 A 
BRANCH  45  48
ATOM     48  S   UNL A   1      43.826  23.070  34.394  1.00  0.00     0.127 S 
ATOM     49  O   UNL A   1      44.513  22.120  35.275  1.00  0.00    -0.237 OA
ATOM     50  O   UNL A   1      42.425  23.330  34.749  1.00  0.00    -0.237 OA
ATOM     51  O   UNL A   1      44.064  22.924  32.977  1.00  0.00    -0.744 OA
ENDBRANCH  45  48
ENDBRANCH  27  41
BRANCH  28  52
ATOM     52  C   UNL A   1      43.246  25.043  26.626  1.00  0.00     0.023 A 
ATOM     53  C   UNL A   1      43.974  24.480  25.560  1.00  0.00     0.012 A 
ATOM     54  C   UNL A   1      42.097  24.361  27.084  1.00  0.00     0.148 A 
ATOM     55  C   UNL A   1      43.586  23.265  24.985  1.00  0.00     0.002 A 
ATOM     56  C   UNL A   1      41.707  23.159  26.501  1.00  0.00     0.091 A 
ATOM     57  F   UNL A   1      41.443  24.838  28.150  1.00  0.00    -0.205 F 
ATOM     58  C   UNL A   1      42.457  22.601  25.458  1.00  0.00     0.022 A 
BRANCH  56  59
ATOM     59  S   UNL A   1      40.268  22.244  27.068  1.00  0.00     0.127 S 
ATOM     60  O   UNL A   1      40.785  21.575  28.263  1.00  0.00    -0.237 OA
ATOM     61  O   UNL A   1      39.312  23.315  27.332  1.00  0.00    -0.237 OA
ATOM     62  O   UNL A   1      39.921  21.337  25.982  1.00  0.00    -0.744 OA
ENDBRANCH  56  59
ENDBRANCH  28  52
BRANCH  40  63
ATOM     63  C   UNL A   1      47.869  28.724  28.773  1.00  0.00     0.023 A 
ATOM     64  C   UNL A   1      47.235  29.889  28.294  1.00  0.00     0.012 A 
ATOM     65  C   UNL A   1      49.182  28.444  28.358  1.00  0.00     0.148 A 
ATOM     66  C   UNL A   1      47.887  30.742  27.401  1.00  0.00     0.002 A 
ATOM     67  C   UNL A   1      49.846  29.321  27.510  1.00  0.00     0.091 A 
ATOM     68  F   UNL A   1      49.773  27.334  28.827  1.00  0.00    -0.205 F 
ATOM     69  C   UNL A   1      49.198  30.466  27.020  1.00  0.00     0.022 A 
BRANCH  67  70
ATOM     70  S   UNL A   1      51.578  29.096  27.099  1.00  0.00     0.127 S 
ATOM     71  O   UNL A   1      52.209  29.105  28.417  1.00  0.00    -0.237 OA
ATOM     72  O   UNL A   1      51.578  27.794  26.429  1.00  0.00    -0.237 OA
ATOM     73  O   UNL A   1      51.929  30.210  26.225  1.00  0.00    -0.744 OA
ENDBRANCH  67  70
ENDBRANCH  40  63
ENDBRANCH  14  15
ENDBRANCH   7   9
ENDBRANCH   4   5
ENDBRANCH   3   4
ENDBRANCH   2   3
ENDBRANCH   1   2
BRANCH   1  74
ATOM     74  C   UNL A   1      35.640  32.140  28.517  1.00  0.00     0.021 C 
BRANCH  74  75
ATOM     75  C   UNL A   1      34.851  30.998  27.883  1.00  0.00     0.116 C 
BRANCH  75  76
ATOM     76  N   UNL A   1      33.437  31.313  27.757  1.00  0.00    -0.352 N 
ATOM     77  C   UNL A   1      32.493  30.742  26.944  1.00  0.00     0.251 C 
ATOM     78  H   UNL A   1      33.113  32.039  28.338  1.00  0.00     0.163 HD
ATOM     79  O   UNL A   1      31.368  31.222  26.844  1.00  0.00    -0.269 OA
BRANCH  77  80
ATOM     80  C   UNL A   1      32.841  29.539  26.163  1.00  0.00     0.039 A 
ATOM     81  C   UNL A   1      33.183  28.365  26.843  1.00  0.00     0.016 A 
ATOM     82  C   UNL A   1      32.849  29.583  24.767  1.00  0.00     0.016 A 
ATOM     83  C   UNL A   1      33.475  27.202  26.124  1.00  0.00     0.029 A 
ATOM     84  C   UNL A   1      33.164  28.433  24.048  1.00  0.00     0.029 A 
ATOM     85  C   UNL A   1      33.483  27.243  24.726  1.00  0.00     0.066 A 
BRANCH  85  86
ATOM     86  N   UNL A   1      33.892  26.108  23.992  1.00  0.00    -0.220 N 
ATOM     87  C   UNL A   1      34.774  25.150  24.414  1.00  0.00     0.141 A 
ATOM     88  N   UNL A   1      33.444  25.784  22.757  1.00  0.00    -0.062 NA
ATOM     89  C   UNL A   1      34.809  24.202  23.422  1.00  0.00     0.093 A 
ATOM     90  N   UNL A   1      34.033  24.648  22.383  1.00  0.00    -0.134 NA
BRANCH  89  91
ATOM     91  C   UNL A   1      35.691  23.020  23.325  1.00  0.00     0.138 C 
BRANCH  91  92
ATOM     92  S   UNL A   1      35.938  21.881  24.691  1.00  0.00    -0.081 SA
BRANCH  92  93
ATOM     93  C   UNL A   1      34.835  20.529  24.649  1.00  0.00     0.176 A 
ATOM     94  N   UNL A   1      35.438  19.396  24.876  1.00  0.00    -0.223 NA
ATOM     95  N   UNL A   1      33.467  20.592  24.427  1.00  0.00    -0.255 N 
ATOM     96  C   UNL A   1      34.691  18.216  24.791  1.00  0.00     0.079 A 
ATOM     97  C   UNL A   1      32.967  19.507  23.696  1.00  0.00     0.266 A 
ATOM     98  C   UNL A   1      35.152  17.023  25.350  1.00  0.00     0.029 A 
ATOM     99  C   UNL A   1      33.509  18.195  24.069  1.00  0.00     0.066 A 
ATOM    100  O   UNL A   1      32.138  19.560  22.791  1.00  0.00    -0.268 OA
ATOM    101  C   UNL A   1      34.454  15.828  25.135  1.00  0.00     0.002 A 
ATOM    102  C   UNL A   1      32.828  17.005  23.796  1.00  0.00     0.016 A 
ATOM    103  C   UNL A   1      33.311  15.813  24.332  1.00  0.00     0.001 A 
BRANCH  95 104
ATOM    104  C   UNL A   1      32.542  21.636  24.824  1.00  0.00     0.051 A 
ATOM    105  C   UNL A   1      31.770  22.298  23.845  1.00  0.00     0.028 A 
ATOM    106  C   UNL A   1      32.330  22.051  26.145  1.00  0.00     0.028 A 
ATOM    107  C   UNL A   1      31.037  23.455  24.123  1.00  0.00     0.018 A 
ATOM    108  C   UNL A   1      31.641  23.242  26.431  1.00  0.00     0.018 A 
ATOM    109  C   UNL A   1      31.038  23.963  25.409  1.00  0.00     0.018 A 
ATOM    110  Br  UNL A   1      30.256  25.643  25.756  1.00  0.00    -0.051 Br
ENDBRANCH  95 104
ENDBRANCH  92  93
ENDBRANCH  91  92
ENDBRANCH  89  91
ENDBRANCH  85  86
ENDBRANCH  77  80
ENDBRANCH  75  76
ENDBRANCH  74  75
ENDBRANCH   1  74
TORSDOF 21
ENDMDL
