MODEL 1
REMARK VINA RESULT:     -11.9      0.000      0.000
REMARK SMILES C[C@@H]1CC[C@H](C)[N@H+]1Cc1cc2c(cc1Cl)C=C(C(=O)NCCCCCCNC(=O)c1ccc(-c3c4nc(c(-c5cccc(S(=O)(=O)[O-])c5F)c5ccc([nH]5)c(-c5cccc(S(=O)(=O)[O-])c5F)c5nc(c(-c6cccc(S(=O)(=O)[O-])c6F)c6ccc3[nH]6)C=C5)C=C4)cc1)[C@@H](C(F)(F)F)O2
REMARK SMILES IDX 24 1 23 2 22 3 21 4 20 5 18 6 19 7 17 9 9 10 10 11 14 12
REMARK SMILES IDX 11 13 13 14 15 15 12 16 98 17 16 18 93 19 8 20 7 21 6 22
REMARK SMILES IDX 5 23 4 24 3 25 2 26 1 28 94 29 95 30 96 31 97 32 25 33 26 34
REMARK SMILES IDX 27 35 28 36 29 38 30 39 31 40 92 41 32 42 91 43 33 44 34 45
REMARK SMILES IDX 35 46 85 47 36 48 90 49 84 50 86 51 37 52 89 53 83 54 82 55
REMARK SMILES IDX 38 57 70 58 50 59 69 60 51 61 54 62 68 63 87 64 52 65 53 66
REMARK SMILES IDX 67 68 88 69 55 70 39 71 40 72 48 73 41 74 43 75 49 76 42 77
REMARK SMILES IDX 44 78 45 79 46 80 47 81 71 82 72 83 80 84 73 85 75 86 81 87
REMARK SMILES IDX 74 88 76 89 77 90 78 91 79 92 56 93 57 94 65 95 58 96 60 97
REMARK SMILES IDX 66 98 59 99 61 100 62 101 63 102 64 103
REMARK H PARENT 20 8 7 27 27 37 86 56 54 67
REMARK Flexibility Score: inf
ROOT
ATOM      1  C   UNL A   1      35.426  22.621  25.923  1.00  0.00     0.002 C 
ENDROOT
BRANCH   1   2
ATOM      2  C   UNL A   1      34.638  21.427  26.475  1.00  0.00     0.002 C 
BRANCH   2   3
ATOM      3  C   UNL A   1      34.204  20.389  25.435  1.00  0.00     0.021 C 
BRANCH   3   4
ATOM      4  C   UNL A   1      32.709  20.403  25.133  1.00  0.00     0.116 C 
BRANCH   4   5
ATOM      5  N   UNL A   1      32.462  20.417  23.704  1.00  0.00    -0.352 N 
ATOM      6  C   UNL A   1      32.087  21.321  22.772  1.00  0.00     0.251 C 
ATOM      7  O   UNL A   1      31.995  20.879  21.621  1.00  0.00    -0.270 OA
ATOM      8  H   UNL A   1      32.607  19.529  23.305  1.00  0.00     0.163 HD
BRANCH   6   9
ATOM      9  C   UNL A   1      31.794  22.760  23.031  1.00  0.00     0.067 C 
ATOM     10  C   UNL A   1      31.993  27.807  23.141  1.00  0.00     0.029 A 
ATOM     11  C   UNL A   1      30.978  26.853  23.344  1.00  0.00     0.058 A 
ATOM     12  C   UNL A   1      33.291  27.335  22.881  1.00  0.00     0.050 A 
ATOM     13  C   UNL A   1      31.240  25.494  23.204  1.00  0.00     0.128 A 
ATOM     14  C   UNL A   1      33.527  25.971  22.659  1.00  0.00     0.033 A 
ATOM     15  Cl  UNL A   1      34.686  28.357  22.901  1.00  0.00    -0.084 Cl
ATOM     16  C   UNL A   1      32.495  25.050  22.800  1.00  0.00     0.019 A 
ATOM     17  O   UNL A   1      30.212  24.630  23.453  1.00  0.00    -0.475 OA
ATOM     18  C   UNL A   1      32.695  23.631  22.539  1.00  0.00     0.025 C 
ATOM     19  C   UNL A   1      30.626  23.281  23.825  1.00  0.00     0.314 C 
BRANCH  10  20
ATOM     20  C   UNL A   1      31.613  29.276  23.199  1.00  0.00     0.301 C 
BRANCH  20  21
ATOM     21  N   UNL A   1      31.100  29.775  24.485  1.00  0.00    -0.327 N 
ATOM     22  C   UNL A   1      29.063  31.157  24.187  1.00  0.00     0.075 C 
ATOM     23  C   UNL A   1      30.552  31.140  24.503  1.00  0.00     0.181 C 
ATOM     24  C   UNL A   1      30.833  31.654  25.913  1.00  0.00     0.071 C 
ATOM     25  C   UNL A   1      32.137  30.971  26.260  1.00  0.00     0.071 C 
ATOM     26  C   UNL A   1      31.985  29.589  25.638  1.00  0.00     0.181 C 
ATOM     27  H   UNL A   1      30.305  29.144  24.587  1.00  0.00     0.348 HD
ATOM     28  C   UNL A   1      31.340  28.590  26.597  1.00  0.00     0.075 C 
ENDBRANCH  20  21
ENDBRANCH  10  20
BRANCH  19  29
ATOM     29  C   UNL A   1      30.883  23.196  25.344  1.00  0.00     0.429 C 
ATOM     30  F   UNL A   1      30.460  22.008  25.838  1.00  0.00    -0.167 F 
ATOM     31  F   UNL A   1      32.200  23.293  25.646  1.00  0.00    -0.167 F 
ATOM     32  F   UNL A   1      30.253  24.173  26.037  1.00  0.00    -0.167 F 
ENDBRANCH  19  29
ENDBRANCH   6   9
ENDBRANCH   4   5
ENDBRANCH   3   4
ENDBRANCH   2   3
ENDBRANCH   1   2
BRANCH   1  33
ATOM     33  C   UNL A   1      35.896  22.488  24.473  1.00  0.00     0.021 C 
BRANCH  33  34
ATOM     34  C   UNL A   1      37.402  22.336  24.302  1.00  0.00     0.116 C 
BRANCH  34  35
ATOM     35  N   UNL A   1      37.929  21.188  25.019  1.00  0.00    -0.352 N 
ATOM     36  C   UNL A   1      38.896  21.156  25.999  1.00  0.00     0.251 C 
ATOM     37  H   UNL A   1      37.545  20.317  24.771  1.00  0.00     0.163 HD
ATOM     38  O   UNL A   1      39.340  20.087  26.392  1.00  0.00    -0.269 OA
BRANCH  36  39
ATOM     39  C   UNL A   1      39.411  22.434  26.537  1.00  0.00     0.039 A 
ATOM     40  C   UNL A   1      38.827  23.644  26.157  1.00  0.00     0.014 A 
ATOM     41  C   UNL A   1      40.520  22.420  27.385  1.00  0.00     0.014 A 
ATOM     42  C   UNL A   1      39.447  24.842  26.494  1.00  0.00     0.010 A 
ATOM     43  C   UNL A   1      41.093  23.629  27.792  1.00  0.00     0.010 A 
ATOM     44  C   UNL A   1      40.591  24.847  27.310  1.00  0.00    -0.014 A 
BRANCH  44  45
ATOM     45  C   UNL A   1      41.238  26.143  27.646  1.00  0.00     0.031 A 
ATOM     46  C   UNL A   1      40.519  27.178  28.469  1.00  0.00     0.074 A 
ATOM     47  C   UNL A   1      42.503  26.366  27.239  1.00  0.00     0.049 A 
ATOM     48  N   UNL A   1      40.951  28.343  28.878  1.00  0.00    -0.248 NA
ATOM     49  C   UNL A   1      39.141  26.873  28.890  1.00  0.00     0.031 C 
ATOM     50  C   UNL A   1      43.297  25.448  26.420  1.00  0.00     0.029 A 
ATOM     51  N   UNL A   1      43.349  27.421  27.471  1.00  0.00    -0.354 N 
ATOM     52  C   UNL A   1      39.892  28.927  29.562  1.00  0.00     0.074 A 
ATOM     53  C   UNL A   1      38.792  27.990  29.516  1.00  0.00     0.031 C 
ATOM     54  C   UNL A   1      44.526  25.957  26.255  1.00  0.00     0.029 A 
ATOM     55  C   UNL A   1      44.594  27.258  26.912  1.00  0.00     0.049 A 
ATOM     56  H   UNL A   1      43.089  28.217  27.987  1.00  0.00     0.167 HD
ATOM     57  C   UNL A   1      39.847  30.126  30.189  1.00  0.00     0.034 A 
ATOM     58  C   UNL A   1      45.672  28.065  26.918  1.00  0.00     0.034 A 
ATOM     59  C   UNL A   1      40.960  31.032  30.287  1.00  0.00     0.049 A 
ATOM     60  C   UNL A   1      45.601  29.380  27.637  1.00  0.00     0.074 A 
ATOM     61  C   UNL A   1      41.020  32.245  30.950  1.00  0.00     0.029 A 
ATOM     62  N   UNL A   1      42.204  30.825  29.713  1.00  0.00    -0.354 N 
ATOM     63  N   UNL A   1      44.614  29.875  28.342  1.00  0.00    -0.248 NA
ATOM     64  C   UNL A   1      46.789  30.242  27.569  1.00  0.00     0.031 C 
ATOM     65  C   UNL A   1      42.301  32.775  30.774  1.00  0.00     0.029 A 
ATOM     66  C   UNL A   1      43.039  31.888  30.006  1.00  0.00     0.049 A 
ATOM     67  H   UNL A   1      42.455  30.038  29.178  1.00  0.00     0.167 HD
ATOM     68  C   UNL A   1      45.062  31.103  28.811  1.00  0.00     0.074 A 
ATOM     69  C   UNL A   1      46.418  31.267  28.328  1.00  0.00     0.031 C 
ATOM     70  C   UNL A   1      44.399  32.019  29.555  1.00  0.00     0.034 A 
BRANCH  57  71
ATOM     71  C   UNL A   1      38.570  30.520  30.878  1.00  0.00     0.023 A 
ATOM     72  C   UNL A   1      38.433  30.282  32.259  1.00  0.00     0.012 A 
ATOM     73  C   UNL A   1      37.562  31.223  30.188  1.00  0.00     0.148 A 
ATOM     74  C   UNL A   1      37.306  30.731  32.946  1.00  0.00     0.002 A 
ATOM     75  C   UNL A   1      36.455  31.691  30.885  1.00  0.00     0.091 A 
ATOM     76  F   UNL A   1      37.712  31.426  28.872  1.00  0.00    -0.205 F 
ATOM     77  C   UNL A   1      36.324  31.444  32.262  1.00  0.00     0.022 A 
BRANCH  75  78
ATOM     78  S   UNL A   1      35.157  32.665  30.113  1.00  0.00     0.127 S 
ATOM     79  O   UNL A   1      34.238  32.870  31.232  1.00  0.00    -0.237 OA
ATOM     80  O   UNL A   1      35.883  33.864  29.693  1.00  0.00    -0.237 OA
ATOM     81  O   UNL A   1      34.636  31.853  29.025  1.00  0.00    -0.744 OA
ENDBRANCH  75  78
ENDBRANCH  57  71
BRANCH  58  82
ATOM     82  C   UNL A   1      46.922  27.608  26.256  1.00  0.00     0.023 A 
ATOM     83  C   UNL A   1      47.819  26.792  26.969  1.00  0.00     0.012 A 
ATOM     84  C   UNL A   1      47.178  27.901  24.903  1.00  0.00     0.148 A 
ATOM     85  C   UNL A   1      48.955  26.273  26.345  1.00  0.00     0.002 A 
ATOM     86  C   UNL A   1      48.286  27.345  24.275  1.00  0.00     0.091 A 
ATOM     87  F   UNL A   1      46.309  28.685  24.250  1.00  0.00    -0.205 F 
ATOM     88  C   UNL A   1      49.180  26.538  24.997  1.00  0.00     0.022 A 
BRANCH  86  89
ATOM     89  S   UNL A   1      48.595  27.531  22.516  1.00  0.00     0.127 S 
ATOM     90  O   UNL A   1      49.898  28.191  22.510  1.00  0.00    -0.237 OA
ATOM     91  O   UNL A   1      48.607  26.138  22.066  1.00  0.00    -0.237 OA
ATOM     92  O   UNL A   1      47.487  28.322  21.999  1.00  0.00    -0.744 OA
ENDBRANCH  86  89
ENDBRANCH  58  82
BRANCH  70  93
ATOM     93  C   UNL A   1      45.115  33.292  29.906  1.00  0.00     0.023 A 
ATOM     94  C   UNL A   1      45.934  33.325  31.050  1.00  0.00     0.012 A 
ATOM     95  C   UNL A   1      45.078  34.402  29.041  1.00  0.00     0.148 A 
ATOM     96  C   UNL A   1      46.705  34.451  31.333  1.00  0.00     0.002 A 
ATOM     97  C   UNL A   1      45.874  35.509  29.312  1.00  0.00     0.091 A 
ATOM     98  F   UNL A   1      44.282  34.346  27.964  1.00  0.00    -0.205 F 
ATOM     99  C   UNL A   1      46.684  35.536  30.459  1.00  0.00     0.022 A 
BRANCH  97 100
ATOM    100  S   UNL A   1      45.972  36.925  28.211  1.00  0.00     0.127 S 
ATOM    101  O   UNL A   1      46.924  37.783  28.914  1.00  0.00    -0.237 OA
ATOM    102  O   UNL A   1      46.485  36.322  26.981  1.00  0.00    -0.237 OA
ATOM    103  O   UNL A   1      44.619  37.453  28.110  1.00  0.00    -0.744 OA
ENDBRANCH  97 100
ENDBRANCH  70  93
ENDBRANCH  44  45
ENDBRANCH  36  39
ENDBRANCH  34  35
ENDBRANCH  33  34
ENDBRANCH   1  33
TORSDOF 19
ENDMDL
MODEL 2
REMARK VINA RESULT:     -11.9      5.083      8.640
REMARK SMILES C[C@@H]1CC[C@H](C)[N@H+]1Cc1cc2c(cc1Cl)C=C(C(=O)NCCCCCCNC(=O)c1ccc(-c3c4nc(c(-c5cccc(S(=O)(=O)[O-])c5F)c5ccc([nH]5)c(-c5cccc(S(=O)(=O)[O-])c5F)c5nc(c(-c6cccc(S(=O)(=O)[O-])c6F)c6ccc3[nH]6)C=C5)C=C4)cc1)[C@@H](C(F)(F)F)O2
REMARK SMILES IDX 24 1 23 2 22 3 21 4 20 5 18 6 19 7 17 9 9 10 10 11 14 12
REMARK SMILES IDX 11 13 13 14 15 15 12 16 98 17 16 18 93 19 8 20 7 21 6 22
REMARK SMILES IDX 5 23 4 24 3 25 2 26 1 28 94 29 95 30 96 31 97 32 25 33 26 34
REMARK SMILES IDX 27 35 28 36 29 38 30 39 31 40 92 41 32 42 91 43 33 44 34 45
REMARK SMILES IDX 35 46 85 47 36 48 90 49 84 50 86 51 37 52 89 53 83 54 82 55
REMARK SMILES IDX 38 57 70 58 50 59 69 60 51 61 54 62 68 63 87 64 52 65 53 66
REMARK SMILES IDX 67 68 88 69 55 70 39 71 40 72 48 73 41 74 43 75 49 76 42 77
REMARK SMILES IDX 44 78 45 79 46 80 47 81 71 82 72 83 80 84 73 85 75 86 81 87
REMARK SMILES IDX 74 88 76 89 77 90 78 91 79 92 56 93 57 94 65 95 58 96 60 97
REMARK SMILES IDX 66 98 59 99 61 100 62 101 63 102 64 103
REMARK H PARENT 20 8 7 27 27 37 86 56 54 67
REMARK Flexibility Score: inf
ROOT
ATOM      1  C   UNL A   1      34.148  29.256  26.749  1.00  0.00     0.002 C 
ENDROOT
BRANCH   1   2
ATOM      2  C   UNL A   1      32.824  28.722  27.307  1.00  0.00     0.002 C 
BRANCH   2   3
ATOM      3  C   UNL A   1      31.581  29.542  26.947  1.00  0.00     0.021 C 
BRANCH   3   4
ATOM      4  C   UNL A   1      31.803  30.536  25.812  1.00  0.00     0.116 C 
BRANCH   4   5
ATOM      5  N   UNL A   1      30.797  30.385  24.777  1.00  0.00    -0.352 N 
ATOM      6  C   UNL A   1      30.462  29.461  23.849  1.00  0.00     0.251 C 
ATOM      7  O   UNL A   1      29.491  29.757  23.143  1.00  0.00    -0.270 OA
ATOM      8  H   UNL A   1      30.197  31.164  24.742  1.00  0.00     0.163 HD
BRANCH   6   9
ATOM      9  C   UNL A   1      31.156  28.160  23.634  1.00  0.00     0.067 C 
ATOM     10  C   UNL A   1      32.783  23.397  24.084  1.00  0.00     0.029 A 
ATOM     11  C   UNL A   1      32.727  24.327  23.028  1.00  0.00     0.058 A 
ATOM     12  C   UNL A   1      32.341  23.819  25.350  1.00  0.00     0.050 A 
ATOM     13  C   UNL A   1      32.172  25.589  23.220  1.00  0.00     0.128 A 
ATOM     14  C   UNL A   1      31.708  25.058  25.514  1.00  0.00     0.033 A 
ATOM     15  Cl  UNL A   1      32.616  22.907  26.794  1.00  0.00    -0.084 Cl
ATOM     16  C   UNL A   1      31.603  25.938  24.441  1.00  0.00     0.019 A 
ATOM     17  O   UNL A   1      32.186  26.446  22.157  1.00  0.00    -0.475 OA
ATOM     18  C   UNL A   1      30.917  27.216  24.564  1.00  0.00     0.025 C 
ATOM     19  C   UNL A   1      32.116  27.860  22.514  1.00  0.00     0.314 C 
BRANCH  10  20
ATOM     20  C   UNL A   1      33.298  22.003  23.778  1.00  0.00     0.301 C 
BRANCH  20  21
ATOM     21  N   UNL A   1      34.705  21.729  24.114  1.00  0.00    -0.327 N 
ATOM     22  C   UNL A   1      35.043  19.372  24.804  1.00  0.00     0.075 C 
ATOM     23  C   UNL A   1      34.960  20.826  25.247  1.00  0.00     0.181 C 
ATOM     24  C   UNL A   1      36.282  21.309  25.839  1.00  0.00     0.071 C 
ATOM     25  C   UNL A   1      36.230  22.800  25.591  1.00  0.00     0.071 C 
ATOM     26  C   UNL A   1      35.573  22.905  24.220  1.00  0.00     0.181 C 
ATOM     27  H   UNL A   1      34.965  21.215  23.271  1.00  0.00     0.348 HD
ATOM     28  C   UNL A   1      36.594  22.867  23.084  1.00  0.00     0.075 C 
ENDBRANCH  20  21
ENDBRANCH  10  20
BRANCH  19  29
ATOM     29  C   UNL A   1      33.527  28.413  22.804  1.00  0.00     0.429 C 
ATOM     30  F   UNL A   1      34.112  27.732  23.818  1.00  0.00    -0.167 F 
ATOM     31  F   UNL A   1      34.351  28.297  21.735  1.00  0.00    -0.167 F 
ATOM     32  F   UNL A   1      33.515  29.722  23.145  1.00  0.00    -0.167 F 
ENDBRANCH  19  29
ENDBRANCH   6   9
ENDBRANCH   4   5
ENDBRANCH   3   4
ENDBRANCH   2   3
ENDBRANCH   1   2
BRANCH   1  33
ATOM     33  C   UNL A   1      35.004  30.056  27.733  1.00  0.00     0.021 C 
BRANCH  33  34
ATOM     34  C   UNL A   1      34.810  31.565  27.666  1.00  0.00     0.116 C 
BRANCH  34  35
ATOM     35  N   UNL A   1      34.436  32.136  28.948  1.00  0.00    -0.352 N 
ATOM     36  C   UNL A   1      35.064  32.000  30.166  1.00  0.00     0.251 C 
ATOM     37  H   UNL A   1      33.625  32.693  28.947  1.00  0.00     0.163 HD
ATOM     38  O   UNL A   1      34.533  32.419  31.184  1.00  0.00    -0.269 OA
BRANCH  36  39
ATOM     39  C   UNL A   1      36.371  31.309  30.223  1.00  0.00     0.039 A 
ATOM     40  C   UNL A   1      36.482  30.063  30.844  1.00  0.00     0.014 A 
ATOM     41  C   UNL A   1      37.500  31.938  29.695  1.00  0.00     0.014 A 
ATOM     42  C   UNL A   1      37.741  29.523  31.080  1.00  0.00     0.010 A 
ATOM     43  C   UNL A   1      38.758  31.352  29.862  1.00  0.00     0.010 A 
ATOM     44  C   UNL A   1      38.894  30.165  30.598  1.00  0.00    -0.014 A 
BRANCH  44  45
ATOM     45  C   UNL A   1      40.228  29.569  30.874  1.00  0.00     0.031 A 
ATOM     46  C   UNL A   1      41.022  29.972  32.087  1.00  0.00     0.074 A 
ATOM     47  C   UNL A   1      40.705  28.623  30.040  1.00  0.00     0.049 A 
ATOM     48  N   UNL A   1      42.183  29.526  32.490  1.00  0.00    -0.248 NA
ATOM     49  C   UNL A   1      40.444  31.005  32.964  1.00  0.00     0.031 C 
ATOM     50  C   UNL A   1      40.037  28.164  28.821  1.00  0.00     0.029 A 
ATOM     51  N   UNL A   1      41.848  27.868  30.099  1.00  0.00    -0.354 N 
ATOM     52  C   UNL A   1      42.497  30.249  33.635  1.00  0.00     0.074 A 
ATOM     53  C   UNL A   1      41.403  31.167  33.867  1.00  0.00     0.031 C 
ATOM     54  C   UNL A   1      40.759  27.176  28.271  1.00  0.00     0.029 A 
ATOM     55  C   UNL A   1      41.963  26.967  29.068  1.00  0.00     0.049 A 
ATOM     56  H   UNL A   1      42.522  27.964  30.810  1.00  0.00     0.167 HD
ATOM     57  C   UNL A   1      43.586  30.143  34.432  1.00  0.00     0.034 A 
ATOM     58  C   UNL A   1      42.930  26.073  28.786  1.00  0.00     0.034 A 
ATOM     59  C   UNL A   1      44.644  29.190  34.236  1.00  0.00     0.049 A 
ATOM     60  C   UNL A   1      44.118  25.964  29.696  1.00  0.00     0.074 A 
ATOM     61  C   UNL A   1      45.760  28.976  35.025  1.00  0.00     0.029 A 
ATOM     62  N   UNL A   1      44.717  28.291  33.184  1.00  0.00    -0.354 N 
ATOM     63  N   UNL A   1      44.353  26.604  30.815  1.00  0.00    -0.248 NA
ATOM     64  C   UNL A   1      45.165  25.008  29.314  1.00  0.00     0.031 C 
ATOM     65  C   UNL A   1      46.512  27.948  34.449  1.00  0.00     0.029 A 
ATOM     66  C   UNL A   1      45.860  27.520  33.303  1.00  0.00     0.049 A 
ATOM     67  H   UNL A   1      44.054  28.212  32.461  1.00  0.00     0.167 HD
ATOM     68  C   UNL A   1      45.571  26.124  31.276  1.00  0.00     0.074 A 
ATOM     69  C   UNL A   1      46.015  25.123  30.328  1.00  0.00     0.031 C 
ATOM     70  C   UNL A   1      46.267  26.498  32.376  1.00  0.00     0.034 A 
BRANCH  57  71
ATOM     71  C   UNL A   1      43.677  31.042  35.634  1.00  0.00     0.023 A 
ATOM     72  C   UNL A   1      43.169  30.592  36.867  1.00  0.00     0.012 A 
ATOM     73  C   UNL A   1      44.360  32.272  35.568  1.00  0.00     0.148 A 
ATOM     74  C   UNL A   1      43.332  31.357  38.022  1.00  0.00     0.002 A 
ATOM     75  C   UNL A   1      44.544  33.016  36.728  1.00  0.00     0.091 A 
ATOM     76  F   UNL A   1      44.824  32.682  34.380  1.00  0.00    -0.205 F 
ATOM     77  C   UNL A   1      44.028  32.562  37.954  1.00  0.00     0.022 A 
BRANCH  75  78
ATOM     78  S   UNL A   1      45.469  34.555  36.763  1.00  0.00     0.127 S 
ATOM     79  O   UNL A   1      44.429  35.532  36.443  1.00  0.00    -0.237 OA
ATOM     80  O   UNL A   1      45.940  34.598  38.148  1.00  0.00    -0.237 OA
ATOM     81  O   UNL A   1      46.518  34.419  35.764  1.00  0.00    -0.744 OA
ENDBRANCH  75  78
ENDBRANCH  57  71
BRANCH  58  82
ATOM     82  C   UNL A   1      42.770  25.181  27.608  1.00  0.00     0.023 A 
ATOM     83  C   UNL A   1      43.509  25.444  26.440  1.00  0.00     0.012 A 
ATOM     84  C   UNL A   1      41.965  24.027  27.673  1.00  0.00     0.148 A 
ATOM     85  C   UNL A   1      43.448  24.572  25.352  1.00  0.00     0.002 A 
ATOM     86  C   UNL A   1      41.944  23.140  26.603  1.00  0.00     0.091 A 
ATOM     87  F   UNL A   1      41.269  23.804  28.795  1.00  0.00    -0.205 F 
ATOM     88  C   UNL A   1      42.677  23.416  25.438  1.00  0.00     0.022 A 
BRANCH  86  89
ATOM     89  S   UNL A   1      41.078  21.568  26.668  1.00  0.00     0.127 S 
ATOM     90  O   UNL A   1      39.830  21.886  25.977  1.00  0.00    -0.237 OA
ATOM     91  O   UNL A   1      41.989  20.696  25.925  1.00  0.00    -0.237 OA
ATOM     92  O   UNL A   1      40.948  21.244  28.081  1.00  0.00    -0.744 OA
ENDBRANCH  86  89
ENDBRANCH  58  82
BRANCH  70  93
ATOM     93  C   UNL A   1      47.589  25.831  32.633  1.00  0.00     0.023 A 
ATOM     94  C   UNL A   1      48.749  26.359  32.038  1.00  0.00     0.012 A 
ATOM     95  C   UNL A   1      47.696  24.773  33.555  1.00  0.00     0.148 A 
ATOM     96  C   UNL A   1      50.003  25.838  32.353  1.00  0.00     0.002 A 
ATOM     97  C   UNL A   1      48.951  24.279  33.888  1.00  0.00     0.091 A 
ATOM     98  F   UNL A   1      46.572  24.284  34.099  1.00  0.00    -0.205 F 
ATOM     99  C   UNL A   1      50.105  24.808  33.286  1.00  0.00     0.022 A 
BRANCH  97 100
ATOM    100  S   UNL A   1      49.192  23.005  35.132  1.00  0.00     0.127 S 
ATOM    101  O   UNL A   1      48.591  21.841  34.484  1.00  0.00    -0.237 OA
ATOM    102  O   UNL A   1      50.650  22.957  35.244  1.00  0.00    -0.237 OA
ATOM    103  O   UNL A   1      48.505  23.473  36.328  1.00  0.00    -0.744 OA
ENDBRANCH  97 100
ENDBRANCH  70  93
ENDBRANCH  44  45
ENDBRANCH  36  39
ENDBRANCH  34  35
ENDBRANCH  33  34
ENDBRANCH   1  33
TORSDOF 19
ENDMDL
MODEL 3
REMARK VINA RESULT:     -11.8      5.032      9.675
REMARK SMILES C[C@@H]1CC[C@H](C)[N@H+]1Cc1cc2c(cc1Cl)C=C(C(=O)NCCCCCCNC(=O)c1ccc(-c3c4nc(c(-c5cccc(S(=O)(=O)[O-])c5F)c5ccc([nH]5)c(-c5cccc(S(=O)(=O)[O-])c5F)c5nc(c(-c6cccc(S(=O)(=O)[O-])c6F)c6ccc3[nH]6)C=C5)C=C4)cc1)[C@@H](C(F)(F)F)O2
REMARK SMILES IDX 24 1 23 2 22 3 21 4 20 5 18 6 19 7 17 9 9 10 10 11 14 12
REMARK SMILES IDX 11 13 13 14 15 15 12 16 98 17 16 18 93 19 8 20 7 21 6 22
REMARK SMILES IDX 5 23 4 24 3 25 2 26 1 28 94 29 95 30 96 31 97 32 25 33 26 34
REMARK SMILES IDX 27 35 28 36 29 38 30 39 31 40 92 41 32 42 91 43 33 44 34 45
REMARK SMILES IDX 35 46 85 47 36 48 90 49 84 50 86 51 37 52 89 53 83 54 82 55
REMARK SMILES IDX 38 57 70 58 50 59 69 60 51 61 54 62 68 63 87 64 52 65 53 66
REMARK SMILES IDX 67 68 88 69 55 70 39 71 40 72 48 73 41 74 43 75 49 76 42 77
REMARK SMILES IDX 44 78 45 79 46 80 47 81 71 82 72 83 80 84 73 85 75 86 81 87
REMARK SMILES IDX 74 88 76 89 77 90 78 91 79 92 56 93 57 94 65 95 58 96 60 97
REMARK SMILES IDX 66 98 59 99 61 100 62 101 63 102 64 103
REMARK H PARENT 20 8 7 27 27 37 86 56 54 67
REMARK Flexibility Score: inf
ROOT
ATOM      1  C   UNL A   1      34.309  28.920  26.839  1.00  0.00     0.002 C 
ENDROOT
BRANCH   1   2
ATOM      2  C   UNL A   1      32.905  28.535  27.322  1.00  0.00     0.002 C 
BRANCH   2   3
ATOM      3  C   UNL A   1      31.832  29.615  27.149  1.00  0.00     0.021 C 
BRANCH   3   4
ATOM      4  C   UNL A   1      32.067  30.536  25.956  1.00  0.00     0.116 C 
BRANCH   4   5
ATOM      5  N   UNL A   1      31.013  30.395  24.969  1.00  0.00    -0.352 N 
ATOM      6  C   UNL A   1      30.616  29.467  24.070  1.00  0.00     0.251 C 
ATOM      7  O   UNL A   1      29.622  29.776  23.403  1.00  0.00    -0.270 OA
ATOM      8  H   UNL A   1      30.431  31.188  24.947  1.00  0.00     0.163 HD
BRANCH   6   9
ATOM      9  C   UNL A   1      31.268  28.145  23.846  1.00  0.00     0.067 C 
ATOM     10  C   UNL A   1      32.834  23.365  24.321  1.00  0.00     0.029 A 
ATOM     11  C   UNL A   1      32.719  24.265  23.245  1.00  0.00     0.058 A 
ATOM     12  C   UNL A   1      32.492  23.831  25.602  1.00  0.00     0.050 A 
ATOM     13  C   UNL A   1      32.202  25.543  23.437  1.00  0.00     0.128 A 
ATOM     14  C   UNL A   1      31.895  25.088  25.773  1.00  0.00     0.033 A 
ATOM     15  Cl  UNL A   1      32.853  22.956  27.049  1.00  0.00    -0.084 Cl
ATOM     16  C   UNL A   1      31.730  25.938  24.685  1.00  0.00     0.019 A 
ATOM     17  O   UNL A   1      32.157  26.369  22.351  1.00  0.00    -0.475 OA
ATOM     18  C   UNL A   1      31.079  27.233  24.818  1.00  0.00     0.025 C 
ATOM     19  C   UNL A   1      32.139  27.793  22.669  1.00  0.00     0.314 C 
BRANCH  10  20
ATOM     20  C   UNL A   1      33.299  21.951  24.022  1.00  0.00     0.301 C 
BRANCH  20  21
ATOM     21  N   UNL A   1      34.734  21.677  24.196  1.00  0.00    -0.327 N 
ATOM     22  C   UNL A   1      35.155  19.295  24.742  1.00  0.00     0.075 C 
ATOM     23  C   UNL A   1      35.111  20.728  25.255  1.00  0.00     0.181 C 
ATOM     24  C   UNL A   1      36.486  21.197  25.726  1.00  0.00     0.071 C 
ATOM     25  C   UNL A   1      36.401  22.698  25.551  1.00  0.00     0.071 C 
ATOM     26  C   UNL A   1      35.603  22.856  24.263  1.00  0.00     0.181 C 
ATOM     27  H   UNL A   1      34.907  21.203  23.308  1.00  0.00     0.348 HD
ATOM     28  C   UNL A   1      36.499  22.877  23.025  1.00  0.00     0.075 C 
ENDBRANCH  20  21
ENDBRANCH  10  20
BRANCH  19  29
ATOM     29  C   UNL A   1      33.577  28.325  22.841  1.00  0.00     0.429 C 
ATOM     30  F   UNL A   1      33.570  29.650  23.123  1.00  0.00    -0.167 F 
ATOM     31  F   UNL A   1      34.228  27.717  23.862  1.00  0.00    -0.167 F 
ATOM     32  F   UNL A   1      34.336  28.147  21.735  1.00  0.00    -0.167 F 
ENDBRANCH  19  29
ENDBRANCH   6   9
ENDBRANCH   4   5
ENDBRANCH   3   4
ENDBRANCH   2   3
ENDBRANCH   1   2
BRANCH   1  33
ATOM     33  C   UNL A   1      35.230  29.522  27.902  1.00  0.00     0.021 C 
BRANCH  33  34
ATOM     34  C   UNL A   1      35.448  31.024  27.781  1.00  0.00     0.116 C 
BRANCH  34  35
ATOM     35  N   UNL A   1      34.771  31.771  28.827  1.00  0.00    -0.352 N 
ATOM     36  C   UNL A   1      35.141  31.935  30.143  1.00  0.00     0.251 C 
ATOM     37  H   UNL A   1      33.937  32.219  28.560  1.00  0.00     0.163 HD
ATOM     38  O   UNL A   1      34.378  32.467  30.936  1.00  0.00    -0.269 OA
BRANCH  36  39
ATOM     39  C   UNL A   1      36.458  31.425  30.584  1.00  0.00     0.039 A 
ATOM     40  C   UNL A   1      37.629  32.097  30.228  1.00  0.00     0.014 A 
ATOM     41  C   UNL A   1      36.519  30.238  31.317  1.00  0.00     0.014 A 
ATOM     42  C   UNL A   1      38.862  31.498  30.462  1.00  0.00     0.010 A 
ATOM     43  C   UNL A   1      37.763  29.680  31.624  1.00  0.00     0.010 A 
ATOM     44  C   UNL A   1      38.943  30.280  31.156  1.00  0.00    -0.014 A 
BRANCH  44  45
ATOM     45  C   UNL A   1      40.274  29.660  31.384  1.00  0.00     0.031 A 
ATOM     46  C   UNL A   1      40.841  28.659  30.413  1.00  0.00     0.074 A 
ATOM     47  C   UNL A   1      40.995  30.038  32.458  1.00  0.00     0.049 A 
ATOM     48  N   UNL A   1      41.998  28.050  30.446  1.00  0.00    -0.248 NA
ATOM     49  C   UNL A   1      40.008  28.291  29.254  1.00  0.00     0.031 C 
ATOM     50  C   UNL A   1      40.545  30.984  33.481  1.00  0.00     0.029 A 
ATOM     51  N   UNL A   1      42.260  29.690  32.859  1.00  0.00    -0.354 N 
ATOM     52  C   UNL A   1      42.016  27.199  29.347  1.00  0.00     0.074 A 
ATOM     53  C   UNL A   1      40.754  27.368  28.662  1.00  0.00     0.031 C 
ATOM     54  C   UNL A   1      41.534  31.175  34.367  1.00  0.00     0.029 A 
ATOM     55  C   UNL A   1      42.666  30.330  34.006  1.00  0.00     0.049 A 
ATOM     56  H   UNL A   1      42.821  29.044  32.374  1.00  0.00     0.167 HD
ATOM     57  C   UNL A   1      43.004  26.370  28.936  1.00  0.00     0.034 A 
ATOM     58  C   UNL A   1      43.819  30.246  34.697  1.00  0.00     0.034 A 
ATOM     59  C   UNL A   1      44.282  26.248  29.582  1.00  0.00     0.049 A 
ATOM     60  C   UNL A   1      44.904  29.332  34.207  1.00  0.00     0.074 A 
ATOM     61  C   UNL A   1      45.363  25.472  29.203  1.00  0.00     0.029 A 
ATOM     62  N   UNL A   1      44.656  26.919  30.735  1.00  0.00    -0.354 N 
ATOM     63  N   UNL A   1      44.928  28.598  33.123  1.00  0.00    -0.248 NA
ATOM     64  C   UNL A   1      46.120  29.242  35.027  1.00  0.00     0.031 C 
ATOM     65  C   UNL A   1      46.391  25.671  30.128  1.00  0.00     0.029 A 
ATOM     66  C   UNL A   1      45.950  26.575  31.082  1.00  0.00     0.049 A 
ATOM     67  H   UNL A   1      44.085  27.548  31.232  1.00  0.00     0.167 HD
ATOM     68  C   UNL A   1      46.163  27.962  33.124  1.00  0.00     0.074 A 
ATOM     69  C   UNL A   1      46.868  28.416  34.305  1.00  0.00     0.031 C 
ATOM     70  C   UNL A   1      46.655  27.067  32.235  1.00  0.00     0.034 A 
BRANCH  57  71
ATOM     71  C   UNL A   1      42.778  25.560  27.690  1.00  0.00     0.023 A 
ATOM     72  C   UNL A   1      43.177  26.086  26.447  1.00  0.00     0.012 A 
ATOM     73  C   UNL A   1      42.278  24.244  27.762  1.00  0.00     0.148 A 
ATOM     74  C   UNL A   1      43.078  25.317  25.287  1.00  0.00     0.002 A 
ATOM     75  C   UNL A   1      42.208  23.474  26.607  1.00  0.00     0.091 A 
ATOM     76  F   UNL A   1      41.895  23.772  28.956  1.00  0.00    -0.205 F 
ATOM     77  C   UNL A   1      42.604  24.010  25.370  1.00  0.00     0.022 A 
BRANCH  75  78
ATOM     78  S   UNL A   1      41.663  21.762  26.609  1.00  0.00     0.127 S 
ATOM     79  O   UNL A   1      40.210  21.916  26.551  1.00  0.00    -0.237 OA
ATOM     80  O   UNL A   1      42.271  21.246  25.381  1.00  0.00    -0.237 OA
ATOM     81  O   UNL A   1      42.175  21.176  27.838  1.00  0.00    -0.744 OA
ENDBRANCH  75  78
ENDBRANCH  57  71
BRANCH  58  82
ATOM     82  C   UNL A   1      44.007  31.100  35.899  1.00  0.00     0.023 A 
ATOM     83  C   UNL A   1      43.676  30.587  37.166  1.00  0.00     0.012 A 
ATOM     84  C   UNL A   1      44.594  32.376  35.800  1.00  0.00     0.148 A 
ATOM     85  C   UNL A   1      43.926  31.332  38.319  1.00  0.00     0.002 A 
ATOM     86  C   UNL A   1      44.882  33.093  36.955  1.00  0.00     0.091 A 
ATOM     87  F   UNL A   1      44.894  32.842  34.580  1.00  0.00    -0.205 F 
ATOM     88  C   UNL A   1      44.540  32.577  38.215  1.00  0.00     0.022 A 
BRANCH  86  89
ATOM     89  S   UNL A   1      45.779  34.649  36.928  1.00  0.00     0.127 S 
ATOM     90  O   UNL A   1      47.024  34.265  36.266  1.00  0.00    -0.237 OA
ATOM     91  O   UNL A   1      44.889  35.492  36.128  1.00  0.00    -0.237 OA
ATOM     92  O   UNL A   1      45.907  35.057  38.320  1.00  0.00    -0.744 OA
ENDBRANCH  86  89
ENDBRANCH  58  82
BRANCH  70  93
ATOM     93  C   UNL A   1      48.025  26.505  32.489  1.00  0.00     0.023 A 
ATOM     94  C   UNL A   1      49.154  27.246  32.093  1.00  0.00     0.012 A 
ATOM     95  C   UNL A   1      48.193  25.317  33.226  1.00  0.00     0.148 A 
ATOM     96  C   UNL A   1      50.436  26.810  32.422  1.00  0.00     0.002 A 
ATOM     97  C   UNL A   1      49.472  24.904  33.578  1.00  0.00     0.091 A 
ATOM     98  F   UNL A   1      47.100  24.627  33.581  1.00  0.00    -0.205 F 
ATOM     99  C   UNL A   1      50.594  25.647  33.175  1.00  0.00     0.022 A 
BRANCH  97 100
ATOM    100  S   UNL A   1      49.776  23.463  34.606  1.00  0.00     0.127 S 
ATOM    101  O   UNL A   1      50.983  22.911  33.994  1.00  0.00    -0.237 OA
ATOM    102  O   UNL A   1      49.979  24.062  35.925  1.00  0.00    -0.237 OA
ATOM    103  O   UNL A   1      48.587  22.629  34.493  1.00  0.00    -0.744 OA
ENDBRANCH  97 100
ENDBRANCH  70  93
ENDBRANCH  44  45
ENDBRANCH  36  39
ENDBRANCH  34  35
ENDBRANCH  33  34
ENDBRANCH   1  33
TORSDOF 19
ENDMDL
