MODEL 1
REMARK VINA RESULT:     -10.7      0.000      0.000
REMARK SMILES CCN(Cc1ccccn1)C(=O)NC(CC)(CC)C(=O)NCCCCCCNC(=O)c1ccc(-c2c3nc(c(-c4cccc(S(=O)(=O)[O-])c4F)c4ccc([nH]4)c(-c4cccc(S(=O)(=O)[O-])c4F)c4nc(c(-c5cccc(S(=O)(=O)[O-])c5F)c5ccc2[nH]5)C=C4)C=C3)cc1
REMARK SMILES IDX 24 1 23 2 22 3 21 4 19 5 20 6 14 8 13 9 11 10 12 11 3 13
REMARK SMILES IDX 2 14 1 15 4 16 5 17 6 18 10 19 7 20 9 21 8 22 15 23 16 24
REMARK SMILES IDX 17 25 18 26 25 27 26 28 27 29 28 30 29 31 30 33 31 34 32 35
REMARK SMILES IDX 93 36 33 37 92 38 34 39 35 40 36 41 86 42 37 43 91 44 85 45
REMARK SMILES IDX 87 46 38 47 90 48 84 49 83 50 39 52 71 53 51 54 70 55 52 56
REMARK SMILES IDX 55 57 69 58 88 59 53 60 54 61 68 63 89 64 56 65 40 66 41 67
REMARK SMILES IDX 49 68 42 69 44 70 50 71 43 72 45 73 46 74 47 75 48 76 72 77
REMARK SMILES IDX 73 78 81 79 74 80 76 81 82 82 75 83 77 84 78 85 79 86 80 87
REMARK SMILES IDX 57 88 58 89 66 90 59 91 61 92 67 93 60 94 62 95 63 96 64 97
REMARK SMILES IDX 65 98
REMARK H PARENT 21 7 13 12 28 32 87 51 55 62
REMARK Flexibility Score: inf
ROOT
ATOM      1  C   UNL A   1      31.849  29.109  24.523  1.00  0.00     0.002 C 
ENDROOT
BRANCH   1   2
ATOM      2  C   UNL A   1      30.789  28.412  23.658  1.00  0.00     0.021 C 
BRANCH   2   3
ATOM      3  C   UNL A   1      30.334  27.059  24.199  1.00  0.00     0.116 C 
BRANCH   3   4
ATOM      4  N   UNL A   1      30.326  26.085  23.138  1.00  0.00    -0.354 N 
ATOM      5  C   UNL A   1      31.410  25.348  22.765  1.00  0.00     0.245 C 
ATOM      6  O   UNL A   1      31.913  25.561  21.659  1.00  0.00    -0.272 OA
ATOM      7  H   UNL A   1      29.483  25.943  22.649  1.00  0.00     0.163 HD
BRANCH   5   8
ATOM      8  C   UNL A   1      31.931  24.267  23.741  1.00  0.00     0.120 C 
BRANCH   8   9
ATOM      9  N   UNL A   1      31.873  22.926  23.086  1.00  0.00    -0.323 N 
ATOM     10  C   UNL A   1      32.402  21.699  23.137  1.00  0.00     0.318 C 
ATOM     11  O   UNL A   1      32.140  21.022  22.129  1.00  0.00    -0.249 OA
ATOM     12  H   UNL A   1      31.209  22.956  22.361  1.00  0.00     0.166 HD
BRANCH  10  13
ATOM     13  N   UNL A   1      33.054  21.119  24.184  1.00  0.00    -0.319 N 
BRANCH  13  14
ATOM     14  C   UNL A   1      34.444  21.573  24.372  1.00  0.00     0.118 C 
ATOM     15  C   UNL A   1      34.951  21.458  25.810  1.00  0.00     0.027 C 
ENDBRANCH  13  14
BRANCH  13  16
ATOM     16  C   UNL A   1      32.636  20.089  25.154  1.00  0.00     0.177 C 
BRANCH  16  17
ATOM     17  C   UNL A   1      32.916  18.634  24.865  1.00  0.00     0.060 A 
ATOM     18  C   UNL A   1      33.603  18.218  23.731  1.00  0.00     0.026 A 
ATOM     19  N   UNL A   1      32.383  17.743  25.750  1.00  0.00    -0.259 NA
ATOM     20  C   UNL A   1      33.858  16.859  23.560  1.00  0.00     0.004 A 
ATOM     21  C   UNL A   1      32.627  16.431  25.547  1.00  0.00     0.111 A 
ATOM     22  C   UNL A   1      33.373  15.947  24.490  1.00  0.00     0.020 A 
ENDBRANCH  16  17
ENDBRANCH  13  16
ENDBRANCH  10  13
ENDBRANCH   8   9
BRANCH   8  23
ATOM     23  C   UNL A   1      31.164  24.167  25.099  1.00  0.00     0.035 C 
ATOM     24  C   UNL A   1      31.950  23.658  26.306  1.00  0.00     0.007 C 
ENDBRANCH   8  23
BRANCH   8  25
ATOM     25  C   UNL A   1      33.436  24.613  24.005  1.00  0.00     0.035 C 
ATOM     26  C   UNL A   1      33.724  26.016  24.538  1.00  0.00     0.007 C 
ENDBRANCH   8  25
ENDBRANCH   5   8
ENDBRANCH   3   4
ENDBRANCH   2   3
ENDBRANCH   1   2
BRANCH   1  27
ATOM     27  C   UNL A   1      31.329  30.247  25.407  1.00  0.00     0.002 C 
BRANCH  27  28
ATOM     28  C   UNL A   1      31.803  30.205  26.860  1.00  0.00     0.021 C 
BRANCH  28  29
ATOM     29  C   UNL A   1      33.169  30.832  27.100  1.00  0.00     0.116 C 
BRANCH  29  30
ATOM     30  N   UNL A   1      33.089  32.270  27.278  1.00  0.00    -0.352 N 
ATOM     31  C   UNL A   1      33.901  33.086  28.021  1.00  0.00     0.251 C 
ATOM     32  H   UNL A   1      32.354  32.719  26.802  1.00  0.00     0.163 HD
ATOM     33  O   UNL A   1      33.584  34.261  28.204  1.00  0.00    -0.269 OA
BRANCH  31  34
ATOM     34  C   UNL A   1      35.140  32.547  28.622  1.00  0.00     0.039 A 
ATOM     35  C   UNL A   1      35.032  31.544  29.586  1.00  0.00     0.014 A 
ATOM     36  C   UNL A   1      36.400  33.030  28.249  1.00  0.00     0.014 A 
ATOM     37  C   UNL A   1      36.188  31.005  30.154  1.00  0.00     0.010 A 
ATOM     38  C   UNL A   1      37.551  32.430  28.752  1.00  0.00     0.010 A 
ATOM     39  C   UNL A   1      37.459  31.429  29.728  1.00  0.00    -0.014 A 
BRANCH  39  40
ATOM     40  C   UNL A   1      38.684  30.824  30.309  1.00  0.00     0.031 A 
ATOM     41  C   UNL A   1      39.181  31.247  31.665  1.00  0.00     0.074 A 
ATOM     42  C   UNL A   1      39.371  29.908  29.597  1.00  0.00     0.049 A 
ATOM     43  N   UNL A   1      40.178  30.765  32.362  1.00  0.00    -0.248 NA
ATOM     44  C   UNL A   1      38.489  32.370  32.316  1.00  0.00     0.031 C 
ATOM     45  C   UNL A   1      39.041  29.479  28.235  1.00  0.00     0.029 A 
ATOM     46  N   UNL A   1      40.483  29.173  29.916  1.00  0.00    -0.354 N 
ATOM     47  C   UNL A   1      40.253  31.543  33.512  1.00  0.00     0.074 A 
ATOM     48  C   UNL A   1      39.226  32.554  33.403  1.00  0.00     0.031 C 
ATOM     49  C   UNL A   1      39.908  28.528  27.852  1.00  0.00     0.029 A 
ATOM     50  C   UNL A   1      40.869  28.298  28.927  1.00  0.00     0.049 A 
ATOM     51  H   UNL A   1      40.960  29.262  30.772  1.00  0.00     0.167 HD
ATOM     52  C   UNL A   1      41.083  31.413  34.574  1.00  0.00     0.034 A 
ATOM     53  C   UNL A   1      41.872  27.401  28.896  1.00  0.00     0.034 A 
ATOM     54  C   UNL A   1      42.079  30.382  34.693  1.00  0.00     0.049 A 
ATOM     55  C   UNL A   1      42.744  27.238  30.111  1.00  0.00     0.074 A 
ATOM     56  C   UNL A   1      42.900  30.099  35.770  1.00  0.00     0.029 A 
ATOM     57  N   UNL A   1      42.403  29.476  33.694  1.00  0.00    -0.354 N 
ATOM     58  N   UNL A   1      42.683  27.864  31.261  1.00  0.00    -0.248 NA
ATOM     59  C   UNL A   1      43.798  26.216  30.038  1.00  0.00     0.031 C 
ATOM     60  C   UNL A   1      43.750  29.047  35.406  1.00  0.00     0.029 A 
ATOM     61  C   UNL A   1      43.425  28.646  34.120  1.00  0.00     0.049 A 
ATOM     62  H   UNL A   1      41.969  29.431  32.811  1.00  0.00     0.167 HD
ATOM     63  C   UNL A   1      43.657  27.282  32.064  1.00  0.00     0.074 A 
ATOM     64  C   UNL A   1      44.281  26.241  31.271  1.00  0.00     0.031 C 
ATOM     65  C   UNL A   1      44.007  27.585  33.339  1.00  0.00     0.034 A 
BRANCH  52  66
ATOM     66  C   UNL A   1      40.927  32.392  35.710  1.00  0.00     0.023 A 
ATOM     67  C   UNL A   1      41.832  33.466  35.845  1.00  0.00     0.012 A 
ATOM     68  C   UNL A   1      39.855  32.278  36.618  1.00  0.00     0.148 A 
ATOM     69  C   UNL A   1      41.700  34.382  36.889  1.00  0.00     0.002 A 
ATOM     70  C   UNL A   1      39.701  33.223  37.625  1.00  0.00     0.091 A 
ATOM     71  F   UNL A   1      39.016  31.240  36.490  1.00  0.00    -0.205 F 
ATOM     72  C   UNL A   1      40.629  34.267  37.770  1.00  0.00     0.022 A 
BRANCH  70  73
ATOM     73  S   UNL A   1      38.306  33.210  38.756  1.00  0.00     0.127 S 
ATOM     74  O   UNL A   1      37.175  33.198  37.829  1.00  0.00    -0.237 OA
ATOM     75  O   UNL A   1      38.510  31.957  39.484  1.00  0.00    -0.237 OA
ATOM     76  O   UNL A   1      38.436  34.411  39.569  1.00  0.00    -0.744 OA
ENDBRANCH  70  73
ENDBRANCH  52  66
BRANCH  53  77
ATOM     77  C   UNL A   1      42.044  26.518  27.707  1.00  0.00     0.023 A 
ATOM     78  C   UNL A   1      42.697  27.018  26.563  1.00  0.00     0.012 A 
ATOM     79  C   UNL A   1      41.593  25.185  27.712  1.00  0.00     0.148 A 
ATOM     80  C   UNL A   1      42.867  26.219  25.434  1.00  0.00     0.002 A 
ATOM     81  C   UNL A   1      41.816  24.375  26.604  1.00  0.00     0.091 A 
ATOM     82  F   UNL A   1      40.968  24.731  28.807  1.00  0.00    -0.205 F 
ATOM     83  C   UNL A   1      42.436  24.896  25.457  1.00  0.00     0.022 A 
BRANCH  81  84
ATOM     84  S   UNL A   1      41.414  22.625  26.591  1.00  0.00     0.127 S 
ATOM     85  O   UNL A   1      42.014  22.171  27.843  1.00  0.00    -0.237 OA
ATOM     86  O   UNL A   1      39.951  22.653  26.582  1.00  0.00    -0.237 OA
ATOM     87  O   UNL A   1      42.012  22.092  25.375  1.00  0.00    -0.744 OA
ENDBRANCH  81  84
ENDBRANCH  53  77
BRANCH  65  88
ATOM     88  C   UNL A   1      45.085  26.748  33.982  1.00  0.00     0.023 A 
ATOM     89  C   UNL A   1      46.440  27.110  33.846  1.00  0.00     0.012 A 
ATOM     90  C   UNL A   1      44.746  25.627  34.764  1.00  0.00     0.148 A 
ATOM     91  C   UNL A   1      47.442  26.343  34.439  1.00  0.00     0.002 A 
ATOM     92  C   UNL A   1      45.745  24.901  35.400  1.00  0.00     0.091 A 
ATOM     93  F   UNL A   1      43.453  25.285  34.867  1.00  0.00    -0.205 F 
ATOM     94  C   UNL A   1      47.094  25.247  35.225  1.00  0.00     0.022 A 
BRANCH  92  95
ATOM     95  S   UNL A   1      45.381  23.539  36.512  1.00  0.00     0.127 S 
ATOM     96  O   UNL A   1      46.721  23.089  36.882  1.00  0.00    -0.237 OA
ATOM     97  O   UNL A   1      44.642  24.203  37.587  1.00  0.00    -0.237 OA
ATOM     98  O   UNL A   1      44.591  22.591  35.737  1.00  0.00    -0.744 OA
ENDBRANCH  92  95
ENDBRANCH  65  88
ENDBRANCH  39  40
ENDBRANCH  31  34
ENDBRANCH  29  30
ENDBRANCH  28  29
ENDBRANCH  27  28
ENDBRANCH   1  27
TORSDOF 23
ENDMDL
MODEL 2
REMARK VINA RESULT:     -10.6      5.352     10.574
REMARK SMILES CCN(Cc1ccccn1)C(=O)NC(CC)(CC)C(=O)NCCCCCCNC(=O)c1ccc(-c2c3nc(c(-c4cccc(S(=O)(=O)[O-])c4F)c4ccc([nH]4)c(-c4cccc(S(=O)(=O)[O-])c4F)c4nc(c(-c5cccc(S(=O)(=O)[O-])c5F)c5ccc2[nH]5)C=C4)C=C3)cc1
REMARK SMILES IDX 24 1 23 2 22 3 21 4 19 5 20 6 14 8 13 9 11 10 12 11 3 13
REMARK SMILES IDX 2 14 1 15 4 16 5 17 6 18 10 19 7 20 9 21 8 22 15 23 16 24
REMARK SMILES IDX 17 25 18 26 25 27 26 28 27 29 28 30 29 31 30 33 31 34 32 35
REMARK SMILES IDX 93 36 33 37 92 38 34 39 35 40 36 41 86 42 37 43 91 44 85 45
REMARK SMILES IDX 87 46 38 47 90 48 84 49 83 50 39 52 71 53 51 54 70 55 52 56
REMARK SMILES IDX 55 57 69 58 88 59 53 60 54 61 68 63 89 64 56 65 40 66 41 67
REMARK SMILES IDX 49 68 42 69 44 70 50 71 43 72 45 73 46 74 47 75 48 76 72 77
REMARK SMILES IDX 73 78 81 79 74 80 76 81 82 82 75 83 77 84 78 85 79 86 80 87
REMARK SMILES IDX 57 88 58 89 66 90 59 91 61 92 67 93 60 94 62 95 63 96 64 97
REMARK SMILES IDX 65 98
REMARK H PARENT 21 7 13 12 28 32 87 51 55 62
REMARK Flexibility Score: inf
ROOT
ATOM      1  C   UNL A   1      38.117  23.591  26.008  1.00  0.00     0.002 C 
ENDROOT
BRANCH   1   2
ATOM      2  C   UNL A   1      37.193  22.949  24.961  1.00  0.00     0.021 C 
BRANCH   2   3
ATOM      3  C   UNL A   1      35.877  23.693  24.754  1.00  0.00     0.116 C 
BRANCH   3   4
ATOM      4  N   UNL A   1      34.893  23.220  25.694  1.00  0.00    -0.354 N 
ATOM      5  C   UNL A   1      33.583  23.592  25.685  1.00  0.00     0.245 C 
ATOM      6  O   UNL A   1      33.162  24.282  26.616  1.00  0.00    -0.272 OA
ATOM      7  H   UNL A   1      35.187  22.587  26.389  1.00  0.00     0.163 HD
BRANCH   5   8
ATOM      8  C   UNL A   1      32.690  23.102  24.520  1.00  0.00     0.120 C 
BRANCH   8   9
ATOM      9  N   UNL A   1      33.033  23.847  23.273  1.00  0.00    -0.323 N 
ATOM     10  C   UNL A   1      32.973  25.060  22.713  1.00  0.00     0.318 C 
ATOM     11  O   UNL A   1      33.194  25.035  21.491  1.00  0.00    -0.249 OA
ATOM     12  H   UNL A   1      33.454  23.225  22.637  1.00  0.00     0.166 HD
BRANCH  10  13
ATOM     13  N   UNL A   1      32.824  26.258  23.345  1.00  0.00    -0.319 N 
BRANCH  13  14
ATOM     14  C   UNL A   1      31.666  27.053  22.896  1.00  0.00     0.118 C 
ATOM     15  C   UNL A   1      30.320  26.550  23.419  1.00  0.00     0.027 C 
ENDBRANCH  13  14
BRANCH  13  16
ATOM     16  C   UNL A   1      33.631  26.931  24.381  1.00  0.00     0.177 C 
BRANCH  16  17
ATOM     17  C   UNL A   1      32.970  27.903  25.328  1.00  0.00     0.060 A 
ATOM     18  C   UNL A   1      32.387  27.499  26.523  1.00  0.00     0.026 A 
ATOM     19  N   UNL A   1      32.910  29.197  24.899  1.00  0.00    -0.259 NA
ATOM     20  C   UNL A   1      31.835  28.466  27.362  1.00  0.00     0.004 A 
ATOM     21  C   UNL A   1      32.350  30.108  25.724  1.00  0.00     0.111 A 
ATOM     22  C   UNL A   1      31.826  29.797  26.964  1.00  0.00     0.020 A 
ENDBRANCH  16  17
ENDBRANCH  13  16
ENDBRANCH  10  13
ENDBRANCH   8   9
BRANCH   8  23
ATOM     23  C   UNL A   1      31.151  23.246  24.752  1.00  0.00     0.035 C 
ATOM     24  C   UNL A   1      30.558  22.514  25.955  1.00  0.00     0.007 C 
ENDBRANCH   8  23
BRANCH   8  25
ATOM     25  C   UNL A   1      33.056  21.593  24.302  1.00  0.00     0.035 C 
ATOM     26  C   UNL A   1      32.363  20.891  23.137  1.00  0.00     0.007 C 
ENDBRANCH   8  25
ENDBRANCH   5   8
ENDBRANCH   3   4
ENDBRANCH   2   3
ENDBRANCH   1   2
BRANCH   1  27
ATOM     27  C   UNL A   1      39.256  22.698  26.510  1.00  0.00     0.002 C 
BRANCH  27  28
ATOM     28  C   UNL A   1      39.381  21.349  25.801  1.00  0.00     0.021 C 
BRANCH  28  29
ATOM     29  C   UNL A   1      39.981  20.239  26.653  1.00  0.00     0.116 C 
BRANCH  29  30
ATOM     30  N   UNL A   1      41.162  19.657  26.043  1.00  0.00    -0.352 N 
ATOM     31  C   UNL A   1      42.371  20.247  25.785  1.00  0.00     0.251 C 
ATOM     32  H   UNL A   1      41.084  18.712  25.779  1.00  0.00     0.163 HD
ATOM     33  O   UNL A   1      43.206  19.657  25.101  1.00  0.00    -0.269 OA
BRANCH  31  34
ATOM     34  C   UNL A   1      42.659  21.600  26.309  1.00  0.00     0.039 A 
ATOM     35  C   UNL A   1      42.762  22.657  25.403  1.00  0.00     0.014 A 
ATOM     36  C   UNL A   1      42.838  21.829  27.678  1.00  0.00     0.014 A 
ATOM     37  C   UNL A   1      43.014  23.947  25.873  1.00  0.00     0.010 A 
ATOM     38  C   UNL A   1      43.001  23.128  28.151  1.00  0.00     0.010 A 
ATOM     39  C   UNL A   1      43.116  24.198  27.254  1.00  0.00    -0.014 A 
BRANCH  39  40
ATOM     40  C   UNL A   1      43.347  25.579  27.749  1.00  0.00     0.031 A 
ATOM     41  C   UNL A   1      44.726  26.181  27.733  1.00  0.00     0.074 A 
ATOM     42  C   UNL A   1      42.310  26.285  28.243  1.00  0.00     0.049 A 
ATOM     43  N   UNL A   1      45.095  27.397  28.044  1.00  0.00    -0.248 NA
ATOM     44  C   UNL A   1      45.840  25.302  27.344  1.00  0.00     0.031 C 
ATOM     45  C   UNL A   1      40.941  25.782  28.393  1.00  0.00     0.029 A 
ATOM     46  N   UNL A   1      42.242  27.573  28.707  1.00  0.00    -0.354 N 
ATOM     47  C   UNL A   1      46.479  27.421  27.920  1.00  0.00     0.074 A 
ATOM     48  C   UNL A   1      46.890  26.087  27.543  1.00  0.00     0.031 C 
ATOM     49  C   UNL A   1      40.164  26.762  28.877  1.00  0.00     0.029 A 
ATOM     50  C   UNL A   1      40.978  27.954  29.096  1.00  0.00     0.049 A 
ATOM     51  H   UNL A   1      43.023  28.169  28.759  1.00  0.00     0.167 HD
ATOM     52  C   UNL A   1      47.330  28.462  28.079  1.00  0.00     0.034 A 
ATOM     53  C   UNL A   1      40.524  29.134  29.559  1.00  0.00     0.034 A 
ATOM     54  C   UNL A   1      46.911  29.796  28.418  1.00  0.00     0.049 A 
ATOM     55  C   UNL A   1      41.480  30.290  29.673  1.00  0.00     0.074 A 
ATOM     56  C   UNL A   1      47.679  30.944  28.502  1.00  0.00     0.029 A 
ATOM     57  N   UNL A   1      45.614  30.158  28.747  1.00  0.00    -0.354 N 
ATOM     58  N   UNL A   1      42.756  30.339  29.377  1.00  0.00    -0.248 NA
ATOM     59  C   UNL A   1      40.922  31.565  30.144  1.00  0.00     0.031 C 
ATOM     60  C   UNL A   1      46.852  31.992  28.922  1.00  0.00     0.029 A 
ATOM     61  C   UNL A   1      45.561  31.506  29.054  1.00  0.00     0.049 A 
ATOM     62  H   UNL A   1      44.843  29.545  28.760  1.00  0.00     0.167 HD
ATOM     63  C   UNL A   1      43.145  31.657  29.583  1.00  0.00     0.074 A 
ATOM     64  C   UNL A   1      41.961  32.377  30.011  1.00  0.00     0.031 C 
ATOM     65  C   UNL A   1      44.370  32.221  29.436  1.00  0.00     0.034 A 
BRANCH  52  66
ATOM     66  C   UNL A   1      48.800  28.208  27.854  1.00  0.00     0.023 A 
ATOM     67  C   UNL A   1      49.644  27.940  28.953  1.00  0.00     0.012 A 
ATOM     68  C   UNL A   1      49.337  28.187  26.553  1.00  0.00     0.148 A 
ATOM     69  C   UNL A   1      51.005  27.701  28.762  1.00  0.00     0.002 A 
ATOM     70  C   UNL A   1      50.684  27.898  26.367  1.00  0.00     0.091 A 
ATOM     71  F   UNL A   1      48.527  28.465  25.521  1.00  0.00    -0.205 F 
ATOM     72  C   UNL A   1      51.521  27.668  27.470  1.00  0.00     0.022 A 
BRANCH  70  73
ATOM     73  S   UNL A   1      51.424  27.748  24.737  1.00  0.00     0.127 S 
ATOM     74  O   UNL A   1      51.299  29.114  24.230  1.00  0.00    -0.237 OA
ATOM     75  O   UNL A   1      52.793  27.340  25.056  1.00  0.00    -0.237 OA
ATOM     76  O   UNL A   1      50.641  26.745  24.031  1.00  0.00    -0.744 OA
ENDBRANCH  70  73
ENDBRANCH  52  66
BRANCH  53  77
ATOM     77  C   UNL A   1      39.074  29.308  29.857  1.00  0.00     0.023 A 
ATOM     78  C   UNL A   1      38.593  29.009  31.147  1.00  0.00     0.012 A 
ATOM     79  C   UNL A   1      38.178  29.791  28.885  1.00  0.00     0.148 A 
ATOM     80  C   UNL A   1      37.241  29.156  31.454  1.00  0.00     0.002 A 
ATOM     81  C   UNL A   1      36.842  29.988  29.214  1.00  0.00     0.091 A 
ATOM     82  F   UNL A   1      38.654  30.062  27.662  1.00  0.00    -0.205 F 
ATOM     83  C   UNL A   1      36.368  29.653  30.492  1.00  0.00     0.022 A 
BRANCH  81  84
ATOM     84  S   UNL A   1      35.672  30.747  28.082  1.00  0.00     0.127 S 
ATOM     85  O   UNL A   1      36.370  31.975  27.708  1.00  0.00    -0.237 OA
ATOM     86  O   UNL A   1      35.581  29.741  27.024  1.00  0.00    -0.237 OA
ATOM     87  O   UNL A   1      34.445  30.927  28.846  1.00  0.00    -0.744 OA
ENDBRANCH  81  84
ENDBRANCH  53  77
BRANCH  65  88
ATOM     88  C   UNL A   1      44.490  33.702  29.693  1.00  0.00     0.023 A 
ATOM     89  C   UNL A   1      44.795  34.176  30.984  1.00  0.00     0.012 A 
ATOM     90  C   UNL A   1      44.348  34.622  28.636  1.00  0.00     0.148 A 
ATOM     91  C   UNL A   1      44.911  35.544  31.229  1.00  0.00     0.002 A 
ATOM     92  C   UNL A   1      44.521  35.980  28.875  1.00  0.00     0.091 A 
ATOM     93  F   UNL A   1      44.038  34.156  27.417  1.00  0.00    -0.205 F 
ATOM     94  C   UNL A   1      44.785  36.444  30.173  1.00  0.00     0.022 A 
BRANCH  92  95
ATOM     95  S   UNL A   1      44.479  37.198  27.556  1.00  0.00     0.127 S 
ATOM     96  O   UNL A   1      45.566  36.741  26.693  1.00  0.00    -0.237 OA
ATOM     97  O   UNL A   1      43.138  37.011  27.001  1.00  0.00    -0.237 OA
ATOM     98  O   UNL A   1      44.688  38.489  28.199  1.00  0.00    -0.744 OA
ENDBRANCH  92  95
ENDBRANCH  65  88
ENDBRANCH  39  40
ENDBRANCH  31  34
ENDBRANCH  29  30
ENDBRANCH  28  29
ENDBRANCH  27  28
ENDBRANCH   1  27
TORSDOF 23
ENDMDL
MODEL 3
REMARK VINA RESULT:     -10.5      1.864      2.639
REMARK SMILES CCN(Cc1ccccn1)C(=O)NC(CC)(CC)C(=O)NCCCCCCNC(=O)c1ccc(-c2c3nc(c(-c4cccc(S(=O)(=O)[O-])c4F)c4ccc([nH]4)c(-c4cccc(S(=O)(=O)[O-])c4F)c4nc(c(-c5cccc(S(=O)(=O)[O-])c5F)c5ccc2[nH]5)C=C4)C=C3)cc1
REMARK SMILES IDX 24 1 23 2 22 3 21 4 19 5 20 6 14 8 13 9 11 10 12 11 3 13
REMARK SMILES IDX 2 14 1 15 4 16 5 17 6 18 10 19 7 20 9 21 8 22 15 23 16 24
REMARK SMILES IDX 17 25 18 26 25 27 26 28 27 29 28 30 29 31 30 33 31 34 32 35
REMARK SMILES IDX 93 36 33 37 92 38 34 39 35 40 36 41 86 42 37 43 91 44 85 45
REMARK SMILES IDX 87 46 38 47 90 48 84 49 83 50 39 52 71 53 51 54 70 55 52 56
REMARK SMILES IDX 55 57 69 58 88 59 53 60 54 61 68 63 89 64 56 65 40 66 41 67
REMARK SMILES IDX 49 68 42 69 44 70 50 71 43 72 45 73 46 74 47 75 48 76 72 77
REMARK SMILES IDX 73 78 81 79 74 80 76 81 82 82 75 83 77 84 78 85 79 86 80 87
REMARK SMILES IDX 57 88 58 89 66 90 59 91 61 92 67 93 60 94 62 95 63 96 64 97
REMARK SMILES IDX 65 98
REMARK H PARENT 21 7 13 12 28 32 87 51 55 62
REMARK Flexibility Score: inf
ROOT
ATOM      1  C   UNL A   1      31.526  26.496  25.429  1.00  0.00     0.002 C 
ENDROOT
BRANCH   1   2
ATOM      2  C   UNL A   1      32.870  26.072  24.817  1.00  0.00     0.021 C 
BRANCH   2   3
ATOM      3  C   UNL A   1      33.767  25.286  25.768  1.00  0.00     0.116 C 
BRANCH   3   4
ATOM      4  N   UNL A   1      35.074  25.123  25.185  1.00  0.00    -0.354 N 
ATOM      5  C   UNL A   1      35.902  24.071  25.442  1.00  0.00     0.245 C 
ATOM      6  O   UNL A   1      36.944  24.283  26.067  1.00  0.00    -0.272 OA
ATOM      7  H   UNL A   1      35.391  25.816  24.561  1.00  0.00     0.163 HD
BRANCH   5   8
ATOM      8  C   UNL A   1      35.500  22.676  24.909  1.00  0.00     0.120 C 
BRANCH   8   9
ATOM      9  N   UNL A   1      34.889  21.872  26.008  1.00  0.00    -0.323 N 
ATOM     10  C   UNL A   1      33.721  21.382  26.439  1.00  0.00     0.318 C 
ATOM     11  O   UNL A   1      33.775  20.978  27.612  1.00  0.00    -0.249 OA
ATOM     12  H   UNL A   1      35.596  21.607  26.639  1.00  0.00     0.166 HD
BRANCH  10  13
ATOM     13  N   UNL A   1      32.585  21.186  25.712  1.00  0.00    -0.319 N 
BRANCH  13  14
ATOM     14  C   UNL A   1      31.494  22.135  26.002  1.00  0.00     0.118 C 
ATOM     15  C   UNL A   1      31.008  22.921  24.785  1.00  0.00     0.027 C 
ENDBRANCH  13  14
BRANCH  13  16
ATOM     16  C   UNL A   1      32.227  20.171  24.703  1.00  0.00     0.177 C 
BRANCH  16  17
ATOM     17  C   UNL A   1      32.944  18.843  24.692  1.00  0.00     0.060 A 
ATOM     18  C   UNL A   1      32.302  17.647  24.989  1.00  0.00     0.026 A 
ATOM     19  N   UNL A   1      34.285  18.898  24.449  1.00  0.00    -0.259 NA
ATOM     20  C   UNL A   1      33.026  16.458  24.914  1.00  0.00     0.004 A 
ATOM     21  C   UNL A   1      34.966  17.732  24.405  1.00  0.00     0.111 A 
ATOM     22  C   UNL A   1      34.381  16.497  24.605  1.00  0.00     0.020 A 
ENDBRANCH  16  17
ENDBRANCH  13  16
ENDBRANCH  10  13
ENDBRANCH   8   9
BRANCH   8  23
ATOM     23  C   UNL A   1      36.666  21.834  24.296  1.00  0.00     0.035 C 
ATOM     24  C   UNL A   1      37.215  20.687  25.143  1.00  0.00     0.007 C 
ENDBRANCH   8  23
BRANCH   8  25
ATOM     25  C   UNL A   1      34.400  22.930  23.822  1.00  0.00     0.035 C 
ATOM     26  C   UNL A   1      34.900  23.276  22.421  1.00  0.00     0.007 C 
ENDBRANCH   8  25
ENDBRANCH   5   8
ENDBRANCH   3   4
ENDBRANCH   2   3
ENDBRANCH   1   2
BRANCH   1  27
ATOM     27  C   UNL A   1      31.576  27.741  26.320  1.00  0.00     0.002 C 
BRANCH  27  28
ATOM     28  C   UNL A   1      31.590  29.073  25.569  1.00  0.00     0.021 C 
BRANCH  28  29
ATOM     29  C   UNL A   1      32.830  29.923  25.808  1.00  0.00     0.116 C 
BRANCH  29  30
ATOM     30  N   UNL A   1      32.500  31.278  26.207  1.00  0.00    -0.352 N 
ATOM     31  C   UNL A   1      33.102  32.062  27.155  1.00  0.00     0.251 C 
ATOM     32  H   UNL A   1      31.741  31.689  25.733  1.00  0.00     0.163 HD
ATOM     33  O   UNL A   1      32.582  33.125  27.490  1.00  0.00    -0.269 OA
BRANCH  31  34
ATOM     34  C   UNL A   1      34.362  31.617  27.790  1.00  0.00     0.039 A 
ATOM     35  C   UNL A   1      35.414  32.528  27.894  1.00  0.00     0.014 A 
ATOM     36  C   UNL A   1      34.513  30.311  28.271  1.00  0.00     0.014 A 
ATOM     37  C   UNL A   1      36.606  32.139  28.507  1.00  0.00     0.010 A 
ATOM     38  C   UNL A   1      35.669  29.953  28.959  1.00  0.00     0.010 A 
ATOM     39  C   UNL A   1      36.738  30.854  29.064  1.00  0.00    -0.014 A 
BRANCH  39  40
ATOM     40  C   UNL A   1      37.996  30.459  29.748  1.00  0.00     0.031 A 
ATOM     41  C   UNL A   1      38.303  30.951  31.136  1.00  0.00     0.074 A 
ATOM     42  C   UNL A   1      38.880  29.674  29.100  1.00  0.00     0.049 A 
ATOM     43  N   UNL A   1      39.307  30.639  31.915  1.00  0.00    -0.248 NA
ATOM     44  C   UNL A   1      37.383  31.940  31.719  1.00  0.00     0.031 C 
ATOM     45  C   UNL A   1      38.738  29.203  27.720  1.00  0.00     0.029 A 
ATOM     46  N   UNL A   1      40.070  29.133  29.515  1.00  0.00    -0.354 N 
ATOM     47  C   UNL A   1      39.158  31.412  33.060  1.00  0.00     0.074 A 
ATOM     48  C   UNL A   1      37.988  32.238  32.860  1.00  0.00     0.031 C 
ATOM     49  C   UNL A   1      39.779  28.413  27.416  1.00  0.00     0.029 A 
ATOM     50  C   UNL A   1      40.675  28.340  28.567  1.00  0.00     0.049 A 
ATOM     51  H   UNL A   1      40.455  29.296  30.405  1.00  0.00     0.167 HD
ATOM     52  C   UNL A   1      39.909  31.417  34.187  1.00  0.00     0.034 A 
ATOM     53  C   UNL A   1      41.813  27.623  28.624  1.00  0.00     0.034 A 
ATOM     54  C   UNL A   1      41.050  30.565  34.394  1.00  0.00     0.049 A 
ATOM     55  C   UNL A   1      42.599  27.602  29.907  1.00  0.00     0.074 A 
ATOM     56  C   UNL A   1      41.817  30.417  35.536  1.00  0.00     0.029 A 
ATOM     57  N   UNL A   1      41.600  29.732  33.432  1.00  0.00    -0.354 N 
ATOM     58  N   UNL A   1      42.341  28.202  31.043  1.00  0.00    -0.248 NA
ATOM     59  C   UNL A   1      43.810  26.770  29.928  1.00  0.00     0.031 C 
ATOM     60  C   UNL A   1      42.857  29.524  35.251  1.00  0.00     0.029 A 
ATOM     61  C   UNL A   1      42.708  29.081  33.947  1.00  0.00     0.049 A 
ATOM     62  H   UNL A   1      41.253  29.620  32.518  1.00  0.00     0.167 HD
ATOM     63  C   UNL A   1      43.330  27.786  31.927  1.00  0.00     0.074 A 
ATOM     64  C   UNL A   1      44.181  26.868  31.196  1.00  0.00     0.031 C 
ATOM     65  C   UNL A   1      43.521  28.136  33.224  1.00  0.00     0.034 A 
BRANCH  52  66
ATOM     66  C   UNL A   1      39.500  32.350  35.299  1.00  0.00     0.023 A 
ATOM     67  C   UNL A   1      38.654  31.890  36.330  1.00  0.00     0.012 A 
ATOM     68  C   UNL A   1      39.991  33.669  35.350  1.00  0.00     0.148 A 
ATOM     69  C   UNL A   1      38.268  32.739  37.367  1.00  0.00     0.002 A 
ATOM     70  C   UNL A   1      39.643  34.494  36.413  1.00  0.00     0.091 A 
ATOM     71  F   UNL A   1      40.777  34.099  34.352  1.00  0.00    -0.205 F 
ATOM     72  C   UNL A   1      38.771  34.036  37.414  1.00  0.00     0.022 A 
BRANCH  70  73
ATOM     73  S   UNL A   1      40.309  36.151  36.608  1.00  0.00     0.127 S 
ATOM     74  O   UNL A   1      41.747  35.887  36.653  1.00  0.00    -0.237 OA
ATOM     75  O   UNL A   1      39.850  36.814  35.387  1.00  0.00    -0.237 OA
ATOM     76  O   UNL A   1      39.730  36.675  37.836  1.00  0.00    -0.744 OA
ENDBRANCH  70  73
ENDBRANCH  52  66
BRANCH  53  77
ATOM     77  C   UNL A   1      42.226  26.787  27.461  1.00  0.00     0.023 A 
ATOM     78  C   UNL A   1      42.968  27.375  26.417  1.00  0.00     0.012 A 
ATOM     79  C   UNL A   1      41.915  25.416  27.395  1.00  0.00     0.148 A 
ATOM     80  C   UNL A   1      43.362  26.620  25.312  1.00  0.00     0.002 A 
ATOM     81  C   UNL A   1      42.359  24.657  26.318  1.00  0.00     0.091 A 
ATOM     82  F   UNL A   1      41.202  24.879  28.395  1.00  0.00    -0.205 F 
ATOM     83  C   UNL A   1      43.067  25.262  25.267  1.00  0.00     0.022 A 
BRANCH  81  84
ATOM     84  S   UNL A   1      42.140  22.877  26.238  1.00  0.00     0.127 S 
ATOM     85  O   UNL A   1      42.863  22.542  25.013  1.00  0.00    -0.237 OA
ATOM     86  O   UNL A   1      42.785  22.438  27.476  1.00  0.00    -0.237 OA
ATOM     87  O   UNL A   1      40.701  22.658  26.200  1.00  0.00    -0.744 OA
ENDBRANCH  81  84
ENDBRANCH  53  77
BRANCH  65  88
ATOM     88  C   UNL A   1      44.667  27.488  33.958  1.00  0.00     0.023 A 
ATOM     89  C   UNL A   1      45.924  28.123  34.014  1.00  0.00     0.012 A 
ATOM     90  C   UNL A   1      44.480  26.268  34.637  1.00  0.00     0.148 A 
ATOM     91  C   UNL A   1      46.988  27.531  34.694  1.00  0.00     0.002 A 
ATOM     92  C   UNL A   1      45.529  25.712  35.360  1.00  0.00     0.091 A 
ATOM     93  F   UNL A   1      43.284  25.668  34.557  1.00  0.00    -0.205 F 
ATOM     94  C   UNL A   1      46.787  26.333  35.375  1.00  0.00     0.022 A 
BRANCH  92  95
ATOM     95  S   UNL A   1      45.329  24.227  36.350  1.00  0.00     0.127 S 
ATOM     96  O   UNL A   1      44.125  24.540  37.117  1.00  0.00    -0.237 OA
ATOM     97  O   UNL A   1      45.152  23.193  35.329  1.00  0.00    -0.237 OA
ATOM     98  O   UNL A   1      46.554  24.099  37.129  1.00  0.00    -0.744 OA
ENDBRANCH  92  95
ENDBRANCH  65  88
ENDBRANCH  39  40
ENDBRANCH  31  34
ENDBRANCH  29  30
ENDBRANCH  28  29
ENDBRANCH  27  28
ENDBRANCH   1  27
TORSDOF 23
ENDMDL
