MODEL 1
REMARK VINA RESULT:     -11.9      0.000      0.000
REMARK SMILES Cc1cc(F)c(C(=O)NCCCCCCNC(=O)c2ccc(-c3c4nc(c(-c5cccc(S(=O)(=O)[O-])c5F)c5ccc([nH]5)c(-c5cccc(S(=O)(=O)[O-])c5F)c5nc(c(-c6cccc(S(=O)(=O)[O-])c6F)c6ccc3[nH]6)C=C5)C=C4)cc2)cc1F
REMARK SMILES IDX 14 1 13 2 12 3 11 4 10 5 9 6 7 7 8 8 6 10 1 11 2 12 3 13
REMARK SMILES IDX 83 14 4 15 82 16 84 17 5 18 15 19 16 20 17 21 18 23 19 24
REMARK SMILES IDX 20 25 81 26 21 27 80 28 22 29 23 30 24 31 74 32 25 33 79 34
REMARK SMILES IDX 73 35 75 36 26 37 78 38 72 39 71 40 27 42 59 43 39 44 58 45
REMARK SMILES IDX 40 46 43 47 57 48 76 49 41 50 42 51 56 53 77 54 44 55 28 56
REMARK SMILES IDX 29 57 37 58 30 59 32 60 38 61 31 62 33 63 34 64 35 65 36 66
REMARK SMILES IDX 60 67 61 68 69 69 62 70 64 71 70 72 63 73 65 74 66 75 67 76
REMARK SMILES IDX 68 77 45 78 46 79 54 80 47 81 49 82 55 83 48 84 50 85 51 86
REMARK SMILES IDX 52 87 53 88
REMARK H PARENT 9 9 16 22 75 41 43 52
REMARK Flexibility Score: inf
ROOT
ATOM      1  C   UNL A   1      35.808  21.253  25.647  1.00  0.00     0.021 C 
ENDROOT
BRANCH   1   2
ATOM      2  C   UNL A   1      34.641  21.072  24.678  1.00  0.00     0.002 C 
BRANCH   2   3
ATOM      3  C   UNL A   1      33.939  22.343  24.195  1.00  0.00     0.002 C 
BRANCH   3   4
ATOM      4  C   UNL A   1      32.628  22.173  23.424  1.00  0.00     0.021 C 
BRANCH   4   5
ATOM      5  C   UNL A   1      31.865  23.443  23.055  1.00  0.00     0.116 C 
BRANCH   5   6
ATOM      6  N   UNL A   1      32.559  24.287  22.100  1.00  0.00    -0.352 N 
ATOM      7  C   UNL A   1      32.982  25.592  22.198  1.00  0.00     0.254 C 
ATOM      8  O   UNL A   1      33.589  26.089  21.252  1.00  0.00    -0.269 OA
ATOM      9  H   UNL A   1      32.762  23.853  21.240  1.00  0.00     0.163 HD
BRANCH   7  10
ATOM     10  C   UNL A   1      32.716  26.405  23.405  1.00  0.00     0.078 A 
ATOM     11  C   UNL A   1      31.778  28.721  26.926  1.00  0.00     0.047 C 
ATOM     12  C   UNL A   1      32.100  27.928  25.695  1.00  0.00    -0.012 A 
ATOM     13  C   UNL A   1      31.175  27.815  24.653  1.00  0.00     0.046 A 
ATOM     14  C   UNL A   1      33.352  27.329  25.540  1.00  0.00     0.127 A 
ATOM     15  C   UNL A   1      31.482  27.052  23.524  1.00  0.00     0.136 A 
ATOM     16  C   UNL A   1      33.674  26.591  24.403  1.00  0.00     0.056 A 
ATOM     17  F   UNL A   1      34.272  27.452  26.508  1.00  0.00    -0.207 F 
ATOM     18  F   UNL A   1      30.543  26.939  22.572  1.00  0.00    -0.206 F 
ENDBRANCH   7  10
ENDBRANCH   5   6
ENDBRANCH   4   5
ENDBRANCH   3   4
ENDBRANCH   2   3
ENDBRANCH   1   2
BRANCH   1  19
ATOM     19  C   UNL A   1      37.178  21.497  25.024  1.00  0.00     0.116 C 
BRANCH  19  20
ATOM     20  N   UNL A   1      38.165  20.486  25.360  1.00  0.00    -0.352 N 
ATOM     21  C   UNL A   1      39.360  20.627  26.034  1.00  0.00     0.251 C 
ATOM     22  H   UNL A   1      37.953  19.571  25.064  1.00  0.00     0.163 HD
ATOM     23  O   UNL A   1      40.107  19.665  26.164  1.00  0.00    -0.269 OA
BRANCH  21  24
ATOM     24  C   UNL A   1      39.757  21.958  26.555  1.00  0.00     0.039 A 
ATOM     25  C   UNL A   1      39.115  23.121  26.127  1.00  0.00     0.014 A 
ATOM     26  C   UNL A   1      40.828  22.040  27.450  1.00  0.00     0.014 A 
ATOM     27  C   UNL A   1      39.653  24.365  26.446  1.00  0.00     0.010 A 
ATOM     28  C   UNL A   1      41.321  23.292  27.830  1.00  0.00     0.010 A 
ATOM     29  C   UNL A   1      40.777  24.465  27.284  1.00  0.00    -0.014 A 
BRANCH  29  30
ATOM     30  C   UNL A   1      41.388  25.794  27.551  1.00  0.00     0.031 A 
ATOM     31  C   UNL A   1      40.642  26.837  28.344  1.00  0.00     0.074 A 
ATOM     32  C   UNL A   1      42.634  26.057  27.109  1.00  0.00     0.049 A 
ATOM     33  N   UNL A   1      41.018  28.049  28.667  1.00  0.00    -0.248 NA
ATOM     34  C   UNL A   1      39.302  26.479  28.839  1.00  0.00     0.031 C 
ATOM     35  C   UNL A   1      43.460  25.140  26.324  1.00  0.00     0.029 A 
ATOM     36  N   UNL A   1      43.423  27.170  27.262  1.00  0.00    -0.354 N 
ATOM     37  C   UNL A   1      39.951  28.610  29.359  1.00  0.00     0.074 A 
ATOM     38  C   UNL A   1      38.909  27.609  29.413  1.00  0.00     0.031 C 
ATOM     39  C   UNL A   1      44.651  25.712  26.091  1.00  0.00     0.029 A 
ATOM     40  C   UNL A   1      44.658  27.053  26.668  1.00  0.00     0.049 A 
ATOM     41  H   UNL A   1      43.134  27.974  27.750  1.00  0.00     0.167 HD
ATOM     42  C   UNL A   1      39.855  29.839  29.918  1.00  0.00     0.034 A 
ATOM     43  C   UNL A   1      45.681  27.927  26.587  1.00  0.00     0.034 A 
ATOM     44  C   UNL A   1      40.910  30.816  29.924  1.00  0.00     0.049 A 
ATOM     45  C   UNL A   1      45.552  29.279  27.224  1.00  0.00     0.074 A 
ATOM     46  C   UNL A   1      40.914  32.068  30.512  1.00  0.00     0.029 A 
ATOM     47  N   UNL A   1      42.146  30.651  29.322  1.00  0.00    -0.354 N 
ATOM     48  N   UNL A   1      44.561  29.759  27.934  1.00  0.00    -0.248 NA
ATOM     49  C   UNL A   1      46.682  30.206  27.060  1.00  0.00     0.031 C 
ATOM     50  C   UNL A   1      42.155  32.662  30.267  1.00  0.00     0.029 A 
ATOM     51  C   UNL A   1      42.922  31.777  29.526  1.00  0.00     0.049 A 
ATOM     52  H   UNL A   1      42.430  29.850  28.824  1.00  0.00     0.167 HD
ATOM     53  C   UNL A   1      44.949  31.040  28.310  1.00  0.00     0.074 A 
ATOM     54  C   UNL A   1      46.276  31.253  27.768  1.00  0.00     0.031 C 
ATOM     55  C   UNL A   1      44.257  31.962  29.022  1.00  0.00     0.034 A 
BRANCH  42  56
ATOM     56  C   UNL A   1      38.580  30.194  30.633  1.00  0.00     0.023 A 
ATOM     57  C   UNL A   1      38.429  29.829  31.985  1.00  0.00     0.012 A 
ATOM     58  C   UNL A   1      37.589  30.973  30.006  1.00  0.00     0.148 A 
ATOM     59  C   UNL A   1      37.303  30.228  32.703  1.00  0.00     0.002 A 
ATOM     60  C   UNL A   1      36.481  31.389  30.736  1.00  0.00     0.091 A 
ATOM     61  F   UNL A   1      37.753  31.296  28.716  1.00  0.00    -0.205 F 
ATOM     62  C   UNL A   1      36.336  31.014  32.083  1.00  0.00     0.022 A 
BRANCH  60  63
ATOM     63  S   UNL A   1      35.203  32.449  30.050  1.00  0.00     0.127 S 
ATOM     64  O   UNL A   1      34.372  32.706  31.226  1.00  0.00    -0.237 OA
ATOM     65  O   UNL A   1      35.977  33.601  29.585  1.00  0.00    -0.237 OA
ATOM     66  O   UNL A   1      34.563  31.676  28.995  1.00  0.00    -0.744 OA
ENDBRANCH  60  63
ENDBRANCH  42  56
BRANCH  43  67
ATOM     67  C   UNL A   1      46.937  27.511  25.906  1.00  0.00     0.023 A 
ATOM     68  C   UNL A   1      47.881  26.747  26.618  1.00  0.00     0.012 A 
ATOM     69  C   UNL A   1      47.158  27.795  24.546  1.00  0.00     0.148 A 
ATOM     70  C   UNL A   1      49.031  26.275  25.985  1.00  0.00     0.002 A 
ATOM     71  C   UNL A   1      48.283  27.285  23.910  1.00  0.00     0.091 A 
ATOM     72  F   UNL A   1      46.247  28.531  23.896  1.00  0.00    -0.205 F 
ATOM     73  C   UNL A   1      49.226  26.533  24.630  1.00  0.00     0.022 A 
BRANCH  71  74
ATOM     74  S   UNL A   1      48.563  27.464  22.145  1.00  0.00     0.127 S 
ATOM     75  O   UNL A   1      49.823  28.204  22.117  1.00  0.00    -0.237 OA
ATOM     76  O   UNL A   1      48.657  26.069  21.715  1.00  0.00    -0.237 OA
ATOM     77  O   UNL A   1      47.403  28.180  21.630  1.00  0.00    -0.744 OA
ENDBRANCH  71  74
ENDBRANCH  43  67
BRANCH  55  78
ATOM     78  C   UNL A   1      44.903  33.295  29.267  1.00  0.00     0.023 A 
ATOM     79  C   UNL A   1      45.719  33.460  30.403  1.00  0.00     0.012 A 
ATOM     80  C   UNL A   1      44.809  34.331  28.319  1.00  0.00     0.148 A 
ATOM     81  C   UNL A   1      46.429  34.644  30.595  1.00  0.00     0.002 A 
ATOM     82  C   UNL A   1      45.544  35.497  28.502  1.00  0.00     0.091 A 
ATOM     83  F   UNL A   1      44.017  34.149  27.252  1.00  0.00    -0.205 F 
ATOM     84  C   UNL A   1      46.351  35.656  29.640  1.00  0.00     0.022 A 
BRANCH  82  85
ATOM     85  S   UNL A   1      45.567  36.826  27.294  1.00  0.00     0.127 S 
ATOM     86  O   UNL A   1      44.145  37.145  27.174  1.00  0.00    -0.237 OA
ATOM     87  O   UNL A   1      46.367  37.846  27.971  1.00  0.00    -0.237 OA
ATOM     88  O   UNL A   1      46.181  36.271  26.094  1.00  0.00    -0.744 OA
ENDBRANCH  82  85
ENDBRANCH  55  78
ENDBRANCH  29  30
ENDBRANCH  21  24
ENDBRANCH  19  20
ENDBRANCH   1  19
TORSDOF 16
ENDMDL
MODEL 2
REMARK VINA RESULT:     -11.9      5.300      7.910
REMARK SMILES Cc1cc(F)c(C(=O)NCCCCCCNC(=O)c2ccc(-c3c4nc(c(-c5cccc(S(=O)(=O)[O-])c5F)c5ccc([nH]5)c(-c5cccc(S(=O)(=O)[O-])c5F)c5nc(c(-c6cccc(S(=O)(=O)[O-])c6F)c6ccc3[nH]6)C=C5)C=C4)cc2)cc1F
REMARK SMILES IDX 14 1 13 2 12 3 11 4 10 5 9 6 7 7 8 8 6 10 1 11 2 12 3 13
REMARK SMILES IDX 83 14 4 15 82 16 84 17 5 18 15 19 16 20 17 21 18 23 19 24
REMARK SMILES IDX 20 25 81 26 21 27 80 28 22 29 23 30 24 31 74 32 25 33 79 34
REMARK SMILES IDX 73 35 75 36 26 37 78 38 72 39 71 40 27 42 59 43 39 44 58 45
REMARK SMILES IDX 40 46 43 47 57 48 76 49 41 50 42 51 56 53 77 54 44 55 28 56
REMARK SMILES IDX 29 57 37 58 30 59 32 60 38 61 31 62 33 63 34 64 35 65 36 66
REMARK SMILES IDX 60 67 61 68 69 69 62 70 64 71 70 72 63 73 65 74 66 75 67 76
REMARK SMILES IDX 68 77 45 78 46 79 54 80 47 81 49 82 55 83 48 84 50 85 51 86
REMARK SMILES IDX 52 87 53 88
REMARK H PARENT 9 9 16 22 75 41 43 52
REMARK Flexibility Score: inf
ROOT
ATOM      1  C   UNL A   1      31.525  29.201  25.477  1.00  0.00     0.021 C 
ENDROOT
BRANCH   1   2
ATOM      2  C   UNL A   1      31.389  27.947  26.340  1.00  0.00     0.002 C 
BRANCH   2   3
ATOM      3  C   UNL A   1      32.682  27.344  26.893  1.00  0.00     0.002 C 
BRANCH   3   4
ATOM      4  C   UNL A   1      33.316  26.196  26.103  1.00  0.00     0.021 C 
BRANCH   4   5
ATOM      5  C   UNL A   1      33.923  26.535  24.744  1.00  0.00     0.116 C 
BRANCH   5   6
ATOM      6  N   UNL A   1      33.695  25.521  23.731  1.00  0.00    -0.352 N 
ATOM      7  C   UNL A   1      32.630  25.324  22.883  1.00  0.00     0.254 C 
ATOM      8  O   UNL A   1      32.683  24.400  22.074  1.00  0.00    -0.269 OA
ATOM      9  H   UNL A   1      34.424  24.866  23.635  1.00  0.00     0.163 HD
BRANCH   7  10
ATOM     10  C   UNL A   1      31.431  26.189  22.929  1.00  0.00     0.078 A 
ATOM     11  C   UNL A   1      27.906  28.664  23.226  1.00  0.00     0.047 C 
ATOM     12  C   UNL A   1      29.122  27.793  23.119  1.00  0.00    -0.012 A 
ATOM     13  C   UNL A   1      29.151  26.525  23.706  1.00  0.00     0.046 A 
ATOM     14  C   UNL A   1      30.234  28.210  22.383  1.00  0.00     0.127 A 
ATOM     15  C   UNL A   1      30.300  25.737  23.617  1.00  0.00     0.136 A 
ATOM     16  C   UNL A   1      31.373  27.416  22.266  1.00  0.00     0.056 A 
ATOM     17  F   UNL A   1      30.220  29.407  21.778  1.00  0.00    -0.207 F 
ATOM     18  F   UNL A   1      30.292  24.547  24.235  1.00  0.00    -0.206 F 
ENDBRANCH   7  10
ENDBRANCH   5   6
ENDBRANCH   4   5
ENDBRANCH   3   4
ENDBRANCH   2   3
ENDBRANCH   1   2
BRANCH   1  19
ATOM     19  C   UNL A   1      32.757  30.064  25.721  1.00  0.00     0.116 C 
BRANCH  19  20
ATOM     20  N   UNL A   1      32.462  31.356  26.315  1.00  0.00    -0.352 N 
ATOM     21  C   UNL A   1      33.200  32.085  27.224  1.00  0.00     0.251 C 
ATOM     22  H   UNL A   1      31.616  31.769  26.029  1.00  0.00     0.163 HD
ATOM     23  O   UNL A   1      32.754  33.134  27.673  1.00  0.00    -0.269 OA
BRANCH  21  24
ATOM     24  C   UNL A   1      34.508  31.567  27.692  1.00  0.00     0.039 A 
ATOM     25  C   UNL A   1      34.707  30.203  27.915  1.00  0.00     0.014 A 
ATOM     26  C   UNL A   1      35.537  32.475  27.960  1.00  0.00     0.014 A 
ATOM     27  C   UNL A   1      35.857  29.770  28.571  1.00  0.00     0.010 A 
ATOM     28  C   UNL A   1      36.723  32.028  28.550  1.00  0.00     0.010 A 
ATOM     29  C   UNL A   1      36.869  30.681  28.917  1.00  0.00    -0.014 A 
BRANCH  29  30
ATOM     30  C   UNL A   1      38.053  30.217  29.688  1.00  0.00     0.031 A 
ATOM     31  C   UNL A   1      38.280  30.684  31.104  1.00  0.00     0.074 A 
ATOM     32  C   UNL A   1      38.914  29.346  29.127  1.00  0.00     0.049 A 
ATOM     33  N   UNL A   1      39.259  30.387  31.920  1.00  0.00    -0.248 NA
ATOM     34  C   UNL A   1      37.284  31.602  31.680  1.00  0.00     0.031 C 
ATOM     35  C   UNL A   1      38.815  28.823  27.764  1.00  0.00     0.029 A 
ATOM     36  N   UNL A   1      40.038  28.742  29.635  1.00  0.00    -0.354 N 
ATOM     37  C   UNL A   1      39.023  31.111  33.082  1.00  0.00     0.074 A 
ATOM     38  C   UNL A   1      37.806  31.864  32.871  1.00  0.00     0.031 C 
ATOM     39  C   UNL A   1      39.815  27.953  27.554  1.00  0.00     0.029 A 
ATOM     40  C   UNL A   1      40.653  27.890  28.748  1.00  0.00     0.049 A 
ATOM     41  H   UNL A   1      40.371  28.902  30.548  1.00  0.00     0.167 HD
ATOM     42  C   UNL A   1      39.740  31.132  34.230  1.00  0.00     0.034 A 
ATOM     43  C   UNL A   1      41.770  27.147  28.873  1.00  0.00     0.034 A 
ATOM     44  C   UNL A   1      40.914  30.337  34.471  1.00  0.00     0.049 A 
ATOM     45  C   UNL A   1      42.541  27.181  30.160  1.00  0.00     0.074 A 
ATOM     46  C   UNL A   1      41.673  30.259  35.625  1.00  0.00     0.029 A 
ATOM     47  N   UNL A   1      41.494  29.481  33.550  1.00  0.00    -0.354 N 
ATOM     48  N   UNL A   1      42.258  27.818  31.269  1.00  0.00    -0.248 NA
ATOM     49  C   UNL A   1      43.778  26.387  30.219  1.00  0.00     0.031 C 
ATOM     50  C   UNL A   1      42.713  29.353  35.403  1.00  0.00     0.029 A 
ATOM     51  C   UNL A   1      42.601  28.869  34.110  1.00  0.00     0.049 A 
ATOM     52  H   UNL A   1      41.166  29.331  32.634  1.00  0.00     0.167 HD
ATOM     53  C   UNL A   1      43.274  27.497  32.161  1.00  0.00     0.074 A 
ATOM     54  C   UNL A   1      44.168  26.590  31.471  1.00  0.00     0.031 C 
ATOM     55  C   UNL A   1      43.457  27.934  33.431  1.00  0.00     0.034 A 
BRANCH  42  56
ATOM     56  C   UNL A   1      39.250  32.000  35.356  1.00  0.00     0.023 A 
ATOM     57  C   UNL A   1      38.337  31.466  36.286  1.00  0.00     0.012 A 
ATOM     58  C   UNL A   1      39.769  33.294  35.553  1.00  0.00     0.148 A 
ATOM     59  C   UNL A   1      37.940  32.211  37.395  1.00  0.00     0.002 A 
ATOM     60  C   UNL A   1      39.388  34.022  36.675  1.00  0.00     0.091 A 
ATOM     61  F   UNL A   1      40.626  33.783  34.646  1.00  0.00    -0.205 F 
ATOM     62  C   UNL A   1      38.472  33.483  37.594  1.00  0.00     0.022 A 
BRANCH  60  63
ATOM     63  S   UNL A   1      40.052  35.647  37.055  1.00  0.00     0.127 S 
ATOM     64  O   UNL A   1      39.652  36.412  35.874  1.00  0.00    -0.237 OA
ATOM     65  O   UNL A   1      39.331  35.994  38.280  1.00  0.00    -0.237 OA
ATOM     66  O   UNL A   1      41.487  35.468  37.221  1.00  0.00    -0.744 OA
ENDBRANCH  60  63
ENDBRANCH  42  56
BRANCH  43  67
ATOM     67  C   UNL A   1      42.188  26.271  27.746  1.00  0.00     0.023 A 
ATOM     68  C   UNL A   1      43.130  26.753  26.817  1.00  0.00     0.012 A 
ATOM     69  C   UNL A   1      41.725  24.947  27.639  1.00  0.00     0.148 A 
ATOM     70  C   UNL A   1      43.602  25.929  25.796  1.00  0.00     0.002 A 
ATOM     71  C   UNL A   1      42.231  24.118  26.646  1.00  0.00     0.091 A 
ATOM     72  F   UNL A   1      40.822  24.518  28.531  1.00  0.00    -0.205 F 
ATOM     73  C   UNL A   1      43.162  24.610  25.717  1.00  0.00     0.022 A 
BRANCH  71  74
ATOM     74  S   UNL A   1      41.815  22.375  26.534  1.00  0.00     0.127 S 
ATOM     75  O   UNL A   1      42.306  21.868  27.815  1.00  0.00    -0.237 OA
ATOM     76  O   UNL A   1      40.359  22.423  26.408  1.00  0.00    -0.237 OA
ATOM     77  O   UNL A   1      42.508  21.876  25.354  1.00  0.00    -0.744 OA
ENDBRANCH  71  74
ENDBRANCH  43  67
BRANCH  55  78
ATOM     78  C   UNL A   1      44.668  27.448  34.176  1.00  0.00     0.023 A 
ATOM     79  C   UNL A   1      45.831  28.243  34.182  1.00  0.00     0.012 A 
ATOM     80  C   UNL A   1      44.613  26.284  34.966  1.00  0.00     0.148 A 
ATOM     81  C   UNL A   1      46.928  27.880  34.961  1.00  0.00     0.002 A 
ATOM     82  C   UNL A   1      45.700  25.947  35.765  1.00  0.00     0.091 A 
ATOM     83  F   UNL A   1      43.496  25.543  34.933  1.00  0.00    -0.205 F 
ATOM     84  C   UNL A   1      46.858  26.741  35.760  1.00  0.00     0.022 A 
BRANCH  82  85
ATOM     85  S   UNL A   1      45.680  24.541  36.883  1.00  0.00     0.127 S 
ATOM     86  O   UNL A   1      44.598  24.904  37.798  1.00  0.00    -0.237 OA
ATOM     87  O   UNL A   1      45.371  23.432  35.981  1.00  0.00    -0.237 OA
ATOM     88  O   UNL A   1      47.006  24.484  37.484  1.00  0.00    -0.744 OA
ENDBRANCH  82  85
ENDBRANCH  55  78
ENDBRANCH  29  30
ENDBRANCH  21  24
ENDBRANCH  19  20
ENDBRANCH   1  19
TORSDOF 16
ENDMDL
MODEL 3
REMARK VINA RESULT:     -11.9      5.490     10.483
REMARK SMILES Cc1cc(F)c(C(=O)NCCCCCCNC(=O)c2ccc(-c3c4nc(c(-c5cccc(S(=O)(=O)[O-])c5F)c5ccc([nH]5)c(-c5cccc(S(=O)(=O)[O-])c5F)c5nc(c(-c6cccc(S(=O)(=O)[O-])c6F)c6ccc3[nH]6)C=C5)C=C4)cc2)cc1F
REMARK SMILES IDX 14 1 13 2 12 3 11 4 10 5 9 6 7 7 8 8 6 10 1 11 2 12 3 13
REMARK SMILES IDX 83 14 4 15 82 16 84 17 5 18 15 19 16 20 17 21 18 23 19 24
REMARK SMILES IDX 20 25 81 26 21 27 80 28 22 29 23 30 24 31 74 32 25 33 79 34
REMARK SMILES IDX 73 35 75 36 26 37 78 38 72 39 71 40 27 42 59 43 39 44 58 45
REMARK SMILES IDX 40 46 43 47 57 48 76 49 41 50 42 51 56 53 77 54 44 55 28 56
REMARK SMILES IDX 29 57 37 58 30 59 32 60 38 61 31 62 33 63 34 64 35 65 36 66
REMARK SMILES IDX 60 67 61 68 69 69 62 70 64 71 70 72 63 73 65 74 66 75 67 76
REMARK SMILES IDX 68 77 45 78 46 79 54 80 47 81 49 82 55 83 48 84 50 85 51 86
REMARK SMILES IDX 52 87 53 88
REMARK H PARENT 9 9 16 22 75 41 43 52
REMARK Flexibility Score: inf
ROOT
ATOM      1  C   UNL A   1      31.424  29.229  26.654  1.00  0.00     0.021 C 
ENDROOT
BRANCH   1   2
ATOM      2  C   UNL A   1      31.951  27.854  27.063  1.00  0.00     0.002 C 
BRANCH   2   3
ATOM      3  C   UNL A   1      33.315  27.442  26.504  1.00  0.00     0.002 C 
BRANCH   3   4
ATOM      4  C   UNL A   1      33.330  26.709  25.160  1.00  0.00     0.021 C 
BRANCH   4   5
ATOM      5  C   UNL A   1      32.002  26.157  24.650  1.00  0.00     0.116 C 
BRANCH   5   6
ATOM      6  N   UNL A   1      31.955  25.979  23.210  1.00  0.00    -0.352 N 
ATOM      7  C   UNL A   1      31.250  26.660  22.244  1.00  0.00     0.254 C 
ATOM      8  O   UNL A   1      31.403  26.342  21.067  1.00  0.00    -0.269 OA
ATOM      9  H   UNL A   1      32.522  25.252  22.868  1.00  0.00     0.163 HD
BRANCH   7  10
ATOM     10  C   UNL A   1      30.314  27.751  22.592  1.00  0.00     0.078 A 
ATOM     11  C   UNL A   1      27.666  31.038  23.500  1.00  0.00     0.047 C 
ATOM     12  C   UNL A   1      28.594  29.901  23.196  1.00  0.00    -0.012 A 
ATOM     13  C   UNL A   1      29.964  30.120  23.020  1.00  0.00     0.046 A 
ATOM     14  C   UNL A   1      28.117  28.589  23.133  1.00  0.00     0.127 A 
ATOM     15  C   UNL A   1      30.810  29.052  22.713  1.00  0.00     0.136 A 
ATOM     16  C   UNL A   1      28.962  27.517  22.856  1.00  0.00     0.056 A 
ATOM     17  F   UNL A   1      26.814  28.345  23.333  1.00  0.00    -0.207 F 
ATOM     18  F   UNL A   1      32.109  29.323  22.511  1.00  0.00    -0.206 F 
ENDBRANCH   7  10
ENDBRANCH   5   6
ENDBRANCH   4   5
ENDBRANCH   3   4
ENDBRANCH   2   3
ENDBRANCH   1   2
BRANCH   1  19
ATOM     19  C   UNL A   1      32.440  30.197  26.059  1.00  0.00     0.116 C 
BRANCH  19  20
ATOM     20  N   UNL A   1      32.274  31.570  26.503  1.00  0.00    -0.352 N 
ATOM     21  C   UNL A   1      33.107  32.336  27.291  1.00  0.00     0.251 C 
ATOM     22  H   UNL A   1      31.450  32.016  26.200  1.00  0.00     0.163 HD
ATOM     23  O   UNL A   1      32.765  33.464  27.627  1.00  0.00    -0.269 OA
BRANCH  21  24
ATOM     24  C   UNL A   1      34.391  31.770  27.771  1.00  0.00     0.039 A 
ATOM     25  C   UNL A   1      34.521  30.407  28.044  1.00  0.00     0.014 A 
ATOM     26  C   UNL A   1      35.466  32.633  27.998  1.00  0.00     0.014 A 
ATOM     27  C   UNL A   1      35.652  29.940  28.710  1.00  0.00     0.010 A 
ATOM     28  C   UNL A   1      36.632  32.149  28.598  1.00  0.00     0.010 A 
ATOM     29  C   UNL A   1      36.712  30.810  29.015  1.00  0.00    -0.014 A 
BRANCH  29  30
ATOM     30  C   UNL A   1      37.877  30.315  29.796  1.00  0.00     0.031 A 
ATOM     31  C   UNL A   1      38.874  29.370  29.172  1.00  0.00     0.074 A 
ATOM     32  C   UNL A   1      38.063  30.741  31.060  1.00  0.00     0.049 A 
ATOM     33  N   UNL A   1      39.943  28.834  29.706  1.00  0.00    -0.248 NA
ATOM     34  C   UNL A   1      38.644  28.973  27.774  1.00  0.00     0.031 C 
ATOM     35  C   UNL A   1      37.170  31.648  31.783  1.00  0.00     0.029 A 
ATOM     36  N   UNL A   1      39.066  30.473  31.959  1.00  0.00    -0.354 N 
ATOM     37  C   UNL A   1      40.485  28.007  28.729  1.00  0.00     0.074 A 
ATOM     38  C   UNL A   1      39.630  28.109  27.567  1.00  0.00     0.031 C 
ATOM     39  C   UNL A   1      37.680  31.887  33.001  1.00  0.00     0.029 A 
ATOM     40  C   UNL A   1      38.909  31.116  33.164  1.00  0.00     0.049 A 
ATOM     41  H   UNL A   1      39.825  29.879  31.760  1.00  0.00     0.167 HD
ATOM     42  C   UNL A   1      41.605  27.248  28.786  1.00  0.00     0.034 A 
ATOM     43  C   UNL A   1      39.663  31.086  34.281  1.00  0.00     0.034 A 
ATOM     44  C   UNL A   1      42.493  27.192  29.914  1.00  0.00     0.049 A 
ATOM     45  C   UNL A   1      40.904  30.243  34.314  1.00  0.00     0.074 A 
ATOM     46  C   UNL A   1      43.678  26.487  30.037  1.00  0.00     0.029 A 
ATOM     47  N   UNL A   1      42.302  27.867  31.108  1.00  0.00    -0.354 N 
ATOM     48  N   UNL A   1      41.434  29.527  33.354  1.00  0.00    -0.248 NA
ATOM     49  C   UNL A   1      41.657  30.213  35.577  1.00  0.00     0.031 C 
ATOM     50  C   UNL A   1      44.206  26.738  31.306  1.00  0.00     0.029 A 
ATOM     51  C   UNL A   1      43.348  27.598  31.973  1.00  0.00     0.049 A 
ATOM     52  H   UNL A   1      41.537  28.453  31.310  1.00  0.00     0.167 HD
ATOM     53  C   UNL A   1      42.587  28.966  33.891  1.00  0.00     0.074 A 
ATOM     54  C   UNL A   1      42.691  29.445  35.255  1.00  0.00     0.031 C 
ATOM     55  C   UNL A   1      43.466  28.115  33.310  1.00  0.00     0.034 A 
BRANCH  42  56
ATOM     56  C   UNL A   1      41.981  26.450  27.568  1.00  0.00     0.023 A 
ATOM     57  C   UNL A   1      42.705  27.077  26.535  1.00  0.00     0.012 A 
ATOM     58  C   UNL A   1      41.715  25.069  27.495  1.00  0.00     0.148 A 
ATOM     59  C   UNL A   1      43.154  26.341  25.440  1.00  0.00     0.002 A 
ATOM     60  C   UNL A   1      42.189  24.337  26.412  1.00  0.00     0.091 A 
ATOM     61  F   UNL A   1      41.014  24.501  28.485  1.00  0.00    -0.205 F 
ATOM     62  C   UNL A   1      42.905  24.972  25.383  1.00  0.00     0.022 A 
BRANCH  60  63
ATOM     63  S   UNL A   1      41.969  22.560  26.265  1.00  0.00     0.127 S 
ATOM     64  O   UNL A   1      42.656  22.282  25.004  1.00  0.00    -0.237 OA
ATOM     65  O   UNL A   1      42.659  22.067  27.458  1.00  0.00    -0.237 OA
ATOM     66  O   UNL A   1      40.531  22.331  26.252  1.00  0.00    -0.744 OA
ENDBRANCH  60  63
ENDBRANCH  42  56
BRANCH  43  67
ATOM     67  C   UNL A   1      39.270  31.927  35.444  1.00  0.00     0.023 A 
ATOM     68  C   UNL A   1      39.565  33.304  35.423  1.00  0.00     0.012 A 
ATOM     69  C   UNL A   1      38.539  31.391  36.520  1.00  0.00     0.148 A 
ATOM     70  C   UNL A   1      39.141  34.134  36.460  1.00  0.00     0.002 A 
ATOM     71  C   UNL A   1      38.081  32.230  37.528  1.00  0.00     0.091 A 
ATOM     72  F   UNL A   1      38.280  30.076  36.517  1.00  0.00    -0.205 F 
ATOM     73  C   UNL A   1      38.389  33.600  37.505  1.00  0.00     0.022 A 
BRANCH  71  74
ATOM     74  S   UNL A   1      37.011  31.660  38.851  1.00  0.00     0.127 S 
ATOM     75  O   UNL A   1      37.865  31.836  40.024  1.00  0.00    -0.237 OA
ATOM     76  O   UNL A   1      35.893  32.599  38.757  1.00  0.00    -0.237 OA
ATOM     77  O   UNL A   1      36.672  30.282  38.522  1.00  0.00    -0.744 OA
ENDBRANCH  71  74
ENDBRANCH  43  67
BRANCH  55  78
ATOM     78  C   UNL A   1      44.628  27.631  34.131  1.00  0.00     0.023 A 
ATOM     79  C   UNL A   1      45.794  28.419  34.196  1.00  0.00     0.012 A 
ATOM     80  C   UNL A   1      44.519  26.477  34.930  1.00  0.00     0.148 A 
ATOM     81  C   UNL A   1      46.841  28.059  35.042  1.00  0.00     0.002 A 
ATOM     82  C   UNL A   1      45.555  26.142  35.794  1.00  0.00     0.091 A 
ATOM     83  F   UNL A   1      43.401  25.742  34.839  1.00  0.00    -0.205 F 
ATOM     84  C   UNL A   1      46.717  26.930  35.849  1.00  0.00     0.022 A 
BRANCH  82  85
ATOM     85  S   UNL A   1      45.460  24.750  36.925  1.00  0.00     0.127 S 
ATOM     86  O   UNL A   1      44.832  23.728  36.088  1.00  0.00    -0.237 OA
ATOM     87  O   UNL A   1      46.868  24.505  37.234  1.00  0.00    -0.237 OA
ATOM     88  O   UNL A   1      44.660  25.202  38.056  1.00  0.00    -0.744 OA
ENDBRANCH  82  85
ENDBRANCH  55  78
ENDBRANCH  29  30
ENDBRANCH  21  24
ENDBRANCH  19  20
ENDBRANCH   1  19
TORSDOF 16
ENDMDL
