MODEL 1
REMARK VINA RESULT:     -11.4      0.000      0.000
REMARK SMILES CC[N@@H+](C)Cc1cc2c(cc1Cl)C=C(C(=O)NCCCCCCNC(=O)c1ccc(-c3c4nc(c(-c5cccc(S(=O)(=O)[O-])c5F)c5ccc([nH]5)c(-c5cccc(S(=O)(=O)[O-])c5F)c5nc(c(-c6cccc(S(=O)(=O)[O-])c6F)c6ccc3[nH]6)C=C5)C=C4)cc1)[C@@H](C(F)(F)F)O2
REMARK SMILES IDX 20 1 19 2 18 3 17 4 15 5 16 6 14 8 6 9 7 10 11 11 8 12 10 13
REMARK SMILES IDX 12 14 9 15 95 16 13 17 90 18 5 19 3 20 4 21 2 23 1 24 91 25
REMARK SMILES IDX 92 26 93 27 94 28 21 29 22 30 23 31 24 32 25 33 26 35 27 36
REMARK SMILES IDX 28 37 89 38 29 39 88 40 30 41 31 42 32 43 82 44 33 45 87 46
REMARK SMILES IDX 81 47 83 48 34 49 86 50 80 51 79 52 35 54 67 55 47 56 66 57
REMARK SMILES IDX 48 58 51 59 65 60 84 61 49 62 50 63 64 65 85 66 52 67 36 68
REMARK SMILES IDX 37 69 45 70 38 71 40 72 46 73 39 74 41 75 42 76 43 77 44 78
REMARK SMILES IDX 68 79 69 80 77 81 70 82 72 83 78 84 71 85 73 86 74 87 75 88
REMARK SMILES IDX 76 89 53 90 54 91 62 92 55 93 57 94 63 95 56 96 58 97 59 98
REMARK SMILES IDX 60 99 61 100
REMARK H PARENT 17 7 3 22 24 34 83 53 51 64
REMARK Flexibility Score: inf
ROOT
ATOM      1  C   UNL A   1      34.900  21.258  24.847  1.00  0.00     0.002 C 
ENDROOT
BRANCH   1   2
ATOM      2  C   UNL A   1      34.824  22.435  25.822  1.00  0.00     0.021 C 
BRANCH   2   3
ATOM      3  C   UNL A   1      33.968  23.600  25.334  1.00  0.00     0.116 C 
BRANCH   3   4
ATOM      4  N   UNL A   1      32.833  23.154  24.544  1.00  0.00    -0.352 N 
ATOM      5  C   UNL A   1      31.848  23.729  23.815  1.00  0.00     0.251 C 
ATOM      6  O   UNL A   1      31.087  22.939  23.244  1.00  0.00    -0.270 OA
ATOM      7  H   UNL A   1      32.761  22.173  24.537  1.00  0.00     0.163 HD
BRANCH   5   8
ATOM      8  C   UNL A   1      31.619  25.200  23.673  1.00  0.00     0.067 C 
ATOM      9  C   UNL A   1      29.415  29.752  23.661  1.00  0.00     0.029 A 
ATOM     10  C   UNL A   1      30.737  29.286  23.695  1.00  0.00     0.058 A 
ATOM     11  C   UNL A   1      28.401  28.811  23.412  1.00  0.00     0.050 A 
ATOM     12  C   UNL A   1      31.023  27.928  23.642  1.00  0.00     0.128 A 
ATOM     13  C   UNL A   1      28.697  27.441  23.335  1.00  0.00     0.033 A 
ATOM     14  Cl  UNL A   1      26.749  29.259  23.185  1.00  0.00    -0.084 Cl
ATOM     15  C   UNL A   1      30.010  26.993  23.494  1.00  0.00     0.019 A 
ATOM     16  O   UNL A   1      32.329  27.603  23.825  1.00  0.00    -0.475 OA
ATOM     17  C   UNL A   1      30.330  25.575  23.578  1.00  0.00     0.025 C 
ATOM     18  C   UNL A   1      32.720  26.224  23.617  1.00  0.00     0.314 C 
BRANCH   9  19
ATOM     19  C   UNL A   1      29.164  31.220  23.952  1.00  0.00     0.300 C 
BRANCH  19  20
ATOM     20  N   UNL A   1      29.106  32.125  22.780  1.00  0.00    -0.334 N 
ATOM     21  C   UNL A   1      29.351  33.530  23.102  1.00  0.00     0.333 C 
ATOM     22  H   UNL A   1      29.887  31.798  22.211  1.00  0.00     0.348 HD
BRANCH  20  23
ATOM     23  C   UNL A   1      27.903  31.989  21.952  1.00  0.00     0.258 C 
ATOM     24  C   UNL A   1      28.220  31.949  20.465  1.00  0.00     0.071 C 
ENDBRANCH  20  23
ENDBRANCH  19  20
ENDBRANCH   9  19
BRANCH  18  25
ATOM     25  C   UNL A   1      33.531  26.154  22.312  1.00  0.00     0.429 C 
ATOM     26  F   UNL A   1      32.733  25.797  21.276  1.00  0.00    -0.167 F 
ATOM     27  F   UNL A   1      34.087  27.339  21.978  1.00  0.00    -0.167 F 
ATOM     28  F   UNL A   1      34.536  25.251  22.385  1.00  0.00    -0.167 F 
ENDBRANCH  18  25
ENDBRANCH   5   8
ENDBRANCH   3   4
ENDBRANCH   2   3
ENDBRANCH   1   2
BRANCH   1  29
ATOM     29  C   UNL A   1      36.120  20.341  25.005  1.00  0.00     0.002 C 
BRANCH  29  30
ATOM     30  C   UNL A   1      37.466  20.944  24.596  1.00  0.00     0.021 C 
BRANCH  30  31
ATOM     31  C   UNL A   1      38.421  21.239  25.747  1.00  0.00     0.116 C 
BRANCH  31  32
ATOM     32  N   UNL A   1      39.357  20.154  25.987  1.00  0.00    -0.352 N 
ATOM     33  C   UNL A   1      40.683  20.219  26.343  1.00  0.00     0.251 C 
ATOM     34  H   UNL A   1      38.992  19.246  25.878  1.00  0.00     0.163 HD
ATOM     35  O   UNL A   1      41.366  19.199  26.356  1.00  0.00    -0.269 OA
BRANCH  33  36
ATOM     36  C   UNL A   1      41.284  21.530  26.673  1.00  0.00     0.039 A 
ATOM     37  C   UNL A   1      41.434  21.926  28.004  1.00  0.00     0.014 A 
ATOM     38  C   UNL A   1      41.671  22.382  25.636  1.00  0.00     0.014 A 
ATOM     39  C   UNL A   1      41.827  23.229  28.294  1.00  0.00     0.010 A 
ATOM     40  C   UNL A   1      42.136  23.666  25.932  1.00  0.00     0.010 A 
ATOM     41  C   UNL A   1      42.175  24.116  27.261  1.00  0.00    -0.014 A 
BRANCH  41  42
ATOM     42  C   UNL A   1      42.578  25.506  27.591  1.00  0.00     0.031 A 
ATOM     43  C   UNL A   1      43.943  26.023  27.222  1.00  0.00     0.074 A 
ATOM     44  C   UNL A   1      41.695  26.319  28.204  1.00  0.00     0.049 A 
ATOM     45  N   UNL A   1      44.457  27.208  27.433  1.00  0.00    -0.248 NA
ATOM     46  C   UNL A   1      44.852  25.094  26.528  1.00  0.00     0.031 C 
ATOM     47  C   UNL A   1      40.347  25.931  28.626  1.00  0.00     0.029 A 
ATOM     48  N   UNL A   1      41.792  27.638  28.570  1.00  0.00    -0.354 N 
ATOM     49  C   UNL A   1      45.755  27.155  26.942  1.00  0.00     0.074 A 
ATOM     50  C   UNL A   1      45.956  25.823  26.417  1.00  0.00     0.031 C 
ATOM     51  C   UNL A   1      39.731  26.996  29.159  1.00  0.00     0.029 A 
ATOM     52  C   UNL A   1      40.652  28.128  29.163  1.00  0.00     0.049 A 
ATOM     53  H   UNL A   1      42.600  28.181  28.423  1.00  0.00     0.167 HD
ATOM     54  C   UNL A   1      46.688  28.136  26.911  1.00  0.00     0.034 A 
ATOM     55  C   UNL A   1      40.378  29.347  29.662  1.00  0.00     0.034 A 
ATOM     56  C   UNL A   1      46.471  29.478  27.379  1.00  0.00     0.049 A 
ATOM     57  C   UNL A   1      41.425  30.420  29.601  1.00  0.00     0.074 A 
ATOM     58  C   UNL A   1      47.347  30.549  27.344  1.00  0.00     0.029 A 
ATOM     59  N   UNL A   1      45.299  29.935  27.959  1.00  0.00    -0.354 N 
ATOM     60  N   UNL A   1      42.620  30.369  29.067  1.00  0.00    -0.248 NA
ATOM     61  C   UNL A   1      41.086  31.719  30.199  1.00  0.00     0.031 C 
ATOM     62  C   UNL A   1      46.703  31.657  27.903  1.00  0.00     0.029 A 
ATOM     63  C   UNL A   1      45.426  31.274  28.283  1.00  0.00     0.049 A 
ATOM     64  H   UNL A   1      44.496  29.390  28.115  1.00  0.00     0.167 HD
ATOM     65  C   UNL A   1      43.175  31.628  29.256  1.00  0.00     0.074 A 
ATOM     66  C   UNL A   1      42.175  32.430  29.933  1.00  0.00     0.031 C 
ATOM     67  C   UNL A   1      44.409  32.071  28.917  1.00  0.00     0.034 A 
BRANCH  54  68
ATOM     68  C   UNL A   1      48.025  27.821  26.300  1.00  0.00     0.023 A 
ATOM     69  C   UNL A   1      49.088  27.433  27.138  1.00  0.00     0.012 A 
ATOM     70  C   UNL A   1      48.199  27.805  24.902  1.00  0.00     0.148 A 
ATOM     71  C   UNL A   1      50.310  27.040  26.595  1.00  0.00     0.002 A 
ATOM     72  C   UNL A   1      49.411  27.385  24.367  1.00  0.00     0.091 A 
ATOM     73  F   UNL A   1      47.175  28.191  24.128  1.00  0.00    -0.205 F 
ATOM     74  C   UNL A   1      50.468  27.006  25.211  1.00  0.00     0.022 A 
BRANCH  72  75
ATOM     75  S   UNL A   1      49.704  27.255  22.599  1.00  0.00     0.127 S 
ATOM     76  O   UNL A   1      48.694  26.273  22.205  1.00  0.00    -0.237 OA
ATOM     77  O   UNL A   1      49.439  28.620  22.144  1.00  0.00    -0.237 OA
ATOM     78  O   UNL A   1      51.085  26.817  22.451  1.00  0.00    -0.744 OA
ENDBRANCH  72  75
ENDBRANCH  54  68
BRANCH  55  79
ATOM     79  C   UNL A   1      39.024  29.617  30.215  1.00  0.00     0.023 A 
ATOM     80  C   UNL A   1      38.738  29.243  31.542  1.00  0.00     0.012 A 
ATOM     81  C   UNL A   1      38.058  30.318  29.469  1.00  0.00     0.148 A 
ATOM     82  C   UNL A   1      37.509  29.562  32.117  1.00  0.00     0.002 A 
ATOM     83  C   UNL A   1      36.853  30.672  30.062  1.00  0.00     0.091 A 
ATOM     84  F   UNL A   1      38.355  30.655  28.207  1.00  0.00    -0.205 F 
ATOM     85  C   UNL A   1      36.573  30.287  31.383  1.00  0.00     0.022 A 
BRANCH  83  86
ATOM     86  S   UNL A   1      35.637  31.707  29.240  1.00  0.00     0.127 S 
ATOM     87  O   UNL A   1      35.090  30.789  28.244  1.00  0.00    -0.237 OA
ATOM     88  O   UNL A   1      34.729  32.032  30.342  1.00  0.00    -0.237 OA
ATOM     89  O   UNL A   1      36.376  32.843  28.710  1.00  0.00    -0.744 OA
ENDBRANCH  83  86
ENDBRANCH  55  79
BRANCH  67  90
ATOM     90  C   UNL A   1      44.767  33.487  29.267  1.00  0.00     0.023 A 
ATOM     91  C   UNL A   1      45.427  33.747  30.482  1.00  0.00     0.012 A 
ATOM     92  C   UNL A   1      44.558  34.534  28.348  1.00  0.00     0.148 A 
ATOM     93  C   UNL A   1      45.869  35.034  30.784  1.00  0.00     0.002 A 
ATOM     94  C   UNL A   1      45.030  35.807  28.641  1.00  0.00     0.091 A 
ATOM     95  F   UNL A   1      43.917  34.259  27.203  1.00  0.00    -0.205 F 
ATOM     96  C   UNL A   1      45.682  36.060  29.860  1.00  0.00     0.022 A 
BRANCH  94  97
ATOM     97  S   UNL A   1      44.901  37.176  27.486  1.00  0.00     0.127 S 
ATOM     98  O   UNL A   1      45.182  38.322  28.350  1.00  0.00    -0.237 OA
ATOM     99  O   UNL A   1      45.954  36.867  26.519  1.00  0.00    -0.237 OA
ATOM    100  O   UNL A   1      43.548  37.123  26.948  1.00  0.00    -0.744 OA
ENDBRANCH  94  97
ENDBRANCH  67  90
ENDBRANCH  41  42
ENDBRANCH  33  36
ENDBRANCH  31  32
ENDBRANCH  30  31
ENDBRANCH  29  30
ENDBRANCH   1  29
TORSDOF 20
ENDMDL
MODEL 2
REMARK VINA RESULT:     -10.9      3.069      7.904
REMARK SMILES CC[N@@H+](C)Cc1cc2c(cc1Cl)C=C(C(=O)NCCCCCCNC(=O)c1ccc(-c3c4nc(c(-c5cccc(S(=O)(=O)[O-])c5F)c5ccc([nH]5)c(-c5cccc(S(=O)(=O)[O-])c5F)c5nc(c(-c6cccc(S(=O)(=O)[O-])c6F)c6ccc3[nH]6)C=C5)C=C4)cc1)[C@@H](C(F)(F)F)O2
REMARK SMILES IDX 20 1 19 2 18 3 17 4 15 5 16 6 14 8 6 9 7 10 11 11 8 12 10 13
REMARK SMILES IDX 12 14 9 15 95 16 13 17 90 18 5 19 3 20 4 21 2 23 1 24 91 25
REMARK SMILES IDX 92 26 93 27 94 28 21 29 22 30 23 31 24 32 25 33 26 35 27 36
REMARK SMILES IDX 28 37 89 38 29 39 88 40 30 41 31 42 32 43 82 44 33 45 87 46
REMARK SMILES IDX 81 47 83 48 34 49 86 50 80 51 79 52 35 54 67 55 47 56 66 57
REMARK SMILES IDX 48 58 51 59 65 60 84 61 49 62 50 63 64 65 85 66 52 67 36 68
REMARK SMILES IDX 37 69 45 70 38 71 40 72 46 73 39 74 41 75 42 76 43 77 44 78
REMARK SMILES IDX 68 79 69 80 77 81 70 82 72 83 78 84 71 85 73 86 74 87 75 88
REMARK SMILES IDX 76 89 53 90 54 91 62 92 55 93 57 94 63 95 56 96 58 97 59 98
REMARK SMILES IDX 60 99 61 100
REMARK H PARENT 17 7 3 22 24 34 83 53 51 64
REMARK Flexibility Score: inf
ROOT
ATOM      1  C   UNL A   1      35.521  22.907  24.869  1.00  0.00     0.002 C 
ENDROOT
BRANCH   1   2
ATOM      2  C   UNL A   1      35.087  23.298  26.284  1.00  0.00     0.021 C 
BRANCH   2   3
ATOM      3  C   UNL A   1      33.635  23.757  26.390  1.00  0.00     0.116 C 
BRANCH   3   4
ATOM      4  N   UNL A   1      32.789  23.137  25.385  1.00  0.00    -0.352 N 
ATOM      5  C   UNL A   1      31.980  23.549  24.380  1.00  0.00     0.251 C 
ATOM      6  O   UNL A   1      31.467  22.644  23.713  1.00  0.00    -0.270 OA
ATOM      7  H   UNL A   1      32.807  22.155  25.453  1.00  0.00     0.163 HD
BRANCH   5   8
ATOM      8  C   UNL A   1      31.669  24.974  24.047  1.00  0.00     0.067 C 
ATOM      9  C   UNL A   1      29.226  29.369  23.507  1.00  0.00     0.029 A 
ATOM     10  C   UNL A   1      30.571  28.976  23.545  1.00  0.00     0.058 A 
ATOM     11  C   UNL A   1      28.255  28.355  23.437  1.00  0.00     0.050 A 
ATOM     12  C   UNL A   1      30.927  27.639  23.668  1.00  0.00     0.128 A 
ATOM     13  C   UNL A   1      28.620  27.004  23.537  1.00  0.00     0.033 A 
ATOM     14  Cl  UNL A   1      26.574  28.688  23.226  1.00  0.00    -0.084 Cl
ATOM     15  C   UNL A   1      29.960  26.645  23.696  1.00  0.00     0.019 A 
ATOM     16  O   UNL A   1      32.255  27.405  23.834  1.00  0.00    -0.475 OA
ATOM     17  C   UNL A   1      30.358  25.270  23.960  1.00  0.00     0.025 C 
ATOM     18  C   UNL A   1      32.710  26.031  23.800  1.00  0.00     0.314 C 
BRANCH   9  19
ATOM     19  C   UNL A   1      28.908  30.850  23.604  1.00  0.00     0.300 C 
BRANCH  19  20
ATOM     20  N   UNL A   1      29.133  31.655  22.381  1.00  0.00    -0.334 N 
ATOM     21  C   UNL A   1      28.849  33.080  22.547  1.00  0.00     0.333 C 
ATOM     22  H   UNL A   1      30.137  31.555  22.234  1.00  0.00     0.348 HD
BRANCH  20  23
ATOM     23  C   UNL A   1      28.483  31.137  21.171  1.00  0.00     0.258 C 
ATOM     24  C   UNL A   1      27.975  32.246  20.263  1.00  0.00     0.071 C 
ENDBRANCH  20  23
ENDBRANCH  19  20
ENDBRANCH   9  19
BRANCH  18  25
ATOM     25  C   UNL A   1      33.473  25.817  22.483  1.00  0.00     0.429 C 
ATOM     26  F   UNL A   1      34.009  26.984  22.050  1.00  0.00    -0.167 F 
ATOM     27  F   UNL A   1      34.499  24.946  22.608  1.00  0.00    -0.167 F 
ATOM     28  F   UNL A   1      32.671  25.346  21.501  1.00  0.00    -0.167 F 
ENDBRANCH  18  25
ENDBRANCH   5   8
ENDBRANCH   3   4
ENDBRANCH   2   3
ENDBRANCH   1   2
BRANCH   1  29
ATOM     29  C   UNL A   1      36.956  22.380  24.737  1.00  0.00     0.002 C 
BRANCH  29  30
ATOM     30  C   UNL A   1      38.038  23.203  25.442  1.00  0.00     0.021 C 
BRANCH  30  31
ATOM     31  C   UNL A   1      38.831  22.454  26.507  1.00  0.00     0.116 C 
BRANCH  31  32
ATOM     32  N   UNL A   1      40.128  22.010  26.027  1.00  0.00    -0.352 N 
ATOM     33  C   UNL A   1      41.310  22.709  25.958  1.00  0.00     0.251 C 
ATOM     34  H   UNL A   1      40.167  21.080  25.706  1.00  0.00     0.163 HD
ATOM     35  O   UNL A   1      42.278  22.223  25.382  1.00  0.00    -0.269 OA
BRANCH  33  36
ATOM     36  C   UNL A   1      41.390  24.062  26.551  1.00  0.00     0.039 A 
ATOM     37  C   UNL A   1      41.199  25.196  25.759  1.00  0.00     0.014 A 
ATOM     38  C   UNL A   1      41.691  24.193  27.909  1.00  0.00     0.014 A 
ATOM     39  C   UNL A   1      41.459  26.457  26.287  1.00  0.00     0.010 A 
ATOM     40  C   UNL A   1      41.879  25.465  28.456  1.00  0.00     0.010 A 
ATOM     41  C   UNL A   1      41.810  26.604  27.640  1.00  0.00    -0.014 A 
BRANCH  41  42
ATOM     42  C   UNL A   1      42.096  27.957  28.181  1.00  0.00     0.031 A 
ATOM     43  C   UNL A   1      40.990  28.822  28.723  1.00  0.00     0.074 A 
ATOM     44  C   UNL A   1      43.369  28.398  28.210  1.00  0.00     0.049 A 
ATOM     45  N   UNL A   1      41.064  30.025  29.234  1.00  0.00    -0.248 NA
ATOM     46  C   UNL A   1      39.624  28.272  28.690  1.00  0.00     0.031 C 
ATOM     47  C   UNL A   1      44.526  27.659  27.700  1.00  0.00     0.029 A 
ATOM     48  N   UNL A   1      43.905  29.565  28.693  1.00  0.00    -0.354 N 
ATOM     49  C   UNL A   1      39.760  30.392  29.540  1.00  0.00     0.074 A 
ATOM     50  C   UNL A   1      38.908  29.285  29.163  1.00  0.00     0.031 C 
ATOM     51  C   UNL A   1      45.639  28.373  27.931  1.00  0.00     0.029 A 
ATOM     52  C   UNL A   1      45.271  29.638  28.558  1.00  0.00     0.049 A 
ATOM     53  H   UNL A   1      43.364  30.281  29.098  1.00  0.00     0.167 HD
ATOM     54  C   UNL A   1      39.314  31.539  30.105  1.00  0.00     0.034 A 
ATOM     55  C   UNL A   1      46.135  30.615  28.892  1.00  0.00     0.034 A 
ATOM     56  C   UNL A   1      40.164  32.616  30.534  1.00  0.00     0.049 A 
ATOM     57  C   UNL A   1      45.615  31.869  29.530  1.00  0.00     0.074 A 
ATOM     58  C   UNL A   1      39.801  33.797  31.158  1.00  0.00     0.029 A 
ATOM     59  N   UNL A   1      41.541  32.644  30.391  1.00  0.00    -0.354 N 
ATOM     60  N   UNL A   1      44.387  32.164  29.877  1.00  0.00    -0.248 NA
ATOM     61  C   UNL A   1      46.597  32.920  29.836  1.00  0.00     0.031 C 
ATOM     62  C   UNL A   1      40.961  34.540  31.395  1.00  0.00     0.029 A 
ATOM     63  C   UNL A   1      42.045  33.819  30.919  1.00  0.00     0.049 A 
ATOM     64  H   UNL A   1      42.081  31.933  29.978  1.00  0.00     0.167 HD
ATOM     65  C   UNL A   1      44.447  33.430  30.446  1.00  0.00     0.074 A 
ATOM     66  C   UNL A   1      45.837  33.836  30.422  1.00  0.00     0.031 C 
ATOM     67  C   UNL A   1      43.435  34.192  30.928  1.00  0.00     0.034 A 
BRANCH  54  68
ATOM     68  C   UNL A   1      37.837  31.680  30.350  1.00  0.00     0.023 A 
ATOM     69  C   UNL A   1      37.278  31.113  31.511  1.00  0.00     0.012 A 
ATOM     70  C   UNL A   1      37.029  32.455  29.495  1.00  0.00     0.148 A 
ATOM     71  C   UNL A   1      35.932  31.310  31.817  1.00  0.00     0.002 A 
ATOM     72  C   UNL A   1      35.696  32.670  29.821  1.00  0.00     0.091 A 
ATOM     73  F   UNL A   1      37.584  32.973  28.390  1.00  0.00    -0.205 F 
ATOM     74  C   UNL A   1      35.144  32.095  30.979  1.00  0.00     0.022 A 
BRANCH  72  75
ATOM     75  S   UNL A   1      34.606  33.707  28.838  1.00  0.00     0.127 S 
ATOM     76  O   UNL A   1      35.402  34.926  28.704  1.00  0.00    -0.237 OA
ATOM     77  O   UNL A   1      34.469  32.928  27.608  1.00  0.00    -0.237 OA
ATOM     78  O   UNL A   1      33.380  33.850  29.611  1.00  0.00    -0.744 OA
ENDBRANCH  72  75
ENDBRANCH  54  68
BRANCH  55  79
ATOM     79  C   UNL A   1      47.589  30.405  28.668  1.00  0.00     0.023 A 
ATOM     80  C   UNL A   1      48.188  30.933  27.508  1.00  0.00     0.012 A 
ATOM     81  C   UNL A   1      48.393  29.771  29.634  1.00  0.00     0.148 A 
ATOM     82  C   UNL A   1      49.565  30.830  27.313  1.00  0.00     0.002 A 
ATOM     83  C   UNL A   1      49.769  29.712  29.456  1.00  0.00     0.091 A 
ATOM     84  F   UNL A   1      47.795  29.273  30.725  1.00  0.00    -0.205 F 
ATOM     85  C   UNL A   1      50.356  30.233  28.291  1.00  0.00     0.022 A 
BRANCH  83  86
ATOM     86  S   UNL A   1      50.882  29.071  30.712  1.00  0.00     0.127 S 
ATOM     87  O   UNL A   1      50.584  29.943  31.846  1.00  0.00    -0.237 OA
ATOM     88  O   UNL A   1      50.409  27.693  30.853  1.00  0.00    -0.237 OA
ATOM     89  O   UNL A   1      52.221  29.197  30.157  1.00  0.00    -0.744 OA
ENDBRANCH  83  86
ENDBRANCH  55  79
BRANCH  67  90
ATOM     90  C   UNL A   1      43.777  35.550  31.470  1.00  0.00     0.023 A 
ATOM     91  C   UNL A   1      43.886  36.636  30.581  1.00  0.00     0.012 A 
ATOM     92  C   UNL A   1      43.872  35.771  32.858  1.00  0.00     0.148 A 
ATOM     93  C   UNL A   1      44.094  37.926  31.065  1.00  0.00     0.002 A 
ATOM     94  C   UNL A   1      44.047  37.064  33.335  1.00  0.00     0.091 A 
ATOM     95  F   UNL A   1      43.775  34.717  33.680  1.00  0.00    -0.205 F 
ATOM     96  C   UNL A   1      44.162  38.142  32.441  1.00  0.00     0.022 A 
BRANCH  94  97
ATOM     97  S   UNL A   1      44.074  37.452  35.088  1.00  0.00     0.127 S 
ATOM     98  O   UNL A   1      44.335  38.891  35.070  1.00  0.00    -0.237 OA
ATOM     99  O   UNL A   1      42.723  37.082  35.509  1.00  0.00    -0.237 OA
ATOM    100  O   UNL A   1      45.135  36.637  35.665  1.00  0.00    -0.744 OA
ENDBRANCH  94  97
ENDBRANCH  67  90
ENDBRANCH  41  42
ENDBRANCH  33  36
ENDBRANCH  31  32
ENDBRANCH  30  31
ENDBRANCH  29  30
ENDBRANCH   1  29
TORSDOF 20
ENDMDL
MODEL 3
REMARK VINA RESULT:     -10.8      4.458      8.451
REMARK SMILES CC[N@@H+](C)Cc1cc2c(cc1Cl)C=C(C(=O)NCCCCCCNC(=O)c1ccc(-c3c4nc(c(-c5cccc(S(=O)(=O)[O-])c5F)c5ccc([nH]5)c(-c5cccc(S(=O)(=O)[O-])c5F)c5nc(c(-c6cccc(S(=O)(=O)[O-])c6F)c6ccc3[nH]6)C=C5)C=C4)cc1)[C@@H](C(F)(F)F)O2
REMARK SMILES IDX 20 1 19 2 18 3 17 4 15 5 16 6 14 8 6 9 7 10 11 11 8 12 10 13
REMARK SMILES IDX 12 14 9 15 95 16 13 17 90 18 5 19 3 20 4 21 2 23 1 24 91 25
REMARK SMILES IDX 92 26 93 27 94 28 21 29 22 30 23 31 24 32 25 33 26 35 27 36
REMARK SMILES IDX 28 37 89 38 29 39 88 40 30 41 31 42 32 43 82 44 33 45 87 46
REMARK SMILES IDX 81 47 83 48 34 49 86 50 80 51 79 52 35 54 67 55 47 56 66 57
REMARK SMILES IDX 48 58 51 59 65 60 84 61 49 62 50 63 64 65 85 66 52 67 36 68
REMARK SMILES IDX 37 69 45 70 38 71 40 72 46 73 39 74 41 75 42 76 43 77 44 78
REMARK SMILES IDX 68 79 69 80 77 81 70 82 72 83 78 84 71 85 73 86 74 87 75 88
REMARK SMILES IDX 76 89 53 90 54 91 62 92 55 93 57 94 63 95 56 96 58 97 59 98
REMARK SMILES IDX 60 99 61 100
REMARK H PARENT 17 7 3 22 24 34 83 53 51 64
REMARK Flexibility Score: inf
ROOT
ATOM      1  C   UNL A   1      31.870  33.030  26.549  1.00  0.00     0.002 C 
ENDROOT
BRANCH   1   2
ATOM      2  C   UNL A   1      31.083  31.717  26.563  1.00  0.00     0.021 C 
BRANCH   2   3
ATOM      3  C   UNL A   1      31.698  30.609  25.714  1.00  0.00     0.116 C 
BRANCH   3   4
ATOM      4  N   UNL A   1      30.822  30.196  24.631  1.00  0.00    -0.352 N 
ATOM      5  C   UNL A   1      30.654  29.098  23.857  1.00  0.00     0.251 C 
ATOM      6  O   UNL A   1      29.715  29.158  23.055  1.00  0.00    -0.270 OA
ATOM      7  H   UNL A   1      30.179  30.903  24.397  1.00  0.00     0.163 HD
BRANCH   5   8
ATOM      8  C   UNL A   1      31.506  27.869  23.899  1.00  0.00     0.067 C 
ATOM      9  C   UNL A   1      33.287  23.281  25.065  1.00  0.00     0.029 A 
ATOM     10  C   UNL A   1      33.473  24.182  24.007  1.00  0.00     0.058 A 
ATOM     11  C   UNL A   1      32.580  23.739  26.190  1.00  0.00     0.050 A 
ATOM     12  C   UNL A   1      32.851  25.424  24.000  1.00  0.00     0.128 A 
ATOM     13  C   UNL A   1      31.972  25.004  26.189  1.00  0.00     0.033 A 
ATOM     14  Cl  UNL A   1      32.409  22.799  27.628  1.00  0.00    -0.084 Cl
ATOM     15  C   UNL A   1      32.072  25.835  25.072  1.00  0.00     0.019 A 
ATOM     16  O   UNL A   1      33.000  26.141  22.857  1.00  0.00    -0.475 OA
ATOM     17  C   UNL A   1      31.326  27.080  24.975  1.00  0.00     0.025 C 
ATOM     18  C   UNL A   1      32.518  27.508  22.846  1.00  0.00     0.314 C 
BRANCH   9  19
ATOM     19  C   UNL A   1      33.807  21.865  24.901  1.00  0.00     0.300 C 
BRANCH  19  20
ATOM     20  N   UNL A   1      35.064  21.536  25.613  1.00  0.00    -0.334 N 
ATOM     21  C   UNL A   1      35.925  22.692  25.863  1.00  0.00     0.333 C 
ATOM     22  H   UNL A   1      34.724  21.203  26.515  1.00  0.00     0.348 HD
BRANCH  20  23
ATOM     23  C   UNL A   1      35.837  20.435  25.027  1.00  0.00     0.258 C 
ATOM     24  C   UNL A   1      37.328  20.730  24.980  1.00  0.00     0.071 C 
ENDBRANCH  20  23
ENDBRANCH  19  20
ENDBRANCH   9  19
BRANCH  18  25
ATOM     25  C   UNL A   1      33.741  28.440  22.853  1.00  0.00     0.429 C 
ATOM     26  F   UNL A   1      33.351  29.734  22.961  1.00  0.00    -0.167 F 
ATOM     27  F   UNL A   1      34.574  28.202  23.891  1.00  0.00    -0.167 F 
ATOM     28  F   UNL A   1      34.474  28.327  21.722  1.00  0.00    -0.167 F 
ENDBRANCH  18  25
ENDBRANCH   5   8
ENDBRANCH   3   4
ENDBRANCH   2   3
ENDBRANCH   1   2
BRANCH   1  29
ATOM     29  C   UNL A   1      32.540  33.417  27.874  1.00  0.00     0.002 C 
BRANCH  29  30
ATOM     30  C   UNL A   1      34.045  33.691  27.807  1.00  0.00     0.021 C 
BRANCH  30  31
ATOM     31  C   UNL A   1      34.936  32.489  28.096  1.00  0.00     0.116 C 
BRANCH  31  32
ATOM     32  N   UNL A   1      34.262  31.224  27.858  1.00  0.00    -0.352 N 
ATOM     33  C   UNL A   1      34.778  29.950  27.887  1.00  0.00     0.251 C 
ATOM     34  H   UNL A   1      33.303  31.288  27.645  1.00  0.00     0.163 HD
ATOM     35  O   UNL A   1      34.095  29.003  27.511  1.00  0.00    -0.269 OA
BRANCH  33  36
ATOM     36  C   UNL A   1      36.170  29.740  28.341  1.00  0.00     0.039 A 
ATOM     37  C   UNL A   1      37.241  29.966  27.473  1.00  0.00     0.014 A 
ATOM     38  C   UNL A   1      36.400  29.282  29.640  1.00  0.00     0.014 A 
ATOM     39  C   UNL A   1      38.526  29.590  27.851  1.00  0.00     0.010 A 
ATOM     40  C   UNL A   1      37.702  28.973  30.044  1.00  0.00     0.010 A 
ATOM     41  C   UNL A   1      38.769  29.082  29.138  1.00  0.00    -0.014 A 
BRANCH  41  42
ATOM     42  C   UNL A   1      40.145  28.673  29.518  1.00  0.00     0.031 A 
ATOM     43  C   UNL A   1      40.848  27.557  28.792  1.00  0.00     0.074 A 
ATOM     44  C   UNL A   1      40.778  29.334  30.507  1.00  0.00     0.049 A 
ATOM     45  N   UNL A   1      42.048  27.074  28.992  1.00  0.00    -0.248 NA
ATOM     46  C   UNL A   1      40.113  26.893  27.701  1.00  0.00     0.031 C 
ATOM     47  C   UNL A   1      40.199  30.423  31.296  1.00  0.00     0.029 A 
ATOM     48  N   UNL A   1      42.047  29.196  31.012  1.00  0.00    -0.354 N 
ATOM     49  C   UNL A   1      42.196  26.029  28.090  1.00  0.00     0.074 A 
ATOM     50  C   UNL A   1      40.965  25.944  27.334  1.00  0.00     0.031 C 
ATOM     51  C   UNL A   1      41.119  30.878  32.159  1.00  0.00     0.029 A 
ATOM     52  C   UNL A   1      42.335  30.084  32.021  1.00  0.00     0.049 A 
ATOM     53  H   UNL A   1      42.688  28.524  30.684  1.00  0.00     0.167 HD
ATOM     54  C   UNL A   1      43.269  25.226  27.894  1.00  0.00     0.034 A 
ATOM     55  C   UNL A   1      43.449  30.240  32.760  1.00  0.00     0.034 A 
ATOM     56  C   UNL A   1      44.513  25.347  28.603  1.00  0.00     0.049 A 
ATOM     57  C   UNL A   1      44.629  29.347  32.511  1.00  0.00     0.074 A 
ATOM     58  C   UNL A   1      45.669  24.605  28.436  1.00  0.00     0.029 A 
ATOM     59  N   UNL A   1      44.768  26.268  29.605  1.00  0.00    -0.354 N 
ATOM     60  N   UNL A   1      44.772  28.413  31.604  1.00  0.00    -0.248 NA
ATOM     61  C   UNL A   1      45.803  29.533  33.376  1.00  0.00     0.031 C 
ATOM     62  C   UNL A   1      46.626  25.079  29.338  1.00  0.00     0.029 A 
ATOM     63  C   UNL A   1      46.064  26.117  30.065  1.00  0.00     0.049 A 
ATOM     64  H   UNL A   1      44.123  26.932  29.940  1.00  0.00     0.167 HD
ATOM     65  C   UNL A   1      46.052  27.904  31.782  1.00  0.00     0.074 A 
ATOM     66  C   UNL A   1      46.654  28.651  32.868  1.00  0.00     0.031 C 
ATOM     67  C   UNL A   1      46.664  26.895  31.116  1.00  0.00     0.034 A 
BRANCH  54  68
ATOM     68  C   UNL A   1      43.176  24.170  26.827  1.00  0.00     0.023 A 
ATOM     69  C   UNL A   1      43.807  24.390  25.588  1.00  0.00     0.012 A 
ATOM     70  C   UNL A   1      42.564  22.928  27.086  1.00  0.00     0.148 A 
ATOM     71  C   UNL A   1      43.823  23.392  24.615  1.00  0.00     0.002 A 
ATOM     72  C   UNL A   1      42.608  21.928  26.123  1.00  0.00     0.091 A 
ATOM     73  F   UNL A   1      41.960  22.749  28.270  1.00  0.00    -0.205 F 
ATOM     74  C   UNL A   1      43.234  22.159  24.886  1.00  0.00     0.022 A 
BRANCH  72  75
ATOM     75  S   UNL A   1      41.926  20.287  26.387  1.00  0.00     0.127 S 
ATOM     76  O   UNL A   1      42.549  19.911  27.656  1.00  0.00    -0.237 OA
ATOM     77  O   UNL A   1      40.491  20.562  26.469  1.00  0.00    -0.237 OA
ATOM     78  O   UNL A   1      42.333  19.491  25.238  1.00  0.00    -0.744 OA
ENDBRANCH  72  75
ENDBRANCH  54  68
BRANCH  55  79
ATOM     79  C   UNL A   1      43.502  31.329  33.771  1.00  0.00     0.023 A 
ATOM     80  C   UNL A   1      43.959  32.603  33.384  1.00  0.00     0.012 A 
ATOM     81  C   UNL A   1      43.018  31.135  35.079  1.00  0.00     0.148 A 
ATOM     82  C   UNL A   1      43.936  33.667  34.285  1.00  0.00     0.002 A 
ATOM     83  C   UNL A   1      42.955  32.209  35.957  1.00  0.00     0.091 A 
ATOM     84  F   UNL A   1      42.595  29.910  35.421  1.00  0.00    -0.205 F 
ATOM     85  C   UNL A   1      43.422  33.474  35.565  1.00  0.00     0.022 A 
BRANCH  83  86
ATOM     86  S   UNL A   1      42.201  32.087  37.583  1.00  0.00     0.127 S 
ATOM     87  O   UNL A   1      40.796  31.872  37.244  1.00  0.00    -0.237 OA
ATOM     88  O   UNL A   1      42.886  30.920  38.142  1.00  0.00    -0.237 OA
ATOM     89  O   UNL A   1      42.501  33.343  38.254  1.00  0.00    -0.744 OA
ENDBRANCH  83  86
ENDBRANCH  55  79
BRANCH  67  90
ATOM     90  C   UNL A   1      48.059  26.524  31.533  1.00  0.00     0.023 A 
ATOM     91  C   UNL A   1      48.240  25.523  32.505  1.00  0.00     0.012 A 
ATOM     92  C   UNL A   1      49.179  27.078  30.883  1.00  0.00     0.148 A 
ATOM     93  C   UNL A   1      49.520  25.080  32.832  1.00  0.00     0.002 A 
ATOM     94  C   UNL A   1      50.450  26.609  31.191  1.00  0.00     0.091 A 
ATOM     95  F   UNL A   1      48.976  28.038  29.970  1.00  0.00    -0.205 F 
ATOM     96  C   UNL A   1      50.623  25.614  32.167  1.00  0.00     0.022 A 
BRANCH  94  97
ATOM     97  S   UNL A   1      51.924  27.182  30.340  1.00  0.00     0.127 S 
ATOM     98  O   UNL A   1      52.242  28.400  31.084  1.00  0.00    -0.237 OA
ATOM     99  O   UNL A   1      52.856  26.075  30.553  1.00  0.00    -0.237 OA
ATOM    100  O   UNL A   1      51.533  27.388  28.952  1.00  0.00    -0.744 OA
ENDBRANCH  94  97
ENDBRANCH  67  90
ENDBRANCH  41  42
ENDBRANCH  33  36
ENDBRANCH  31  32
ENDBRANCH  30  31
ENDBRANCH  29  30
ENDBRANCH   1  29
TORSDOF 20
ENDMDL
