MODEL 1
REMARK VINA RESULT:     -11.9      0.000      0.000
REMARK SMILES CC[NH+]1CCN(c2ccc(NC(=O)C3CCCC3)c(C(=O)NCCCCCCNC(=O)c3ccc(-c4c5nc(c(-c6cccc(S(=O)(=O)[O-])c6F)c6ccc([nH]6)c(-c6cccc(S(=O)(=O)[O-])c6F)c6nc(c(-c7cccc(S(=O)(=O)[O-])c7F)c7ccc4[nH]7)C=C6)C=C5)cc3)c2)CC1
REMARK SMILES IDX 26 1 25 2 24 3 23 4 22 5 20 6 21 7 19 9 7 10 8 11 95 12 9 13
REMARK SMILES IDX 10 14 6 15 3 16 4 17 97 18 5 20 96 21 2 22 1 23 11 24 12 25
REMARK SMILES IDX 13 27 14 28 15 29 18 30 16 31 17 32 27 33 28 34 29 35 30 36
REMARK SMILES IDX 31 38 32 39 33 40 94 41 34 42 93 43 35 44 36 45 37 46 87 47
REMARK SMILES IDX 38 48 92 49 86 50 88 51 39 52 91 53 85 54 84 55 40 57 72 58
REMARK SMILES IDX 52 59 71 60 53 61 56 62 70 63 89 64 54 65 55 66 69 68 90 69
REMARK SMILES IDX 57 70 41 71 42 72 50 73 43 74 45 75 51 76 44 77 46 78 47 79
REMARK SMILES IDX 48 80 49 81 73 82 74 83 82 84 75 85 77 86 83 87 76 88 78 89
REMARK SMILES IDX 79 90 80 91 81 92 58 93 59 94 67 95 60 96 62 97 68 98 61 99
REMARK SMILES IDX 63 100 64 101 65 102 66 103
REMARK H PARENT 22 8 3 19 11 26 29 37 88 56 56 67
REMARK Flexibility Score: inf
ROOT
ATOM      1  C   UNL A   1      31.428  30.499  25.920  1.00  0.00     0.002 C 
ENDROOT
BRANCH   1   2
ATOM      2  C   UNL A   1      32.736  29.731  26.120  1.00  0.00     0.002 C 
BRANCH   2   3
ATOM      3  C   UNL A   1      32.676  28.526  27.050  1.00  0.00     0.021 C 
BRANCH   3   4
ATOM      4  C   UNL A   1      32.557  27.161  26.388  1.00  0.00     0.116 C 
BRANCH   4   5
ATOM      5  N   UNL A   1      31.481  26.310  26.885  1.00  0.00    -0.352 N 
ATOM      6  C   UNL A   1      30.980  25.115  26.394  1.00  0.00     0.253 C 
ATOM      7  O   UNL A   1      30.052  24.567  26.984  1.00  0.00    -0.269 OA
ATOM      8  H   UNL A   1      31.041  26.636  27.703  1.00  0.00     0.163 HD
BRANCH   6   9
ATOM      9  C   UNL A   1      31.470  24.550  25.100  1.00  0.00     0.065 A 
ATOM     10  C   UNL A   1      33.380  23.532  23.948  1.00  0.00     0.038 A 
ATOM     11  C   UNL A   1      32.880  24.109  22.782  1.00  0.00     0.028 A 
ATOM     12  C   UNL A   1      32.598  23.714  25.091  1.00  0.00     0.042 A 
ATOM     13  C   UNL A   1      31.659  24.785  22.752  1.00  0.00     0.029 A 
ATOM     14  C   UNL A   1      30.879  24.914  23.884  1.00  0.00     0.054 A 
BRANCH  10  15
ATOM     15  N   UNL A   1      34.595  22.880  23.962  1.00  0.00    -0.360 N 
ATOM     16  N   UNL A   1      36.642  21.836  25.829  1.00  0.00    -0.332 N 
ATOM     17  C   UNL A   1      36.429  23.283  25.596  1.00  0.00     0.283 C 
ATOM     18  C   UNL A   1      35.358  21.139  25.565  1.00  0.00     0.283 C 
ATOM     19  H   UNL A   1      36.918  21.649  26.793  1.00  0.00     0.348 HD
ATOM     20  C   UNL A   1      35.844  23.637  24.208  1.00  0.00     0.178 C 
ATOM     21  C   UNL A   1      34.741  21.424  24.173  1.00  0.00     0.178 C 
BRANCH  16  22
ATOM     22  C   UNL A   1      37.745  21.345  24.981  1.00  0.00     0.258 C 
ATOM     23  C   UNL A   1      37.922  19.834  25.018  1.00  0.00     0.071 C 
ENDBRANCH  16  22
ENDBRANCH  10  15
BRANCH  14  24
ATOM     24  N   UNL A   1      29.546  25.360  23.831  1.00  0.00    -0.325 N 
ATOM     25  C   UNL A   1      28.968  26.593  23.745  1.00  0.00     0.227 C 
ATOM     26  H   UNL A   1      28.890  24.626  23.860  1.00  0.00     0.169 HD
ATOM     27  O   UNL A   1      27.727  26.622  23.747  1.00  0.00    -0.274 OA
BRANCH  25  28
ATOM     28  C   UNL A   1      29.700  27.939  23.632  1.00  0.00     0.079 C 
ATOM     29  C   UNL A   1      30.796  27.952  22.571  1.00  0.00     0.013 C 
ATOM     30  C   UNL A   1      28.891  29.230  23.492  1.00  0.00     0.013 C 
ATOM     31  C   UNL A   1      30.864  29.377  22.041  1.00  0.00     0.001 C 
ATOM     32  C   UNL A   1      29.543  30.052  22.383  1.00  0.00     0.001 C 
ENDBRANCH  25  28
ENDBRANCH  14  24
ENDBRANCH   6   9
ENDBRANCH   4   5
ENDBRANCH   3   4
ENDBRANCH   2   3
ENDBRANCH   1   2
BRANCH   1  33
ATOM     33  C   UNL A   1      31.396  31.938  26.440  1.00  0.00     0.021 C 
BRANCH  33  34
ATOM     34  C   UNL A   1      32.664  32.421  27.136  1.00  0.00     0.116 C 
BRANCH  34  35
ATOM     35  N   UNL A   1      32.589  33.820  27.525  1.00  0.00    -0.352 N 
ATOM     36  C   UNL A   1      33.300  34.494  28.485  1.00  0.00     0.251 C 
ATOM     37  H   UNL A   1      31.933  34.361  27.028  1.00  0.00     0.163 HD
ATOM     38  O   UNL A   1      32.979  35.643  28.791  1.00  0.00    -0.269 OA
BRANCH  36  39
ATOM     39  C   UNL A   1      34.437  33.837  29.166  1.00  0.00     0.039 A 
ATOM     40  C   UNL A   1      34.179  32.816  30.085  1.00  0.00     0.014 A 
ATOM     41  C   UNL A   1      35.753  34.229  28.905  1.00  0.00     0.014 A 
ATOM     42  C   UNL A   1      35.243  32.152  30.699  1.00  0.00     0.010 A 
ATOM     43  C   UNL A   1      36.812  33.515  29.461  1.00  0.00     0.010 A 
ATOM     44  C   UNL A   1      36.569  32.474  30.370  1.00  0.00    -0.014 A 
BRANCH  44  45
ATOM     45  C   UNL A   1      37.717  31.743  30.970  1.00  0.00     0.031 A 
ATOM     46  C   UNL A   1      38.146  32.043  32.383  1.00  0.00     0.074 A 
ATOM     47  C   UNL A   1      38.417  30.866  30.223  1.00  0.00     0.049 A 
ATOM     48  N   UNL A   1      39.167  31.573  33.052  1.00  0.00    -0.248 NA
ATOM     49  C   UNL A   1      37.334  33.015  33.137  1.00  0.00     0.031 C 
ATOM     50  C   UNL A   1      38.139  30.531  28.825  1.00  0.00     0.029 A 
ATOM     51  N   UNL A   1      39.524  30.111  30.528  1.00  0.00    -0.354 N 
ATOM     52  C   UNL A   1      39.136  32.207  34.290  1.00  0.00     0.074 A 
ATOM     53  C   UNL A   1      38.020  33.127  34.265  1.00  0.00     0.031 C 
ATOM     54  C   UNL A   1      39.047  29.640  28.394  1.00  0.00     0.029 A 
ATOM     55  C   UNL A   1      39.993  29.366  29.471  1.00  0.00     0.049 A 
ATOM     56  H   UNL A   1      39.941  30.105  31.419  1.00  0.00     0.167 HD
ATOM     57  C   UNL A   1      39.939  32.017  35.363  1.00  0.00     0.034 A 
ATOM     58  C   UNL A   1      41.073  28.565  29.375  1.00  0.00     0.034 A 
ATOM     59  C   UNL A   1      41.027  31.077  35.397  1.00  0.00     0.049 A 
ATOM     60  C   UNL A   1      41.948  28.374  30.587  1.00  0.00     0.074 A 
ATOM     61  C   UNL A   1      41.869  30.776  36.453  1.00  0.00     0.029 A 
ATOM     62  N   UNL A   1      41.423  30.286  34.331  1.00  0.00    -0.354 N 
ATOM     63  N   UNL A   1      41.823  28.887  31.787  1.00  0.00    -0.248 NA
ATOM     64  C   UNL A   1      43.094  27.462  30.442  1.00  0.00     0.031 C 
ATOM     65  C   UNL A   1      42.789  29.818  36.018  1.00  0.00     0.029 A 
ATOM     66  C   UNL A   1      42.497  29.497  34.702  1.00  0.00     0.049 A 
ATOM     67  H   UNL A   1      41.003  30.287  33.440  1.00  0.00     0.167 HD
ATOM     68  C   UNL A   1      42.839  28.322  32.549  1.00  0.00     0.074 A 
ATOM     69  C   UNL A   1      43.560  27.415  31.682  1.00  0.00     0.031 C 
ATOM     70  C   UNL A   1      43.157  28.545  33.848  1.00  0.00     0.034 A 
BRANCH  57  71
ATOM     71  C   UNL A   1      39.636  32.794  36.618  1.00  0.00     0.023 A 
ATOM     72  C   UNL A   1      40.252  34.046  36.820  1.00  0.00     0.012 A 
ATOM     73  C   UNL A   1      38.686  32.333  37.549  1.00  0.00     0.148 A 
ATOM     74  C   UNL A   1      39.950  34.815  37.943  1.00  0.00     0.002 A 
ATOM     75  C   UNL A   1      38.355  33.125  38.643  1.00  0.00     0.091 A 
ATOM     76  F   UNL A   1      38.122  31.135  37.346  1.00  0.00    -0.205 F 
ATOM     77  C   UNL A   1      38.994  34.360  38.847  1.00  0.00     0.022 A 
BRANCH  75  78
ATOM     78  S   UNL A   1      37.080  32.672  39.824  1.00  0.00     0.127 S 
ATOM     79  O   UNL A   1      35.894  32.615  38.970  1.00  0.00    -0.237 OA
ATOM     80  O   UNL A   1      37.552  31.372  40.300  1.00  0.00    -0.237 OA
ATOM     81  O   UNL A   1      37.067  33.725  40.830  1.00  0.00    -0.744 OA
ENDBRANCH  75  78
ENDBRANCH  57  71
BRANCH  58  82
ATOM     82  C   UNL A   1      41.374  27.841  28.105  1.00  0.00     0.023 A 
ATOM     83  C   UNL A   1      41.810  28.568  26.980  1.00  0.00     0.012 A 
ATOM     84  C   UNL A   1      41.205  26.448  27.996  1.00  0.00     0.148 A 
ATOM     85  C   UNL A   1      42.019  27.929  25.756  1.00  0.00     0.002 A 
ATOM     86  C   UNL A   1      41.472  25.809  26.791  1.00  0.00     0.091 A 
ATOM     87  F   UNL A   1      40.778  25.772  29.073  1.00  0.00    -0.205 F 
ATOM     88  C   UNL A   1      41.856  26.550  25.663  1.00  0.00     0.022 A 
BRANCH  86  89
ATOM     89  S   UNL A   1      41.411  24.022  26.620  1.00  0.00     0.127 S 
ATOM     90  O   UNL A   1      42.207  23.808  25.414  1.00  0.00    -0.237 OA
ATOM     91  O   UNL A   1      42.041  23.575  27.863  1.00  0.00    -0.237 OA
ATOM     92  O   UNL A   1      39.996  23.688  26.515  1.00  0.00    -0.744 OA
ENDBRANCH  86  89
ENDBRANCH  58  82
BRANCH  70  93
ATOM     93  C   UNL A   1      44.288  27.747  34.440  1.00  0.00     0.023 A 
ATOM     94  C   UNL A   1      45.608  28.235  34.380  1.00  0.00     0.012 A 
ATOM     95  C   UNL A   1      44.027  26.543  35.125  1.00  0.00     0.148 A 
ATOM     96  C   UNL A   1      46.655  27.521  34.961  1.00  0.00     0.002 A 
ATOM     97  C   UNL A   1      45.066  25.864  35.748  1.00  0.00     0.091 A 
ATOM     98  F   UNL A   1      42.766  26.086  35.156  1.00  0.00    -0.205 F 
ATOM     99  C   UNL A   1      46.382  26.343  35.655  1.00  0.00     0.022 A 
BRANCH  97 100
ATOM    100  S   UNL A   1      44.798  24.397  36.747  1.00  0.00     0.127 S 
ATOM    101  O   UNL A   1      44.199  23.481  35.777  1.00  0.00    -0.237 OA
ATOM    102  O   UNL A   1      46.159  24.048  37.155  1.00  0.00    -0.237 OA
ATOM    103  O   UNL A   1      43.924  24.805  37.839  1.00  0.00    -0.744 OA
ENDBRANCH  97 100
ENDBRANCH  70  93
ENDBRANCH  44  45
ENDBRANCH  36  39
ENDBRANCH  34  35
ENDBRANCH  33  34
ENDBRANCH   1  33
TORSDOF 20
ENDMDL
MODEL 2
REMARK VINA RESULT:     -11.8      0.917      7.250
REMARK SMILES CC[NH+]1CCN(c2ccc(NC(=O)C3CCCC3)c(C(=O)NCCCCCCNC(=O)c3ccc(-c4c5nc(c(-c6cccc(S(=O)(=O)[O-])c6F)c6ccc([nH]6)c(-c6cccc(S(=O)(=O)[O-])c6F)c6nc(c(-c7cccc(S(=O)(=O)[O-])c7F)c7ccc4[nH]7)C=C6)C=C5)cc3)c2)CC1
REMARK SMILES IDX 26 1 25 2 24 3 23 4 22 5 20 6 21 7 19 9 7 10 8 11 95 12 9 13
REMARK SMILES IDX 10 14 6 15 3 16 4 17 97 18 5 20 96 21 2 22 1 23 11 24 12 25
REMARK SMILES IDX 13 27 14 28 15 29 18 30 16 31 17 32 27 33 28 34 29 35 30 36
REMARK SMILES IDX 31 38 32 39 33 40 94 41 34 42 93 43 35 44 36 45 37 46 87 47
REMARK SMILES IDX 38 48 92 49 86 50 88 51 39 52 91 53 85 54 84 55 40 57 72 58
REMARK SMILES IDX 52 59 71 60 53 61 56 62 70 63 89 64 54 65 55 66 69 68 90 69
REMARK SMILES IDX 57 70 41 71 42 72 50 73 43 74 45 75 51 76 44 77 46 78 47 79
REMARK SMILES IDX 48 80 49 81 73 82 74 83 82 84 75 85 77 86 83 87 76 88 78 89
REMARK SMILES IDX 79 90 80 91 81 92 58 93 59 94 67 95 60 96 62 97 68 98 61 99
REMARK SMILES IDX 63 100 64 101 65 102 66 103
REMARK H PARENT 22 8 3 19 11 26 29 37 88 56 56 67
REMARK Flexibility Score: inf
ROOT
ATOM      1  C   UNL A   1      31.328  30.984  25.741  1.00  0.00     0.002 C 
ENDROOT
BRANCH   1   2
ATOM      2  C   UNL A   1      32.218  29.740  25.785  1.00  0.00     0.002 C 
BRANCH   2   3
ATOM      3  C   UNL A   1      31.805  28.650  26.768  1.00  0.00     0.021 C 
BRANCH   3   4
ATOM      4  C   UNL A   1      32.101  27.216  26.355  1.00  0.00     0.116 C 
BRANCH   4   5
ATOM      5  N   UNL A   1      31.209  26.203  26.909  1.00  0.00    -0.352 N 
ATOM      6  C   UNL A   1      30.908  24.927  26.459  1.00  0.00     0.253 C 
ATOM      7  O   UNL A   1      30.111  24.240  27.096  1.00  0.00    -0.269 OA
ATOM      8  H   UNL A   1      30.747  26.468  27.737  1.00  0.00     0.163 HD
BRANCH   6   9
ATOM      9  C   UNL A   1      31.444  24.424  25.159  1.00  0.00     0.065 A 
ATOM     10  C   UNL A   1      33.397  23.466  24.027  1.00  0.00     0.038 A 
ATOM     11  C   UNL A   1      32.934  24.095  22.873  1.00  0.00     0.028 A 
ATOM     12  C   UNL A   1      32.576  23.592  25.150  1.00  0.00     0.042 A 
ATOM     13  C   UNL A   1      31.712  24.768  22.831  1.00  0.00     0.029 A 
ATOM     14  C   UNL A   1      30.893  24.841  23.941  1.00  0.00     0.054 A 
BRANCH  10  15
ATOM     15  N   UNL A   1      34.614  22.818  24.052  1.00  0.00    -0.360 N 
ATOM     16  N   UNL A   1      36.897  22.246  25.850  1.00  0.00    -0.332 N 
ATOM     17  C   UNL A   1      36.634  23.591  25.286  1.00  0.00     0.283 C 
ATOM     18  C   UNL A   1      35.601  21.527  25.935  1.00  0.00     0.283 C 
ATOM     19  H   UNL A   1      37.295  22.305  26.787  1.00  0.00     0.348 HD
ATOM     20  C   UNL A   1      35.872  23.591  23.939  1.00  0.00     0.178 C 
ATOM     21  C   UNL A   1      34.808  21.461  24.605  1.00  0.00     0.178 C 
BRANCH  16  22
ATOM     22  C   UNL A   1      37.891  21.538  25.021  1.00  0.00     0.258 C 
ATOM     23  C   UNL A   1      37.886  20.029  25.214  1.00  0.00     0.071 C 
ENDBRANCH  16  22
ENDBRANCH  10  15
BRANCH  14  24
ATOM     24  N   UNL A   1      29.560  25.285  23.863  1.00  0.00    -0.325 N 
ATOM     25  C   UNL A   1      28.982  26.517  23.765  1.00  0.00     0.227 C 
ATOM     26  H   UNL A   1      28.905  24.550  23.881  1.00  0.00     0.169 HD
ATOM     27  O   UNL A   1      27.741  26.543  23.745  1.00  0.00    -0.274 OA
BRANCH  25  28
ATOM     28  C   UNL A   1      29.714  27.864  23.666  1.00  0.00     0.079 C 
ATOM     29  C   UNL A   1      30.822  27.882  22.618  1.00  0.00     0.013 C 
ATOM     30  C   UNL A   1      28.905  29.155  23.519  1.00  0.00     0.013 C 
ATOM     31  C   UNL A   1      30.894  29.309  22.093  1.00  0.00     0.001 C 
ATOM     32  C   UNL A   1      29.569  29.981  22.421  1.00  0.00     0.001 C 
ENDBRANCH  25  28
ENDBRANCH  14  24
ENDBRANCH   6   9
ENDBRANCH   4   5
ENDBRANCH   3   4
ENDBRANCH   2   3
ENDBRANCH   1   2
BRANCH   1  33
ATOM     33  C   UNL A   1      31.367  31.894  26.972  1.00  0.00     0.021 C 
BRANCH  33  34
ATOM     34  C   UNL A   1      32.650  32.694  27.165  1.00  0.00     0.116 C 
BRANCH  34  35
ATOM     35  N   UNL A   1      32.395  34.076  27.538  1.00  0.00    -0.352 N 
ATOM     36  C   UNL A   1      32.982  34.833  28.520  1.00  0.00     0.251 C 
ATOM     37  H   UNL A   1      31.701  34.534  27.011  1.00  0.00     0.163 HD
ATOM     38  O   UNL A   1      32.516  35.937  28.803  1.00  0.00    -0.269 OA
BRANCH  36  39
ATOM     39  C   UNL A   1      34.160  34.318  29.252  1.00  0.00     0.039 A 
ATOM     40  C   UNL A   1      33.962  33.592  30.430  1.00  0.00     0.014 A 
ATOM     41  C   UNL A   1      35.455  34.552  28.783  1.00  0.00     0.014 A 
ATOM     42  C   UNL A   1      35.060  33.056  31.106  1.00  0.00     0.010 A 
ATOM     43  C   UNL A   1      36.542  33.953  29.417  1.00  0.00     0.010 A 
ATOM     44  C   UNL A   1      36.357  33.206  30.590  1.00  0.00    -0.014 A 
BRANCH  44  45
ATOM     45  C   UNL A   1      37.535  32.597  31.263  1.00  0.00     0.031 A 
ATOM     46  C   UNL A   1      38.321  31.514  30.572  1.00  0.00     0.074 A 
ATOM     47  C   UNL A   1      37.852  32.965  32.521  1.00  0.00     0.049 A 
ATOM     48  N   UNL A   1      39.325  30.807  31.024  1.00  0.00    -0.248 NA
ATOM     49  C   UNL A   1      37.915  31.163  29.200  1.00  0.00     0.031 C 
ATOM     50  C   UNL A   1      37.134  33.961  33.320  1.00  0.00     0.029 A 
ATOM     51  N   UNL A   1      38.847  32.527  33.359  1.00  0.00    -0.354 N 
ATOM     52  C   UNL A   1      39.652  29.915  30.008  1.00  0.00     0.074 A 
ATOM     53  C   UNL A   1      38.713  30.140  28.931  1.00  0.00     0.031 C 
ATOM     54  C   UNL A   1      37.712  34.058  34.528  1.00  0.00     0.029 A 
ATOM     55  C   UNL A   1      38.817  33.108  34.606  1.00  0.00     0.049 A 
ATOM     56  H   UNL A   1      39.520  31.859  33.093  1.00  0.00     0.167 HD
ATOM     57  C   UNL A   1      40.662  29.015  29.960  1.00  0.00     0.034 A 
ATOM     58  C   UNL A   1      39.583  32.890  35.694  1.00  0.00     0.034 A 
ATOM     59  C   UNL A   1      41.614  28.816  31.019  1.00  0.00     0.049 A 
ATOM     60  C   UNL A   1      40.699  31.881  35.608  1.00  0.00     0.074 A 
ATOM     61  C   UNL A   1      42.703  27.962  31.045  1.00  0.00     0.029 A 
ATOM     62  N   UNL A   1      41.595  29.478  32.235  1.00  0.00    -0.354 N 
ATOM     63  N   UNL A   1      41.068  31.140  34.591  1.00  0.00    -0.248 NA
ATOM     64  C   UNL A   1      41.529  31.705  36.810  1.00  0.00     0.031 C 
ATOM     65  C   UNL A   1      43.330  28.093  32.288  1.00  0.00     0.029 A 
ATOM     66  C   UNL A   1      42.651  29.054  33.021  1.00  0.00     0.049 A 
ATOM     67  H   UNL A   1      40.926  30.151  32.502  1.00  0.00     0.167 HD
ATOM     68  C   UNL A   1      42.200  30.452  35.014  1.00  0.00     0.074 A 
ATOM     69  C   UNL A   1      42.466  30.876  36.372  1.00  0.00     0.031 C 
ATOM     70  C   UNL A   1      42.945  29.540  34.343  1.00  0.00     0.034 A 
BRANCH  57  71
ATOM     71  C   UNL A   1      40.834  28.215  28.694  1.00  0.00     0.023 A 
ATOM     72  C   UNL A   1      41.469  28.809  27.584  1.00  0.00     0.012 A 
ATOM     73  C   UNL A   1      40.449  26.862  28.628  1.00  0.00     0.148 A 
ATOM     74  C   UNL A   1      41.694  28.079  26.418  1.00  0.00     0.002 A 
ATOM     75  C   UNL A   1      40.717  26.127  27.479  1.00  0.00     0.091 A 
ATOM     76  F   UNL A   1      39.834  26.320  29.688  1.00  0.00    -0.205 F 
ATOM     77  C   UNL A   1      41.329  26.736  26.370  1.00  0.00     0.022 A 
BRANCH  75  78
ATOM     78  S   UNL A   1      40.363  24.372  27.341  1.00  0.00     0.127 S 
ATOM     79  O   UNL A   1      38.910  24.350  27.513  1.00  0.00    -0.237 OA
ATOM     80  O   UNL A   1      40.820  24.073  25.984  1.00  0.00    -0.237 OA
ATOM     81  O   UNL A   1      41.121  23.720  28.400  1.00  0.00    -0.744 OA
ENDBRANCH  75  78
ENDBRANCH  57  71
BRANCH  58  82
ATOM     82  C   UNL A   1      39.361  33.665  36.949  1.00  0.00     0.023 A 
ATOM     83  C   UNL A   1      39.888  34.967  37.062  1.00  0.00     0.012 A 
ATOM     84  C   UNL A   1      38.661  33.114  38.039  1.00  0.00     0.148 A 
ATOM     85  C   UNL A   1      39.768  35.684  38.253  1.00  0.00     0.002 A 
ATOM     86  C   UNL A   1      38.493  33.856  39.202  1.00  0.00     0.091 A 
ATOM     87  F   UNL A   1      38.176  31.869  37.921  1.00  0.00    -0.205 F 
ATOM     88  C   UNL A   1      39.066  35.132  39.321  1.00  0.00     0.022 A 
BRANCH  86  89
ATOM     89  S   UNL A   1      37.496  33.270  40.576  1.00  0.00     0.127 S 
ATOM     90  O   UNL A   1      37.437  34.454  41.431  1.00  0.00    -0.237 OA
ATOM     91  O   UNL A   1      36.238  32.925  39.914  1.00  0.00    -0.237 OA
ATOM     92  O   UNL A   1      38.216  32.128  41.124  1.00  0.00    -0.744 OA
ENDBRANCH  86  89
ENDBRANCH  58  82
BRANCH  70  93
ATOM     93  C   UNL A   1      44.163  28.985  35.033  1.00  0.00     0.023 A 
ATOM     94  C   UNL A   1      45.423  29.584  34.839  1.00  0.00     0.012 A 
ATOM     95  C   UNL A   1      44.040  27.911  35.938  1.00  0.00     0.148 A 
ATOM     96  C   UNL A   1      46.548  29.100  35.507  1.00  0.00     0.002 A 
ATOM     97  C   UNL A   1      45.153  27.470  36.641  1.00  0.00     0.091 A 
ATOM     98  F   UNL A   1      42.834  27.345  36.096  1.00  0.00    -0.205 F 
ATOM     99  C   UNL A   1      46.410  28.053  36.416  1.00  0.00     0.022 A 
BRANCH  97 100
ATOM    100  S   UNL A   1      45.055  26.197  37.904  1.00  0.00     0.127 S 
ATOM    101  O   UNL A   1      44.599  25.043  37.129  1.00  0.00    -0.237 OA
ATOM    102  O   UNL A   1      46.441  26.113  38.365  1.00  0.00    -0.237 OA
ATOM    103  O   UNL A   1      44.113  26.689  38.901  1.00  0.00    -0.744 OA
ENDBRANCH  97 100
ENDBRANCH  70  93
ENDBRANCH  44  45
ENDBRANCH  36  39
ENDBRANCH  34  35
ENDBRANCH  33  34
ENDBRANCH   1  33
TORSDOF 20
ENDMDL
MODEL 3
REMARK VINA RESULT:     -11.1      5.832      9.798
REMARK SMILES CC[NH+]1CCN(c2ccc(NC(=O)C3CCCC3)c(C(=O)NCCCCCCNC(=O)c3ccc(-c4c5nc(c(-c6cccc(S(=O)(=O)[O-])c6F)c6ccc([nH]6)c(-c6cccc(S(=O)(=O)[O-])c6F)c6nc(c(-c7cccc(S(=O)(=O)[O-])c7F)c7ccc4[nH]7)C=C6)C=C5)cc3)c2)CC1
REMARK SMILES IDX 26 1 25 2 24 3 23 4 22 5 20 6 21 7 19 9 7 10 8 11 95 12 9 13
REMARK SMILES IDX 10 14 6 15 3 16 4 17 97 18 5 20 96 21 2 22 1 23 11 24 12 25
REMARK SMILES IDX 13 27 14 28 15 29 18 30 16 31 17 32 27 33 28 34 29 35 30 36
REMARK SMILES IDX 31 38 32 39 33 40 94 41 34 42 93 43 35 44 36 45 37 46 87 47
REMARK SMILES IDX 38 48 92 49 86 50 88 51 39 52 91 53 85 54 84 55 40 57 72 58
REMARK SMILES IDX 52 59 71 60 53 61 56 62 70 63 89 64 54 65 55 66 69 68 90 69
REMARK SMILES IDX 57 70 41 71 42 72 50 73 43 74 45 75 51 76 44 77 46 78 47 79
REMARK SMILES IDX 48 80 49 81 73 82 74 83 82 84 75 85 77 86 83 87 76 88 78 89
REMARK SMILES IDX 79 90 80 91 81 92 58 93 59 94 67 95 60 96 62 97 68 98 61 99
REMARK SMILES IDX 63 100 64 101 65 102 66 103
REMARK H PARENT 22 8 3 19 11 26 29 37 88 56 56 67
REMARK Flexibility Score: inf
ROOT
ATOM      1  C   UNL A   1      39.191  22.541  26.492  1.00  0.00     0.002 C 
ENDROOT
BRANCH   1   2
ATOM      2  C   UNL A   1      38.142  23.520  25.959  1.00  0.00     0.002 C 
BRANCH   2   3
ATOM      3  C   UNL A   1      36.689  23.069  26.054  1.00  0.00     0.021 C 
BRANCH   3   4
ATOM      4  C   UNL A   1      35.670  23.892  25.281  1.00  0.00     0.116 C 
BRANCH   4   5
ATOM      5  N   UNL A   1      35.513  23.543  23.874  1.00  0.00    -0.352 N 
ATOM      6  C   UNL A   1      34.434  23.712  23.021  1.00  0.00     0.253 C 
ATOM      7  O   UNL A   1      34.527  23.332  21.855  1.00  0.00    -0.269 OA
ATOM      8  H   UNL A   1      36.301  23.120  23.463  1.00  0.00     0.163 HD
BRANCH   6   9
ATOM      9  C   UNL A   1      33.129  24.236  23.526  1.00  0.00     0.065 A 
ATOM     10  C   UNL A   1      32.058  25.898  24.976  1.00  0.00     0.038 A 
ATOM     11  C   UNL A   1      31.032  24.970  25.144  1.00  0.00     0.028 A 
ATOM     12  C   UNL A   1      33.069  25.522  24.089  1.00  0.00     0.042 A 
ATOM     13  C   UNL A   1      30.996  23.766  24.440  1.00  0.00     0.029 A 
ATOM     14  C   UNL A   1      31.982  23.434  23.532  1.00  0.00     0.054 A 
BRANCH  10  15
ATOM     15  N   UNL A   1      32.084  27.077  25.692  1.00  0.00    -0.360 N 
ATOM     16  N   UNL A   1      33.227  29.808  25.617  1.00  0.00    -0.332 N 
ATOM     17  C   UNL A   1      34.043  28.601  25.889  1.00  0.00     0.283 C 
ATOM     18  C   UNL A   1      32.067  29.394  24.789  1.00  0.00     0.283 C 
ATOM     19  H   UNL A   1      33.758  30.509  25.100  1.00  0.00     0.348 HD
ATOM     20  C   UNL A   1      33.264  27.421  26.518  1.00  0.00     0.178 C 
ATOM     21  C   UNL A   1      31.224  28.239  25.387  1.00  0.00     0.178 C 
BRANCH  16  22
ATOM     22  C   UNL A   1      32.829  30.444  26.886  1.00  0.00     0.258 C 
ATOM     23  C   UNL A   1      31.722  31.477  26.733  1.00  0.00     0.071 C 
ENDBRANCH  16  22
ENDBRANCH  10  15
BRANCH  14  24
ATOM     24  N   UNL A   1      31.843  22.361  22.631  1.00  0.00    -0.325 N 
ATOM     25  C   UNL A   1      32.062  21.018  22.726  1.00  0.00     0.227 C 
ATOM     26  H   UNL A   1      31.518  22.639  21.744  1.00  0.00     0.169 HD
ATOM     27  O   UNL A   1      31.856  20.352  21.699  1.00  0.00    -0.274 OA
BRANCH  25  28
ATOM     28  C   UNL A   1      32.523  20.254  23.977  1.00  0.00     0.079 C 
ATOM     29  C   UNL A   1      32.524  18.739  23.802  1.00  0.00     0.013 C 
ATOM     30  C   UNL A   1      33.830  20.651  24.667  1.00  0.00     0.013 C 
ATOM     31  C   UNL A   1      33.643  18.205  24.685  1.00  0.00     0.001 C 
ATOM     32  C   UNL A   1      34.591  19.362  24.965  1.00  0.00     0.001 C 
ENDBRANCH  25  28
ENDBRANCH  14  24
ENDBRANCH   6   9
ENDBRANCH   4   5
ENDBRANCH   3   4
ENDBRANCH   2   3
ENDBRANCH   1   2
BRANCH   1  33
ATOM     33  C   UNL A   1      39.333  21.217  25.738  1.00  0.00     0.021 C 
BRANCH  33  34
ATOM     34  C   UNL A   1      39.626  19.992  26.597  1.00  0.00     0.116 C 
BRANCH  34  35
ATOM     35  N   UNL A   1      40.793  19.255  26.140  1.00  0.00    -0.352 N 
ATOM     36  C   UNL A   1      42.054  19.714  25.859  1.00  0.00     0.251 C 
ATOM     37  H   UNL A   1      40.658  18.287  26.014  1.00  0.00     0.163 HD
ATOM     38  O   UNL A   1      42.871  18.967  25.317  1.00  0.00    -0.269 OA
BRANCH  36  39
ATOM     39  C   UNL A   1      42.430  21.106  26.185  1.00  0.00     0.039 A 
ATOM     40  C   UNL A   1      42.617  21.462  27.524  1.00  0.00     0.014 A 
ATOM     41  C   UNL A   1      42.593  22.060  25.177  1.00  0.00     0.014 A 
ATOM     42  C   UNL A   1      43.021  22.760  27.845  1.00  0.00     0.010 A 
ATOM     43  C   UNL A   1      43.068  23.331  25.495  1.00  0.00     0.010 A 
ATOM     44  C   UNL A   1      43.280  23.697  26.832  1.00  0.00    -0.014 A 
BRANCH  44  45
ATOM     45  C   UNL A   1      43.764  25.068  27.148  1.00  0.00     0.031 A 
ATOM     46  C   UNL A   1      42.807  26.099  27.686  1.00  0.00     0.074 A 
ATOM     47  C   UNL A   1      45.042  25.405  26.884  1.00  0.00     0.049 A 
ATOM     48  N   UNL A   1      43.017  27.364  27.945  1.00  0.00    -0.248 NA
ATOM     49  C   UNL A   1      41.425  25.658  27.948  1.00  0.00     0.031 C 
ATOM     50  C   UNL A   1      46.052  24.514  26.308  1.00  0.00     0.029 A 
ATOM     51  N   UNL A   1      45.706  26.596  27.041  1.00  0.00    -0.354 N 
ATOM     52  C   UNL A   1      41.796  27.874  28.374  1.00  0.00     0.074 A 
ATOM     53  C   UNL A   1      40.838  26.793  28.301  1.00  0.00     0.031 C 
ATOM     54  C   UNL A   1      47.205  25.188  26.163  1.00  0.00     0.029 A 
ATOM     55  C   UNL A   1      47.009  26.567  26.599  1.00  0.00     0.049 A 
ATOM     56  H   UNL A   1      45.289  27.397  27.434  1.00  0.00     0.167 HD
ATOM     57  C   UNL A   1      41.505  29.118  28.821  1.00  0.00     0.034 A 
ATOM     58  C   UNL A   1      47.936  27.543  26.538  1.00  0.00     0.034 A 
ATOM     59  C   UNL A   1      42.466  30.182  28.925  1.00  0.00     0.049 A 
ATOM     60  C   UNL A   1      47.580  28.918  27.044  1.00  0.00     0.074 A 
ATOM     61  C   UNL A   1      42.280  31.464  29.413  1.00  0.00     0.029 A 
ATOM     62  N   UNL A   1      43.793  30.089  28.539  1.00  0.00    -0.354 N 
ATOM     63  N   UNL A   1      46.454  29.342  27.564  1.00  0.00    -0.248 NA
ATOM     64  C   UNL A   1      48.637  29.940  26.989  1.00  0.00     0.031 C 
ATOM     65  C   UNL A   1      43.490  32.153  29.300  1.00  0.00     0.029 A 
ATOM     66  C   UNL A   1      44.439  31.289  28.776  1.00  0.00     0.049 A 
ATOM     67  H   UNL A   1      44.214  29.288  28.151  1.00  0.00     0.167 HD
ATOM     68  C   UNL A   1      46.684  30.660  27.944  1.00  0.00     0.074 A 
ATOM     69  C   UNL A   1      48.060  30.959  27.610  1.00  0.00     0.031 C 
ATOM     70  C   UNL A   1      45.828  31.548  28.506  1.00  0.00     0.034 A 
BRANCH  57  71
ATOM     71  C   UNL A   1      40.099  29.385  29.297  1.00  0.00     0.023 A 
ATOM     72  C   UNL A   1      39.084  29.627  28.349  1.00  0.00     0.012 A 
ATOM     73  C   UNL A   1      39.766  29.314  30.663  1.00  0.00     0.148 A 
ATOM     74  C   UNL A   1      37.765  29.822  28.753  1.00  0.00     0.002 A 
ATOM     75  C   UNL A   1      38.441  29.463  31.056  1.00  0.00     0.091 A 
ATOM     76  F   UNL A   1      40.747  29.096  31.549  1.00  0.00    -0.205 F 
ATOM     77  C   UNL A   1      37.441  29.728  30.104  1.00  0.00     0.022 A 
BRANCH  75  78
ATOM     78  S   UNL A   1      37.903  29.281  32.759  1.00  0.00     0.127 S 
ATOM     79  O   UNL A   1      37.778  27.828  32.876  1.00  0.00    -0.237 OA
ATOM     80  O   UNL A   1      39.026  29.858  33.498  1.00  0.00    -0.237 OA
ATOM     81  O   UNL A   1      36.653  30.020  32.871  1.00  0.00    -0.744 OA
ENDBRANCH  75  78
ENDBRANCH  57  71
BRANCH  58  82
ATOM     82  C   UNL A   1      49.307  27.261  26.022  1.00  0.00     0.023 A 
ATOM     83  C   UNL A   1      50.297  26.786  26.905  1.00  0.00     0.012 A 
ATOM     84  C   UNL A   1      49.644  27.486  24.673  1.00  0.00     0.148 A 
ATOM     85  C   UNL A   1      51.608  26.592  26.468  1.00  0.00     0.002 A 
ATOM     86  C   UNL A   1      50.937  27.234  24.231  1.00  0.00     0.091 A 
ATOM     87  F   UNL A   1      48.694  27.949  23.848  1.00  0.00    -0.205 F 
ATOM     88  C   UNL A   1      51.928  26.810  25.131  1.00  0.00     0.022 A 
BRANCH  86  89
ATOM     89  S   UNL A   1      51.401  27.367  22.501  1.00  0.00     0.127 S 
ATOM     90  O   UNL A   1      50.284  26.697  21.839  1.00  0.00    -0.237 OA
ATOM     91  O   UNL A   1      51.451  28.816  22.309  1.00  0.00    -0.237 OA
ATOM     92  O   UNL A   1      52.694  26.704  22.390  1.00  0.00    -0.744 OA
ENDBRANCH  86  89
ENDBRANCH  58  82
BRANCH  70  93
ATOM     93  C   UNL A   1      46.365  32.908  28.865  1.00  0.00     0.023 A 
ATOM     94  C   UNL A   1      46.977  33.122  30.115  1.00  0.00     0.012 A 
ATOM     95  C   UNL A   1      46.330  33.957  27.924  1.00  0.00     0.148 A 
ATOM     96  C   UNL A   1      47.512  34.369  30.439  1.00  0.00     0.002 A 
ATOM     97  C   UNL A   1      46.913  35.180  28.231  1.00  0.00     0.091 A 
ATOM     98  F   UNL A   1      45.729  33.738  26.745  1.00  0.00    -0.205 F 
ATOM     99  C   UNL A   1      47.492  35.392  29.493  1.00  0.00     0.022 A 
BRANCH  97 100
ATOM    100  S   UNL A   1      47.025  36.521  27.043  1.00  0.00     0.127 S 
ATOM    101  O   UNL A   1      47.712  35.873  25.926  1.00  0.00    -0.237 OA
ATOM    102  O   UNL A   1      45.617  36.831  26.795  1.00  0.00    -0.237 OA
ATOM    103  O   UNL A   1      47.773  37.584  27.702  1.00  0.00    -0.744 OA
ENDBRANCH  97 100
ENDBRANCH  70  93
ENDBRANCH  44  45
ENDBRANCH  36  39
ENDBRANCH  34  35
ENDBRANCH  33  34
ENDBRANCH   1  33
TORSDOF 20
ENDMDL
