MODEL 1
REMARK VINA RESULT:     -11.6      0.000      0.000
REMARK SMILES COc1ccc([C@H]2[C@H](C(=O)NCCCCCCNC(=O)c3ccc(-c4c5nc(c(-c6cccc(S(=O)(=O)[O-])c6F)c6ccc([nH]6)c(-c6cccc(S(=O)(=O)[O-])c6F)c6nc(c(-c7cccc(S(=O)(=O)[O-])c7F)c7ccc4[nH]7)C=C6)C=C5)cc3)CCN2c2ccc(F)cc2)cc1
REMARK SMILES IDX 15 1 14 2 13 3 12 4 11 5 9 6 10 7 8 9 7 10 86 11 84 12 85 13
REMARK SMILES IDX 6 14 3 15 4 16 95 17 5 18 94 19 2 20 1 21 87 22 88 23 93 24
REMARK SMILES IDX 89 25 92 26 90 27 91 28 16 29 17 30 18 31 19 32 20 34 21 35
REMARK SMILES IDX 22 36 83 37 23 38 82 39 24 40 25 41 26 42 76 43 27 44 81 45
REMARK SMILES IDX 75 46 77 47 28 48 80 49 74 50 73 51 29 53 61 54 41 55 60 56
REMARK SMILES IDX 42 57 45 58 59 59 78 60 43 61 44 62 58 64 79 65 46 66 30 67
REMARK SMILES IDX 31 68 39 69 32 70 34 71 40 72 33 73 35 74 36 75 37 76 38 77
REMARK SMILES IDX 62 78 63 79 71 80 64 81 66 82 72 83 65 84 67 85 68 86 69 87
REMARK SMILES IDX 70 88 47 89 48 90 56 91 49 92 51 93 57 94 50 95 52 96 53 97
REMARK SMILES IDX 54 98 55 99
REMARK H PARENT 11 8 18 33 77 52 45 63
REMARK Flexibility Score: inf
ROOT
ATOM      1  C   UNL A   1      31.551  27.734  25.569  1.00  0.00     0.002 C 
ENDROOT
BRANCH   1   2
ATOM      2  C   UNL A   1      30.603  27.210  24.484  1.00  0.00     0.002 C 
BRANCH   2   3
ATOM      3  C   UNL A   1      29.839  25.937  24.851  1.00  0.00     0.021 C 
BRANCH   3   4
ATOM      4  C   UNL A   1      30.087  25.442  26.275  1.00  0.00     0.116 C 
BRANCH   4   5
ATOM      5  N   UNL A   1      29.925  24.004  26.378  1.00  0.00    -0.356 N 
ATOM      6  C   UNL A   1      30.664  22.954  25.949  1.00  0.00     0.225 C 
ATOM      7  O   UNL A   1      30.165  21.834  26.144  1.00  0.00    -0.275 OA
ATOM      8  H   UNL A   1      29.109  23.736  26.860  1.00  0.00     0.163 HD
BRANCH   6   9
ATOM      9  C   UNL A   1      32.005  23.031  25.226  1.00  0.00     0.107 C 
ATOM     10  C   UNL A   1      32.929  21.856  25.601  1.00  0.00     0.125 C 
ATOM     11  N   UNL A   1      32.767  20.966  24.440  1.00  0.00    -0.364 N 
ATOM     12  C   UNL A   1      32.010  23.097  23.702  1.00  0.00     0.037 C 
ATOM     13  C   UNL A   1      32.574  21.757  23.219  1.00  0.00     0.118 C 
BRANCH  10  14
ATOM     14  C   UNL A   1      34.388  22.323  25.747  1.00  0.00    -0.024 A 
ATOM     15  C   UNL A   1      37.046  23.284  25.726  1.00  0.00     0.118 A 
ATOM     16  C   UNL A   1      35.991  24.143  26.027  1.00  0.00     0.047 A 
ATOM     17  C   UNL A   1      36.793  21.929  25.541  1.00  0.00     0.047 A 
ATOM     18  C   UNL A   1      34.673  23.669  26.040  1.00  0.00     0.010 A 
ATOM     19  C   UNL A   1      35.478  21.456  25.563  1.00  0.00     0.010 A 
BRANCH  15  20
ATOM     20  O   UNL A   1      38.294  23.841  25.669  1.00  0.00    -0.497 OA
ATOM     21  C   UNL A   1      38.704  24.446  26.895  1.00  0.00     0.278 C 
ENDBRANCH  15  20
ENDBRANCH  10  14
BRANCH  11  22
ATOM     22  C   UNL A   1      32.734  19.592  24.456  1.00  0.00     0.037 A 
ATOM     23  C   UNL A   1      32.835  18.873  25.663  1.00  0.00     0.029 A 
ATOM     24  C   UNL A   1      32.660  18.824  23.280  1.00  0.00     0.029 A 
ATOM     25  C   UNL A   1      32.930  17.477  25.695  1.00  0.00     0.041 A 
ATOM     26  C   UNL A   1      32.774  17.428  23.299  1.00  0.00     0.041 A 
ATOM     27  C   UNL A   1      32.921  16.768  24.507  1.00  0.00     0.123 A 
ATOM     28  F   UNL A   1      33.075  15.438  24.522  1.00  0.00    -0.207 F 
ENDBRANCH  11  22
ENDBRANCH   6   9
ENDBRANCH   4   5
ENDBRANCH   3   4
ENDBRANCH   2   3
ENDBRANCH   1   2
BRANCH   1  29
ATOM     29  C   UNL A   1      33.050  27.647  25.252  1.00  0.00     0.021 C 
BRANCH  29  30
ATOM     30  C   UNL A   1      33.737  28.979  24.954  1.00  0.00     0.116 C 
BRANCH  30  31
ATOM     31  N   UNL A   1      32.999  30.108  25.497  1.00  0.00    -0.352 N 
ATOM     32  C   UNL A   1      33.186  30.815  26.658  1.00  0.00     0.251 C 
ATOM     33  H   UNL A   1      32.244  30.414  24.943  1.00  0.00     0.163 HD
ATOM     34  O   UNL A   1      32.318  31.601  27.034  1.00  0.00    -0.269 OA
BRANCH  32  35
ATOM     35  C   UNL A   1      34.412  30.633  27.464  1.00  0.00     0.039 A 
ATOM     36  C   UNL A   1      34.616  29.410  28.110  1.00  0.00     0.014 A 
ATOM     37  C   UNL A   1      35.338  31.669  27.623  1.00  0.00     0.014 A 
ATOM     38  C   UNL A   1      35.774  29.205  28.865  1.00  0.00     0.010 A 
ATOM     39  C   UNL A   1      36.522  31.441  28.324  1.00  0.00     0.010 A 
ATOM     40  C   UNL A   1      36.752  30.210  28.954  1.00  0.00    -0.014 A 
BRANCH  40  41
ATOM     41  C   UNL A   1      38.031  29.975  29.675  1.00  0.00     0.031 A 
ATOM     42  C   UNL A   1      39.076  29.056  29.101  1.00  0.00     0.074 A 
ATOM     43  C   UNL A   1      38.213  30.523  30.892  1.00  0.00     0.049 A 
ATOM     44  N   UNL A   1      40.225  28.697  29.611  1.00  0.00    -0.248 NA
ATOM     45  C   UNL A   1      38.783  28.444  27.795  1.00  0.00     0.031 C 
ATOM     46  C   UNL A   1      37.243  31.368  31.591  1.00  0.00     0.029 A 
ATOM     47  N   UNL A   1      39.263  30.428  31.771  1.00  0.00    -0.354 N 
ATOM     48  C   UNL A   1      40.778  27.794  28.711  1.00  0.00     0.074 A 
ATOM     49  C   UNL A   1      39.824  27.638  27.633  1.00  0.00     0.031 C 
ATOM     50  C   UNL A   1      37.741  31.712  32.789  1.00  0.00     0.029 A 
ATOM     51  C   UNL A   1      39.052  31.093  32.957  1.00  0.00     0.049 A 
ATOM     52  H   UNL A   1      40.090  29.933  31.571  1.00  0.00     0.167 HD
ATOM     53  C   UNL A   1      41.979  27.172  28.761  1.00  0.00     0.034 A 
ATOM     54  C   UNL A   1      39.822  31.187  34.058  1.00  0.00     0.034 A 
ATOM     55  C   UNL A   1      42.944  27.360  29.812  1.00  0.00     0.049 A 
ATOM     56  C   UNL A   1      41.169  30.519  34.070  1.00  0.00     0.074 A 
ATOM     57  C   UNL A   1      44.227  26.849  29.904  1.00  0.00     0.029 A 
ATOM     58  N   UNL A   1      42.731  28.110  30.957  1.00  0.00    -0.354 N 
ATOM     59  N   UNL A   1      41.744  29.807  33.132  1.00  0.00    -0.248 NA
ATOM     60  C   UNL A   1      41.989  30.697  35.278  1.00  0.00     0.031 C 
ATOM     61  C   UNL A   1      44.781  27.273  31.117  1.00  0.00     0.029 A 
ATOM     62  C   UNL A   1      43.851  28.067  31.769  1.00  0.00     0.049 A 
ATOM     63  H   UNL A   1      41.902  28.603  31.164  1.00  0.00     0.167 HD
ATOM     64  C   UNL A   1      43.004  29.477  33.622  1.00  0.00     0.074 A 
ATOM     65  C   UNL A   1      43.116  30.089  34.929  1.00  0.00     0.031 C 
ATOM     66  C   UNL A   1      43.971  28.720  33.048  1.00  0.00     0.034 A 
BRANCH  53  67
ATOM     67  C   UNL A   1      42.350  26.267  27.612  1.00  0.00     0.023 A 
ATOM     68  C   UNL A   1      42.991  26.812  26.482  1.00  0.00     0.012 A 
ATOM     69  C   UNL A   1      42.125  24.878  27.676  1.00  0.00     0.148 A 
ATOM     70  C   UNL A   1      43.374  25.996  25.419  1.00  0.00     0.002 A 
ATOM     71  C   UNL A   1      42.547  24.065  26.631  1.00  0.00     0.091 A 
ATOM     72  F   UNL A   1      41.496  24.380  28.751  1.00  0.00    -0.205 F 
ATOM     73  C   UNL A   1      43.162  24.622  25.498  1.00  0.00     0.022 A 
BRANCH  71  74
ATOM     74  S   UNL A   1      42.392  22.275  26.673  1.00  0.00     0.127 S 
ATOM     75  O   UNL A   1      40.941  22.103  26.590  1.00  0.00    -0.237 OA
ATOM     76  O   UNL A   1      43.121  21.873  25.469  1.00  0.00    -0.237 OA
ATOM     77  O   UNL A   1      43.002  21.848  27.922  1.00  0.00    -0.744 OA
ENDBRANCH  71  74
ENDBRANCH  53  67
BRANCH  54  78
ATOM     78  C   UNL A   1      39.361  32.004  35.217  1.00  0.00     0.023 A 
ATOM     79  C   UNL A   1      38.516  31.420  36.180  1.00  0.00     0.012 A 
ATOM     80  C   UNL A   1      39.780  33.337  35.390  1.00  0.00     0.148 A 
ATOM     81  C   UNL A   1      38.074  32.157  37.279  1.00  0.00     0.002 A 
ATOM     82  C   UNL A   1      39.381  34.049  36.515  1.00  0.00     0.091 A 
ATOM     83  F   UNL A   1      40.573  33.881  34.454  1.00  0.00    -0.205 F 
ATOM     84  C   UNL A   1      38.514  33.466  37.452  1.00  0.00     0.022 A 
BRANCH  82  85
ATOM     85  S   UNL A   1      40.010  35.690  36.886  1.00  0.00     0.127 S 
ATOM     86  O   UNL A   1      41.440  35.434  37.048  1.00  0.00    -0.237 OA
ATOM     87  O   UNL A   1      39.651  36.434  35.677  1.00  0.00    -0.237 OA
ATOM     88  O   UNL A   1      39.302  36.120  38.083  1.00  0.00    -0.744 OA
ENDBRANCH  82  85
ENDBRANCH  54  78
BRANCH  66  89
ATOM     89  C   UNL A   1      45.252  28.526  33.816  1.00  0.00     0.023 A 
ATOM     90  C   UNL A   1      46.304  29.451  33.663  1.00  0.00     0.012 A 
ATOM     91  C   UNL A   1      45.389  27.471  34.740  1.00  0.00     0.148 A 
ATOM     92  C   UNL A   1      47.483  29.312  34.394  1.00  0.00     0.002 A 
ATOM     93  C   UNL A   1      46.549  27.366  35.499  1.00  0.00     0.091 A 
ATOM     94  F   UNL A   1      44.385  26.589  34.857  1.00  0.00    -0.205 F 
ATOM     95  C   UNL A   1      47.600  28.278  35.319  1.00  0.00     0.022 A 
BRANCH  93  96
ATOM     96  S   UNL A   1      46.750  26.121  36.779  1.00  0.00     0.127 S 
ATOM     97  O   UNL A   1      46.714  24.884  36.001  1.00  0.00    -0.237 OA
ATOM     98  O   UNL A   1      48.063  26.455  37.333  1.00  0.00    -0.237 OA
ATOM     99  O   UNL A   1      45.641  26.314  37.703  1.00  0.00    -0.744 OA
ENDBRANCH  93  96
ENDBRANCH  66  89
ENDBRANCH  40  41
ENDBRANCH  32  35
ENDBRANCH  30  31
ENDBRANCH  29  30
ENDBRANCH   1  29
TORSDOF 19
ENDMDL
MODEL 2
REMARK VINA RESULT:     -11.6      4.824     11.364
REMARK SMILES COc1ccc([C@H]2[C@H](C(=O)NCCCCCCNC(=O)c3ccc(-c4c5nc(c(-c6cccc(S(=O)(=O)[O-])c6F)c6ccc([nH]6)c(-c6cccc(S(=O)(=O)[O-])c6F)c6nc(c(-c7cccc(S(=O)(=O)[O-])c7F)c7ccc4[nH]7)C=C6)C=C5)cc3)CCN2c2ccc(F)cc2)cc1
REMARK SMILES IDX 15 1 14 2 13 3 12 4 11 5 9 6 10 7 8 9 7 10 86 11 84 12 85 13
REMARK SMILES IDX 6 14 3 15 4 16 95 17 5 18 94 19 2 20 1 21 87 22 88 23 93 24
REMARK SMILES IDX 89 25 92 26 90 27 91 28 16 29 17 30 18 31 19 32 20 34 21 35
REMARK SMILES IDX 22 36 83 37 23 38 82 39 24 40 25 41 26 42 76 43 27 44 81 45
REMARK SMILES IDX 75 46 77 47 28 48 80 49 74 50 73 51 29 53 61 54 41 55 60 56
REMARK SMILES IDX 42 57 45 58 59 59 78 60 43 61 44 62 58 64 79 65 46 66 30 67
REMARK SMILES IDX 31 68 39 69 32 70 34 71 40 72 33 73 35 74 36 75 37 76 38 77
REMARK SMILES IDX 62 78 63 79 71 80 64 81 66 82 72 83 65 84 67 85 68 86 69 87
REMARK SMILES IDX 70 88 47 89 48 90 56 91 49 92 51 93 57 94 50 95 52 96 53 97
REMARK SMILES IDX 54 98 55 99
REMARK H PARENT 11 8 18 33 77 52 45 63
REMARK Flexibility Score: inf
ROOT
ATOM      1  C   UNL A   1      33.438  34.656  28.754  1.00  0.00     0.002 C 
ENDROOT
BRANCH   1   2
ATOM      2  C   UNL A   1      32.948  36.086  29.011  1.00  0.00     0.002 C 
BRANCH   2   3
ATOM      3  C   UNL A   1      32.831  36.475  30.486  1.00  0.00     0.021 C 
BRANCH   3   4
ATOM      4  C   UNL A   1      32.864  35.293  31.454  1.00  0.00     0.116 C 
BRANCH   4   5
ATOM      5  N   UNL A   1      33.602  35.611  32.662  1.00  0.00    -0.356 N 
ATOM      6  C   UNL A   1      34.800  35.209  33.151  1.00  0.00     0.225 C 
ATOM      7  O   UNL A   1      35.083  35.629  34.283  1.00  0.00    -0.275 OA
ATOM      8  H   UNL A   1      33.137  36.251  33.248  1.00  0.00     0.163 HD
BRANCH   6   9
ATOM      9  C   UNL A   1      35.787  34.273  32.460  1.00  0.00     0.107 C 
ATOM     10  C   UNL A   1      37.188  34.343  33.097  1.00  0.00     0.125 C 
ATOM     11  N   UNL A   1      37.193  33.136  33.940  1.00  0.00    -0.364 N 
ATOM     12  C   UNL A   1      35.443  32.789  32.368  1.00  0.00     0.037 C 
ATOM     13  C   UNL A   1      36.422  32.066  33.297  1.00  0.00     0.118 C 
BRANCH  10  14
ATOM     14  C   UNL A   1      38.288  34.279  32.024  1.00  0.00    -0.024 A 
ATOM     15  C   UNL A   1      40.340  34.467  30.089  1.00  0.00     0.118 A 
ATOM     16  C   UNL A   1      40.658  34.356  31.441  1.00  0.00     0.047 A 
ATOM     17  C   UNL A   1      39.011  34.377  29.690  1.00  0.00     0.047 A 
ATOM     18  C   UNL A   1      39.643  34.261  32.402  1.00  0.00     0.010 A 
ATOM     19  C   UNL A   1      38.000  34.273  30.649  1.00  0.00     0.010 A 
BRANCH  15  20
ATOM     20  O   UNL A   1      41.388  34.622  29.223  1.00  0.00    -0.497 OA
ATOM     21  C   UNL A   1      41.389  35.883  28.552  1.00  0.00     0.278 C 
ENDBRANCH  15  20
ENDBRANCH  10  14
BRANCH  11  22
ATOM     22  C   UNL A   1      37.771  33.003  35.181  1.00  0.00     0.037 A 
ATOM     23  C   UNL A   1      37.751  31.774  35.869  1.00  0.00     0.029 A 
ATOM     24  C   UNL A   1      38.358  34.086  35.859  1.00  0.00     0.029 A 
ATOM     25  C   UNL A   1      38.221  31.646  37.180  1.00  0.00     0.041 A 
ATOM     26  C   UNL A   1      38.814  33.974  37.179  1.00  0.00     0.041 A 
ATOM     27  C   UNL A   1      38.728  32.756  37.833  1.00  0.00     0.123 A 
ATOM     28  F   UNL A   1      39.122  32.658  39.108  1.00  0.00    -0.207 F 
ENDBRANCH  11  22
ENDBRANCH   6   9
ENDBRANCH   4   5
ENDBRANCH   3   4
ENDBRANCH   2   3
ENDBRANCH   1   2
BRANCH   1  29
ATOM     29  C   UNL A   1      34.958  34.452  28.765  1.00  0.00     0.021 C 
BRANCH  29  30
ATOM     30  C   UNL A   1      35.473  33.296  27.909  1.00  0.00     0.116 C 
BRANCH  30  31
ATOM     31  N   UNL A   1      34.467  32.261  27.727  1.00  0.00    -0.352 N 
ATOM     32  C   UNL A   1      34.583  30.894  27.771  1.00  0.00     0.251 C 
ATOM     33  H   UNL A   1      33.559  32.594  27.541  1.00  0.00     0.163 HD
ATOM     34  O   UNL A   1      33.650  30.195  27.378  1.00  0.00    -0.269 OA
BRANCH  32  35
ATOM     35  C   UNL A   1      35.818  30.256  28.274  1.00  0.00     0.039 A 
ATOM     36  C   UNL A   1      36.938  30.207  27.438  1.00  0.00     0.014 A 
ATOM     37  C   UNL A   1      35.869  29.670  29.542  1.00  0.00     0.014 A 
ATOM     38  C   UNL A   1      38.124  29.625  27.894  1.00  0.00     0.010 A 
ATOM     39  C   UNL A   1      37.071  29.146  30.018  1.00  0.00     0.010 A 
ATOM     40  C   UNL A   1      38.209  29.116  29.200  1.00  0.00    -0.014 A 
BRANCH  40  41
ATOM     41  C   UNL A   1      39.489  28.578  29.732  1.00  0.00     0.031 A 
ATOM     42  C   UNL A   1      40.159  29.226  30.915  1.00  0.00     0.074 A 
ATOM     43  C   UNL A   1      40.093  27.557  29.093  1.00  0.00     0.049 A 
ATOM     44  N   UNL A   1      41.298  28.923  31.482  1.00  0.00    -0.248 NA
ATOM     45  C   UNL A   1      39.472  30.375  31.525  1.00  0.00     0.031 C 
ATOM     46  C   UNL A   1      39.584  26.895  27.890  1.00  0.00     0.029 A 
ATOM     47  N   UNL A   1      41.280  26.916  29.347  1.00  0.00    -0.354 N 
ATOM     48  C   UNL A   1      41.482  29.860  32.491  1.00  0.00     0.074 A 
ATOM     49  C   UNL A   1      40.350  30.761  32.441  1.00  0.00     0.031 C 
ATOM     50  C   UNL A   1      40.454  25.946  27.509  1.00  0.00     0.029 A 
ATOM     51  C   UNL A   1      41.592  25.946  28.422  1.00  0.00     0.049 A 
ATOM     52  H   UNL A   1      41.854  27.130  30.118  1.00  0.00     0.167 HD
ATOM     53  C   UNL A   1      42.487  29.949  33.395  1.00  0.00     0.034 A 
ATOM     54  C   UNL A   1      42.675  25.152  28.316  1.00  0.00     0.034 A 
ATOM     55  C   UNL A   1      43.591  29.029  33.469  1.00  0.00     0.049 A 
ATOM     56  C   UNL A   1      43.757  25.245  29.356  1.00  0.00     0.074 A 
ATOM     57  C   UNL A   1      44.608  28.978  34.407  1.00  0.00     0.029 A 
ATOM     58  N   UNL A   1      43.829  28.003  32.568  1.00  0.00    -0.354 N 
ATOM     59  N   UNL A   1      43.827  26.029  30.405  1.00  0.00    -0.248 NA
ATOM     60  C   UNL A   1      44.892  24.320  29.220  1.00  0.00     0.031 C 
ATOM     61  C   UNL A   1      45.473  27.935  34.059  1.00  0.00     0.029 A 
ATOM     62  C   UNL A   1      44.982  27.322  32.918  1.00  0.00     0.049 A 
ATOM     63  H   UNL A   1      43.261  27.791  31.791  1.00  0.00     0.167 HD
ATOM     64  C   UNL A   1      44.995  25.671  31.070  1.00  0.00     0.074 A 
ATOM     65  C   UNL A   1      45.588  24.584  30.319  1.00  0.00     0.031 C 
ATOM     66  C   UNL A   1      45.537  26.209  32.190  1.00  0.00     0.034 A 
BRANCH  53  67
ATOM     67  C   UNL A   1      42.413  31.052  34.421  1.00  0.00     0.023 A 
ATOM     68  C   UNL A   1      41.931  30.762  35.713  1.00  0.00     0.012 A 
ATOM     69  C   UNL A   1      42.877  32.350  34.131  1.00  0.00     0.148 A 
ATOM     70  C   UNL A   1      41.880  31.753  36.692  1.00  0.00     0.002 A 
ATOM     71  C   UNL A   1      42.863  33.322  35.125  1.00  0.00     0.091 A 
ATOM     72  F   UNL A   1      43.314  32.613  32.891  1.00  0.00    -0.205 F 
ATOM     73  C   UNL A   1      42.356  33.029  36.401  1.00  0.00     0.022 A 
BRANCH  71  74
ATOM     74  S   UNL A   1      43.526  34.974  34.873  1.00  0.00     0.127 S 
ATOM     75  O   UNL A   1      43.912  35.346  36.235  1.00  0.00    -0.237 OA
ATOM     76  O   UNL A   1      44.652  34.720  33.972  1.00  0.00    -0.237 OA
ATOM     77  O   UNL A   1      42.447  35.755  34.292  1.00  0.00    -0.744 OA
ENDBRANCH  71  74
ENDBRANCH  53  67
BRANCH  54  78
ATOM     78  C   UNL A   1      42.754  24.151  27.214  1.00  0.00     0.023 A 
ATOM     79  C   UNL A   1      43.504  24.452  26.061  1.00  0.00     0.012 A 
ATOM     80  C   UNL A   1      42.126  22.895  27.316  1.00  0.00     0.148 A 
ATOM     81  C   UNL A   1      43.603  23.533  25.016  1.00  0.00     0.002 A 
ATOM     82  C   UNL A   1      42.274  21.962  26.296  1.00  0.00     0.091 A 
ATOM     83  F   UNL A   1      41.405  22.632  28.415  1.00  0.00    -0.205 F 
ATOM     84  C   UNL A   1      42.998  22.286  25.138  1.00  0.00     0.022 A 
BRANCH  82  85
ATOM     85  S   UNL A   1      41.644  20.285  26.430  1.00  0.00     0.127 S 
ATOM     86  O   UNL A   1      42.254  19.641  25.268  1.00  0.00    -0.237 OA
ATOM     87  O   UNL A   1      42.183  19.860  27.723  1.00  0.00    -0.237 OA
ATOM     88  O   UNL A   1      40.194  20.407  26.400  1.00  0.00    -0.744 OA
ENDBRANCH  82  85
ENDBRANCH  54  78
BRANCH  66  89
ATOM     89  C   UNL A   1      46.828  25.617  32.694  1.00  0.00     0.023 A 
ATOM     90  C   UNL A   1      48.056  26.125  32.226  1.00  0.00     0.012 A 
ATOM     91  C   UNL A   1      46.827  24.612  33.681  1.00  0.00     0.148 A 
ATOM     92  C   UNL A   1      49.263  25.619  32.708  1.00  0.00     0.002 A 
ATOM     93  C   UNL A   1      48.033  24.146  34.191  1.00  0.00     0.091 A 
ATOM     94  F   UNL A   1      45.648  24.128  34.100  1.00  0.00    -0.205 F 
ATOM     95  C   UNL A   1      49.251  24.640  33.698  1.00  0.00     0.022 A 
BRANCH  93  96
ATOM     96  S   UNL A   1      48.113  22.952  35.532  1.00  0.00     0.127 S 
ATOM     97  O   UNL A   1      47.512  21.771  34.916  1.00  0.00    -0.237 OA
ATOM     98  O   UNL A   1      49.553  22.849  35.771  1.00  0.00    -0.237 OA
ATOM     99  O   UNL A   1      47.360  23.537  36.633  1.00  0.00    -0.744 OA
ENDBRANCH  93  96
ENDBRANCH  66  89
ENDBRANCH  40  41
ENDBRANCH  32  35
ENDBRANCH  30  31
ENDBRANCH  29  30
ENDBRANCH   1  29
TORSDOF 19
ENDMDL
MODEL 3
REMARK VINA RESULT:     -11.3      2.885      4.565
REMARK SMILES COc1ccc([C@H]2[C@H](C(=O)NCCCCCCNC(=O)c3ccc(-c4c5nc(c(-c6cccc(S(=O)(=O)[O-])c6F)c6ccc([nH]6)c(-c6cccc(S(=O)(=O)[O-])c6F)c6nc(c(-c7cccc(S(=O)(=O)[O-])c7F)c7ccc4[nH]7)C=C6)C=C5)cc3)CCN2c2ccc(F)cc2)cc1
REMARK SMILES IDX 15 1 14 2 13 3 12 4 11 5 9 6 10 7 8 9 7 10 86 11 84 12 85 13
REMARK SMILES IDX 6 14 3 15 4 16 95 17 5 18 94 19 2 20 1 21 87 22 88 23 93 24
REMARK SMILES IDX 89 25 92 26 90 27 91 28 16 29 17 30 18 31 19 32 20 34 21 35
REMARK SMILES IDX 22 36 83 37 23 38 82 39 24 40 25 41 26 42 76 43 27 44 81 45
REMARK SMILES IDX 75 46 77 47 28 48 80 49 74 50 73 51 29 53 61 54 41 55 60 56
REMARK SMILES IDX 42 57 45 58 59 59 78 60 43 61 44 62 58 64 79 65 46 66 30 67
REMARK SMILES IDX 31 68 39 69 32 70 34 71 40 72 33 73 35 74 36 75 37 76 38 77
REMARK SMILES IDX 62 78 63 79 71 80 64 81 66 82 72 83 65 84 67 85 68 86 69 87
REMARK SMILES IDX 70 88 47 89 48 90 56 91 49 92 51 93 57 94 50 95 52 96 53 97
REMARK SMILES IDX 54 98 55 99
REMARK H PARENT 11 8 18 33 77 52 45 63
REMARK Flexibility Score: inf
ROOT
ATOM      1  C   UNL A   1      32.446  27.093  24.824  1.00  0.00     0.002 C 
ENDROOT
BRANCH   1   2
ATOM      2  C   UNL A   1      33.696  26.676  24.041  1.00  0.00     0.002 C 
BRANCH   2   3
ATOM      3  C   UNL A   1      33.834  25.173  23.793  1.00  0.00     0.021 C 
BRANCH   3   4
ATOM      4  C   UNL A   1      32.550  24.378  24.015  1.00  0.00     0.116 C 
BRANCH   4   5
ATOM      5  N   UNL A   1      32.323  23.419  22.951  1.00  0.00    -0.356 N 
ATOM      6  C   UNL A   1      32.267  22.066  22.917  1.00  0.00     0.225 C 
ATOM      7  O   UNL A   1      32.137  21.565  21.789  1.00  0.00    -0.275 OA
ATOM      8  H   UNL A   1      32.178  23.837  22.071  1.00  0.00     0.163 HD
BRANCH   6   9
ATOM      9  C   UNL A   1      32.391  21.128  24.114  1.00  0.00     0.107 C 
ATOM     10  C   UNL A   1      33.825  20.588  24.276  1.00  0.00     0.125 C 
ATOM     11  N   UNL A   1      34.346  21.444  25.354  1.00  0.00    -0.364 N 
ATOM     12  C   UNL A   1      31.980  21.644  25.490  1.00  0.00     0.037 C 
ATOM     13  C   UNL A   1      33.274  21.778  26.298  1.00  0.00     0.118 C 
BRANCH  10  14
ATOM     14  C   UNL A   1      33.816  19.108  24.693  1.00  0.00    -0.024 A 
ATOM     15  C   UNL A   1      33.746  16.321  25.164  1.00  0.00     0.118 A 
ATOM     16  C   UNL A   1      34.924  16.932  24.738  1.00  0.00     0.047 A 
ATOM     17  C   UNL A   1      32.637  17.106  25.457  1.00  0.00     0.047 A 
ATOM     18  C   UNL A   1      34.961  18.313  24.505  1.00  0.00     0.010 A 
ATOM     19  C   UNL A   1      32.678  18.485  25.234  1.00  0.00     0.010 A 
BRANCH  15  20
ATOM     20  O   UNL A   1      33.776  14.960  25.302  1.00  0.00    -0.497 OA
ATOM     21  C   UNL A   1      32.507  14.393  25.627  1.00  0.00     0.278 C 
ENDBRANCH  15  20
ENDBRANCH  10  14
BRANCH  11  22
ATOM     22  C   UNL A   1      35.626  21.932  25.469  1.00  0.00     0.037 A 
ATOM     23  C   UNL A   1      36.745  21.113  25.225  1.00  0.00     0.029 A 
ATOM     24  C   UNL A   1      35.898  23.246  25.891  1.00  0.00     0.029 A 
ATOM     25  C   UNL A   1      38.055  21.549  25.456  1.00  0.00     0.041 A 
ATOM     26  C   UNL A   1      37.204  23.687  26.144  1.00  0.00     0.041 A 
ATOM     27  C   UNL A   1      38.270  22.829  25.936  1.00  0.00     0.123 A 
ATOM     28  F   UNL A   1      39.514  23.235  26.220  1.00  0.00    -0.207 F 
ENDBRANCH  11  22
ENDBRANCH   6   9
ENDBRANCH   4   5
ENDBRANCH   3   4
ENDBRANCH   2   3
ENDBRANCH   1   2
BRANCH   1  29
ATOM     29  C   UNL A   1      32.686  27.626  26.243  1.00  0.00     0.021 C 
BRANCH  29  30
ATOM     30  C   UNL A   1      34.031  28.316  26.467  1.00  0.00     0.116 C 
BRANCH  30  31
ATOM     31  N   UNL A   1      33.871  29.688  26.926  1.00  0.00    -0.352 N 
ATOM     32  C   UNL A   1      34.658  30.441  27.759  1.00  0.00     0.251 C 
ATOM     33  H   UNL A   1      33.070  30.148  26.584  1.00  0.00     0.163 HD
ATOM     34  O   UNL A   1      34.231  31.511  28.190  1.00  0.00    -0.269 OA
BRANCH  32  35
ATOM     35  C   UNL A   1      36.006  29.976  28.152  1.00  0.00     0.039 A 
ATOM     36  C   UNL A   1      37.058  30.120  27.244  1.00  0.00     0.014 A 
ATOM     37  C   UNL A   1      36.230  29.363  29.389  1.00  0.00     0.014 A 
ATOM     38  C   UNL A   1      38.345  29.704  27.595  1.00  0.00     0.010 A 
ATOM     39  C   UNL A   1      37.526  29.006  29.762  1.00  0.00     0.010 A 
ATOM     40  C   UNL A   1      38.596  29.171  28.871  1.00  0.00    -0.014 A 
BRANCH  40  41
ATOM     41  C   UNL A   1      39.974  28.811  29.294  1.00  0.00     0.031 A 
ATOM     42  C   UNL A   1      40.667  27.610  28.708  1.00  0.00     0.074 A 
ATOM     43  C   UNL A   1      40.570  29.518  30.275  1.00  0.00     0.049 A 
ATOM     44  N   UNL A   1      41.845  27.119  28.993  1.00  0.00    -0.248 NA
ATOM     45  C   UNL A   1      39.933  26.849  27.685  1.00  0.00     0.031 C 
ATOM     46  C   UNL A   1      39.972  30.655  30.978  1.00  0.00     0.029 A 
ATOM     47  N   UNL A   1      41.797  29.367  30.872  1.00  0.00    -0.354 N 
ATOM     48  C   UNL A   1      41.982  25.977  28.214  1.00  0.00     0.074 A 
ATOM     49  C   UNL A   1      40.753  25.831  27.463  1.00  0.00     0.031 C 
ATOM     50  C   UNL A   1      40.831  31.096  31.911  1.00  0.00     0.029 A 
ATOM     51  C   UNL A   1      42.028  30.261  31.892  1.00  0.00     0.049 A 
ATOM     52  H   UNL A   1      42.451  28.685  30.596  1.00  0.00     0.167 HD
ATOM     53  C   UNL A   1      43.042  25.140  28.111  1.00  0.00     0.034 A 
ATOM     54  C   UNL A   1      43.080  30.390  32.724  1.00  0.00     0.034 A 
ATOM     55  C   UNL A   1      44.278  25.311  28.827  1.00  0.00     0.049 A 
ATOM     56  C   UNL A   1      44.260  29.473  32.561  1.00  0.00     0.074 A 
ATOM     57  C   UNL A   1      45.444  24.572  28.720  1.00  0.00     0.029 A 
ATOM     58  N   UNL A   1      44.509  26.280  29.790  1.00  0.00    -0.354 N 
ATOM     59  N   UNL A   1      44.436  28.502  31.697  1.00  0.00    -0.248 NA
ATOM     60  C   UNL A   1      45.402  29.691  33.461  1.00  0.00     0.031 C 
ATOM     61  C   UNL A   1      46.372  25.082  29.634  1.00  0.00     0.029 A 
ATOM     62  C   UNL A   1      45.792  26.153  30.295  1.00  0.00     0.049 A 
ATOM     63  H   UNL A   1      43.855  26.961  30.074  1.00  0.00     0.167 HD
ATOM     64  C   UNL A   1      45.717  28.014  31.929  1.00  0.00     0.074 A 
ATOM     65  C   UNL A   1      46.281  28.812  32.998  1.00  0.00     0.031 C 
ATOM     66  C   UNL A   1      46.361  26.985  31.325  1.00  0.00     0.034 A 
BRANCH  53  67
ATOM     67  C   UNL A   1      42.937  23.989  27.143  1.00  0.00     0.023 A 
ATOM     68  C   UNL A   1      43.543  24.095  25.874  1.00  0.00     0.012 A 
ATOM     69  C   UNL A   1      42.299  22.787  27.505  1.00  0.00     0.148 A 
ATOM     70  C   UNL A   1      43.489  23.036  24.970  1.00  0.00     0.002 A 
ATOM     71  C   UNL A   1      42.286  21.719  26.614  1.00  0.00     0.091 A 
ATOM     72  F   UNL A   1      41.711  22.711  28.708  1.00  0.00    -0.205 F 
ATOM     73  C   UNL A   1      42.871  21.845  25.344  1.00  0.00     0.022 A 
BRANCH  71  74
ATOM     74  S   UNL A   1      41.585  20.118  27.032  1.00  0.00     0.127 S 
ATOM     75  O   UNL A   1      42.770  19.385  27.477  1.00  0.00    -0.237 OA
ATOM     76  O   UNL A   1      40.646  20.462  28.101  1.00  0.00    -0.237 OA
ATOM     77  O   UNL A   1      40.963  19.624  25.814  1.00  0.00    -0.744 OA
ENDBRANCH  71  74
ENDBRANCH  53  67
BRANCH  54  78
ATOM     78  C   UNL A   1      43.088  31.477  33.744  1.00  0.00     0.023 A 
ATOM     79  C   UNL A   1      43.675  32.717  33.426  1.00  0.00     0.012 A 
ATOM     80  C   UNL A   1      42.490  31.305  35.007  1.00  0.00     0.148 A 
ATOM     81  C   UNL A   1      43.693  33.756  34.357  1.00  0.00     0.002 A 
ATOM     82  C   UNL A   1      42.461  32.361  35.909  1.00  0.00     0.091 A 
ATOM     83  F   UNL A   1      41.949  30.113  35.297  1.00  0.00    -0.205 F 
ATOM     84  C   UNL A   1      43.077  33.582  35.593  1.00  0.00     0.022 A 
BRANCH  82  85
ATOM     85  S   UNL A   1      41.571  32.269  37.467  1.00  0.00     0.127 S 
ATOM     86  O   UNL A   1      42.386  31.320  38.223  1.00  0.00    -0.237 OA
ATOM     87  O   UNL A   1      41.640  33.653  37.940  1.00  0.00    -0.237 OA
ATOM     88  O   UNL A   1      40.228  31.822  37.127  1.00  0.00    -0.744 OA
ENDBRANCH  82  85
ENDBRANCH  54  78
BRANCH  66  89
ATOM     89  C   UNL A   1      47.761  26.671  31.784  1.00  0.00     0.023 A 
ATOM     90  C   UNL A   1      47.959  25.781  32.858  1.00  0.00     0.012 A 
ATOM     91  C   UNL A   1      48.879  27.199  31.109  1.00  0.00     0.148 A 
ATOM     92  C   UNL A   1      49.247  25.446  33.274  1.00  0.00     0.002 A 
ATOM     93  C   UNL A   1      50.160  26.823  31.498  1.00  0.00     0.091 A 
ATOM     94  F   UNL A   1      48.671  28.059  30.102  1.00  0.00    -0.205 F 
ATOM     95  C   UNL A   1      50.345  25.956  32.587  1.00  0.00     0.022 A 
BRANCH  93  96
ATOM     96  S   UNL A   1      51.629  27.359  30.615  1.00  0.00     0.127 S 
ATOM     97  O   UNL A   1      51.513  26.615  29.362  1.00  0.00    -0.237 OA
ATOM     98  O   UNL A   1      51.409  28.801  30.490  1.00  0.00    -0.237 OA
ATOM     99  O   UNL A   1      52.759  26.994  31.459  1.00  0.00    -0.744 OA
ENDBRANCH  93  96
ENDBRANCH  66  89
ENDBRANCH  40  41
ENDBRANCH  32  35
ENDBRANCH  30  31
ENDBRANCH  29  30
ENDBRANCH   1  29
TORSDOF 19
ENDMDL
