MODEL 1
REMARK VINA RESULT:     -11.4      0.000      0.000
REMARK SMILES O=C(CSc1csc(C(=O)NCCCCCCNC(=O)c2ccc(-c3c4nc(c(-c5cccc(S(=O)(=O)[O-])c5F)c5ccc([nH]5)c(-c5cccc(S(=O)(=O)[O-])c5F)c5nc(c(-c6cccc(S(=O)(=O)[O-])c6F)c6ccc3[nH]6)C=C5)C=C4)cc2)c1)NC(=O)c1ccc[nH]1
REMARK SMILES IDX 14 1 13 2 12 3 11 4 9 5 10 6 8 8 5 9 6 10 84 11 7 12 4 13
REMARK SMILES IDX 3 14 2 15 1 16 85 17 86 18 87 20 88 21 89 22 92 23 90 24
REMARK SMILES IDX 91 25 15 27 16 28 17 29 18 30 19 31 20 33 21 34 22 35 83 36
REMARK SMILES IDX 23 37 82 38 24 39 25 40 26 41 76 42 27 43 81 44 75 45 77 46
REMARK SMILES IDX 28 47 80 48 74 49 73 50 29 52 61 53 41 54 60 55 42 56 45 57
REMARK SMILES IDX 59 58 78 59 43 60 44 61 58 63 79 64 46 65 30 66 31 67 39 68
REMARK SMILES IDX 32 69 34 70 40 71 33 72 35 73 36 74 37 75 38 76 62 77 63 78
REMARK SMILES IDX 71 79 64 80 66 81 72 82 65 83 67 84 68 85 69 86 70 87 47 88
REMARK SMILES IDX 48 89 56 90 49 91 51 92 57 93 50 94 52 95 53 96 54 97 55 98
REMARK H PARENT 11 7 85 19 92 26 18 32 77 51 45 62
REMARK Flexibility Score: inf
ROOT
ATOM      1  C   UNL A   1      37.656  22.447  25.293  1.00  0.00     0.002 C 
ENDROOT
BRANCH   1   2
ATOM      2  C   UNL A   1      36.554  23.517  25.328  1.00  0.00     0.021 C 
BRANCH   2   3
ATOM      3  C   UNL A   1      35.189  23.007  24.860  1.00  0.00     0.116 C 
BRANCH   3   4
ATOM      4  N   UNL A   1      34.787  23.674  23.635  1.00  0.00    -0.351 N 
ATOM      5  C   UNL A   1      33.978  24.762  23.404  1.00  0.00     0.261 C 
ATOM      6  O   UNL A   1      33.891  25.114  22.224  1.00  0.00    -0.268 OA
ATOM      7  H   UNL A   1      35.164  23.272  22.818  1.00  0.00     0.163 HD
BRANCH   5   8
ATOM      8  C   UNL A   1      33.311  25.453  24.499  1.00  0.00     0.093 A 
ATOM      9  C   UNL A   1      32.634  26.991  26.127  1.00  0.00     0.019 A 
ATOM     10  C   UNL A   1      31.575  26.119  26.147  1.00  0.00     0.080 A 
ATOM     11  C   UNL A   1      33.677  26.545  25.266  1.00  0.00     0.040 A 
ATOM     12  S   UNL A   1      31.786  24.842  25.028  1.00  0.00    -0.137 S 
BRANCH   9  13
ATOM     13  S   UNL A   1      32.782  28.493  27.025  1.00  0.00    -0.115 SA
BRANCH  13  14
ATOM     14  C   UNL A   1      32.927  29.754  25.728  1.00  0.00     0.175 C 
BRANCH  14  15
ATOM     15  C   UNL A   1      31.597  30.079  25.076  1.00  0.00     0.237 C 
ATOM     16  O   UNL A   1      30.901  30.991  25.516  1.00  0.00    -0.274 OA
ATOM     17  N   UNL A   1      31.296  29.292  23.977  1.00  0.00    -0.290 N 
ATOM     18  C   UNL A   1      30.083  29.197  23.324  1.00  0.00     0.274 C 
ATOM     19  H   UNL A   1      32.028  28.740  23.621  1.00  0.00     0.173 HD
ATOM     20  O   UNL A   1      29.677  28.074  23.019  1.00  0.00    -0.267 OA
BRANCH  18  21
ATOM     21  C   UNL A   1      29.295  30.384  23.069  1.00  0.00     0.104 A 
ATOM     22  C   UNL A   1      28.111  30.858  23.612  1.00  0.00     0.033 A 
ATOM     23  N   UNL A   1      29.713  31.343  22.169  1.00  0.00    -0.357 N 
ATOM     24  C   UNL A   1      27.773  32.067  22.958  1.00  0.00     0.020 A 
ATOM     25  C   UNL A   1      28.780  32.339  22.062  1.00  0.00     0.083 A 
ATOM     26  H   UNL A   1      30.564  31.315  21.673  1.00  0.00     0.166 HD
ENDBRANCH  18  21
ENDBRANCH  14  15
ENDBRANCH  13  14
ENDBRANCH   9  13
ENDBRANCH   5   8
ENDBRANCH   3   4
ENDBRANCH   2   3
ENDBRANCH   1   2
BRANCH   1  27
ATOM     27  C   UNL A   1      37.268  21.127  24.612  1.00  0.00     0.002 C 
BRANCH  27  28
ATOM     28  C   UNL A   1      38.154  19.925  24.955  1.00  0.00     0.021 C 
BRANCH  28  29
ATOM     29  C   UNL A   1      39.216  20.195  26.015  1.00  0.00     0.116 C 
BRANCH  29  30
ATOM     30  N   UNL A   1      40.326  19.257  25.928  1.00  0.00    -0.352 N 
ATOM     31  C   UNL A   1      41.674  19.514  25.989  1.00  0.00     0.251 C 
ATOM     32  H   UNL A   1      40.077  18.312  25.807  1.00  0.00     0.163 HD
ATOM     33  O   UNL A   1      42.485  18.635  25.710  1.00  0.00    -0.269 OA
BRANCH  31  34
ATOM     34  C   UNL A   1      42.145  20.860  26.377  1.00  0.00     0.039 A 
ATOM     35  C   UNL A   1      42.371  21.142  27.728  1.00  0.00     0.014 A 
ATOM     36  C   UNL A   1      42.353  21.846  25.408  1.00  0.00     0.014 A 
ATOM     37  C   UNL A   1      42.856  22.398  28.104  1.00  0.00     0.010 A 
ATOM     38  C   UNL A   1      42.883  23.078  25.778  1.00  0.00     0.010 A 
ATOM     39  C   UNL A   1      43.135  23.368  27.130  1.00  0.00    -0.014 A 
BRANCH  39  40
ATOM     40  C   UNL A   1      43.675  24.705  27.482  1.00  0.00     0.031 A 
ATOM     41  C   UNL A   1      42.751  25.760  28.023  1.00  0.00     0.074 A 
ATOM     42  C   UNL A   1      44.958  25.005  27.202  1.00  0.00     0.049 A 
ATOM     43  N   UNL A   1      42.982  27.028  28.239  1.00  0.00    -0.248 NA
ATOM     44  C   UNL A   1      41.374  25.338  28.333  1.00  0.00     0.031 C 
ATOM     45  C   UNL A   1      45.935  24.086  26.617  1.00  0.00     0.029 A 
ATOM     46  N   UNL A   1      45.647  26.186  27.333  1.00  0.00    -0.354 N 
ATOM     47  C   UNL A   1      41.771  27.567  28.656  1.00  0.00     0.074 A 
ATOM     48  C   UNL A   1      40.804  26.491  28.653  1.00  0.00     0.031 C 
ATOM     49  C   UNL A   1      47.093  24.740  26.425  1.00  0.00     0.029 A 
ATOM     50  C   UNL A   1      46.933  26.128  26.848  1.00  0.00     0.049 A 
ATOM     51  H   UNL A   1      45.258  26.995  27.736  1.00  0.00     0.167 HD
ATOM     52  C   UNL A   1      41.495  28.839  29.031  1.00  0.00     0.034 A 
ATOM     53  C   UNL A   1      47.873  27.089  26.746  1.00  0.00     0.034 A 
ATOM     54  C   UNL A   1      42.473  29.889  29.101  1.00  0.00     0.049 A 
ATOM     55  C   UNL A   1      47.562  28.475  27.245  1.00  0.00     0.074 A 
ATOM     56  C   UNL A   1      42.310  31.190  29.542  1.00  0.00     0.029 A 
ATOM     57  N   UNL A   1      43.802  29.755  28.731  1.00  0.00    -0.354 N 
ATOM     58  N   UNL A   1      46.448  28.933  27.761  1.00  0.00    -0.248 NA
ATOM     59  C   UNL A   1      48.646  29.467  27.182  1.00  0.00     0.031 C 
ATOM     60  C   UNL A   1      43.544  31.841  29.446  1.00  0.00     0.029 A 
ATOM     61  C   UNL A   1      44.474  30.945  28.944  1.00  0.00     0.049 A 
ATOM     62  H   UNL A   1      44.208  28.934  28.369  1.00  0.00     0.167 HD
ATOM     63  C   UNL A   1      46.706  30.251  28.118  1.00  0.00     0.074 A 
ATOM     64  C   UNL A   1      48.087  30.516  27.771  1.00  0.00     0.031 C 
ATOM     65  C   UNL A   1      45.870  31.166  28.666  1.00  0.00     0.034 A 
BRANCH  52  66
ATOM     66  C   UNL A   1      40.087  29.147  29.461  1.00  0.00     0.023 A 
ATOM     67  C   UNL A   1      39.091  29.322  28.480  1.00  0.00     0.012 A 
ATOM     68  C   UNL A   1      39.737  29.215  30.824  1.00  0.00     0.148 A 
ATOM     69  C   UNL A   1      37.772  29.588  28.847  1.00  0.00     0.002 A 
ATOM     70  C   UNL A   1      38.413  29.445  31.182  1.00  0.00     0.091 A 
ATOM     71  F   UNL A   1      40.703  29.074  31.743  1.00  0.00    -0.205 F 
ATOM     72  C   UNL A   1      37.432  29.641  30.197  1.00  0.00     0.022 A 
BRANCH  70  73
ATOM     73  S   UNL A   1      37.877  29.459  32.897  1.00  0.00     0.127 S 
ATOM     74  O   UNL A   1      36.840  30.489  32.875  1.00  0.00    -0.237 OA
ATOM     75  O   UNL A   1      37.376  28.095  33.082  1.00  0.00    -0.237 OA
ATOM     76  O   UNL A   1      39.066  29.772  33.678  1.00  0.00    -0.744 OA
ENDBRANCH  70  73
ENDBRANCH  52  66
BRANCH  53  77
ATOM     77  C   UNL A   1      49.225  26.747  26.221  1.00  0.00     0.023 A 
ATOM     78  C   UNL A   1      50.079  25.947  27.004  1.00  0.00     0.012 A 
ATOM     79  C   UNL A   1      49.650  27.166  24.946  1.00  0.00     0.148 A 
ATOM     80  C   UNL A   1      51.343  25.587  26.536  1.00  0.00     0.002 A 
ATOM     81  C   UNL A   1      50.893  26.766  24.466  1.00  0.00     0.091 A 
ATOM     82  F   UNL A   1      48.831  27.941  24.223  1.00  0.00    -0.205 F 
ATOM     83  C   UNL A   1      51.745  25.987  25.264  1.00  0.00     0.022 A 
BRANCH  81  84
ATOM     84  S   UNL A   1      51.433  27.134  22.792  1.00  0.00     0.127 S 
ATOM     85  O   UNL A   1      51.639  28.578  22.854  1.00  0.00    -0.237 OA
ATOM     86  O   UNL A   1      52.658  26.341  22.681  1.00  0.00    -0.237 OA
ATOM     87  O   UNL A   1      50.351  26.681  21.927  1.00  0.00    -0.744 OA
ENDBRANCH  81  84
ENDBRANCH  53  77
BRANCH  65  88
ATOM     88  C   UNL A   1      46.422  32.532  28.967  1.00  0.00     0.023 A 
ATOM     89  C   UNL A   1      47.054  32.766  30.203  1.00  0.00     0.012 A 
ATOM     90  C   UNL A   1      46.408  33.546  27.989  1.00  0.00     0.148 A 
ATOM     91  C   UNL A   1      47.652  33.997  30.468  1.00  0.00     0.002 A 
ATOM     92  C   UNL A   1      47.039  34.757  28.246  1.00  0.00     0.091 A 
ATOM     93  F   UNL A   1      45.780  33.307  26.828  1.00  0.00    -0.205 F 
ATOM     94  C   UNL A   1      47.656  34.987  29.486  1.00  0.00     0.022 A 
BRANCH  92  95
ATOM     95  S   UNL A   1      47.165  36.050  27.005  1.00  0.00     0.127 S 
ATOM     96  O   UNL A   1      46.841  37.243  27.783  1.00  0.00    -0.237 OA
ATOM     97  O   UNL A   1      48.565  35.953  26.590  1.00  0.00    -0.237 OA
ATOM     98  O   UNL A   1      46.206  35.695  25.966  1.00  0.00    -0.744 OA
ENDBRANCH  92  95
ENDBRANCH  65  88
ENDBRANCH  39  40
ENDBRANCH  31  34
ENDBRANCH  29  30
ENDBRANCH  28  29
ENDBRANCH  27  28
ENDBRANCH   1  27
TORSDOF 20
ENDMDL
MODEL 2
REMARK VINA RESULT:     -11.3      1.788      2.057
REMARK SMILES O=C(CSc1csc(C(=O)NCCCCCCNC(=O)c2ccc(-c3c4nc(c(-c5cccc(S(=O)(=O)[O-])c5F)c5ccc([nH]5)c(-c5cccc(S(=O)(=O)[O-])c5F)c5nc(c(-c6cccc(S(=O)(=O)[O-])c6F)c6ccc3[nH]6)C=C5)C=C4)cc2)c1)NC(=O)c1ccc[nH]1
REMARK SMILES IDX 14 1 13 2 12 3 11 4 9 5 10 6 8 8 5 9 6 10 84 11 7 12 4 13
REMARK SMILES IDX 3 14 2 15 1 16 85 17 86 18 87 20 88 21 89 22 92 23 90 24
REMARK SMILES IDX 91 25 15 27 16 28 17 29 18 30 19 31 20 33 21 34 22 35 83 36
REMARK SMILES IDX 23 37 82 38 24 39 25 40 26 41 76 42 27 43 81 44 75 45 77 46
REMARK SMILES IDX 28 47 80 48 74 49 73 50 29 52 61 53 41 54 60 55 42 56 45 57
REMARK SMILES IDX 59 58 78 59 43 60 44 61 58 63 79 64 46 65 30 66 31 67 39 68
REMARK SMILES IDX 32 69 34 70 40 71 33 72 35 73 36 74 37 75 38 76 62 77 63 78
REMARK SMILES IDX 71 79 64 80 66 81 72 82 65 83 67 84 68 85 69 86 70 87 47 88
REMARK SMILES IDX 48 89 56 90 49 91 51 92 57 93 50 94 52 95 53 96 54 97 55 98
REMARK H PARENT 11 7 85 19 92 26 18 32 77 51 45 62
REMARK Flexibility Score: inf
ROOT
ATOM      1  C   UNL A   1      37.724  22.113  25.093  1.00  0.00     0.002 C 
ENDROOT
BRANCH   1   2
ATOM      2  C   UNL A   1      36.572  23.075  25.422  1.00  0.00     0.021 C 
BRANCH   2   3
ATOM      3  C   UNL A   1      35.195  22.549  25.010  1.00  0.00     0.116 C 
BRANCH   3   4
ATOM      4  N   UNL A   1      34.832  23.041  23.694  1.00  0.00    -0.351 N 
ATOM      5  C   UNL A   1      34.051  24.099  23.293  1.00  0.00     0.261 C 
ATOM      6  O   UNL A   1      33.994  24.281  22.073  1.00  0.00    -0.268 OA
ATOM      7  H   UNL A   1      35.217  22.521  22.952  1.00  0.00     0.163 HD
BRANCH   5   8
ATOM      8  C   UNL A   1      33.376  24.951  24.263  1.00  0.00     0.093 A 
ATOM      9  C   UNL A   1      32.759  26.677  25.716  1.00  0.00     0.019 A 
ATOM     10  C   UNL A   1      31.586  25.966  25.655  1.00  0.00     0.080 A 
ATOM     11  C   UNL A   1      33.813  26.031  25.011  1.00  0.00     0.040 A 
ATOM     12  S   UNL A   1      31.729  24.598  24.638  1.00  0.00    -0.137 S 
BRANCH   9  13
ATOM     13  S   UNL A   1      33.027  28.202  26.546  1.00  0.00    -0.115 SA
BRANCH  13  14
ATOM     14  C   UNL A   1      33.102  29.415  25.199  1.00  0.00     0.175 C 
BRANCH  14  15
ATOM     15  C   UNL A   1      31.734  29.748  24.634  1.00  0.00     0.237 C 
ATOM     16  O   UNL A   1      30.941  30.418  25.292  1.00  0.00    -0.274 OA
ATOM     17  N   UNL A   1      31.512  29.260  23.357  1.00  0.00    -0.290 N 
ATOM     18  C   UNL A   1      30.310  29.206  22.680  1.00  0.00     0.274 C 
ATOM     19  H   UNL A   1      32.300  28.915  22.878  1.00  0.00     0.173 HD
ATOM     20  O   UNL A   1      30.034  28.169  22.074  1.00  0.00    -0.267 OA
BRANCH  18  21
ATOM     21  C   UNL A   1      29.385  30.317  22.743  1.00  0.00     0.104 A 
ATOM     22  C   UNL A   1      28.194  30.508  23.425  1.00  0.00     0.033 A 
ATOM     23  N   UNL A   1      29.640  31.501  22.081  1.00  0.00    -0.357 N 
ATOM     24  C   UNL A   1      27.687  31.787  23.089  1.00  0.00     0.020 A 
ATOM     25  C   UNL A   1      28.600  32.376  22.247  1.00  0.00     0.083 A 
ATOM     26  H   UNL A   1      30.455  31.689  21.561  1.00  0.00     0.166 HD
ENDBRANCH  18  21
ENDBRANCH  14  15
ENDBRANCH  13  14
ENDBRANCH   9  13
ENDBRANCH   5   8
ENDBRANCH   3   4
ENDBRANCH   2   3
ENDBRANCH   1   2
BRANCH   1  27
ATOM     27  C   UNL A   1      37.300  20.681  24.736  1.00  0.00     0.002 C 
BRANCH  27  28
ATOM     28  C   UNL A   1      38.277  19.580  25.163  1.00  0.00     0.021 C 
BRANCH  28  29
ATOM     29  C   UNL A   1      39.418  20.051  26.059  1.00  0.00     0.116 C 
BRANCH  29  30
ATOM     30  N   UNL A   1      40.602  19.216  25.917  1.00  0.00    -0.352 N 
ATOM     31  C   UNL A   1      41.924  19.590  25.948  1.00  0.00     0.251 C 
ATOM     32  H   UNL A   1      40.434  18.256  25.780  1.00  0.00     0.163 HD
ATOM     33  O   UNL A   1      42.800  18.792  25.625  1.00  0.00    -0.269 OA
BRANCH  31  34
ATOM     34  C   UNL A   1      42.287  20.963  26.357  1.00  0.00     0.039 A 
ATOM     35  C   UNL A   1      42.475  21.246  27.714  1.00  0.00     0.014 A 
ATOM     36  C   UNL A   1      42.432  21.973  25.401  1.00  0.00     0.014 A 
ATOM     37  C   UNL A   1      42.858  22.530  28.110  1.00  0.00     0.010 A 
ATOM     38  C   UNL A   1      42.862  23.237  25.792  1.00  0.00     0.010 A 
ATOM     39  C   UNL A   1      43.075  23.530  27.149  1.00  0.00    -0.014 A 
BRANCH  39  40
ATOM     40  C   UNL A   1      43.508  24.899  27.523  1.00  0.00     0.031 A 
ATOM     41  C   UNL A   1      42.505  25.867  28.086  1.00  0.00     0.074 A 
ATOM     42  C   UNL A   1      44.761  25.306  27.243  1.00  0.00     0.049 A 
ATOM     43  N   UNL A   1      42.635  27.146  28.323  1.00  0.00    -0.248 NA
ATOM     44  C   UNL A   1      41.168  25.331  28.393  1.00  0.00     0.031 C 
ATOM     45  C   UNL A   1      45.806  24.479  26.638  1.00  0.00     0.029 A 
ATOM     46  N   UNL A   1      45.354  26.536  27.392  1.00  0.00    -0.354 N 
ATOM     47  C   UNL A   1      41.387  27.579  28.754  1.00  0.00     0.074 A 
ATOM     48  C   UNL A   1      40.509  26.428  28.736  1.00  0.00     0.031 C 
ATOM     49  C   UNL A   1      46.906  25.227  26.453  1.00  0.00     0.029 A 
ATOM     50  C   UNL A   1      46.638  26.591  26.901  1.00  0.00     0.049 A 
ATOM     51  H   UNL A   1      44.903  27.305  27.811  1.00  0.00     0.167 HD
ATOM     52  C   UNL A   1      41.011  28.818  29.152  1.00  0.00     0.034 A 
ATOM     53  C   UNL A   1      47.497  27.625  26.813  1.00  0.00     0.034 A 
ATOM     54  C   UNL A   1      41.902  29.941  29.237  1.00  0.00     0.049 A 
ATOM     55  C   UNL A   1      47.079  28.973  27.337  1.00  0.00     0.074 A 
ATOM     56  C   UNL A   1      41.637  31.217  29.701  1.00  0.00     0.029 A 
ATOM     57  N   UNL A   1      43.236  29.921  28.859  1.00  0.00    -0.354 N 
ATOM     58  N   UNL A   1      45.934  29.331  27.865  1.00  0.00    -0.248 NA
ATOM     59  C   UNL A   1      48.080  30.049  27.288  1.00  0.00     0.031 C 
ATOM     60  C   UNL A   1      42.815  31.967  29.612  1.00  0.00     0.029 A 
ATOM     61  C   UNL A   1      43.811  31.157  29.091  1.00  0.00     0.049 A 
ATOM     62  H   UNL A   1      43.704  29.142  28.481  1.00  0.00     0.167 HD
ATOM     63  C   UNL A   1      46.088  30.660  28.245  1.00  0.00     0.074 A 
ATOM     64  C   UNL A   1      47.441  31.040  27.897  1.00  0.00     0.031 C 
ATOM     65  C   UNL A   1      45.183  31.495  28.811  1.00  0.00     0.034 A 
BRANCH  52  66
ATOM     66  C   UNL A   1      39.585  29.004  29.593  1.00  0.00     0.023 A 
ATOM     67  C   UNL A   1      39.213  28.625  30.898  1.00  0.00     0.012 A 
ATOM     68  C   UNL A   1      38.629  29.594  28.744  1.00  0.00     0.148 A 
ATOM     69  C   UNL A   1      37.904  28.803  31.344  1.00  0.00     0.002 A 
ATOM     70  C   UNL A   1      37.334  29.802  29.207  1.00  0.00     0.091 A 
ATOM     71  F   UNL A   1      38.993  29.922  27.496  1.00  0.00    -0.205 F 
ATOM     72  C   UNL A   1      36.968  29.399  30.503  1.00  0.00     0.022 A 
BRANCH  70  73
ATOM     73  S   UNL A   1      36.085  30.626  28.214  1.00  0.00     0.127 S 
ATOM     74  O   UNL A   1      36.593  31.996  28.176  1.00  0.00    -0.237 OA
ATOM     75  O   UNL A   1      36.171  29.909  26.940  1.00  0.00    -0.237 OA
ATOM     76  O   UNL A   1      34.828  30.437  28.925  1.00  0.00    -0.744 OA
ENDBRANCH  70  73
ENDBRANCH  52  66
BRANCH  53  77
ATOM     77  C   UNL A   1      48.869  27.402  26.277  1.00  0.00     0.023 A 
ATOM     78  C   UNL A   1      49.059  27.360  24.882  1.00  0.00     0.012 A 
ATOM     79  C   UNL A   1      49.984  27.278  27.128  1.00  0.00     0.148 A 
ATOM     80  C   UNL A   1      50.333  27.176  24.343  1.00  0.00     0.002 A 
ATOM     81  C   UNL A   1      51.257  27.141  26.583  1.00  0.00     0.091 A 
ATOM     82  F   UNL A   1      49.782  27.304  28.452  1.00  0.00    -0.205 F 
ATOM     83  C   UNL A   1      51.432  27.078  25.192  1.00  0.00     0.022 A 
BRANCH  81  84
ATOM     84  S   UNL A   1      52.735  27.133  27.605  1.00  0.00     0.127 S 
ATOM     85  O   UNL A   1      52.370  26.187  28.654  1.00  0.00    -0.237 OA
ATOM     86  O   UNL A   1      53.755  26.654  26.670  1.00  0.00    -0.237 OA
ATOM     87  O   UNL A   1      52.921  28.515  28.030  1.00  0.00    -0.744 OA
ENDBRANCH  81  84
ENDBRANCH  53  77
BRANCH  65  88
ATOM     88  C   UNL A   1      45.625  32.895  29.135  1.00  0.00     0.023 A 
ATOM     89  C   UNL A   1      46.225  33.162  30.380  1.00  0.00     0.012 A 
ATOM     90  C   UNL A   1      45.544  33.917  28.169  1.00  0.00     0.148 A 
ATOM     91  C   UNL A   1      46.724  34.432  30.665  1.00  0.00     0.002 A 
ATOM     92  C   UNL A   1      46.077  35.170  28.446  1.00  0.00     0.091 A 
ATOM     93  F   UNL A   1      44.948  33.645  26.997  1.00  0.00    -0.205 F 
ATOM     94  C   UNL A   1      46.662  35.431  29.696  1.00  0.00     0.022 A 
BRANCH  92  95
ATOM     95  S   UNL A   1      46.116  36.484  27.221  1.00  0.00     0.127 S 
ATOM     96  O   UNL A   1      46.923  37.497  27.897  1.00  0.00    -0.237 OA
ATOM     97  O   UNL A   1      46.774  35.837  26.085  1.00  0.00    -0.237 OA
ATOM     98  O   UNL A   1      44.723  36.842  26.983  1.00  0.00    -0.744 OA
ENDBRANCH  92  95
ENDBRANCH  65  88
ENDBRANCH  39  40
ENDBRANCH  31  34
ENDBRANCH  29  30
ENDBRANCH  28  29
ENDBRANCH  27  28
ENDBRANCH   1  27
TORSDOF 20
ENDMDL
MODEL 3
REMARK VINA RESULT:     -11.1      1.696      1.953
REMARK SMILES O=C(CSc1csc(C(=O)NCCCCCCNC(=O)c2ccc(-c3c4nc(c(-c5cccc(S(=O)(=O)[O-])c5F)c5ccc([nH]5)c(-c5cccc(S(=O)(=O)[O-])c5F)c5nc(c(-c6cccc(S(=O)(=O)[O-])c6F)c6ccc3[nH]6)C=C5)C=C4)cc2)c1)NC(=O)c1ccc[nH]1
REMARK SMILES IDX 14 1 13 2 12 3 11 4 9 5 10 6 8 8 5 9 6 10 84 11 7 12 4 13
REMARK SMILES IDX 3 14 2 15 1 16 85 17 86 18 87 20 88 21 89 22 92 23 90 24
REMARK SMILES IDX 91 25 15 27 16 28 17 29 18 30 19 31 20 33 21 34 22 35 83 36
REMARK SMILES IDX 23 37 82 38 24 39 25 40 26 41 76 42 27 43 81 44 75 45 77 46
REMARK SMILES IDX 28 47 80 48 74 49 73 50 29 52 61 53 41 54 60 55 42 56 45 57
REMARK SMILES IDX 59 58 78 59 43 60 44 61 58 63 79 64 46 65 30 66 31 67 39 68
REMARK SMILES IDX 32 69 34 70 40 71 33 72 35 73 36 74 37 75 38 76 62 77 63 78
REMARK SMILES IDX 71 79 64 80 66 81 72 82 65 83 67 84 68 85 69 86 70 87 47 88
REMARK SMILES IDX 48 89 56 90 49 91 51 92 57 93 50 94 52 95 53 96 54 97 55 98
REMARK H PARENT 11 7 85 19 92 26 18 32 77 51 45 62
REMARK Flexibility Score: inf
ROOT
ATOM      1  C   UNL A   1      37.509  22.065  25.335  1.00  0.00     0.002 C 
ENDROOT
BRANCH   1   2
ATOM      2  C   UNL A   1      36.231  22.848  25.673  1.00  0.00     0.021 C 
BRANCH   2   3
ATOM      3  C   UNL A   1      34.957  22.219  25.105  1.00  0.00     0.116 C 
BRANCH   3   4
ATOM      4  N   UNL A   1      34.633  22.796  23.814  1.00  0.00    -0.351 N 
ATOM      5  C   UNL A   1      33.971  23.950  23.464  1.00  0.00     0.261 C 
ATOM      6  O   UNL A   1      33.918  24.181  22.252  1.00  0.00    -0.268 OA
ATOM      7  H   UNL A   1      34.945  22.263  23.047  1.00  0.00     0.163 HD
BRANCH   5   8
ATOM      8  C   UNL A   1      33.412  24.837  24.475  1.00  0.00     0.093 A 
ATOM      9  C   UNL A   1      32.933  26.633  25.895  1.00  0.00     0.019 A 
ATOM     10  C   UNL A   1      31.812  25.863  26.074  1.00  0.00     0.080 A 
ATOM     11  C   UNL A   1      33.897  25.989  25.068  1.00  0.00     0.040 A 
ATOM     12  S   UNL A   1      31.871  24.432  25.138  1.00  0.00    -0.137 S 
BRANCH   9  13
ATOM     13  S   UNL A   1      33.239  28.226  26.569  1.00  0.00    -0.115 SA
BRANCH  13  14
ATOM     14  C   UNL A   1      33.254  29.310  25.114  1.00  0.00     0.175 C 
BRANCH  14  15
ATOM     15  C   UNL A   1      31.868  29.546  24.544  1.00  0.00     0.237 C 
ATOM     16  O   UNL A   1      31.033  30.172  25.193  1.00  0.00    -0.274 OA
ATOM     17  N   UNL A   1      31.681  29.027  23.274  1.00  0.00    -0.290 N 
ATOM     18  C   UNL A   1      30.485  28.885  22.597  1.00  0.00     0.274 C 
ATOM     19  H   UNL A   1      32.490  28.727  22.800  1.00  0.00     0.173 HD
ATOM     20  O   UNL A   1      30.279  27.824  22.005  1.00  0.00    -0.267 OA
BRANCH  18  21
ATOM     21  C   UNL A   1      29.490  29.934  22.645  1.00  0.00     0.104 A 
ATOM     22  C   UNL A   1      28.184  29.967  23.106  1.00  0.00     0.033 A 
ATOM     23  N   UNL A   1      29.780  31.217  22.225  1.00  0.00    -0.357 N 
ATOM     24  C   UNL A   1      27.660  31.262  22.871  1.00  0.00     0.020 A 
ATOM     25  C   UNL A   1      28.669  32.012  22.316  1.00  0.00     0.083 A 
ATOM     26  H   UNL A   1      30.661  31.517  21.905  1.00  0.00     0.166 HD
ENDBRANCH  18  21
ENDBRANCH  14  15
ENDBRANCH  13  14
ENDBRANCH   9  13
ENDBRANCH   5   8
ENDBRANCH   3   4
ENDBRANCH   2   3
ENDBRANCH   1   2
BRANCH   1  27
ATOM     27  C   UNL A   1      37.284  20.675  24.724  1.00  0.00     0.002 C 
BRANCH  27  28
ATOM     28  C   UNL A   1      38.325  19.615  25.099  1.00  0.00     0.021 C 
BRANCH  28  29
ATOM     29  C   UNL A   1      39.444  20.112  26.008  1.00  0.00     0.116 C 
BRANCH  29  30
ATOM     30  N   UNL A   1      40.576  19.198  26.030  1.00  0.00    -0.352 N 
ATOM     31  C   UNL A   1      41.914  19.492  26.137  1.00  0.00     0.251 C 
ATOM     32  H   UNL A   1      40.354  18.242  25.956  1.00  0.00     0.163 HD
ATOM     33  O   UNL A   1      42.756  18.618  25.950  1.00  0.00    -0.269 OA
BRANCH  31  34
ATOM     34  C   UNL A   1      42.337  20.870  26.464  1.00  0.00     0.039 A 
ATOM     35  C   UNL A   1      42.518  21.231  27.803  1.00  0.00     0.014 A 
ATOM     36  C   UNL A   1      42.544  21.808  25.448  1.00  0.00     0.014 A 
ATOM     37  C   UNL A   1      42.957  22.518  28.123  1.00  0.00     0.010 A 
ATOM     38  C   UNL A   1      43.029  23.073  25.765  1.00  0.00     0.010 A 
ATOM     39  C   UNL A   1      43.235  23.442  27.104  1.00  0.00    -0.014 A 
BRANCH  39  40
ATOM     40  C   UNL A   1      43.729  24.811  27.397  1.00  0.00     0.031 A 
ATOM     41  C   UNL A   1      42.768  25.856  27.893  1.00  0.00     0.074 A 
ATOM     42  C   UNL A   1      45.000  25.144  27.103  1.00  0.00     0.049 A 
ATOM     43  N   UNL A   1      42.954  27.140  28.052  1.00  0.00    -0.248 NA
ATOM     44  C   UNL A   1      41.406  25.400  28.221  1.00  0.00     0.031 C 
ATOM     45  C   UNL A   1      46.010  24.234  26.559  1.00  0.00     0.029 A 
ATOM     46  N   UNL A   1      45.648  26.352  27.182  1.00  0.00    -0.354 N 
ATOM     47  C   UNL A   1      41.725  27.654  28.446  1.00  0.00     0.074 A 
ATOM     48  C   UNL A   1      40.796  26.546  28.491  1.00  0.00     0.031 C 
ATOM     49  C   UNL A   1      47.144  24.920  26.337  1.00  0.00     0.029 A 
ATOM     50  C   UNL A   1      46.936  26.319  26.699  1.00  0.00     0.049 A 
ATOM     51  H   UNL A   1      45.231  27.165  27.550  1.00  0.00     0.167 HD
ATOM     52  C   UNL A   1      41.405  28.931  28.765  1.00  0.00     0.034 A 
ATOM     53  C   UNL A   1      47.842  27.306  26.555  1.00  0.00     0.034 A 
ATOM     54  C   UNL A   1      42.345  30.016  28.788  1.00  0.00     0.049 A 
ATOM     55  C   UNL A   1      47.482  28.701  26.992  1.00  0.00     0.074 A 
ATOM     56  C   UNL A   1      42.136  31.329  29.172  1.00  0.00     0.029 A 
ATOM     57  N   UNL A   1      43.678  29.912  28.423  1.00  0.00    -0.354 N 
ATOM     58  N   UNL A   1      46.352  29.142  27.489  1.00  0.00    -0.248 NA
ATOM     59  C   UNL A   1      48.531  29.726  26.885  1.00  0.00     0.031 C 
ATOM     60  C   UNL A   1      43.347  32.018  29.047  1.00  0.00     0.029 A 
ATOM     61  C   UNL A   1      44.308  31.133  28.584  1.00  0.00     0.049 A 
ATOM     62  H   UNL A   1      44.113  29.091  28.097  1.00  0.00     0.167 HD
ATOM     63  C   UNL A   1      46.564  30.483  27.787  1.00  0.00     0.074 A 
ATOM     64  C   UNL A   1      47.935  30.780  27.429  1.00  0.00     0.031 C 
ATOM     65  C   UNL A   1      45.695  31.391  28.295  1.00  0.00     0.034 A 
BRANCH  52  66
ATOM     66  C   UNL A   1      39.986  29.208  29.183  1.00  0.00     0.023 A 
ATOM     67  C   UNL A   1      39.013  29.455  28.193  1.00  0.00     0.012 A 
ATOM     68  C   UNL A   1      39.603  29.177  30.538  1.00  0.00     0.148 A 
ATOM     69  C   UNL A   1      37.686  29.695  28.547  1.00  0.00     0.002 A 
ATOM     70  C   UNL A   1      38.271  29.382  30.880  1.00  0.00     0.091 A 
ATOM     71  F   UNL A   1      40.547  28.969  31.467  1.00  0.00    -0.205 F 
ATOM     72  C   UNL A   1      37.313  29.650  29.888  1.00  0.00     0.022 A 
BRANCH  70  73
ATOM     73  S   UNL A   1      37.694  29.271  32.577  1.00  0.00     0.127 S 
ATOM     74  O   UNL A   1      36.307  29.715  32.449  1.00  0.00    -0.237 OA
ATOM     75  O   UNL A   1      37.851  27.845  32.872  1.00  0.00    -0.237 OA
ATOM     76  O   UNL A   1      38.569  30.143  33.348  1.00  0.00    -0.744 OA
ENDBRANCH  70  73
ENDBRANCH  52  66
BRANCH  53  77
ATOM     77  C   UNL A   1      49.205  26.989  26.044  1.00  0.00     0.023 A 
ATOM     78  C   UNL A   1      49.424  26.964  24.653  1.00  0.00     0.012 A 
ATOM     79  C   UNL A   1      50.286  26.759  26.916  1.00  0.00     0.148 A 
ATOM     80  C   UNL A   1      50.692  26.693  24.139  1.00  0.00     0.002 A 
ATOM     81  C   UNL A   1      51.557  26.536  26.397  1.00  0.00     0.091 A 
ATOM     82  F   UNL A   1      50.054  26.771  28.236  1.00  0.00    -0.205 F 
ATOM     83  C   UNL A   1      51.760  26.491  25.009  1.00  0.00     0.022 A 
BRANCH  81  84
ATOM     84  S   UNL A   1      53.005  26.390  27.451  1.00  0.00     0.127 S 
ATOM     85  O   UNL A   1      53.662  27.676  27.239  1.00  0.00    -0.237 OA
ATOM     86  O   UNL A   1      52.406  26.214  28.776  1.00  0.00    -0.237 OA
ATOM     87  O   UNL A   1      53.724  25.220  26.964  1.00  0.00    -0.744 OA
ENDBRANCH  81  84
ENDBRANCH  53  77
BRANCH  65  88
ATOM     88  C   UNL A   1      46.199  32.787  28.536  1.00  0.00     0.023 A 
ATOM     89  C   UNL A   1      46.109  33.744  27.507  1.00  0.00     0.012 A 
ATOM     90  C   UNL A   1      46.660  33.176  29.810  1.00  0.00     0.148 A 
ATOM     91  C   UNL A   1      46.486  35.066  27.738  1.00  0.00     0.002 A 
ATOM     92  C   UNL A   1      46.998  34.503  30.042  1.00  0.00     0.091 A 
ATOM     93  F   UNL A   1      46.758  32.242  30.768  1.00  0.00    -0.205 F 
ATOM     94  C   UNL A   1      46.918  35.449  29.007  1.00  0.00     0.022 A 
BRANCH  92  95
ATOM     95  S   UNL A   1      47.480  35.095  31.669  1.00  0.00     0.127 S 
ATOM     96  O   UNL A   1      48.436  34.072  32.088  1.00  0.00    -0.237 OA
ATOM     97  O   UNL A   1      48.073  36.399  31.368  1.00  0.00    -0.237 OA
ATOM     98  O   UNL A   1      46.247  35.161  32.445  1.00  0.00    -0.744 OA
ENDBRANCH  92  95
ENDBRANCH  65  88
ENDBRANCH  39  40
ENDBRANCH  31  34
ENDBRANCH  29  30
ENDBRANCH  28  29
ENDBRANCH  27  28
ENDBRANCH   1  27
TORSDOF 20
ENDMDL
