MODEL 1
REMARK VINA RESULT:     -11.2      0.000      0.000
REMARK SMILES O=C(/C=C\N1[C@@H]2CC[C@H]1C[C@H](O)C2)NCCCCCCNC(=O)c1ccc(-c2c3nc(c(-c4cccc(S(=O)(=O)[O-])c4F)c4ccc([nH]4)c(-c4cccc(S(=O)(=O)[O-])c4F)c4nc(c(-c5cccc(S(=O)(=O)[O-])c5F)c5ccc2[nH]5)C=C4)C=C3)cc1
REMARK SMILES IDX 18 1 17 2 16 3 15 4 14 5 1 6 2 7 3 9 4 10 5 11 6 12 9 13
REMARK SMILES IDX 7 14 13 15 8 16 10 17 11 18 12 19 19 21 20 22 21 23 22 24
REMARK SMILES IDX 23 26 24 27 25 28 86 29 26 30 85 31 27 32 28 33 29 34 79 35
REMARK SMILES IDX 30 36 84 37 78 38 80 39 31 40 83 41 77 42 76 43 32 45 64 46
REMARK SMILES IDX 44 47 63 48 45 49 48 50 62 51 81 52 46 53 47 54 61 56 82 57
REMARK SMILES IDX 49 58 33 59 34 60 42 61 35 62 37 63 43 64 36 65 38 66 39 67
REMARK SMILES IDX 40 68 41 69 65 70 66 71 74 72 67 73 69 74 75 75 68 76 70 77
REMARK SMILES IDX 71 78 72 79 73 80 50 81 51 82 59 83 52 84 54 85 60 86 53 87
REMARK SMILES IDX 55 88 56 89 57 90 58 91
REMARK H PARENT 14 8 12 20 21 25 80 44 48 55
REMARK Flexibility Score: inf
ROOT
ATOM      1  C   UNL A   1      32.066  28.180  27.239  1.00  0.00     0.002 C 
ENDROOT
BRANCH   1   2
ATOM      2  C   UNL A   1      31.535  27.187  26.198  1.00  0.00     0.002 C 
BRANCH   2   3
ATOM      3  C   UNL A   1      31.547  27.647  24.731  1.00  0.00     0.021 C 
BRANCH   3   4
ATOM      4  C   UNL A   1      32.879  27.649  23.964  1.00  0.00     0.116 C 
BRANCH   4   5
ATOM      5  N   UNL A   1      33.658  26.428  24.061  1.00  0.00    -0.353 N 
ATOM      6  O   UNL A   1      32.939  25.495  22.073  1.00  0.00    -0.270 OA
ATOM      7  C   UNL A   1      33.656  25.476  23.067  1.00  0.00     0.245 C 
ATOM      8  H   UNL A   1      34.206  26.275  24.865  1.00  0.00     0.163 HD
BRANCH   7   9
ATOM      9  C   UNL A   1      34.522  24.308  23.356  1.00  0.00     0.088 C 
ATOM     10  C   UNL A   1      34.319  23.301  24.220  1.00  0.00     0.087 C 
BRANCH  10  11
ATOM     11  N   UNL A   1      33.354  23.031  25.170  1.00  0.00    -0.371 N 
ATOM     12  C   UNL A   1      32.523  21.838  25.267  1.00  0.00     0.084 C 
ATOM     13  C   UNL A   1      33.258  23.679  26.481  1.00  0.00     0.084 C 
ATOM     14  C   UNL A   1      31.267  22.389  25.958  1.00  0.00     0.027 C 
ATOM     15  C   UNL A   1      33.236  20.823  26.169  1.00  0.00     0.056 C 
ATOM     16  C   UNL A   1      31.780  23.503  26.866  1.00  0.00     0.027 C 
ATOM     17  C   UNL A   1      34.151  22.901  27.461  1.00  0.00     0.056 C 
ATOM     18  C   UNL A   1      34.335  21.431  27.066  1.00  0.00     0.118 C 
BRANCH  18  19
ATOM     19  O   UNL A   1      35.609  21.315  26.410  1.00  0.00    -0.393 OA
ATOM     20  H   UNL A   1      35.727  20.406  26.093  1.00  0.00     0.210 HD
ENDBRANCH  18  19
ENDBRANCH  10  11
ENDBRANCH   7   9
ENDBRANCH   4   5
ENDBRANCH   3   4
ENDBRANCH   2   3
ENDBRANCH   1   2
BRANCH   1  21
ATOM     21  C   UNL A   1      31.746  29.650  26.983  1.00  0.00     0.021 C 
BRANCH  21  22
ATOM     22  C   UNL A   1      32.954  30.520  26.650  1.00  0.00     0.116 C 
BRANCH  22  23
ATOM     23  N   UNL A   1      32.908  31.873  27.203  1.00  0.00    -0.352 N 
ATOM     24  C   UNL A   1      33.902  32.528  27.905  1.00  0.00     0.251 C 
ATOM     25  H   UNL A   1      32.073  32.374  27.060  1.00  0.00     0.163 HD
ATOM     26  O   UNL A   1      33.723  33.657  28.352  1.00  0.00    -0.269 OA
BRANCH  24  27
ATOM     27  C   UNL A   1      35.172  31.810  28.155  1.00  0.00     0.039 A 
ATOM     28  C   UNL A   1      36.368  32.531  28.197  1.00  0.00     0.014 A 
ATOM     29  C   UNL A   1      35.146  30.458  28.497  1.00  0.00     0.014 A 
ATOM     30  C   UNL A   1      37.517  31.919  28.706  1.00  0.00     0.010 A 
ATOM     31  C   UNL A   1      36.263  29.885  29.092  1.00  0.00     0.010 A 
ATOM     32  C   UNL A   1      37.457  30.612  29.219  1.00  0.00    -0.014 A 
BRANCH  32  33
ATOM     33  C   UNL A   1      38.605  29.991  29.931  1.00  0.00     0.031 A 
ATOM     34  C   UNL A   1      38.987  30.471  31.305  1.00  0.00     0.074 A 
ATOM     35  C   UNL A   1      39.388  29.096  29.291  1.00  0.00     0.049 A 
ATOM     36  N   UNL A   1      40.019  30.142  32.038  1.00  0.00    -0.248 NA
ATOM     37  C   UNL A   1      38.117  31.489  31.919  1.00  0.00     0.031 C 
ATOM     38  C   UNL A   1      39.194  28.628  27.916  1.00  0.00     0.029 A 
ATOM     39  N   UNL A   1      40.525  28.443  29.702  1.00  0.00    -0.354 N 
ATOM     40  C   UNL A   1      39.954  30.949  33.167  1.00  0.00     0.074 A 
ATOM     41  C   UNL A   1      38.803  31.810  33.007  1.00  0.00     0.031 C 
ATOM     42  C   UNL A   1      40.170  27.758  27.603  1.00  0.00     0.029 A 
ATOM     43  C   UNL A   1      41.071  27.623  28.742  1.00  0.00     0.049 A 
ATOM     44  H   UNL A   1      40.912  28.553  30.600  1.00  0.00     0.167 HD
ATOM     45  C   UNL A   1      40.753  30.948  34.259  1.00  0.00     0.034 A 
ATOM     46  C   UNL A   1      42.172  26.845  28.776  1.00  0.00     0.034 A 
ATOM     47  C   UNL A   1      41.844  30.034  34.455  1.00  0.00     0.049 A 
ATOM     48  C   UNL A   1      42.985  26.787  30.042  1.00  0.00     0.074 A 
ATOM     49  C   UNL A   1      42.641  29.872  35.573  1.00  0.00     0.029 A 
ATOM     50  N   UNL A   1      42.285  29.119  33.512  1.00  0.00    -0.354 N 
ATOM     51  N   UNL A   1      42.801  27.432  31.169  1.00  0.00    -0.248 NA
ATOM     52  C   UNL A   1      44.132  25.866  30.057  1.00  0.00     0.031 C 
ATOM     53  C   UNL A   1      43.564  28.854  35.306  1.00  0.00     0.029 A 
ATOM     54  C   UNL A   1      43.338  28.383  34.024  1.00  0.00     0.049 A 
ATOM     55  H   UNL A   1      41.904  29.009  32.611  1.00  0.00     0.167 HD
ATOM     56  C   UNL A   1      43.784  26.969  32.037  1.00  0.00     0.074 A 
ATOM     57  C   UNL A   1      44.549  25.975  31.312  1.00  0.00     0.031 C 
ATOM     58  C   UNL A   1      44.044  27.349  33.312  1.00  0.00     0.034 A 
BRANCH  45  59
ATOM     59  C   UNL A   1      40.419  31.913  35.365  1.00  0.00     0.023 A 
ATOM     60  C   UNL A   1      41.192  33.083  35.514  1.00  0.00     0.012 A 
ATOM     61  C   UNL A   1      39.329  31.690  36.228  1.00  0.00     0.148 A 
ATOM     62  C   UNL A   1      40.911  33.997  36.528  1.00  0.00     0.002 A 
ATOM     63  C   UNL A   1      39.029  32.627  37.211  1.00  0.00     0.091 A 
ATOM     64  F   UNL A   1      38.620  30.561  36.087  1.00  0.00    -0.205 F 
ATOM     65  C   UNL A   1      39.826  33.774  37.370  1.00  0.00     0.022 A 
BRANCH  63  66
ATOM     66  S   UNL A   1      37.607  32.464  38.296  1.00  0.00     0.127 S 
ATOM     67  O   UNL A   1      37.934  33.416  39.356  1.00  0.00    -0.237 OA
ATOM     68  O   UNL A   1      36.504  32.877  37.426  1.00  0.00    -0.237 OA
ATOM     69  O   UNL A   1      37.569  31.065  38.695  1.00  0.00    -0.744 OA
ENDBRANCH  63  66
ENDBRANCH  45  59
BRANCH  46  70
ATOM     70  C   UNL A   1      42.512  25.981  27.610  1.00  0.00     0.023 A 
ATOM     71  C   UNL A   1      43.340  26.499  26.594  1.00  0.00     0.012 A 
ATOM     72  C   UNL A   1      42.055  24.652  27.510  1.00  0.00     0.148 A 
ATOM     73  C   UNL A   1      43.683  25.722  25.487  1.00  0.00     0.002 A 
ATOM     74  C   UNL A   1      42.443  23.867  26.429  1.00  0.00     0.091 A 
ATOM     75  F   UNL A   1      41.257  24.180  28.476  1.00  0.00    -0.205 F 
ATOM     76  C   UNL A   1      43.244  24.405  25.409  1.00  0.00     0.022 A 
BRANCH  74  77
ATOM     77  S   UNL A   1      42.030  22.122  26.315  1.00  0.00     0.127 S 
ATOM     78  O   UNL A   1      42.789  21.710  25.138  1.00  0.00    -0.237 OA
ATOM     79  O   UNL A   1      42.536  21.603  27.587  1.00  0.00    -0.237 OA
ATOM     80  O   UNL A   1      40.579  22.077  26.190  1.00  0.00    -0.744 OA
ENDBRANCH  74  77
ENDBRANCH  46  70
BRANCH  58  81
ATOM     81  C   UNL A   1      45.181  26.671  34.027  1.00  0.00     0.023 A 
ATOM     82  C   UNL A   1      46.478  27.211  33.939  1.00  0.00     0.012 A 
ATOM     83  C   UNL A   1      44.948  25.558  34.859  1.00  0.00     0.148 A 
ATOM     84  C   UNL A   1      47.533  26.641  34.650  1.00  0.00     0.002 A 
ATOM     85  C   UNL A   1      45.996  25.020  35.598  1.00  0.00     0.091 A 
ATOM     86  F   UNL A   1      43.710  25.044  34.911  1.00  0.00    -0.205 F 
ATOM     87  C   UNL A   1      47.290  25.555  35.489  1.00  0.00     0.022 A 
BRANCH  85  88
ATOM     88  S   UNL A   1      45.749  23.682  36.772  1.00  0.00     0.127 S 
ATOM     89  O   UNL A   1      44.821  24.288  37.724  1.00  0.00    -0.237 OA
ATOM     90  O   UNL A   1      45.165  22.634  35.935  1.00  0.00    -0.237 OA
ATOM     91  O   UNL A   1      47.071  23.365  37.294  1.00  0.00    -0.744 OA
ENDBRANCH  85  88
ENDBRANCH  58  81
ENDBRANCH  32  33
ENDBRANCH  24  27
ENDBRANCH  22  23
ENDBRANCH  21  22
ENDBRANCH   1  21
TORSDOF 18
ENDMDL
MODEL 2
REMARK VINA RESULT:     -11.1      1.455      7.880
REMARK SMILES O=C(/C=C\N1[C@@H]2CC[C@H]1C[C@H](O)C2)NCCCCCCNC(=O)c1ccc(-c2c3nc(c(-c4cccc(S(=O)(=O)[O-])c4F)c4ccc([nH]4)c(-c4cccc(S(=O)(=O)[O-])c4F)c4nc(c(-c5cccc(S(=O)(=O)[O-])c5F)c5ccc2[nH]5)C=C4)C=C3)cc1
REMARK SMILES IDX 18 1 17 2 16 3 15 4 14 5 1 6 2 7 3 9 4 10 5 11 6 12 9 13
REMARK SMILES IDX 7 14 13 15 8 16 10 17 11 18 12 19 19 21 20 22 21 23 22 24
REMARK SMILES IDX 23 26 24 27 25 28 86 29 26 30 85 31 27 32 28 33 29 34 79 35
REMARK SMILES IDX 30 36 84 37 78 38 80 39 31 40 83 41 77 42 76 43 32 45 64 46
REMARK SMILES IDX 44 47 63 48 45 49 48 50 62 51 81 52 46 53 47 54 61 56 82 57
REMARK SMILES IDX 49 58 33 59 34 60 42 61 35 62 37 63 43 64 36 65 38 66 39 67
REMARK SMILES IDX 40 68 41 69 65 70 66 71 74 72 67 73 69 74 75 75 68 76 70 77
REMARK SMILES IDX 71 78 72 79 73 80 50 81 51 82 59 83 52 84 54 85 60 86 53 87
REMARK SMILES IDX 55 88 56 89 57 90 58 91
REMARK H PARENT 14 8 12 20 21 25 80 44 48 55
REMARK Flexibility Score: inf
ROOT
ATOM      1  C   UNL A   1      32.570  27.846  26.666  1.00  0.00     0.002 C 
ENDROOT
BRANCH   1   2
ATOM      2  C   UNL A   1      31.841  26.591  26.170  1.00  0.00     0.002 C 
BRANCH   2   3
ATOM      3  C   UNL A   1      30.586  26.812  25.310  1.00  0.00     0.021 C 
BRANCH   3   4
ATOM      4  C   UNL A   1      29.706  25.602  24.956  1.00  0.00     0.116 C 
BRANCH   4   5
ATOM      5  N   UNL A   1      30.374  24.314  24.987  1.00  0.00    -0.353 N 
ATOM      6  O   UNL A   1      29.947  23.847  27.210  1.00  0.00    -0.270 OA
ATOM      7  C   UNL A   1      30.386  23.521  26.113  1.00  0.00     0.245 C 
ATOM      8  H   UNL A   1      30.834  23.996  24.176  1.00  0.00     0.163 HD
BRANCH   7   9
ATOM      9  C   UNL A   1      31.115  22.242  25.936  1.00  0.00     0.088 C 
ATOM     10  C   UNL A   1      32.359  22.037  25.477  1.00  0.00     0.087 C 
BRANCH  10  11
ATOM     11  N   UNL A   1      33.332  22.858  24.943  1.00  0.00    -0.371 N 
ATOM     12  C   UNL A   1      33.952  24.016  25.574  1.00  0.00     0.084 C 
ATOM     13  C   UNL A   1      34.218  22.501  23.830  1.00  0.00     0.084 C 
ATOM     14  C   UNL A   1      34.329  24.872  24.356  1.00  0.00     0.027 C 
ATOM     15  C   UNL A   1      35.210  23.547  26.316  1.00  0.00     0.056 C 
ATOM     16  C   UNL A   1      34.644  23.862  23.256  1.00  0.00     0.027 C 
ATOM     17  C   UNL A   1      35.439  21.772  24.412  1.00  0.00     0.056 C 
ATOM     18  C   UNL A   1      35.740  22.170  25.863  1.00  0.00     0.118 C 
BRANCH  18  19
ATOM     19  O   UNL A   1      35.201  21.145  26.713  1.00  0.00    -0.393 OA
ATOM     20  H   UNL A   1      35.582  21.228  27.602  1.00  0.00     0.210 HD
ENDBRANCH  18  19
ENDBRANCH  10  11
ENDBRANCH   7   9
ENDBRANCH   4   5
ENDBRANCH   3   4
ENDBRANCH   2   3
ENDBRANCH   1   2
BRANCH   1  21
ATOM     21  C   UNL A   1      31.783  29.151  26.582  1.00  0.00     0.021 C 
BRANCH  21  22
ATOM     22  C   UNL A   1      32.562  30.333  26.013  1.00  0.00     0.116 C 
BRANCH  22  23
ATOM     23  N   UNL A   1      32.204  31.634  26.578  1.00  0.00    -0.352 N 
ATOM     24  C   UNL A   1      32.991  32.453  27.364  1.00  0.00     0.251 C 
ATOM     25  H   UNL A   1      31.299  31.963  26.374  1.00  0.00     0.163 HD
ATOM     26  O   UNL A   1      32.556  33.510  27.810  1.00  0.00    -0.269 OA
BRANCH  24  27
ATOM     27  C   UNL A   1      34.356  31.995  27.706  1.00  0.00     0.039 A 
ATOM     28  C   UNL A   1      35.371  32.939  27.880  1.00  0.00     0.014 A 
ATOM     29  C   UNL A   1      34.581  30.650  28.001  1.00  0.00     0.014 A 
ATOM     30  C   UNL A   1      36.576  32.547  28.472  1.00  0.00     0.010 A 
ATOM     31  C   UNL A   1      35.739  30.285  28.676  1.00  0.00     0.010 A 
ATOM     32  C   UNL A   1      36.743  31.231  28.934  1.00  0.00    -0.014 A 
BRANCH  32  33
ATOM     33  C   UNL A   1      37.932  30.820  29.728  1.00  0.00     0.031 A 
ATOM     34  C   UNL A   1      38.927  29.854  29.144  1.00  0.00     0.074 A 
ATOM     35  C   UNL A   1      38.044  31.202  31.018  1.00  0.00     0.049 A 
ATOM     36  N   UNL A   1      39.958  29.285  29.714  1.00  0.00    -0.248 NA
ATOM     37  C   UNL A   1      38.711  29.438  27.748  1.00  0.00     0.031 C 
ATOM     38  C   UNL A   1      37.088  32.046  31.740  1.00  0.00     0.029 A 
ATOM     39  N   UNL A   1      38.995  30.902  31.962  1.00  0.00    -0.354 N 
ATOM     40  C   UNL A   1      40.475  28.407  28.769  1.00  0.00     0.074 A 
ATOM     41  C   UNL A   1      39.625  28.490  27.603  1.00  0.00     0.031 C 
ATOM     42  C   UNL A   1      37.507  32.205  33.007  1.00  0.00     0.029 A 
ATOM     43  C   UNL A   1      38.745  31.457  33.197  1.00  0.00     0.049 A 
ATOM     44  H   UNL A   1      39.783  30.343  31.773  1.00  0.00     0.167 HD
ATOM     45  C   UNL A   1      41.582  27.632  28.847  1.00  0.00     0.034 A 
ATOM     46  C   UNL A   1      39.438  31.376  34.351  1.00  0.00     0.034 A 
ATOM     47  C   UNL A   1      42.475  27.616  29.973  1.00  0.00     0.049 A 
ATOM     48  C   UNL A   1      40.721  30.588  34.378  1.00  0.00     0.074 A 
ATOM     49  C   UNL A   1      43.683  26.957  30.105  1.00  0.00     0.029 A 
ATOM     50  N   UNL A   1      42.259  28.301  31.159  1.00  0.00    -0.354 N 
ATOM     51  N   UNL A   1      41.288  29.904  33.414  1.00  0.00    -0.248 NA
ATOM     52  C   UNL A   1      41.481  30.594  35.638  1.00  0.00     0.031 C 
ATOM     53  C   UNL A   1      44.201  27.245  31.372  1.00  0.00     0.029 A 
ATOM     54  C   UNL A   1      43.316  28.087  32.026  1.00  0.00     0.049 A 
ATOM     55  H   UNL A   1      41.472  28.857  31.355  1.00  0.00     0.167 HD
ATOM     56  C   UNL A   1      42.485  29.429  33.937  1.00  0.00     0.074 A 
ATOM     57  C   UNL A   1      42.572  29.919  35.298  1.00  0.00     0.031 C 
ATOM     58  C   UNL A   1      43.418  28.639  33.352  1.00  0.00     0.034 A 
BRANCH  45  59
ATOM     59  C   UNL A   1      41.934  26.802  27.641  1.00  0.00     0.023 A 
ATOM     60  C   UNL A   1      42.603  27.410  26.559  1.00  0.00     0.012 A 
ATOM     61  C   UNL A   1      41.643  25.426  27.589  1.00  0.00     0.148 A 
ATOM     62  C   UNL A   1      42.942  26.672  25.427  1.00  0.00     0.002 A 
ATOM     63  C   UNL A   1      42.022  24.687  26.473  1.00  0.00     0.091 A 
ATOM     64  F   UNL A   1      40.985  24.869  28.616  1.00  0.00    -0.205 F 
ATOM     65  C   UNL A   1      42.660  25.310  25.387  1.00  0.00     0.022 A 
BRANCH  63  66
ATOM     66  S   UNL A   1      41.768  22.912  26.361  1.00  0.00     0.127 S 
ATOM     67  O   UNL A   1      42.411  22.602  25.086  1.00  0.00    -0.237 OA
ATOM     68  O   UNL A   1      42.483  22.420  27.540  1.00  0.00    -0.237 OA
ATOM     69  O   UNL A   1      40.327  22.713  26.404  1.00  0.00    -0.744 OA
ENDBRANCH  63  66
ENDBRANCH  45  59
BRANCH  46  70
ATOM     70  C   UNL A   1      38.987  32.144  35.547  1.00  0.00     0.023 A 
ATOM     71  C   UNL A   1      39.167  33.542  35.568  1.00  0.00     0.012 A 
ATOM     72  C   UNL A   1      38.358  31.518  36.640  1.00  0.00     0.148 A 
ATOM     73  C   UNL A   1      38.756  34.297  36.666  1.00  0.00     0.002 A 
ATOM     74  C   UNL A   1      37.905  32.284  37.709  1.00  0.00     0.091 A 
ATOM     75  F   UNL A   1      38.208  30.187  36.610  1.00  0.00    -0.205 F 
ATOM     76  C   UNL A   1      38.117  33.671  37.731  1.00  0.00     0.022 A 
BRANCH  74  77
ATOM     77  S   UNL A   1      36.957  31.576  39.061  1.00  0.00     0.127 S 
ATOM     78  O   UNL A   1      37.886  31.705  40.179  1.00  0.00    -0.237 OA
ATOM     79  O   UNL A   1      35.795  32.464  39.119  1.00  0.00    -0.237 OA
ATOM     80  O   UNL A   1      36.645  30.216  38.642  1.00  0.00    -0.744 OA
ENDBRANCH  74  77
ENDBRANCH  46  70
BRANCH  58  81
ATOM     81  C   UNL A   1      44.635  28.276  34.159  1.00  0.00     0.023 A 
ATOM     82  C   UNL A   1      45.766  29.114  34.127  1.00  0.00     0.012 A 
ATOM     83  C   UNL A   1      44.624  27.159  35.017  1.00  0.00     0.148 A 
ATOM     84  C   UNL A   1      46.877  28.834  34.921  1.00  0.00     0.002 A 
ATOM     85  C   UNL A   1      45.719  26.910  35.837  1.00  0.00     0.091 A 
ATOM     86  F   UNL A   1      43.546  26.360  35.015  1.00  0.00    -0.205 F 
ATOM     87  C   UNL A   1      46.849  27.742  35.784  1.00  0.00     0.022 A 
BRANCH  85  88
ATOM     88  S   UNL A   1      45.725  25.578  37.044  1.00  0.00     0.127 S 
ATOM     89  O   UNL A   1      45.488  24.409  36.200  1.00  0.00    -0.237 OA
ATOM     90  O   UNL A   1      47.075  25.665  37.601  1.00  0.00    -0.237 OA
ATOM     91  O   UNL A   1      44.664  25.898  37.991  1.00  0.00    -0.744 OA
ENDBRANCH  85  88
ENDBRANCH  58  81
ENDBRANCH  32  33
ENDBRANCH  24  27
ENDBRANCH  22  23
ENDBRANCH  21  22
ENDBRANCH   1  21
TORSDOF 18
ENDMDL
MODEL 3
REMARK VINA RESULT:     -11.0      1.729      2.305
REMARK SMILES O=C(/C=C\N1[C@@H]2CC[C@H]1C[C@H](O)C2)NCCCCCCNC(=O)c1ccc(-c2c3nc(c(-c4cccc(S(=O)(=O)[O-])c4F)c4ccc([nH]4)c(-c4cccc(S(=O)(=O)[O-])c4F)c4nc(c(-c5cccc(S(=O)(=O)[O-])c5F)c5ccc2[nH]5)C=C4)C=C3)cc1
REMARK SMILES IDX 18 1 17 2 16 3 15 4 14 5 1 6 2 7 3 9 4 10 5 11 6 12 9 13
REMARK SMILES IDX 7 14 13 15 8 16 10 17 11 18 12 19 19 21 20 22 21 23 22 24
REMARK SMILES IDX 23 26 24 27 25 28 86 29 26 30 85 31 27 32 28 33 29 34 79 35
REMARK SMILES IDX 30 36 84 37 78 38 80 39 31 40 83 41 77 42 76 43 32 45 64 46
REMARK SMILES IDX 44 47 63 48 45 49 48 50 62 51 81 52 46 53 47 54 61 56 82 57
REMARK SMILES IDX 49 58 33 59 34 60 42 61 35 62 37 63 43 64 36 65 38 66 39 67
REMARK SMILES IDX 40 68 41 69 65 70 66 71 74 72 67 73 69 74 75 75 68 76 70 77
REMARK SMILES IDX 71 78 72 79 73 80 50 81 51 82 59 83 52 84 54 85 60 86 53 87
REMARK SMILES IDX 55 88 56 89 57 90 58 91
REMARK H PARENT 14 8 12 20 21 25 80 44 48 55
REMARK Flexibility Score: inf
ROOT
ATOM      1  C   UNL A   1      31.370  29.149  25.346  1.00  0.00     0.002 C 
ENDROOT
BRANCH   1   2
ATOM      2  C   UNL A   1      30.754  28.788  23.988  1.00  0.00     0.002 C 
BRANCH   2   3
ATOM      3  C   UNL A   1      30.603  27.291  23.672  1.00  0.00     0.021 C 
BRANCH   3   4
ATOM      4  C   UNL A   1      29.374  26.539  24.210  1.00  0.00     0.116 C 
BRANCH   4   5
ATOM      5  N   UNL A   1      29.657  25.296  24.904  1.00  0.00    -0.353 N 
ATOM      6  O   UNL A   1      31.793  25.852  25.588  1.00  0.00    -0.270 OA
ATOM      7  C   UNL A   1      30.835  25.087  25.583  1.00  0.00     0.245 C 
ATOM      8  H   UNL A   1      28.982  24.578  24.888  1.00  0.00     0.163 HD
BRANCH   7   9
ATOM      9  C   UNL A   1      30.925  23.755  26.230  1.00  0.00     0.088 C 
ATOM     10  C   UNL A   1      31.792  22.759  25.992  1.00  0.00     0.087 C 
BRANCH  10  11
ATOM     11  N   UNL A   1      32.794  22.560  25.064  1.00  0.00    -0.371 N 
ATOM     12  C   UNL A   1      34.150  22.092  25.319  1.00  0.00     0.084 C 
ATOM     13  C   UNL A   1      32.585  22.383  23.624  1.00  0.00     0.084 C 
ATOM     14  C   UNL A   1      34.927  22.743  24.164  1.00  0.00     0.027 C 
ATOM     15  C   UNL A   1      34.168  20.564  25.188  1.00  0.00     0.056 C 
ATOM     16  C   UNL A   1      33.932  22.796  23.008  1.00  0.00     0.027 C 
ATOM     17  C   UNL A   1      32.326  20.890  23.363  1.00  0.00     0.056 C 
ATOM     18  C   UNL A   1      32.965  19.978  24.417  1.00  0.00     0.118 C 
BRANCH  18  19
ATOM     19  O   UNL A   1      31.936  19.603  25.347  1.00  0.00    -0.393 OA
ATOM     20  H   UNL A   1      31.171  19.255  24.860  1.00  0.00     0.210 HD
ENDBRANCH  18  19
ENDBRANCH  10  11
ENDBRANCH   7   9
ENDBRANCH   4   5
ENDBRANCH   3   4
ENDBRANCH   2   3
ENDBRANCH   1   2
BRANCH   1  21
ATOM     21  C   UNL A   1      31.421  30.637  25.681  1.00  0.00     0.021 C 
BRANCH  21  22
ATOM     22  C   UNL A   1      32.310  30.997  26.867  1.00  0.00     0.116 C 
BRANCH  22  23
ATOM     23  N   UNL A   1      32.342  32.420  27.202  1.00  0.00    -0.352 N 
ATOM     24  C   UNL A   1      33.400  33.136  27.729  1.00  0.00     0.251 C 
ATOM     25  H   UNL A   1      31.515  32.926  27.032  1.00  0.00     0.163 HD
ATOM     26  O   UNL A   1      33.285  34.326  28.003  1.00  0.00    -0.269 OA
BRANCH  24  27
ATOM     27  C   UNL A   1      34.661  32.415  28.011  1.00  0.00     0.039 A 
ATOM     28  C   UNL A   1      35.859  33.131  28.073  1.00  0.00     0.014 A 
ATOM     29  C   UNL A   1      34.623  31.065  28.363  1.00  0.00     0.014 A 
ATOM     30  C   UNL A   1      36.995  32.519  28.611  1.00  0.00     0.010 A 
ATOM     31  C   UNL A   1      35.725  30.493  28.985  1.00  0.00     0.010 A 
ATOM     32  C   UNL A   1      36.919  31.216  29.132  1.00  0.00    -0.014 A 
BRANCH  32  33
ATOM     33  C   UNL A   1      38.049  30.595  29.872  1.00  0.00     0.031 A 
ATOM     34  C   UNL A   1      38.349  31.024  31.283  1.00  0.00     0.074 A 
ATOM     35  C   UNL A   1      38.888  29.752  29.234  1.00  0.00     0.049 A 
ATOM     36  N   UNL A   1      39.355  30.692  32.052  1.00  0.00    -0.248 NA
ATOM     37  C   UNL A   1      37.422  31.990  31.897  1.00  0.00     0.031 C 
ATOM     38  C   UNL A   1      38.775  29.340  27.832  1.00  0.00     0.029 A 
ATOM     39  N   UNL A   1      40.023  29.113  29.673  1.00  0.00    -0.354 N 
ATOM     40  C   UNL A   1      39.211  31.446  33.210  1.00  0.00     0.074 A 
ATOM     41  C   UNL A   1      38.044  32.280  33.030  1.00  0.00     0.031 C 
ATOM     42  C   UNL A   1      39.790  28.513  27.531  1.00  0.00     0.029 A 
ATOM     43  C   UNL A   1      40.639  28.352  28.706  1.00  0.00     0.049 A 
ATOM     44  H   UNL A   1      40.363  29.193  30.593  1.00  0.00     0.167 HD
ATOM     45  C   UNL A   1      39.956  31.418  34.339  1.00  0.00     0.034 A 
ATOM     46  C   UNL A   1      41.760  27.603  28.762  1.00  0.00     0.034 A 
ATOM     47  C   UNL A   1      41.063  30.527  34.549  1.00  0.00     0.049 A 
ATOM     48  C   UNL A   1      42.512  27.512  30.063  1.00  0.00     0.074 A 
ATOM     49  C   UNL A   1      41.810  30.337  35.697  1.00  0.00     0.029 A 
ATOM     50  N   UNL A   1      41.576  29.667  33.590  1.00  0.00    -0.354 N 
ATOM     51  N   UNL A   1      42.255  28.100  31.206  1.00  0.00    -0.248 NA
ATOM     52  C   UNL A   1      43.683  26.623  30.095  1.00  0.00     0.031 C 
ATOM     53  C   UNL A   1      42.774  29.358  35.433  1.00  0.00     0.029 A 
ATOM     54  C   UNL A   1      42.624  28.938  34.122  1.00  0.00     0.049 A 
ATOM     55  H   UNL A   1      41.242  29.586  32.668  1.00  0.00     0.167 HD
ATOM     56  C   UNL A   1      43.208  27.627  32.101  1.00  0.00     0.074 A 
ATOM     57  C   UNL A   1      44.036  26.688  31.373  1.00  0.00     0.031 C 
ATOM     58  C   UNL A   1      43.394  27.956  33.402  1.00  0.00     0.034 A 
BRANCH  45  59
ATOM     59  C   UNL A   1      39.540  32.324  35.468  1.00  0.00     0.023 A 
ATOM     60  C   UNL A   1      38.691  31.821  36.475  1.00  0.00     0.012 A 
ATOM     61  C   UNL A   1      40.011  33.647  35.557  1.00  0.00     0.148 A 
ATOM     62  C   UNL A   1      38.285  32.632  37.533  1.00  0.00     0.002 A 
ATOM     63  C   UNL A   1      39.635  34.438  36.638  1.00  0.00     0.091 A 
ATOM     64  F   UNL A   1      40.797  34.116  34.577  1.00  0.00    -0.205 F 
ATOM     65  C   UNL A   1      38.763  33.936  37.619  1.00  0.00     0.022 A 
BRANCH  63  66
ATOM     66  S   UNL A   1      40.257  36.106  36.875  1.00  0.00     0.127 S 
ATOM     67  O   UNL A   1      41.690  35.867  37.032  1.00  0.00    -0.237 OA
ATOM     68  O   UNL A   1      39.883  36.759  35.619  1.00  0.00    -0.237 OA
ATOM     69  O   UNL A   1      39.572  36.623  38.050  1.00  0.00    -0.744 OA
ENDBRANCH  63  66
ENDBRANCH  45  59
BRANCH  46  70
ATOM     70  C   UNL A   1      42.181  26.801  27.577  1.00  0.00     0.023 A 
ATOM     71  C   UNL A   1      42.916  27.431  26.553  1.00  0.00     0.012 A 
ATOM     72  C   UNL A   1      41.893  25.427  27.468  1.00  0.00     0.148 A 
ATOM     73  C   UNL A   1      43.331  26.716  25.430  1.00  0.00     0.002 A 
ATOM     74  C   UNL A   1      42.353  24.709  26.370  1.00  0.00     0.091 A 
ATOM     75  F   UNL A   1      41.180  24.848  28.443  1.00  0.00    -0.205 F 
ATOM     76  C   UNL A   1      43.060  25.354  25.342  1.00  0.00     0.022 A 
BRANCH  74  77
ATOM     77  S   UNL A   1      42.160  22.927  26.240  1.00  0.00     0.127 S 
ATOM     78  O   UNL A   1      40.708  22.781  26.256  1.00  0.00    -0.237 OA
ATOM     79  O   UNL A   1      42.794  22.643  24.952  1.00  0.00    -0.237 OA
ATOM     80  O   UNL A   1      42.872  22.379  27.387  1.00  0.00    -0.744 OA
ENDBRANCH  74  77
ENDBRANCH  46  70
BRANCH  58  81
ATOM     81  C   UNL A   1      44.515  27.279  34.143  1.00  0.00     0.023 A 
ATOM     82  C   UNL A   1      45.780  27.895  34.204  1.00  0.00     0.012 A 
ATOM     83  C   UNL A   1      44.291  26.084  34.854  1.00  0.00     0.148 A 
ATOM     84  C   UNL A   1      46.813  27.320  34.943  1.00  0.00     0.002 A 
ATOM     85  C   UNL A   1      45.312  25.539  35.624  1.00  0.00     0.091 A 
ATOM     86  F   UNL A   1      43.086  25.501  34.765  1.00  0.00    -0.205 F 
ATOM     87  C   UNL A   1      46.575  26.152  35.663  1.00  0.00     0.022 A 
BRANCH  85  88
ATOM     88  S   UNL A   1      45.062  24.089  36.655  1.00  0.00     0.127 S 
ATOM     89  O   UNL A   1      46.434  23.725  36.998  1.00  0.00    -0.237 OA
ATOM     90  O   UNL A   1      44.276  24.626  37.767  1.00  0.00    -0.237 OA
ATOM     91  O   UNL A   1      44.345  23.131  35.823  1.00  0.00    -0.744 OA
ENDBRANCH  85  88
ENDBRANCH  58  81
ENDBRANCH  32  33
ENDBRANCH  24  27
ENDBRANCH  22  23
ENDBRANCH  21  22
ENDBRANCH   1  21
TORSDOF 18
ENDMDL
