MODEL 1
REMARK VINA RESULT:     -13.1      0.000      0.000
REMARK SMILES O=C(NCCCCCCNC(=O)c1cc(S(=O)(=O)NNC(=O)[C@H]2C=C(c3ccccc3)N=N2)ccc1F)c1ccc(-c2c3nc(c(-c4cccc(S(=O)(=O)[O-])c4F)c4ccc([nH]4)c(-c4cccc(S(=O)(=O)[O-])c4F)c4nc(c(-c5cccc(S(=O)(=O)[O-])c5F)c5ccc2[nH]5)C=C4)C=C3)cc1
REMARK SMILES IDX 7 1 6 2 5 3 4 4 3 5 1 6 2 7 38 9 39 10 100 11 40 12 99 13
REMARK SMILES IDX 41 14 42 15 43 16 93 17 44 18 98 19 92 20 94 21 45 22 97 23
REMARK SMILES IDX 91 24 90 25 46 27 78 28 58 29 77 30 59 31 62 32 76 33 95 34
REMARK SMILES IDX 60 35 61 36 75 38 96 39 63 40 47 41 48 42 56 43 49 44 51 45
REMARK SMILES IDX 57 46 50 47 52 48 53 49 54 50 55 51 79 52 80 53 88 54 81 55
REMARK SMILES IDX 83 56 89 57 82 58 84 59 85 60 86 61 87 62 64 63 65 64 73 65
REMARK SMILES IDX 66 66 68 67 74 68 67 69 69 70 70 71 71 72 72 73 8 74 9 75
REMARK SMILES IDX 10 76 11 77 12 79 13 80 14 81 36 82 15 83 35 84 37 85 34 86
REMARK SMILES IDX 16 87 17 88 18 89 19 90 20 92 21 93 22 95 23 96 24 97 33 98
REMARK SMILES IDX 25 99 32 100 26 101 27 102 31 103 28 104 30 105 29 106
REMARK H PARENT 3 8 94 26 62 37 10 78 19 91 20 94
REMARK Flexibility Score: inf
ROOT
ATOM      1  C   UNL A   1      33.252  29.413  24.888  1.00  0.00     0.002 C 
ENDROOT
BRANCH   1   2
ATOM      2  C   UNL A   1      31.963  29.934  25.534  1.00  0.00     0.002 C 
BRANCH   2   3
ATOM      3  C   UNL A   1      32.133  30.665  26.872  1.00  0.00     0.021 C 
BRANCH   3   4
ATOM      4  C   UNL A   1      33.553  30.642  27.435  1.00  0.00     0.116 C 
BRANCH   4   5
ATOM      5  N   UNL A   1      34.142  31.954  27.591  1.00  0.00    -0.352 N 
ATOM      6  O   UNL A   1      35.522  33.639  27.951  1.00  0.00    -0.269 OA
ATOM      7  C   UNL A   1      35.390  32.413  27.915  1.00  0.00     0.251 C 
ATOM      8  H   UNL A   1      33.499  32.682  27.426  1.00  0.00     0.163 HD
BRANCH   7   9
ATOM      9  C   UNL A   1      36.557  31.550  28.249  1.00  0.00     0.039 A 
ATOM     10  C   UNL A   1      36.734  30.234  27.821  1.00  0.00     0.014 A 
ATOM     11  C   UNL A   1      37.575  32.145  29.017  1.00  0.00     0.014 A 
ATOM     12  C   UNL A   1      37.872  29.514  28.185  1.00  0.00     0.010 A 
ATOM     13  C   UNL A   1      38.728  31.439  29.362  1.00  0.00     0.010 A 
ATOM     14  C   UNL A   1      38.871  30.113  28.954  1.00  0.00    -0.014 A 
BRANCH  14  15
ATOM     15  C   UNL A   1      40.090  29.340  29.197  1.00  0.00     0.031 A 
ATOM     16  C   UNL A   1      40.378  28.972  30.617  1.00  0.00     0.074 A 
ATOM     17  C   UNL A   1      40.860  28.816  28.225  1.00  0.00     0.049 A 
ATOM     18  N   UNL A   1      41.440  29.226  31.318  1.00  0.00    -0.248 NA
ATOM     19  C   UNL A   1      39.330  28.256  31.358  1.00  0.00     0.031 C 
ATOM     20  C   UNL A   1      40.560  28.733  26.795  1.00  0.00     0.029 A 
ATOM     21  N   UNL A   1      42.023  28.106  28.349  1.00  0.00    -0.354 N 
ATOM     22  C   UNL A   1      41.273  28.549  32.530  1.00  0.00     0.074 A 
ATOM     23  C   UNL A   1      39.918  28.060  32.538  1.00  0.00     0.031 C 
ATOM     24  C   UNL A   1      41.366  27.805  26.234  1.00  0.00     0.029 A 
ATOM     25  C   UNL A   1      42.320  27.344  27.229  1.00  0.00     0.049 A 
ATOM     26  H   UNL A   1      42.591  28.133  29.153  1.00  0.00     0.167 HD
ATOM     27  C   UNL A   1      42.305  28.297  33.381  1.00  0.00     0.034 A 
ATOM     28  C   UNL A   1      43.225  26.342  27.152  1.00  0.00     0.034 A 
ATOM     29  C   UNL A   1      43.465  29.090  33.085  1.00  0.00     0.049 A 
ATOM     30  C   UNL A   1      44.182  26.488  28.269  1.00  0.00     0.074 A 
ATOM     31  C   UNL A   1      43.773  30.433  33.057  1.00  0.00     0.029 A 
ATOM     32  N   UNL A   1      44.527  28.446  32.502  1.00  0.00    -0.354 N 
ATOM     33  N   UNL A   1      45.061  27.445  28.371  1.00  0.00    -0.248 NA
ATOM     34  C   UNL A   1      43.995  25.681  29.464  1.00  0.00     0.031 C 
ATOM     35  C   UNL A   1      44.800  30.563  32.078  1.00  0.00     0.029 A 
ATOM     36  C   UNL A   1      45.045  29.289  31.559  1.00  0.00     0.049 A 
ATOM     37  H   UNL A   1      44.855  27.545  32.722  1.00  0.00     0.167 HD
ATOM     38  C   UNL A   1      45.231  27.623  29.736  1.00  0.00     0.074 A 
ATOM     39  C   UNL A   1      44.687  26.412  30.340  1.00  0.00     0.031 C 
ATOM     40  C   UNL A   1      45.516  28.851  30.261  1.00  0.00     0.034 A 
BRANCH  27  41
ATOM     41  C   UNL A   1      42.405  27.128  34.342  1.00  0.00     0.023 A 
ATOM     42  C   UNL A   1      41.885  27.312  35.648  1.00  0.00     0.012 A 
ATOM     43  C   UNL A   1      43.202  25.982  34.133  1.00  0.00     0.148 A 
ATOM     44  C   UNL A   1      42.189  26.439  36.699  1.00  0.00     0.002 A 
ATOM     45  C   UNL A   1      43.430  25.070  35.162  1.00  0.00     0.091 A 
ATOM     46  F   UNL A   1      43.856  25.822  32.978  1.00  0.00    -0.205 F 
ATOM     47  C   UNL A   1      42.955  25.310  36.454  1.00  0.00     0.022 A 
BRANCH  45  48
ATOM     48  S   UNL A   1      44.342  23.552  34.863  1.00  0.00     0.127 S 
ATOM     49  O   UNL A   1      43.415  22.812  34.012  1.00  0.00    -0.237 OA
ATOM     50  O   UNL A   1      45.546  24.038  34.187  1.00  0.00    -0.237 OA
ATOM     51  O   UNL A   1      44.590  23.005  36.191  1.00  0.00    -0.744 OA
ENDBRANCH  45  48
ENDBRANCH  27  41
BRANCH  28  52
ATOM     52  C   UNL A   1      43.212  25.135  26.296  1.00  0.00     0.023 A 
ATOM     53  C   UNL A   1      44.188  24.989  25.291  1.00  0.00     0.012 A 
ATOM     54  C   UNL A   1      42.417  24.015  26.624  1.00  0.00     0.148 A 
ATOM     55  C   UNL A   1      44.383  23.761  24.651  1.00  0.00     0.002 A 
ATOM     56  C   UNL A   1      42.604  22.800  25.973  1.00  0.00     0.091 A 
ATOM     57  F   UNL A   1      41.545  24.113  27.637  1.00  0.00    -0.205 F 
ATOM     58  C   UNL A   1      43.595  22.665  24.993  1.00  0.00     0.022 A 
BRANCH  56  59
ATOM     59  S   UNL A   1      41.622  21.348  26.371  1.00  0.00     0.127 S 
ATOM     60  O   UNL A   1      42.232  20.322  25.523  1.00  0.00    -0.237 OA
ATOM     61  O   UNL A   1      41.877  21.191  27.799  1.00  0.00    -0.237 OA
ATOM     62  O   UNL A   1      40.254  21.689  25.999  1.00  0.00    -0.744 OA
ENDBRANCH  56  59
ENDBRANCH  28  52
BRANCH  40  63
ATOM     63  C   UNL A   1      46.000  29.941  29.337  1.00  0.00     0.023 A 
ATOM     64  C   UNL A   1      47.373  30.134  29.083  1.00  0.00     0.012 A 
ATOM     65  C   UNL A   1      45.061  30.635  28.551  1.00  0.00     0.148 A 
ATOM     66  C   UNL A   1      47.802  31.017  28.091  1.00  0.00     0.002 A 
ATOM     67  C   UNL A   1      45.491  31.471  27.526  1.00  0.00     0.091 A 
ATOM     68  F   UNL A   1      43.756  30.437  28.795  1.00  0.00    -0.205 F 
ATOM     69  C   UNL A   1      46.862  31.673  27.301  1.00  0.00     0.022 A 
BRANCH  67  70
ATOM     70  S   UNL A   1      44.336  32.216  26.370  1.00  0.00     0.127 S 
ATOM     71  O   UNL A   1      43.433  31.105  26.078  1.00  0.00    -0.237 OA
ATOM     72  O   UNL A   1      43.744  33.294  27.163  1.00  0.00    -0.237 OA
ATOM     73  O   UNL A   1      45.145  32.682  25.249  1.00  0.00    -0.744 OA
ENDBRANCH  67  70
ENDBRANCH  40  63
ENDBRANCH  14  15
ENDBRANCH   7   9
ENDBRANCH   4   5
ENDBRANCH   3   4
ENDBRANCH   2   3
ENDBRANCH   1   2
BRANCH   1  74
ATOM     74  C   UNL A   1      33.123  28.940  23.438  1.00  0.00     0.021 C 
BRANCH  74  75
ATOM     75  C   UNL A   1      33.974  27.727  23.079  1.00  0.00     0.116 C 
BRANCH  75  76
ATOM     76  N   UNL A   1      33.437  26.997  21.942  1.00  0.00    -0.352 N 
ATOM     77  C   UNL A   1      32.296  26.240  21.864  1.00  0.00     0.254 C 
ATOM     78  H   UNL A   1      33.966  27.052  21.114  1.00  0.00     0.163 HD
ATOM     79  O   UNL A   1      32.039  25.592  20.853  1.00  0.00    -0.269 OA
BRANCH  77  80
ATOM     80  C   UNL A   1      31.398  26.136  23.025  1.00  0.00     0.076 A 
ATOM     81  C   UNL A   1      31.673  25.165  23.991  1.00  0.00     0.038 A 
ATOM     82  C   UNL A   1      30.280  26.955  23.168  1.00  0.00     0.136 A 
ATOM     83  C   UNL A   1      30.866  25.081  25.132  1.00  0.00     0.085 A 
ATOM     84  C   UNL A   1      29.496  26.892  24.318  1.00  0.00     0.041 A 
ATOM     85  F   UNL A   1      29.946  27.837  22.216  1.00  0.00    -0.206 F 
ATOM     86  C   UNL A   1      29.801  25.968  25.320  1.00  0.00     0.025 A 
BRANCH  83  87
ATOM     87  S   UNL A   1      31.187  23.735  26.236  1.00  0.00     0.257 S 
ATOM     88  O   UNL A   1      31.500  24.318  27.527  1.00  0.00    -0.205 OA
ATOM     89  O   UNL A   1      30.126  22.775  26.061  1.00  0.00    -0.205 OA
BRANCH  87  90
ATOM     90  N   UNL A   1      32.609  23.005  25.676  1.00  0.00    -0.123 NA
ATOM     91  H   UNL A   1      32.685  23.233  24.685  1.00  0.00     0.167 HD
BRANCH  90  92
ATOM     92  N   UNL A   1      33.880  23.332  26.277  1.00  0.00    -0.275 N 
ATOM     93  C   UNL A   1      35.106  23.169  25.681  1.00  0.00     0.265 C 
ATOM     94  H   UNL A   1      33.867  23.701  27.189  1.00  0.00     0.186 HD
ATOM     95  O   UNL A   1      36.094  23.657  26.241  1.00  0.00    -0.271 OA
BRANCH  93  96
ATOM     96  C   UNL A   1      35.280  22.234  24.485  1.00  0.00     0.244 C 
ATOM     97  C   UNL A   1      35.367  20.836  24.975  1.00  0.00     0.042 C 
ATOM     98  N   UNL A   1      34.090  22.194  23.592  1.00  0.00    -0.171 NA
ATOM     99  C   UNL A   1      34.334  20.204  24.416  1.00  0.00     0.091 C 
ATOM    100  N   UNL A   1      33.616  21.018  23.573  1.00  0.00    -0.155 NA
BRANCH  99 101
ATOM    101  C   UNL A   1      33.959  18.818  24.691  1.00  0.00     0.002 A 
ATOM    102  C   UNL A   1      32.825  18.528  25.460  1.00  0.00     0.010 A 
ATOM    103  C   UNL A   1      34.740  17.756  24.207  1.00  0.00     0.010 A 
ATOM    104  C   UNL A   1      32.469  17.203  25.723  1.00  0.00     0.001 A 
ATOM    105  C   UNL A   1      34.390  16.433  24.482  1.00  0.00     0.001 A 
ATOM    106  C   UNL A   1      33.252  16.157  25.236  1.00  0.00     0.000 A 
ENDBRANCH  99 101
ENDBRANCH  93  96
ENDBRANCH  90  92
ENDBRANCH  87  90
ENDBRANCH  83  87
ENDBRANCH  77  80
ENDBRANCH  75  76
ENDBRANCH  74  75
ENDBRANCH   1  74
TORSDOF 21
ENDMDL
MODEL 2
REMARK VINA RESULT:     -12.5      1.693      2.099
REMARK SMILES O=C(NCCCCCCNC(=O)c1cc(S(=O)(=O)NNC(=O)[C@H]2C=C(c3ccccc3)N=N2)ccc1F)c1ccc(-c2c3nc(c(-c4cccc(S(=O)(=O)[O-])c4F)c4ccc([nH]4)c(-c4cccc(S(=O)(=O)[O-])c4F)c4nc(c(-c5cccc(S(=O)(=O)[O-])c5F)c5ccc2[nH]5)C=C4)C=C3)cc1
REMARK SMILES IDX 7 1 6 2 5 3 4 4 3 5 1 6 2 7 38 9 39 10 100 11 40 12 99 13
REMARK SMILES IDX 41 14 42 15 43 16 93 17 44 18 98 19 92 20 94 21 45 22 97 23
REMARK SMILES IDX 91 24 90 25 46 27 78 28 58 29 77 30 59 31 62 32 76 33 95 34
REMARK SMILES IDX 60 35 61 36 75 38 96 39 63 40 47 41 48 42 56 43 49 44 51 45
REMARK SMILES IDX 57 46 50 47 52 48 53 49 54 50 55 51 79 52 80 53 88 54 81 55
REMARK SMILES IDX 83 56 89 57 82 58 84 59 85 60 86 61 87 62 64 63 65 64 73 65
REMARK SMILES IDX 66 66 68 67 74 68 67 69 69 70 70 71 71 72 72 73 8 74 9 75
REMARK SMILES IDX 10 76 11 77 12 79 13 80 14 81 36 82 15 83 35 84 37 85 34 86
REMARK SMILES IDX 16 87 17 88 18 89 19 90 20 92 21 93 22 95 23 96 24 97 33 98
REMARK SMILES IDX 25 99 32 100 26 101 27 102 31 103 28 104 30 105 29 106
REMARK H PARENT 3 8 94 26 62 37 10 78 19 91 20 94
REMARK Flexibility Score: inf
ROOT
ATOM      1  C   UNL A   1      30.892  30.250  24.656  1.00  0.00     0.002 C 
ENDROOT
BRANCH   1   2
ATOM      2  C   UNL A   1      31.856  29.637  25.678  1.00  0.00     0.002 C 
BRANCH   2   3
ATOM      3  C   UNL A   1      32.152  30.493  26.916  1.00  0.00     0.021 C 
BRANCH   3   4
ATOM      4  C   UNL A   1      33.618  30.508  27.346  1.00  0.00     0.116 C 
BRANCH   4   5
ATOM      5  N   UNL A   1      34.100  31.815  27.737  1.00  0.00    -0.352 N 
ATOM      6  O   UNL A   1      35.336  33.512  28.418  1.00  0.00    -0.269 OA
ATOM      7  C   UNL A   1      35.301  32.303  28.176  1.00  0.00     0.251 C 
ATOM      8  H   UNL A   1      33.407  32.511  27.672  1.00  0.00     0.163 HD
BRANCH   7   9
ATOM      9  C   UNL A   1      36.524  31.483  28.403  1.00  0.00     0.039 A 
ATOM     10  C   UNL A   1      36.749  30.210  27.879  1.00  0.00     0.014 A 
ATOM     11  C   UNL A   1      37.543  32.079  29.170  1.00  0.00     0.014 A 
ATOM     12  C   UNL A   1      37.936  29.529  28.148  1.00  0.00     0.010 A 
ATOM     13  C   UNL A   1      38.743  31.414  29.419  1.00  0.00     0.010 A 
ATOM     14  C   UNL A   1      38.936  30.128  28.916  1.00  0.00    -0.014 A 
BRANCH  14  15
ATOM     15  C   UNL A   1      40.202  29.407  29.057  1.00  0.00     0.031 A 
ATOM     16  C   UNL A   1      40.679  29.156  30.452  1.00  0.00     0.074 A 
ATOM     17  C   UNL A   1      40.862  28.830  28.035  1.00  0.00     0.049 A 
ATOM     18  N   UNL A   1      41.810  29.490  30.991  1.00  0.00    -0.248 NA
ATOM     19  C   UNL A   1      39.757  28.472  31.370  1.00  0.00     0.031 C 
ATOM     20  C   UNL A   1      40.387  28.630  26.665  1.00  0.00     0.029 A 
ATOM     21  N   UNL A   1      42.055  28.161  28.061  1.00  0.00    -0.354 N 
ATOM     22  C   UNL A   1      41.820  28.904  32.261  1.00  0.00     0.074 A 
ATOM     23  C   UNL A   1      40.495  28.383  32.477  1.00  0.00     0.031 C 
ATOM     24  C   UNL A   1      41.149  27.683  26.075  1.00  0.00     0.029 A 
ATOM     25  C   UNL A   1      42.236  27.324  26.971  1.00  0.00     0.049 A 
ATOM     26  H   UNL A   1      42.718  28.264  28.782  1.00  0.00     0.167 HD
ATOM     27  C   UNL A   1      42.960  28.743  32.989  1.00  0.00     0.034 A 
ATOM     28  C   UNL A   1      43.158  26.342  26.852  1.00  0.00     0.034 A 
ATOM     29  C   UNL A   1      44.045  29.541  32.490  1.00  0.00     0.049 A 
ATOM     30  C   UNL A   1      44.243  26.597  27.824  1.00  0.00     0.074 A 
ATOM     31  C   UNL A   1      44.299  30.886  32.326  1.00  0.00     0.029 A 
ATOM     32  N   UNL A   1      45.047  28.882  31.825  1.00  0.00    -0.354 N 
ATOM     33  N   UNL A   1      45.093  27.582  27.743  1.00  0.00    -0.248 NA
ATOM     34  C   UNL A   1      44.235  25.880  29.089  1.00  0.00     0.031 C 
ATOM     35  C   UNL A   1      45.191  30.966  31.217  1.00  0.00     0.029 A 
ATOM     36  C   UNL A   1      45.413  29.663  30.765  1.00  0.00     0.049 A 
ATOM     37  H   UNL A   1      45.431  28.008  32.066  1.00  0.00     0.167 HD
ATOM     38  C   UNL A   1      45.426  27.867  29.058  1.00  0.00     0.074 A 
ATOM     39  C   UNL A   1      45.005  26.693  29.814  1.00  0.00     0.031 C 
ATOM     40  C   UNL A   1      45.732  29.139  29.453  1.00  0.00     0.034 A 
BRANCH  27  41
ATOM     41  C   UNL A   1      43.219  27.655  34.011  1.00  0.00     0.023 A 
ATOM     42  C   UNL A   1      43.307  28.045  35.371  1.00  0.00     0.012 A 
ATOM     43  C   UNL A   1      43.644  26.345  33.700  1.00  0.00     0.148 A 
ATOM     44  C   UNL A   1      43.840  27.204  36.353  1.00  0.00     0.002 A 
ATOM     45  C   UNL A   1      44.093  25.481  34.697  1.00  0.00     0.091 A 
ATOM     46  F   UNL A   1      43.741  25.957  32.423  1.00  0.00    -0.205 F 
ATOM     47  C   UNL A   1      44.225  25.914  36.018  1.00  0.00     0.022 A 
BRANCH  45  48
ATOM     48  S   UNL A   1      44.516  23.777  34.317  1.00  0.00     0.127 S 
ATOM     49  O   UNL A   1      45.767  23.938  33.584  1.00  0.00    -0.237 OA
ATOM     50  O   UNL A   1      44.652  23.185  35.649  1.00  0.00    -0.237 OA
ATOM     51  O   UNL A   1      43.373  23.275  33.562  1.00  0.00    -0.744 OA
ENDBRANCH  45  48
ENDBRANCH  27  41
BRANCH  28  52
ATOM     52  C   UNL A   1      43.081  25.073  26.094  1.00  0.00     0.023 A 
ATOM     53  C   UNL A   1      44.027  24.811  25.085  1.00  0.00     0.012 A 
ATOM     54  C   UNL A   1      42.251  24.014  26.526  1.00  0.00     0.148 A 
ATOM     55  C   UNL A   1      44.161  23.529  24.540  1.00  0.00     0.002 A 
ATOM     56  C   UNL A   1      42.377  22.745  25.969  1.00  0.00     0.091 A 
ATOM     57  F   UNL A   1      41.407  24.226  27.545  1.00  0.00    -0.205 F 
ATOM     58  C   UNL A   1      43.340  22.496  24.984  1.00  0.00     0.022 A 
BRANCH  56  59
ATOM     59  S   UNL A   1      41.350  21.369  26.500  1.00  0.00     0.127 S 
ATOM     60  O   UNL A   1      41.712  21.243  27.913  1.00  0.00    -0.237 OA
ATOM     61  O   UNL A   1      40.005  21.883  26.257  1.00  0.00    -0.237 OA
ATOM     62  O   UNL A   1      41.761  20.237  25.679  1.00  0.00    -0.744 OA
ENDBRANCH  56  59
ENDBRANCH  28  52
BRANCH  40  63
ATOM     63  C   UNL A   1      46.059  30.167  28.397  1.00  0.00     0.023 A 
ATOM     64  C   UNL A   1      45.054  30.958  27.804  1.00  0.00     0.012 A 
ATOM     65  C   UNL A   1      47.407  30.489  28.155  1.00  0.00     0.148 A 
ATOM     66  C   UNL A   1      45.381  32.027  26.970  1.00  0.00     0.002 A 
ATOM     67  C   UNL A   1      47.730  31.590  27.369  1.00  0.00     0.091 A 
ATOM     68  F   UNL A   1      48.357  29.736  28.732  1.00  0.00    -0.205 F 
ATOM     69  C   UNL A   1      46.719  32.354  26.765  1.00  0.00     0.022 A 
BRANCH  67  70
ATOM     70  S   UNL A   1      49.424  32.163  27.198  1.00  0.00     0.127 S 
ATOM     71  O   UNL A   1      49.249  33.439  26.509  1.00  0.00    -0.237 OA
ATOM     72  O   UNL A   1      49.863  32.275  28.591  1.00  0.00    -0.237 OA
ATOM     73  O   UNL A   1      50.118  31.127  26.442  1.00  0.00    -0.744 OA
ENDBRANCH  67  70
ENDBRANCH  40  63
ENDBRANCH  14  15
ENDBRANCH   7   9
ENDBRANCH   4   5
ENDBRANCH   3   4
ENDBRANCH   2   3
ENDBRANCH   1   2
BRANCH   1  74
ATOM     74  C   UNL A   1      30.086  29.251  23.823  1.00  0.00     0.021 C 
BRANCH  74  75
ATOM     75  C   UNL A   1      30.576  29.065  22.391  1.00  0.00     0.116 C 
BRANCH  75  76
ATOM     76  N   UNL A   1      32.016  29.224  22.278  1.00  0.00    -0.352 N 
ATOM     77  C   UNL A   1      33.002  28.281  22.419  1.00  0.00     0.254 C 
ATOM     78  H   UNL A   1      32.328  30.135  22.071  1.00  0.00     0.163 HD
ATOM     79  O   UNL A   1      34.187  28.603  22.402  1.00  0.00    -0.269 OA
BRANCH  77  80
ATOM     80  C   UNL A   1      32.649  26.875  22.671  1.00  0.00     0.076 A 
ATOM     81  C   UNL A   1      32.369  26.486  23.983  1.00  0.00     0.038 A 
ATOM     82  C   UNL A   1      32.612  25.930  21.648  1.00  0.00     0.136 A 
ATOM     83  C   UNL A   1      31.978  25.167  24.242  1.00  0.00     0.085 A 
ATOM     84  C   UNL A   1      32.192  24.626  21.900  1.00  0.00     0.041 A 
ATOM     85  F   UNL A   1      32.957  26.258  20.395  1.00  0.00    -0.206 F 
ATOM     86  C   UNL A   1      31.848  24.244  23.199  1.00  0.00     0.025 A 
BRANCH  83  87
ATOM     87  S   UNL A   1      31.783  24.713  25.942  1.00  0.00     0.257 S 
ATOM     88  O   UNL A   1      31.193  25.854  26.615  1.00  0.00    -0.205 OA
ATOM     89  O   UNL A   1      31.180  23.404  25.969  1.00  0.00    -0.205 OA
BRANCH  87  90
ATOM     90  N   UNL A   1      33.352  24.544  26.558  1.00  0.00    -0.123 NA
ATOM     91  H   UNL A   1      33.413  23.606  26.955  1.00  0.00     0.167 HD
BRANCH  90  92
ATOM     92  N   UNL A   1      34.495  24.702  25.690  1.00  0.00    -0.275 N 
ATOM     93  C   UNL A   1      35.346  23.696  25.306  1.00  0.00     0.265 C 
ATOM     94  H   UNL A   1      34.680  25.606  25.347  1.00  0.00     0.186 HD
ATOM     95  O   UNL A   1      36.173  23.940  24.419  1.00  0.00    -0.271 OA
BRANCH  93  96
ATOM     96  C   UNL A   1      35.421  22.387  26.091  1.00  0.00     0.244 C 
ATOM     97  C   UNL A   1      34.330  21.490  25.635  1.00  0.00     0.042 C 
ATOM     98  N   UNL A   1      36.644  21.593  25.792  1.00  0.00    -0.171 NA
ATOM     99  C   UNL A   1      34.944  20.410  25.150  1.00  0.00     0.091 C 
ATOM    100  N   UNL A   1      36.311  20.478  25.289  1.00  0.00    -0.155 NA
BRANCH  99 101
ATOM    101  C   UNL A   1      34.268  19.290  24.497  1.00  0.00     0.002 A 
ATOM    102  C   UNL A   1      34.918  18.060  24.344  1.00  0.00     0.010 A 
ATOM    103  C   UNL A   1      32.966  19.437  23.993  1.00  0.00     0.010 A 
ATOM    104  C   UNL A   1      34.271  16.991  23.717  1.00  0.00     0.001 A 
ATOM    105  C   UNL A   1      32.325  18.373  23.356  1.00  0.00     0.001 A 
ATOM    106  C   UNL A   1      32.977  17.148  23.223  1.00  0.00     0.000 A 
ENDBRANCH  99 101
ENDBRANCH  93  96
ENDBRANCH  90  92
ENDBRANCH  87  90
ENDBRANCH  83  87
ENDBRANCH  77  80
ENDBRANCH  75  76
ENDBRANCH  74  75
ENDBRANCH   1  74
TORSDOF 21
ENDMDL
MODEL 3
REMARK VINA RESULT:     -12.1      1.699      2.599
REMARK SMILES O=C(NCCCCCCNC(=O)c1cc(S(=O)(=O)NNC(=O)[C@H]2C=C(c3ccccc3)N=N2)ccc1F)c1ccc(-c2c3nc(c(-c4cccc(S(=O)(=O)[O-])c4F)c4ccc([nH]4)c(-c4cccc(S(=O)(=O)[O-])c4F)c4nc(c(-c5cccc(S(=O)(=O)[O-])c5F)c5ccc2[nH]5)C=C4)C=C3)cc1
REMARK SMILES IDX 7 1 6 2 5 3 4 4 3 5 1 6 2 7 38 9 39 10 100 11 40 12 99 13
REMARK SMILES IDX 41 14 42 15 43 16 93 17 44 18 98 19 92 20 94 21 45 22 97 23
REMARK SMILES IDX 91 24 90 25 46 27 78 28 58 29 77 30 59 31 62 32 76 33 95 34
REMARK SMILES IDX 60 35 61 36 75 38 96 39 63 40 47 41 48 42 56 43 49 44 51 45
REMARK SMILES IDX 57 46 50 47 52 48 53 49 54 50 55 51 79 52 80 53 88 54 81 55
REMARK SMILES IDX 83 56 89 57 82 58 84 59 85 60 86 61 87 62 64 63 65 64 73 65
REMARK SMILES IDX 66 66 68 67 74 68 67 69 69 70 70 71 71 72 72 73 8 74 9 75
REMARK SMILES IDX 10 76 11 77 12 79 13 80 14 81 36 82 15 83 35 84 37 85 34 86
REMARK SMILES IDX 16 87 17 88 18 89 19 90 20 92 21 93 22 95 23 96 24 97 33 98
REMARK SMILES IDX 25 99 32 100 26 101 27 102 31 103 28 104 30 105 29 106
REMARK H PARENT 3 8 94 26 62 37 10 78 19 91 20 94
REMARK Flexibility Score: inf
ROOT
ATOM      1  C   UNL A   1      33.096  28.474  25.231  1.00  0.00     0.002 C 
ENDROOT
BRANCH   1   2
ATOM      2  C   UNL A   1      32.111  29.395  25.961  1.00  0.00     0.002 C 
BRANCH   2   3
ATOM      3  C   UNL A   1      32.646  30.080  27.225  1.00  0.00     0.021 C 
BRANCH   3   4
ATOM      4  C   UNL A   1      34.160  30.277  27.251  1.00  0.00     0.116 C 
BRANCH   4   5
ATOM      5  N   UNL A   1      34.569  31.630  27.561  1.00  0.00    -0.352 N 
ATOM      6  O   UNL A   1      35.685  33.422  28.205  1.00  0.00    -0.269 OA
ATOM      7  C   UNL A   1      35.700  32.195  28.084  1.00  0.00     0.251 C 
ATOM      8  H   UNL A   1      33.876  32.296  27.345  1.00  0.00     0.163 HD
BRANCH   7   9
ATOM      9  C   UNL A   1      36.903  31.438  28.535  1.00  0.00     0.039 A 
ATOM     10  C   UNL A   1      37.176  30.105  28.229  1.00  0.00     0.014 A 
ATOM     11  C   UNL A   1      37.849  32.160  29.286  1.00  0.00     0.014 A 
ATOM     12  C   UNL A   1      38.338  29.492  28.697  1.00  0.00     0.010 A 
ATOM     13  C   UNL A   1      39.026  31.559  29.734  1.00  0.00     0.010 A 
ATOM     14  C   UNL A   1      39.266  30.215  29.448  1.00  0.00    -0.014 A 
BRANCH  14  15
ATOM     15  C   UNL A   1      40.517  29.545  29.802  1.00  0.00     0.031 A 
ATOM     16  C   UNL A   1      40.914  29.583  31.243  1.00  0.00     0.074 A 
ATOM     17  C   UNL A   1      41.230  28.777  28.956  1.00  0.00     0.049 A 
ATOM     18  N   UNL A   1      42.016  30.025  31.766  1.00  0.00    -0.248 NA
ATOM     19  C   UNL A   1      39.939  29.094  32.228  1.00  0.00     0.031 C 
ATOM     20  C   UNL A   1      40.832  28.301  27.630  1.00  0.00     0.029 A 
ATOM     21  N   UNL A   1      42.416  28.133  29.183  1.00  0.00    -0.354 N 
ATOM     22  C   UNL A   1      41.952  29.707  33.127  1.00  0.00     0.074 A 
ATOM     23  C   UNL A   1      40.613  29.234  33.369  1.00  0.00     0.031 C 
ATOM     24  C   UNL A   1      41.619  27.258  27.287  1.00  0.00     0.029 A 
ATOM     25  C   UNL A   1      42.652  27.093  28.297  1.00  0.00     0.049 A 
ATOM     26  H   UNL A   1      43.038  28.382  29.904  1.00  0.00     0.167 HD
ATOM     27  C   UNL A   1      43.047  29.704  33.935  1.00  0.00     0.034 A 
ATOM     28  C   UNL A   1      43.574  26.112  28.431  1.00  0.00     0.034 A 
ATOM     29  C   UNL A   1      44.163  30.390  33.347  1.00  0.00     0.049 A 
ATOM     30  C   UNL A   1      44.604  26.565  29.390  1.00  0.00     0.074 A 
ATOM     31  C   UNL A   1      44.435  31.675  32.929  1.00  0.00     0.029 A 
ATOM     32  N   UNL A   1      45.197  29.615  32.885  1.00  0.00    -0.354 N 
ATOM     33  N   UNL A   1      45.463  27.517  29.160  1.00  0.00    -0.248 NA
ATOM     34  C   UNL A   1      44.521  26.117  30.771  1.00  0.00     0.031 C 
ATOM     35  C   UNL A   1      45.387  31.534  31.878  1.00  0.00     0.029 A 
ATOM     36  C   UNL A   1      45.627  30.168  31.711  1.00  0.00     0.049 A 
ATOM     37  H   UNL A   1      45.562  28.810  33.320  1.00  0.00     0.167 HD
ATOM     38  C   UNL A   1      45.724  28.064  30.407  1.00  0.00     0.074 A 
ATOM     39  C   UNL A   1      45.254  27.064  31.359  1.00  0.00     0.031 C 
ATOM     40  C   UNL A   1      46.016  29.391  30.552  1.00  0.00     0.034 A 
BRANCH  27  41
ATOM     41  C   UNL A   1      43.243  28.845  35.169  1.00  0.00     0.023 A 
ATOM     42  C   UNL A   1      43.719  29.487  36.340  1.00  0.00     0.012 A 
ATOM     43  C   UNL A   1      43.248  27.434  35.173  1.00  0.00     0.148 A 
ATOM     44  C   UNL A   1      44.226  28.767  37.428  1.00  0.00     0.002 A 
ATOM     45  C   UNL A   1      43.673  26.722  36.294  1.00  0.00     0.091 A 
ATOM     46  F   UNL A   1      42.965  26.759  34.054  1.00  0.00    -0.205 F 
ATOM     47  C   UNL A   1      44.194  27.380  37.409  1.00  0.00     0.022 A 
BRANCH  45  48
ATOM     48  S   UNL A   1      43.563  24.929  36.342  1.00  0.00     0.127 S 
ATOM     49  O   UNL A   1      44.413  24.550  35.219  1.00  0.00    -0.237 OA
ATOM     50  O   UNL A   1      44.111  24.619  37.664  1.00  0.00    -0.237 OA
ATOM     51  O   UNL A   1      42.139  24.645  36.212  1.00  0.00    -0.744 OA
ENDBRANCH  45  48
ENDBRANCH  27  41
BRANCH  28  52
ATOM     52  C   UNL A   1      43.531  24.716  27.942  1.00  0.00     0.023 A 
ATOM     53  C   UNL A   1      42.489  23.867  28.363  1.00  0.00     0.012 A 
ATOM     54  C   UNL A   1      44.350  24.291  26.872  1.00  0.00     0.148 A 
ATOM     55  C   UNL A   1      42.254  22.646  27.724  1.00  0.00     0.002 A 
ATOM     56  C   UNL A   1      44.122  23.068  26.250  1.00  0.00     0.091 A 
ATOM     57  F   UNL A   1      45.288  25.125  26.404  1.00  0.00    -0.205 F 
ATOM     58  C   UNL A   1      43.066  22.247  26.666  1.00  0.00     0.022 A 
BRANCH  56  59
ATOM     59  S   UNL A   1      45.133  22.497  24.878  1.00  0.00     0.127 S 
ATOM     60  O   UNL A   1      44.328  21.399  24.339  1.00  0.00    -0.237 OA
ATOM     61  O   UNL A   1      45.192  23.685  24.031  1.00  0.00    -0.237 OA
ATOM     62  O   UNL A   1      46.394  22.072  25.473  1.00  0.00    -0.744 OA
ENDBRANCH  56  59
ENDBRANCH  28  52
BRANCH  40  63
ATOM     63  C   UNL A   1      46.407  30.186  29.331  1.00  0.00     0.023 A 
ATOM     64  C   UNL A   1      47.706  30.112  28.790  1.00  0.00     0.012 A 
ATOM     65  C   UNL A   1      45.402  30.844  28.597  1.00  0.00     0.148 A 
ATOM     66  C   UNL A   1      48.006  30.701  27.561  1.00  0.00     0.002 A 
ATOM     67  C   UNL A   1      45.691  31.382  27.347  1.00  0.00     0.091 A 
ATOM     68  F   UNL A   1      44.166  30.902  29.117  1.00  0.00    -0.205 F 
ATOM     69  C   UNL A   1      46.996  31.322  26.832  1.00  0.00     0.022 A 
BRANCH  67  70
ATOM     70  S   UNL A   1      44.404  32.048  26.286  1.00  0.00     0.127 S 
ATOM     71  O   UNL A   1      43.493  30.913  26.159  1.00  0.00    -0.237 OA
ATOM     72  O   UNL A   1      43.885  33.164  27.079  1.00  0.00    -0.237 OA
ATOM     73  O   UNL A   1      45.076  32.458  25.059  1.00  0.00    -0.744 OA
ENDBRANCH  67  70
ENDBRANCH  40  63
ENDBRANCH  14  15
ENDBRANCH   7   9
ENDBRANCH   4   5
ENDBRANCH   3   4
ENDBRANCH   2   3
ENDBRANCH   1   2
BRANCH   1  74
ATOM     74  C   UNL A   1      33.230  28.706  23.724  1.00  0.00     0.021 C 
BRANCH  74  75
ATOM     75  C   UNL A   1      33.936  27.590  22.962  1.00  0.00     0.116 C 
BRANCH  75  76
ATOM     76  N   UNL A   1      33.146  27.105  21.842  1.00  0.00    -0.352 N 
ATOM     77  C   UNL A   1      31.955  26.425  21.856  1.00  0.00     0.254 C 
ATOM     78  H   UNL A   1      33.517  27.290  20.949  1.00  0.00     0.163 HD
ATOM     79  O   UNL A   1      31.469  25.986  20.818  1.00  0.00    -0.269 OA
BRANCH  77  80
ATOM     80  C   UNL A   1      31.280  26.146  23.134  1.00  0.00     0.076 A 
ATOM     81  C   UNL A   1      31.802  25.144  23.955  1.00  0.00     0.038 A 
ATOM     82  C   UNL A   1      30.132  26.831  23.526  1.00  0.00     0.136 A 
ATOM     83  C   UNL A   1      31.211  24.895  25.199  1.00  0.00     0.085 A 
ATOM     84  C   UNL A   1      29.562  26.606  24.777  1.00  0.00     0.041 A 
ATOM     85  F   UNL A   1      29.563  27.738  22.719  1.00  0.00    -0.206 F 
ATOM     86  C   UNL A   1      30.116  25.651  25.633  1.00  0.00     0.025 A 
BRANCH  83  87
ATOM     87  S   UNL A   1      31.835  23.516  26.117  1.00  0.00     0.257 S 
ATOM     88  O   UNL A   1      33.193  23.851  26.503  1.00  0.00    -0.205 OA
ATOM     89  O   UNL A   1      30.827  23.151  27.080  1.00  0.00    -0.205 OA
BRANCH  87  90
ATOM     90  N   UNL A   1      31.946  22.237  25.011  1.00  0.00    -0.123 NA
ATOM     91  H   UNL A   1      32.870  22.298  24.583  1.00  0.00     0.167 HD
BRANCH  90  92
ATOM     92  N   UNL A   1      31.783  20.874  25.458  1.00  0.00    -0.275 N 
ATOM     93  C   UNL A   1      32.736  19.890  25.369  1.00  0.00     0.265 C 
ATOM     94  H   UNL A   1      30.918  20.630  25.858  1.00  0.00     0.186 HD
ATOM     95  O   UNL A   1      32.524  18.820  25.953  1.00  0.00    -0.271 OA
BRANCH  93  96
ATOM     96  C   UNL A   1      33.917  20.023  24.408  1.00  0.00     0.244 C 
ATOM     97  C   UNL A   1      34.649  21.277  24.717  1.00  0.00     0.042 C 
ATOM     98  N   UNL A   1      34.958  18.979  24.609  1.00  0.00    -0.171 NA
ATOM     99  C   UNL A   1      35.880  20.890  25.053  1.00  0.00     0.091 C 
ATOM    100  N   UNL A   1      36.049  19.530  24.945  1.00  0.00    -0.155 NA
BRANCH  99 101
ATOM    101  C   UNL A   1      36.933  21.785  25.531  1.00  0.00     0.002 A 
ATOM    102  C   UNL A   1      36.657  23.135  25.781  1.00  0.00     0.010 A 
ATOM    103  C   UNL A   1      38.240  21.312  25.726  1.00  0.00     0.010 A 
ATOM    104  C   UNL A   1      37.665  23.990  26.236  1.00  0.00     0.001 A 
ATOM    105  C   UNL A   1      39.248  22.170  26.168  1.00  0.00     0.001 A 
ATOM    106  C   UNL A   1      38.959  23.508  26.428  1.00  0.00     0.000 A 
ENDBRANCH  99 101
ENDBRANCH  93  96
ENDBRANCH  90  92
ENDBRANCH  87  90
ENDBRANCH  83  87
ENDBRANCH  77  80
ENDBRANCH  75  76
ENDBRANCH  74  75
ENDBRANCH   1  74
TORSDOF 21
ENDMDL
