MODEL 1
REMARK VINA RESULT:     -12.6      0.000      0.000
REMARK SMILES Cc1c(C(=O)NCCCCCCNC(=O)c2ccc(-c3c4nc(c(-c5cccc(S(=O)(=O)[O-])c5F)c5ccc([nH]5)c(-c5cccc(S(=O)(=O)[O-])c5F)c5nc(c(-c6cccc(S(=O)(=O)[O-])c6F)c6ccc3[nH]6)C=C5)C=C4)cc2)cccc1-n1c(C)cc(/C=C2/C(=O)NC(=S)N=C2O)c1C
REMARK SMILES IDX 9 1 8 2 7 3 6 4 4 5 5 6 3 8 1 9 2 10 82 11 79 12 81 13 80 14
REMARK SMILES IDX 83 15 84 16 98 17 85 18 86 19 87 20 99 21 88 22 89 23 90 24
REMARK SMILES IDX 96 25 91 26 92 27 95 28 93 29 94 31 97 32 10 34 11 35 12 36
REMARK SMILES IDX 13 37 14 38 15 40 16 41 17 42 78 43 18 44 77 45 19 46 20 47
REMARK SMILES IDX 21 48 71 49 22 50 76 51 70 52 72 53 23 54 75 55 69 56 68 57
REMARK SMILES IDX 24 59 56 60 36 61 55 62 37 63 40 64 54 65 73 66 38 67 39 68
REMARK SMILES IDX 53 70 74 71 41 72 25 73 26 74 34 75 27 76 29 77 35 78 28 79
REMARK SMILES IDX 30 80 31 81 32 82 33 83 57 84 58 85 66 86 59 87 61 88 67 89
REMARK SMILES IDX 60 90 62 91 63 92 64 93 65 94 42 95 43 96 51 97 44 98 46 99
REMARK SMILES IDX 52 100 45 101 47 102 48 103 49 104 50 105
REMARK H PARENT 6 7 92 30 97 33 13 39 72 58 40 69
REMARK Flexibility Score: inf
ROOT
ATOM      1  C   UNL A   1      31.012  31.277  26.147  1.00  0.00     0.002 C 
ENDROOT
BRANCH   1   2
ATOM      2  C   UNL A   1      30.540  32.073  24.925  1.00  0.00     0.021 C 
BRANCH   2   3
ATOM      3  C   UNL A   1      29.112  31.741  24.458  1.00  0.00     0.116 C 
BRANCH   3   4
ATOM      4  N   UNL A   1      29.114  31.329  23.073  1.00  0.00    -0.352 N 
ATOM      5  C   UNL A   1      29.322  30.177  22.375  1.00  0.00     0.251 C 
ATOM      6  O   UNL A   1      29.121  30.288  21.159  1.00  0.00    -0.269 OA
ATOM      7  H   UNL A   1      28.912  32.083  22.472  1.00  0.00     0.163 HD
BRANCH   5   8
ATOM      8  C   UNL A   1      29.700  28.817  22.900  1.00  0.00     0.044 A 
ATOM      9  C   UNL A   1      32.234  28.785  22.440  1.00  0.00     0.047 C 
ATOM     10  C   UNL A   1      30.958  28.175  22.942  1.00  0.00    -0.014 A 
ATOM     11  C   UNL A   1      31.003  26.835  23.426  1.00  0.00     0.049 A 
ATOM     12  C   UNL A   1      28.556  28.053  23.265  1.00  0.00     0.014 A 
ATOM     13  C   UNL A   1      29.858  26.108  23.767  1.00  0.00     0.027 A 
ATOM     14  C   UNL A   1      28.625  26.720  23.672  1.00  0.00     0.003 A 
BRANCH  11  15
ATOM     15  N   UNL A   1      32.215  26.104  23.416  1.00  0.00    -0.318 N 
ATOM     16  C   UNL A   1      32.782  25.502  22.310  1.00  0.00     0.020 A 
ATOM     17  C   UNL A   1      32.960  25.800  24.550  1.00  0.00     0.027 A 
ATOM     18  C   UNL A   1      32.145  25.471  20.965  1.00  0.00     0.065 C 
ATOM     19  C   UNL A   1      33.976  24.946  22.722  1.00  0.00     0.031 A 
ATOM     20  C   UNL A   1      34.107  25.149  24.124  1.00  0.00    -0.003 A 
ATOM     21  C   UNL A   1      32.435  26.118  25.913  1.00  0.00     0.065 C 
BRANCH  20  22
ATOM     22  C   UNL A   1      35.170  24.574  24.889  1.00  0.00     0.029 C 
ATOM     23  C   UNL A   1      35.526  23.302  25.145  1.00  0.00     0.102 C 
ATOM     24  C   UNL A   1      36.806  23.127  25.882  1.00  0.00     0.262 C 
ATOM     25  C   UNL A   1      34.908  22.037  24.760  1.00  0.00     0.226 C 
ATOM     26  O   UNL A   1      37.306  23.992  26.589  1.00  0.00    -0.269 OA
ATOM     27  N   UNL A   1      37.370  21.890  25.720  1.00  0.00    -0.297 N 
ATOM     28  N   UNL A   1      35.463  20.881  24.745  1.00  0.00    -0.184 NA
ATOM     29  C   UNL A   1      36.774  20.794  25.142  1.00  0.00     0.203 C 
ATOM     30  H   UNL A   1      38.291  21.773  26.048  1.00  0.00     0.172 HD
ATOM     31  S   UNL A   1      37.656  19.373  25.035  1.00  0.00    -0.038 S 
BRANCH  25  32
ATOM     32  O   UNL A   1      33.604  22.070  24.471  1.00  0.00    -0.493 OA
ATOM     33  H   UNL A   1      33.214  22.862  24.155  1.00  0.00     0.295 HD
ENDBRANCH  25  32
ENDBRANCH  20  22
ENDBRANCH  11  15
ENDBRANCH   5   8
ENDBRANCH   3   4
ENDBRANCH   2   3
ENDBRANCH   1   2
BRANCH   1  34
ATOM     34  C   UNL A   1      31.842  30.024  25.841  1.00  0.00     0.002 C 
BRANCH  34  35
ATOM     35  C   UNL A   1      33.302  30.083  26.287  1.00  0.00     0.021 C 
BRANCH  35  36
ATOM     36  C   UNL A   1      33.486  30.672  27.677  1.00  0.00     0.116 C 
BRANCH  36  37
ATOM     37  N   UNL A   1      34.456  31.753  27.670  1.00  0.00    -0.352 N 
ATOM     38  C   UNL A   1      35.725  31.808  28.202  1.00  0.00     0.251 C 
ATOM     39  H   UNL A   1      34.159  32.575  27.214  1.00  0.00     0.163 HD
ATOM     40  O   UNL A   1      36.249  32.907  28.382  1.00  0.00    -0.269 OA
BRANCH  38  41
ATOM     41  C   UNL A   1      36.499  30.558  28.360  1.00  0.00     0.039 A 
ATOM     42  C   UNL A   1      36.737  30.143  29.678  1.00  0.00     0.014 A 
ATOM     43  C   UNL A   1      37.228  30.016  27.306  1.00  0.00     0.014 A 
ATOM     44  C   UNL A   1      37.887  29.423  29.975  1.00  0.00     0.010 A 
ATOM     45  C   UNL A   1      38.400  29.360  27.599  1.00  0.00     0.010 A 
ATOM     46  C   UNL A   1      38.766  29.153  28.937  1.00  0.00    -0.014 A 
BRANCH  46  47
ATOM     47  C   UNL A   1      40.135  28.711  29.116  1.00  0.00     0.031 A 
ATOM     48  C   UNL A   1      40.469  27.290  28.950  1.00  0.00     0.074 A 
ATOM     49  C   UNL A   1      41.090  29.667  29.128  1.00  0.00     0.049 A 
ATOM     50  N   UNL A   1      41.634  26.791  29.180  1.00  0.00    -0.248 NA
ATOM     51  C   UNL A   1      39.476  26.296  28.559  1.00  0.00     0.031 C 
ATOM     52  C   UNL A   1      42.483  29.528  28.731  1.00  0.00     0.029 A 
ATOM     53  N   UNL A   1      41.020  30.944  29.699  1.00  0.00    -0.354 N 
ATOM     54  C   UNL A   1      41.635  25.522  28.647  1.00  0.00     0.074 A 
ATOM     55  C   UNL A   1      40.245  25.211  28.440  1.00  0.00     0.031 C 
ATOM     56  C   UNL A   1      43.190  30.528  29.280  1.00  0.00     0.029 A 
ATOM     57  C   UNL A   1      42.304  31.210  30.208  1.00  0.00     0.049 A 
ATOM     58  H   UNL A   1      40.233  31.534  29.738  1.00  0.00     0.167 HD
ATOM     59  C   UNL A   1      42.829  24.980  28.276  1.00  0.00     0.034 A 
ATOM     60  C   UNL A   1      42.568  31.416  31.532  1.00  0.00     0.034 A 
ATOM     61  C   UNL A   1      43.945  25.771  28.823  1.00  0.00     0.049 A 
ATOM     62  C   UNL A   1      43.547  30.407  32.109  1.00  0.00     0.074 A 
ATOM     63  C   UNL A   1      44.834  26.677  28.270  1.00  0.00     0.029 A 
ATOM     64  N   UNL A   1      44.079  25.887  30.204  1.00  0.00    -0.354 N 
ATOM     65  N   UNL A   1      44.007  29.374  31.458  1.00  0.00    -0.248 NA
ATOM     66  C   UNL A   1      44.065  30.465  33.475  1.00  0.00     0.031 C 
ATOM     67  C   UNL A   1      45.410  27.429  29.336  1.00  0.00     0.029 A 
ATOM     68  C   UNL A   1      44.908  26.949  30.535  1.00  0.00     0.049 A 
ATOM     69  H   UNL A   1      43.644  25.294  30.859  1.00  0.00     0.167 HD
ATOM     70  C   UNL A   1      44.723  28.567  32.302  1.00  0.00     0.074 A 
ATOM     71  C   UNL A   1      44.807  29.344  33.528  1.00  0.00     0.031 C 
ATOM     72  C   UNL A   1      45.117  27.305  31.940  1.00  0.00     0.034 A 
BRANCH  59  73
ATOM     73  C   UNL A   1      43.025  23.893  27.221  1.00  0.00     0.023 A 
ATOM     74  C   UNL A   1      43.649  24.282  26.012  1.00  0.00     0.012 A 
ATOM     75  C   UNL A   1      42.546  22.558  27.255  1.00  0.00     0.148 A 
ATOM     76  C   UNL A   1      43.748  23.431  24.902  1.00  0.00     0.002 A 
ATOM     77  C   UNL A   1      42.670  21.696  26.159  1.00  0.00     0.091 A 
ATOM     78  F   UNL A   1      41.912  22.093  28.326  1.00  0.00    -0.205 F 
ATOM     79  C   UNL A   1      43.258  22.136  24.974  1.00  0.00     0.022 A 
BRANCH  77  80
ATOM     80  S   UNL A   1      42.060  19.997  26.185  1.00  0.00     0.127 S 
ATOM     81  O   UNL A   1      42.551  19.515  27.477  1.00  0.00    -0.237 OA
ATOM     82  O   UNL A   1      40.611  20.185  26.115  1.00  0.00    -0.237 OA
ATOM     83  O   UNL A   1      42.639  19.328  25.025  1.00  0.00    -0.744 OA
ENDBRANCH  77  80
ENDBRANCH  59  73
BRANCH  60  84
ATOM     84  C   UNL A   1      41.447  32.068  32.270  1.00  0.00     0.023 A 
ATOM     85  C   UNL A   1      41.107  33.384  31.873  1.00  0.00     0.012 A 
ATOM     86  C   UNL A   1      40.504  31.310  32.986  1.00  0.00     0.148 A 
ATOM     87  C   UNL A   1      39.818  33.882  32.066  1.00  0.00     0.002 A 
ATOM     88  C   UNL A   1      39.213  31.808  33.160  1.00  0.00     0.091 A 
ATOM     89  F   UNL A   1      40.850  30.081  33.392  1.00  0.00    -0.205 F 
ATOM     90  C   UNL A   1      38.861  33.078  32.675  1.00  0.00     0.022 A 
BRANCH  88  91
ATOM     91  S   UNL A   1      37.889  30.803  33.848  1.00  0.00     0.127 S 
ATOM     92  O   UNL A   1      38.018  31.085  35.275  1.00  0.00    -0.237 OA
ATOM     93  O   UNL A   1      36.705  31.376  33.210  1.00  0.00    -0.237 OA
ATOM     94  O   UNL A   1      38.191  29.442  33.432  1.00  0.00    -0.744 OA
ENDBRANCH  88  91
ENDBRANCH  60  84
BRANCH  72  95
ATOM     95  C   UNL A   1      45.701  26.262  32.879  1.00  0.00     0.023 A 
ATOM     96  C   UNL A   1      47.087  26.091  33.058  1.00  0.00     0.012 A 
ATOM     97  C   UNL A   1      44.857  25.516  33.745  1.00  0.00     0.148 A 
ATOM     98  C   UNL A   1      47.612  25.193  33.995  1.00  0.00     0.002 A 
ATOM     99  C   UNL A   1      45.386  24.714  34.755  1.00  0.00     0.091 A 
ATOM    100  F   UNL A   1      43.526  25.563  33.586  1.00  0.00    -0.205 F 
ATOM    101  C   UNL A   1      46.763  24.524  34.862  1.00  0.00     0.022 A 
BRANCH  99 102
ATOM    102  S   UNL A   1      44.322  24.053  36.048  1.00  0.00     0.127 S 
ATOM    103  O   UNL A   1      43.588  25.239  36.478  1.00  0.00    -0.237 OA
ATOM    104  O   UNL A   1      43.516  23.067  35.324  1.00  0.00    -0.237 OA
ATOM    105  O   UNL A   1      45.239  23.470  37.018  1.00  0.00    -0.744 OA
ENDBRANCH  99 102
ENDBRANCH  72  95
ENDBRANCH  46  47
ENDBRANCH  38  41
ENDBRANCH  36  37
ENDBRANCH  35  36
ENDBRANCH  34  35
ENDBRANCH   1  34
TORSDOF 19
ENDMDL
MODEL 2
REMARK VINA RESULT:     -12.5      3.060      4.223
REMARK SMILES Cc1c(C(=O)NCCCCCCNC(=O)c2ccc(-c3c4nc(c(-c5cccc(S(=O)(=O)[O-])c5F)c5ccc([nH]5)c(-c5cccc(S(=O)(=O)[O-])c5F)c5nc(c(-c6cccc(S(=O)(=O)[O-])c6F)c6ccc3[nH]6)C=C5)C=C4)cc2)cccc1-n1c(C)cc(/C=C2/C(=O)NC(=S)N=C2O)c1C
REMARK SMILES IDX 9 1 8 2 7 3 6 4 4 5 5 6 3 8 1 9 2 10 82 11 79 12 81 13 80 14
REMARK SMILES IDX 83 15 84 16 98 17 85 18 86 19 87 20 99 21 88 22 89 23 90 24
REMARK SMILES IDX 96 25 91 26 92 27 95 28 93 29 94 31 97 32 10 34 11 35 12 36
REMARK SMILES IDX 13 37 14 38 15 40 16 41 17 42 78 43 18 44 77 45 19 46 20 47
REMARK SMILES IDX 21 48 71 49 22 50 76 51 70 52 72 53 23 54 75 55 69 56 68 57
REMARK SMILES IDX 24 59 56 60 36 61 55 62 37 63 40 64 54 65 73 66 38 67 39 68
REMARK SMILES IDX 53 70 74 71 41 72 25 73 26 74 34 75 27 76 29 77 35 78 28 79
REMARK SMILES IDX 30 80 31 81 32 82 33 83 57 84 58 85 66 86 59 87 61 88 67 89
REMARK SMILES IDX 60 90 62 91 63 92 64 93 65 94 42 95 43 96 51 97 44 98 46 99
REMARK SMILES IDX 52 100 45 101 47 102 48 103 49 104 50 105
REMARK H PARENT 6 7 92 30 97 33 13 39 72 58 40 69
REMARK Flexibility Score: inf
ROOT
ATOM      1  C   UNL A   1      33.165  29.048  27.492  1.00  0.00     0.002 C 
ENDROOT
BRANCH   1   2
ATOM      2  C   UNL A   1      31.785  29.268  26.862  1.00  0.00     0.021 C 
BRANCH   2   3
ATOM      3  C   UNL A   1      31.744  30.361  25.779  1.00  0.00     0.116 C 
BRANCH   3   4
ATOM      4  N   UNL A   1      31.007  29.903  24.624  1.00  0.00    -0.352 N 
ATOM      5  C   UNL A   1      30.995  28.803  23.819  1.00  0.00     0.251 C 
ATOM      6  O   UNL A   1      30.090  28.813  22.974  1.00  0.00    -0.269 OA
ATOM      7  H   UNL A   1      30.332  30.563  24.342  1.00  0.00     0.163 HD
BRANCH   5   8
ATOM      8  C   UNL A   1      31.889  27.593  23.871  1.00  0.00     0.044 A 
ATOM      9  C   UNL A   1      30.157  25.692  24.017  1.00  0.00     0.047 C 
ATOM     10  C   UNL A   1      31.560  26.221  23.961  1.00  0.00    -0.014 A 
ATOM     11  C   UNL A   1      32.632  25.290  24.079  1.00  0.00     0.049 A 
ATOM     12  C   UNL A   1      33.261  27.953  23.989  1.00  0.00     0.014 A 
ATOM     13  C   UNL A   1      33.971  25.676  24.203  1.00  0.00     0.027 A 
ATOM     14  C   UNL A   1      34.283  27.020  24.171  1.00  0.00     0.003 A 
BRANCH  11  15
ATOM     15  N   UNL A   1      32.371  23.909  24.258  1.00  0.00    -0.318 N 
ATOM     16  C   UNL A   1      31.929  23.319  25.426  1.00  0.00     0.020 A 
ATOM     17  C   UNL A   1      32.625  22.930  23.304  1.00  0.00     0.027 A 
ATOM     18  C   UNL A   1      31.737  24.056  26.705  1.00  0.00     0.065 C 
ATOM     19  C   UNL A   1      31.753  21.977  25.157  1.00  0.00     0.031 A 
ATOM     20  C   UNL A   1      32.166  21.728  23.818  1.00  0.00    -0.003 A 
ATOM     21  C   UNL A   1      33.344  23.271  22.037  1.00  0.00     0.065 C 
BRANCH  20  22
ATOM     22  C   UNL A   1      32.240  20.410  23.268  1.00  0.00     0.029 C 
ATOM     23  C   UNL A   1      32.694  19.241  23.756  1.00  0.00     0.102 C 
ATOM     24  C   UNL A   1      32.454  18.049  22.900  1.00  0.00     0.262 C 
ATOM     25  C   UNL A   1      33.328  18.915  25.030  1.00  0.00     0.226 C 
ATOM     26  O   UNL A   1      32.269  18.107  21.691  1.00  0.00    -0.269 OA
ATOM     27  N   UNL A   1      32.484  16.864  23.586  1.00  0.00    -0.297 N 
ATOM     28  N   UNL A   1      33.429  17.754  25.565  1.00  0.00    -0.184 NA
ATOM     29  C   UNL A   1      32.908  16.685  24.881  1.00  0.00     0.203 C 
ATOM     30  H   UNL A   1      32.173  16.063  23.105  1.00  0.00     0.172 HD
ATOM     31  S   UNL A   1      32.848  15.141  25.531  1.00  0.00    -0.038 S 
BRANCH  25  32
ATOM     32  O   UNL A   1      33.939  19.916  25.669  1.00  0.00    -0.493 OA
ATOM     33  H   UNL A   1      33.831  20.017  26.594  1.00  0.00     0.295 HD
ENDBRANCH  25  32
ENDBRANCH  20  22
ENDBRANCH  11  15
ENDBRANCH   5   8
ENDBRANCH   3   4
ENDBRANCH   2   3
ENDBRANCH   1   2
BRANCH   1  34
ATOM     34  C   UNL A   1      34.350  29.638  26.717  1.00  0.00     0.002 C 
BRANCH  34  35
ATOM     35  C   UNL A   1      35.305  30.500  27.541  1.00  0.00     0.021 C 
BRANCH  35  36
ATOM     36  C   UNL A   1      34.623  31.236  28.684  1.00  0.00     0.116 C 
BRANCH  36  37
ATOM     37  N   UNL A   1      34.363  32.623  28.340  1.00  0.00    -0.352 N 
ATOM     38  C   UNL A   1      34.787  33.782  28.952  1.00  0.00     0.251 C 
ATOM     39  H   UNL A   1      33.794  32.756  27.546  1.00  0.00     0.163 HD
ATOM     40  O   UNL A   1      34.195  34.834  28.713  1.00  0.00    -0.269 OA
BRANCH  38  41
ATOM     41  C   UNL A   1      36.052  33.774  29.718  1.00  0.00     0.039 A 
ATOM     42  C   UNL A   1      37.214  34.072  28.992  1.00  0.00     0.014 A 
ATOM     43  C   UNL A   1      36.137  33.187  30.976  1.00  0.00     0.014 A 
ATOM     44  C   UNL A   1      38.428  33.521  29.380  1.00  0.00     0.010 A 
ATOM     45  C   UNL A   1      37.321  32.584  31.331  1.00  0.00     0.010 A 
ATOM     46  C   UNL A   1      38.432  32.677  30.481  1.00  0.00    -0.014 A 
BRANCH  46  47
ATOM     47  C   UNL A   1      39.518  31.779  30.822  1.00  0.00     0.031 A 
ATOM     48  C   UNL A   1      39.588  30.451  30.199  1.00  0.00     0.074 A 
ATOM     49  C   UNL A   1      40.578  32.318  31.464  1.00  0.00     0.049 A 
ATOM     50  N   UNL A   1      40.458  29.554  30.507  1.00  0.00    -0.248 NA
ATOM     51  C   UNL A   1      38.622  30.007  29.198  1.00  0.00     0.031 C 
ATOM     52  C   UNL A   1      41.959  31.860  31.424  1.00  0.00     0.029 A 
ATOM     53  N   UNL A   1      40.570  33.307  32.455  1.00  0.00    -0.354 N 
ATOM     54  C   UNL A   1      40.391  28.583  29.534  1.00  0.00     0.074 A 
ATOM     55  C   UNL A   1      39.139  28.822  28.864  1.00  0.00     0.031 C 
ATOM     56  C   UNL A   1      42.607  32.354  32.491  1.00  0.00     0.029 A 
ATOM     57  C   UNL A   1      41.605  32.969  33.345  1.00  0.00     0.049 A 
ATOM     58  H   UNL A   1      39.964  34.080  32.518  1.00  0.00     0.167 HD
ATOM     59  C   UNL A   1      41.497  27.821  29.306  1.00  0.00     0.034 A 
ATOM     60  C   UNL A   1      41.405  32.660  34.661  1.00  0.00     0.034 A 
ATOM     61  C   UNL A   1      42.475  27.995  30.394  1.00  0.00     0.049 A 
ATOM     62  C   UNL A   1      41.875  31.261  35.024  1.00  0.00     0.074 A 
ATOM     63  C   UNL A   1      43.672  28.685  30.502  1.00  0.00     0.029 A 
ATOM     64  N   UNL A   1      42.118  27.632  31.689  1.00  0.00    -0.354 N 
ATOM     65  N   UNL A   1      42.317  30.387  34.161  1.00  0.00    -0.248 NA
ATOM     66  C   UNL A   1      41.860  30.724  36.383  1.00  0.00     0.031 C 
ATOM     67  C   UNL A   1      43.961  28.841  31.889  1.00  0.00     0.029 A 
ATOM     68  C   UNL A   1      42.969  28.208  32.621  1.00  0.00     0.049 A 
ATOM     69  H   UNL A   1      41.361  27.042  31.915  1.00  0.00     0.167 HD
ATOM     70  C   UNL A   1      42.492  29.172  34.769  1.00  0.00     0.074 A 
ATOM     71  C   UNL A   1      42.282  29.462  36.178  1.00  0.00     0.031 C 
ATOM     72  C   UNL A   1      42.720  28.027  34.051  1.00  0.00     0.034 A 
BRANCH  59  73
ATOM     73  C   UNL A   1      41.835  27.110  27.997  1.00  0.00     0.023 A 
ATOM     74  C   UNL A   1      41.586  27.823  26.800  1.00  0.00     0.012 A 
ATOM     75  C   UNL A   1      42.258  25.766  27.827  1.00  0.00     0.148 A 
ATOM     76  C   UNL A   1      41.699  27.236  25.531  1.00  0.00     0.002 A 
ATOM     77  C   UNL A   1      42.400  25.187  26.561  1.00  0.00     0.091 A 
ATOM     78  F   UNL A   1      42.488  24.990  28.881  1.00  0.00    -0.205 F 
ATOM     79  C   UNL A   1      42.105  25.916  25.410  1.00  0.00     0.022 A 
BRANCH  77  80
ATOM     80  S   UNL A   1      42.930  23.476  26.329  1.00  0.00     0.127 S 
ATOM     81  O   UNL A   1      42.876  23.335  24.873  1.00  0.00    -0.237 OA
ATOM     82  O   UNL A   1      44.281  23.490  26.889  1.00  0.00    -0.237 OA
ATOM     83  O   UNL A   1      41.981  22.643  27.058  1.00  0.00    -0.744 OA
ENDBRANCH  77  80
ENDBRANCH  59  73
BRANCH  60  84
ATOM     84  C   UNL A   1      40.254  33.383  35.275  1.00  0.00     0.023 A 
ATOM     85  C   UNL A   1      38.984  32.767  35.159  1.00  0.00     0.012 A 
ATOM     86  C   UNL A   1      40.448  34.357  36.270  1.00  0.00     0.148 A 
ATOM     87  C   UNL A   1      37.978  33.015  36.094  1.00  0.00     0.002 A 
ATOM     88  C   UNL A   1      39.444  34.587  37.210  1.00  0.00     0.091 A 
ATOM     89  F   UNL A   1      41.640  34.963  36.345  1.00  0.00    -0.205 F 
ATOM     90  C   UNL A   1      38.223  33.896  37.141  1.00  0.00     0.022 A 
BRANCH  88  91
ATOM     91  S   UNL A   1      39.707  35.634  38.649  1.00  0.00     0.127 S 
ATOM     92  O   UNL A   1      39.459  36.962  38.095  1.00  0.00    -0.237 OA
ATOM     93  O   UNL A   1      38.682  35.150  39.572  1.00  0.00    -0.237 OA
ATOM     94  O   UNL A   1      41.071  35.358  39.073  1.00  0.00    -0.744 OA
ENDBRANCH  88  91
ENDBRANCH  60  84
BRANCH  72  95
ATOM     95  C   UNL A   1      42.692  26.615  34.616  1.00  0.00     0.023 A 
ATOM     96  C   UNL A   1      41.564  26.081  35.269  1.00  0.00     0.012 A 
ATOM     97  C   UNL A   1      43.760  25.713  34.364  1.00  0.00     0.148 A 
ATOM     98  C   UNL A   1      41.515  24.750  35.701  1.00  0.00     0.002 A 
ATOM     99  C   UNL A   1      43.657  24.362  34.689  1.00  0.00     0.091 A 
ATOM    100  F   UNL A   1      44.900  26.163  33.817  1.00  0.00    -0.205 F 
ATOM    101  C   UNL A   1      42.551  23.883  35.388  1.00  0.00     0.022 A 
BRANCH  99 102
ATOM    102  S   UNL A   1      44.859  23.178  34.063  1.00  0.00     0.127 S 
ATOM    103  O   UNL A   1      44.444  21.942  34.721  1.00  0.00    -0.237 OA
ATOM    104  O   UNL A   1      44.616  23.210  32.619  1.00  0.00    -0.237 OA
ATOM    105  O   UNL A   1      46.152  23.720  34.458  1.00  0.00    -0.744 OA
ENDBRANCH  99 102
ENDBRANCH  72  95
ENDBRANCH  46  47
ENDBRANCH  38  41
ENDBRANCH  36  37
ENDBRANCH  35  36
ENDBRANCH  34  35
ENDBRANCH   1  34
TORSDOF 19
ENDMDL
MODEL 3
REMARK VINA RESULT:     -12.2      2.185      2.936
REMARK SMILES Cc1c(C(=O)NCCCCCCNC(=O)c2ccc(-c3c4nc(c(-c5cccc(S(=O)(=O)[O-])c5F)c5ccc([nH]5)c(-c5cccc(S(=O)(=O)[O-])c5F)c5nc(c(-c6cccc(S(=O)(=O)[O-])c6F)c6ccc3[nH]6)C=C5)C=C4)cc2)cccc1-n1c(C)cc(/C=C2/C(=O)NC(=S)N=C2O)c1C
REMARK SMILES IDX 9 1 8 2 7 3 6 4 4 5 5 6 3 8 1 9 2 10 82 11 79 12 81 13 80 14
REMARK SMILES IDX 83 15 84 16 98 17 85 18 86 19 87 20 99 21 88 22 89 23 90 24
REMARK SMILES IDX 96 25 91 26 92 27 95 28 93 29 94 31 97 32 10 34 11 35 12 36
REMARK SMILES IDX 13 37 14 38 15 40 16 41 17 42 78 43 18 44 77 45 19 46 20 47
REMARK SMILES IDX 21 48 71 49 22 50 76 51 70 52 72 53 23 54 75 55 69 56 68 57
REMARK SMILES IDX 24 59 56 60 36 61 55 62 37 63 40 64 54 65 73 66 38 67 39 68
REMARK SMILES IDX 53 70 74 71 41 72 25 73 26 74 34 75 27 76 29 77 35 78 28 79
REMARK SMILES IDX 30 80 31 81 32 82 33 83 57 84 58 85 66 86 59 87 61 88 67 89
REMARK SMILES IDX 60 90 62 91 63 92 64 93 65 94 42 95 43 96 51 97 44 98 46 99
REMARK SMILES IDX 52 100 45 101 47 102 48 103 49 104 50 105
REMARK H PARENT 6 7 92 30 97 33 13 39 72 58 40 69
REMARK Flexibility Score: inf
ROOT
ATOM      1  C   UNL A   1      32.982  28.840  27.637  1.00  0.00     0.002 C 
ENDROOT
BRANCH   1   2
ATOM      2  C   UNL A   1      31.804  29.344  26.796  1.00  0.00     0.021 C 
BRANCH   2   3
ATOM      3  C   UNL A   1      32.182  30.378  25.721  1.00  0.00     0.116 C 
BRANCH   3   4
ATOM      4  N   UNL A   1      31.137  30.484  24.728  1.00  0.00    -0.352 N 
ATOM      5  C   UNL A   1      30.378  29.631  23.984  1.00  0.00     0.251 C 
ATOM      6  O   UNL A   1      29.511  30.198  23.306  1.00  0.00    -0.269 OA
ATOM      7  H   UNL A   1      30.914  31.424  24.539  1.00  0.00     0.163 HD
BRANCH   5   8
ATOM      8  C   UNL A   1      30.432  28.127  23.934  1.00  0.00     0.044 A 
ATOM      9  C   UNL A   1      32.959  27.722  23.648  1.00  0.00     0.047 C 
ATOM     10  C   UNL A   1      31.538  27.260  23.785  1.00  0.00    -0.014 A 
ATOM     11  C   UNL A   1      31.276  25.863  23.686  1.00  0.00     0.049 A 
ATOM     12  C   UNL A   1      29.130  27.552  23.890  1.00  0.00     0.014 A 
ATOM     13  C   UNL A   1      29.984  25.329  23.636  1.00  0.00     0.027 A 
ATOM     14  C   UNL A   1      28.905  26.184  23.725  1.00  0.00     0.003 A 
BRANCH  11  15
ATOM     15  N   UNL A   1      32.330  24.946  23.452  1.00  0.00    -0.318 N 
ATOM     16  C   UNL A   1      32.913  24.688  22.226  1.00  0.00     0.020 A 
ATOM     17  C   UNL A   1      32.860  24.094  24.413  1.00  0.00     0.027 A 
ATOM     18  C   UNL A   1      32.453  25.291  20.946  1.00  0.00     0.065 C 
ATOM     19  C   UNL A   1      33.927  23.778  22.447  1.00  0.00     0.031 A 
ATOM     20  C   UNL A   1      33.916  23.417  23.824  1.00  0.00    -0.003 A 
ATOM     21  C   UNL A   1      32.234  23.992  25.768  1.00  0.00     0.065 C 
BRANCH  20  22
ATOM     22  C   UNL A   1      34.754  22.387  24.356  1.00  0.00     0.029 C 
ATOM     23  C   UNL A   1      34.543  21.086  24.627  1.00  0.00     0.102 C 
ATOM     24  C   UNL A   1      35.742  20.312  25.045  1.00  0.00     0.262 C 
ATOM     25  C   UNL A   1      33.341  20.266  24.513  1.00  0.00     0.226 C 
ATOM     26  O   UNL A   1      36.743  20.821  25.534  1.00  0.00    -0.269 OA
ATOM     27  N   UNL A   1      35.617  18.961  24.858  1.00  0.00    -0.297 N 
ATOM     28  N   UNL A   1      33.283  18.986  24.463  1.00  0.00    -0.184 NA
ATOM     29  C   UNL A   1      34.462  18.288  24.538  1.00  0.00     0.203 C 
ATOM     30  H   UNL A   1      36.433  18.420  24.964  1.00  0.00     0.172 HD
ATOM     31  S   UNL A   1      34.540  16.625  24.344  1.00  0.00    -0.038 S 
BRANCH  25  32
ATOM     32  O   UNL A   1      32.171  20.910  24.545  1.00  0.00    -0.493 OA
ATOM     33  H   UNL A   1      31.580  20.773  25.259  1.00  0.00     0.295 HD
ENDBRANCH  25  32
ENDBRANCH  20  22
ENDBRANCH  11  15
ENDBRANCH   5   8
ENDBRANCH   3   4
ENDBRANCH   2   3
ENDBRANCH   1   2
BRANCH   1  34
ATOM     34  C   UNL A   1      34.348  28.853  26.939  1.00  0.00     0.002 C 
BRANCH  34  35
ATOM     35  C   UNL A   1      35.307  29.948  27.401  1.00  0.00     0.021 C 
BRANCH  35  36
ATOM     36  C   UNL A   1      34.687  30.914  28.398  1.00  0.00     0.116 C 
BRANCH  36  37
ATOM     37  N   UNL A   1      34.672  32.272  27.882  1.00  0.00    -0.352 N 
ATOM     38  C   UNL A   1      35.176  33.432  28.427  1.00  0.00     0.251 C 
ATOM     39  H   UNL A   1      34.235  32.380  27.005  1.00  0.00     0.163 HD
ATOM     40  O   UNL A   1      34.775  34.515  28.001  1.00  0.00    -0.269 OA
BRANCH  38  41
ATOM     41  C   UNL A   1      36.318  33.356  29.364  1.00  0.00     0.039 A 
ATOM     42  C   UNL A   1      37.547  33.825  28.876  1.00  0.00     0.014 A 
ATOM     43  C   UNL A   1      36.267  32.571  30.511  1.00  0.00     0.014 A 
ATOM     44  C   UNL A   1      38.729  33.273  29.350  1.00  0.00     0.010 A 
ATOM     45  C   UNL A   1      37.429  31.973  30.940  1.00  0.00     0.010 A 
ATOM     46  C   UNL A   1      38.638  32.259  30.292  1.00  0.00    -0.014 A 
BRANCH  46  47
ATOM     47  C   UNL A   1      39.726  31.368  30.645  1.00  0.00     0.031 A 
ATOM     48  C   UNL A   1      39.749  29.999  30.112  1.00  0.00     0.074 A 
ATOM     49  C   UNL A   1      40.822  31.932  31.199  1.00  0.00     0.049 A 
ATOM     50  N   UNL A   1      40.621  29.111  30.443  1.00  0.00    -0.248 NA
ATOM     51  C   UNL A   1      38.733  29.504  29.189  1.00  0.00     0.031 C 
ATOM     52  C   UNL A   1      42.193  31.449  31.130  1.00  0.00     0.029 A 
ATOM     53  N   UNL A   1      40.873  32.986  32.120  1.00  0.00    -0.354 N 
ATOM     54  C   UNL A   1      40.496  28.077  29.543  1.00  0.00     0.074 A 
ATOM     55  C   UNL A   1      39.218  28.291  28.915  1.00  0.00     0.031 C 
ATOM     56  C   UNL A   1      42.896  32.004  32.130  1.00  0.00     0.029 A 
ATOM     57  C   UNL A   1      41.943  32.693  32.983  1.00  0.00     0.049 A 
ATOM     58  H   UNL A   1      40.281  33.772  32.156  1.00  0.00     0.167 HD
ATOM     59  C   UNL A   1      41.580  27.283  29.319  1.00  0.00     0.034 A 
ATOM     60  C   UNL A   1      41.800  32.478  34.325  1.00  0.00     0.034 A 
ATOM     61  C   UNL A   1      42.608  27.515  30.348  1.00  0.00     0.049 A 
ATOM     62  C   UNL A   1      42.266  31.099  34.762  1.00  0.00     0.074 A 
ATOM     63  C   UNL A   1      43.818  28.189  30.354  1.00  0.00     0.029 A 
ATOM     64  N   UNL A   1      42.306  27.246  31.680  1.00  0.00    -0.354 N 
ATOM     65  N   UNL A   1      42.656  30.161  33.943  1.00  0.00    -0.248 NA
ATOM     66  C   UNL A   1      42.306  30.657  36.155  1.00  0.00     0.031 C 
ATOM     67  C   UNL A   1      44.173  28.435  31.713  1.00  0.00     0.029 A 
ATOM     68  C   UNL A   1      43.207  27.871  32.530  1.00  0.00     0.049 A 
ATOM     69  H   UNL A   1      41.552  26.687  31.980  1.00  0.00     0.167 HD
ATOM     70  C   UNL A   1      42.842  28.988  34.626  1.00  0.00     0.074 A 
ATOM     71  C   UNL A   1      42.701  29.378  36.020  1.00  0.00     0.031 C 
ATOM     72  C   UNL A   1      43.022  27.792  33.980  1.00  0.00     0.034 A 
BRANCH  59  73
ATOM     73  C   UNL A   1      41.848  26.478  28.049  1.00  0.00     0.023 A 
ATOM     74  C   UNL A   1      41.707  27.161  26.818  1.00  0.00     0.012 A 
ATOM     75  C   UNL A   1      42.105  25.086  27.945  1.00  0.00     0.148 A 
ATOM     76  C   UNL A   1      41.765  26.509  25.578  1.00  0.00     0.002 A 
ATOM     77  C   UNL A   1      42.194  24.438  26.708  1.00  0.00     0.091 A 
ATOM     78  F   UNL A   1      42.221  24.335  29.036  1.00  0.00    -0.205 F 
ATOM     79  C   UNL A   1      42.008  25.146  25.521  1.00  0.00     0.022 A 
BRANCH  77  80
ATOM     80  S   UNL A   1      42.513  22.667  26.559  1.00  0.00     0.127 S 
ATOM     81  O   UNL A   1      41.351  22.089  27.237  1.00  0.00    -0.237 OA
ATOM     82  O   UNL A   1      42.531  22.473  25.110  1.00  0.00    -0.237 OA
ATOM     83  O   UNL A   1      43.790  22.417  27.219  1.00  0.00    -0.744 OA
ENDBRANCH  77  80
ENDBRANCH  59  73
BRANCH  60  84
ATOM     84  C   UNL A   1      40.687  33.260  34.938  1.00  0.00     0.023 A 
ATOM     85  C   UNL A   1      40.951  34.622  35.222  1.00  0.00     0.012 A 
ATOM     86  C   UNL A   1      39.351  32.834  34.837  1.00  0.00     0.148 A 
ATOM     87  C   UNL A   1      39.918  35.559  35.271  1.00  0.00     0.002 A 
ATOM     88  C   UNL A   1      38.326  33.778  34.871  1.00  0.00     0.091 A 
ATOM     89  F   UNL A   1      39.111  31.536  34.609  1.00  0.00    -0.205 F 
ATOM     90  C   UNL A   1      38.609  35.141  35.056  1.00  0.00     0.022 A 
BRANCH  88  91
ATOM     91  S   UNL A   1      36.618  33.344  34.508  1.00  0.00     0.127 S 
ATOM     92  O   UNL A   1      35.963  33.643  35.778  1.00  0.00    -0.237 OA
ATOM     93  O   UNL A   1      36.293  34.260  33.415  1.00  0.00    -0.237 OA
ATOM     94  O   UNL A   1      36.659  31.942  34.119  1.00  0.00    -0.744 OA
ENDBRANCH  88  91
ENDBRANCH  60  84
BRANCH  72  95
ATOM     95  C   UNL A   1      42.999  26.424  34.641  1.00  0.00     0.023 A 
ATOM     96  C   UNL A   1      41.814  25.829  35.117  1.00  0.00     0.012 A 
ATOM     97  C   UNL A   1      44.165  25.612  34.663  1.00  0.00     0.148 A 
ATOM     98  C   UNL A   1      41.791  24.530  35.639  1.00  0.00     0.002 A 
ATOM     99  C   UNL A   1      44.111  24.281  35.072  1.00  0.00     0.091 A 
ATOM    100  F   UNL A   1      45.348  26.131  34.300  1.00  0.00    -0.205 F 
ATOM    101  C   UNL A   1      42.934  23.745  35.593  1.00  0.00     0.022 A 
BRANCH  99 102
ATOM    102  S   UNL A   1      45.501  23.176  34.775  1.00  0.00     0.127 S 
ATOM    103  O   UNL A   1      45.719  23.337  33.340  1.00  0.00    -0.237 OA
ATOM    104  O   UNL A   1      46.551  23.752  35.617  1.00  0.00    -0.237 OA
ATOM    105  O   UNL A   1      45.035  21.869  35.218  1.00  0.00    -0.744 OA
ENDBRANCH  99 102
ENDBRANCH  72  95
ENDBRANCH  46  47
ENDBRANCH  38  41
ENDBRANCH  36  37
ENDBRANCH  35  36
ENDBRANCH  34  35
ENDBRANCH   1  34
TORSDOF 19
ENDMDL
