MODEL 1
REMARK VINA RESULT:     -11.1      0.000      0.000
REMARK SMILES N#Cc1ccc(/C=C/C(=O)N[C@H]2C=C[C@H](C(=O)NCCCCCCNC(=O)c3ccc(-c4c5nc(c(-c6cccc(S(=O)(=O)[O-])c6F)c6ccc([nH]6)c(-c6cccc(S(=O)(=O)[O-])c6F)c6nc(c(-c7cccc(S(=O)(=O)[O-])c7F)c7ccc4[nH]7)C=C6)C=C5)cc3)C2)cc1
REMARK SMILES IDX 21 1 20 2 19 3 18 4 16 5 17 6 15 8 12 9 13 10 91 11 14 12
REMARK SMILES IDX 11 13 9 14 10 15 8 17 7 18 6 19 3 20 4 21 93 22 5 23 92 24
REMARK SMILES IDX 2 25 1 26 22 27 23 28 24 29 25 30 26 31 27 33 28 34 29 35
REMARK SMILES IDX 90 36 30 37 89 38 31 39 32 40 33 41 83 42 34 43 88 44 82 45
REMARK SMILES IDX 84 46 35 47 87 48 81 49 80 50 36 52 68 53 48 54 67 55 49 56
REMARK SMILES IDX 52 57 66 58 85 59 50 60 51 61 65 63 86 64 53 65 37 66 38 67
REMARK SMILES IDX 46 68 39 69 41 70 47 71 40 72 42 73 43 74 44 75 45 76 69 77
REMARK SMILES IDX 70 78 78 79 71 80 73 81 79 82 72 83 74 84 75 85 76 86 77 87
REMARK SMILES IDX 54 88 55 89 63 90 56 91 58 92 64 93 57 94 59 95 60 96 61 97
REMARK SMILES IDX 62 98
REMARK H PARENT 18 7 11 16 25 32 84 51 52 62
REMARK Flexibility Score: inf
ROOT
ATOM      1  C   UNL A   1      35.240  32.855  28.997  1.00  0.00     0.002 C 
ENDROOT
BRANCH   1   2
ATOM      2  C   UNL A   1      36.040  31.860  28.142  1.00  0.00     0.021 C 
BRANCH   2   3
ATOM      3  C   UNL A   1      35.317  30.544  27.864  1.00  0.00     0.116 C 
BRANCH   3   4
ATOM      4  N   UNL A   1      33.975  30.797  27.400  1.00  0.00    -0.356 N 
ATOM      5  C   UNL A   1      33.232  30.088  26.518  1.00  0.00     0.227 C 
ATOM      6  O   UNL A   1      32.165  30.592  26.164  1.00  0.00    -0.274 OA
ATOM      7  H   UNL A   1      33.538  31.594  27.778  1.00  0.00     0.163 HD
BRANCH   5   8
ATOM      8  C   UNL A   1      33.735  28.746  25.972  1.00  0.00     0.103 C 
ATOM      9  C   UNL A   1      31.986  27.997  24.498  1.00  0.00     0.106 C 
ATOM     10  C   UNL A   1      32.126  27.032  25.622  1.00  0.00    -0.006 C 
ATOM     11  C   UNL A   1      33.373  28.640  24.487  1.00  0.00     0.047 C 
ATOM     12  C   UNL A   1      33.016  27.524  26.503  1.00  0.00    -0.016 C 
BRANCH   9  13
ATOM     13  N   UNL A   1      31.631  27.460  23.219  1.00  0.00    -0.346 N 
ATOM     14  C   UNL A   1      32.241  26.455  22.521  1.00  0.00     0.244 C 
ATOM     15  O   UNL A   1      31.674  26.019  21.515  1.00  0.00    -0.270 OA
ATOM     16  H   UNL A   1      30.846  27.868  22.787  1.00  0.00     0.164 HD
BRANCH  14  17
ATOM     17  C   UNL A   1      33.558  25.821  22.899  1.00  0.00     0.072 C 
ATOM     18  C   UNL A   1      33.794  24.712  23.614  1.00  0.00     0.014 C 
BRANCH  18  19
ATOM     19  C   UNL A   1      35.028  24.026  24.030  1.00  0.00    -0.025 A 
ATOM     20  C   UNL A   1      37.269  22.718  25.128  1.00  0.00     0.052 A 
ATOM     21  C   UNL A   1      36.837  22.433  23.824  1.00  0.00     0.020 A 
ATOM     22  C   UNL A   1      36.599  23.678  25.877  1.00  0.00     0.020 A 
ATOM     23  C   UNL A   1      35.716  23.079  23.277  1.00  0.00     0.009 A 
ATOM     24  C   UNL A   1      35.504  24.331  25.323  1.00  0.00     0.009 A 
BRANCH  20  25
ATOM     25  C   UNL A   1      38.385  22.028  25.705  1.00  0.00     0.099 C 
ATOM     26  N   UNL A   1      39.290  21.465  26.159  1.00  0.00    -0.192 NA
ENDBRANCH  20  25
ENDBRANCH  18  19
ENDBRANCH  14  17
ENDBRANCH   9  13
ENDBRANCH   5   8
ENDBRANCH   3   4
ENDBRANCH   2   3
ENDBRANCH   1   2
BRANCH   1  27
ATOM     27  C   UNL A   1      35.551  34.333  28.734  1.00  0.00     0.002 C 
BRANCH  27  28
ATOM     28  C   UNL A   1      34.331  35.253  28.753  1.00  0.00     0.021 C 
BRANCH  28  29
ATOM     29  C   UNL A   1      33.124  34.674  29.479  1.00  0.00     0.116 C 
BRANCH  29  30
ATOM     30  N   UNL A   1      32.517  35.639  30.384  1.00  0.00    -0.352 N 
ATOM     31  C   UNL A   1      32.734  35.801  31.731  1.00  0.00     0.251 C 
ATOM     32  H   UNL A   1      31.865  36.255  29.978  1.00  0.00     0.163 HD
ATOM     33  O   UNL A   1      32.003  36.526  32.399  1.00  0.00    -0.269 OA
BRANCH  31  34
ATOM     34  C   UNL A   1      33.848  35.069  32.368  1.00  0.00     0.039 A 
ATOM     35  C   UNL A   1      33.599  33.839  32.979  1.00  0.00     0.014 A 
ATOM     36  C   UNL A   1      35.147  35.582  32.308  1.00  0.00     0.014 A 
ATOM     37  C   UNL A   1      34.669  33.088  33.472  1.00  0.00     0.010 A 
ATOM     38  C   UNL A   1      36.214  34.795  32.718  1.00  0.00     0.010 A 
ATOM     39  C   UNL A   1      35.988  33.541  33.310  1.00  0.00    -0.014 A 
BRANCH  39  40
ATOM     40  C   UNL A   1      37.155  32.737  33.753  1.00  0.00     0.031 A 
ATOM     41  C   UNL A   1      37.930  33.160  34.971  1.00  0.00     0.074 A 
ATOM     42  C   UNL A   1      37.580  31.698  33.009  1.00  0.00     0.049 A 
ATOM     43  N   UNL A   1      39.052  32.682  35.441  1.00  0.00    -0.248 NA
ATOM     44  C   UNL A   1      37.385  34.288  35.745  1.00  0.00     0.031 C 
ATOM     45  C   UNL A   1      36.947  31.221  31.778  1.00  0.00     0.029 A 
ATOM     46  N   UNL A   1      38.672  30.877  33.158  1.00  0.00    -0.354 N 
ATOM     47  C   UNL A   1      39.366  33.472  36.541  1.00  0.00     0.074 A 
ATOM     48  C   UNL A   1      38.339  34.485  36.642  1.00  0.00     0.031 C 
ATOM     49  C   UNL A   1      37.663  30.200  31.280  1.00  0.00     0.029 A 
ATOM     50  C   UNL A   1      38.832  29.982  32.125  1.00  0.00     0.049 A 
ATOM     51  H   UNL A   1      39.281  30.925  33.929  1.00  0.00     0.167 HD
ATOM     52  C   UNL A   1      40.403  33.353  37.402  1.00  0.00     0.034 A 
ATOM     53  C   UNL A   1      39.826  29.108  31.866  1.00  0.00     0.034 A 
ATOM     54  C   UNL A   1      41.413  32.335  37.304  1.00  0.00     0.049 A 
ATOM     55  C   UNL A   1      40.980  29.003  32.828  1.00  0.00     0.074 A 
ATOM     56  C   UNL A   1      42.471  32.091  38.162  1.00  0.00     0.029 A 
ATOM     57  N   UNL A   1      41.505  31.408  36.279  1.00  0.00    -0.354 N 
ATOM     58  N   UNL A   1      41.201  29.683  33.925  1.00  0.00    -0.248 NA
ATOM     59  C   UNL A   1      42.007  27.992  32.534  1.00  0.00     0.031 C 
ATOM     60  C   UNL A   1      43.232  31.048  37.628  1.00  0.00     0.029 A 
ATOM     61  C   UNL A   1      42.610  30.599  36.473  1.00  0.00     0.049 A 
ATOM     62  H   UNL A   1      40.877  31.334  35.524  1.00  0.00     0.167 HD
ATOM     63  C   UNL A   1      42.361  29.152  34.477  1.00  0.00     0.074 A 
ATOM     64  C   UNL A   1      42.797  28.092  33.594  1.00  0.00     0.031 C 
ATOM     65  C   UNL A   1      43.005  29.512  35.614  1.00  0.00     0.034 A 
BRANCH  52  66
ATOM     66  C   UNL A   1      40.485  34.339  38.538  1.00  0.00     0.023 A 
ATOM     67  C   UNL A   1      41.315  35.473  38.428  1.00  0.00     0.012 A 
ATOM     68  C   UNL A   1      39.707  34.163  39.700  1.00  0.00     0.148 A 
ATOM     69  C   UNL A   1      41.408  36.391  39.473  1.00  0.00     0.002 A 
ATOM     70  C   UNL A   1      39.763  35.110  40.714  1.00  0.00     0.091 A 
ATOM     71  F   UNL A   1      38.936  33.071  39.794  1.00  0.00    -0.205 F 
ATOM     72  C   UNL A   1      40.624  36.215  40.611  1.00  0.00     0.022 A 
BRANCH  70  73
ATOM     73  S   UNL A   1      38.733  35.019  42.182  1.00  0.00     0.127 S 
ATOM     74  O   UNL A   1      37.391  35.001  41.599  1.00  0.00    -0.237 OA
ATOM     75  O   UNL A   1      39.157  33.751  42.775  1.00  0.00    -0.237 OA
ATOM     76  O   UNL A   1      39.051  36.199  42.972  1.00  0.00    -0.744 OA
ENDBRANCH  70  73
ENDBRANCH  52  66
BRANCH  53  77
ATOM     77  C   UNL A   1      39.767  28.252  30.649  1.00  0.00     0.023 A 
ATOM     78  C   UNL A   1      39.004  27.067  30.662  1.00  0.00     0.012 A 
ATOM     79  C   UNL A   1      40.451  28.615  29.473  1.00  0.00     0.148 A 
ATOM     80  C   UNL A   1      38.955  26.242  29.537  1.00  0.00     0.002 A 
ATOM     81  C   UNL A   1      40.350  27.820  28.339  1.00  0.00     0.091 A 
ATOM     82  F   UNL A   1      41.175  29.743  29.485  1.00  0.00    -0.205 F 
ATOM     83  C   UNL A   1      39.620  26.622  28.373  1.00  0.00     0.022 A 
BRANCH  81  84
ATOM     84  S   UNL A   1      41.068  28.295  26.763  1.00  0.00     0.127 S 
ATOM     85  O   UNL A   1      41.054  27.029  26.033  1.00  0.00    -0.237 OA
ATOM     86  O   UNL A   1      40.109  29.292  26.286  1.00  0.00    -0.237 OA
ATOM     87  O   UNL A   1      42.389  28.828  27.070  1.00  0.00    -0.744 OA
ENDBRANCH  81  84
ENDBRANCH  53  77
BRANCH  65  88
ATOM     88  C   UNL A   1      44.211  28.714  36.034  1.00  0.00     0.023 A 
ATOM     89  C   UNL A   1      45.505  29.122  35.662  1.00  0.00     0.012 A 
ATOM     90  C   UNL A   1      44.052  27.620  36.909  1.00  0.00     0.148 A 
ATOM     91  C   UNL A   1      46.625  28.442  36.143  1.00  0.00     0.002 A 
ATOM     92  C   UNL A   1      45.171  26.984  37.429  1.00  0.00     0.091 A 
ATOM     93  F   UNL A   1      42.808  27.241  37.236  1.00  0.00    -0.205 F 
ATOM     94  C   UNL A   1      46.458  27.386  37.038  1.00  0.00     0.022 A 
BRANCH  92  95
ATOM     95  S   UNL A   1      45.056  25.687  38.664  1.00  0.00     0.127 S 
ATOM     96  O   UNL A   1      46.464  25.461  38.990  1.00  0.00    -0.237 OA
ATOM     97  O   UNL A   1      44.283  26.340  39.721  1.00  0.00    -0.237 OA
ATOM     98  O   UNL A   1      44.385  24.568  38.019  1.00  0.00    -0.744 OA
ENDBRANCH  92  95
ENDBRANCH  65  88
ENDBRANCH  39  40
ENDBRANCH  31  34
ENDBRANCH  29  30
ENDBRANCH  28  29
ENDBRANCH  27  28
ENDBRANCH   1  27
TORSDOF 20
ENDMDL
MODEL 2
REMARK VINA RESULT:     -10.5      1.817      2.236
REMARK SMILES N#Cc1ccc(/C=C/C(=O)N[C@H]2C=C[C@H](C(=O)NCCCCCCNC(=O)c3ccc(-c4c5nc(c(-c6cccc(S(=O)(=O)[O-])c6F)c6ccc([nH]6)c(-c6cccc(S(=O)(=O)[O-])c6F)c6nc(c(-c7cccc(S(=O)(=O)[O-])c7F)c7ccc4[nH]7)C=C6)C=C5)cc3)C2)cc1
REMARK SMILES IDX 21 1 20 2 19 3 18 4 16 5 17 6 15 8 12 9 13 10 91 11 14 12
REMARK SMILES IDX 11 13 9 14 10 15 8 17 7 18 6 19 3 20 4 21 93 22 5 23 92 24
REMARK SMILES IDX 2 25 1 26 22 27 23 28 24 29 25 30 26 31 27 33 28 34 29 35
REMARK SMILES IDX 90 36 30 37 89 38 31 39 32 40 33 41 83 42 34 43 88 44 82 45
REMARK SMILES IDX 84 46 35 47 87 48 81 49 80 50 36 52 68 53 48 54 67 55 49 56
REMARK SMILES IDX 52 57 66 58 85 59 50 60 51 61 65 63 86 64 53 65 37 66 38 67
REMARK SMILES IDX 46 68 39 69 41 70 47 71 40 72 42 73 43 74 44 75 45 76 69 77
REMARK SMILES IDX 70 78 78 79 71 80 73 81 79 82 72 83 74 84 75 85 76 86 77 87
REMARK SMILES IDX 54 88 55 89 63 90 56 91 58 92 64 93 57 94 59 95 60 96 61 97
REMARK SMILES IDX 62 98
REMARK H PARENT 18 7 11 16 25 32 84 51 52 62
REMARK Flexibility Score: inf
ROOT
ATOM      1  C   UNL A   1      35.147  32.699  28.649  1.00  0.00     0.002 C 
ENDROOT
BRANCH   1   2
ATOM      2  C   UNL A   1      35.895  31.556  27.944  1.00  0.00     0.021 C 
BRANCH   2   3
ATOM      3  C   UNL A   1      35.111  30.250  27.855  1.00  0.00     0.116 C 
BRANCH   3   4
ATOM      4  N   UNL A   1      33.719  30.516  27.590  1.00  0.00    -0.356 N 
ATOM      5  C   UNL A   1      32.823  29.764  26.909  1.00  0.00     0.227 C 
ATOM      6  O   UNL A   1      31.727  30.279  26.684  1.00  0.00    -0.274 OA
ATOM      7  H   UNL A   1      33.371  31.361  27.956  1.00  0.00     0.163 HD
BRANCH   5   8
ATOM      8  C   UNL A   1      33.194  28.358  26.418  1.00  0.00     0.103 C 
ATOM      9  C   UNL A   1      31.737  27.967  24.543  1.00  0.00     0.106 C 
ATOM     10  C   UNL A   1      31.434  26.978  25.613  1.00  0.00    -0.006 C 
ATOM     11  C   UNL A   1      33.179  28.340  24.887  1.00  0.00     0.047 C 
ATOM     12  C   UNL A   1      32.164  27.285  26.701  1.00  0.00    -0.016 C 
BRANCH   9  13
ATOM     13  N   UNL A   1      31.604  27.522  23.189  1.00  0.00    -0.346 N 
ATOM     14  C   UNL A   1      32.327  26.562  22.536  1.00  0.00     0.244 C 
ATOM     15  O   UNL A   1      31.939  26.200  21.421  1.00  0.00    -0.270 OA
ATOM     16  H   UNL A   1      30.901  27.964  22.660  1.00  0.00     0.164 HD
BRANCH  14  17
ATOM     17  C   UNL A   1      33.565  25.894  23.085  1.00  0.00     0.072 C 
ATOM     18  C   UNL A   1      33.679  24.749  23.773  1.00  0.00     0.014 C 
BRANCH  18  19
ATOM     19  C   UNL A   1      34.828  24.029  24.344  1.00  0.00    -0.025 A 
ATOM     20  C   UNL A   1      37.162  22.668  25.142  1.00  0.00     0.052 A 
ATOM     21  C   UNL A   1      36.476  23.503  26.036  1.00  0.00     0.020 A 
ATOM     22  C   UNL A   1      36.669  22.488  23.855  1.00  0.00     0.020 A 
ATOM     23  C   UNL A   1      35.315  24.187  25.638  1.00  0.00     0.009 A 
ATOM     24  C   UNL A   1      35.507  23.150  23.473  1.00  0.00     0.009 A 
BRANCH  20  25
ATOM     25  C   UNL A   1      38.371  22.002  25.531  1.00  0.00     0.099 C 
ATOM     26  N   UNL A   1      39.356  21.476  25.840  1.00  0.00    -0.192 NA
ENDBRANCH  20  25
ENDBRANCH  18  19
ENDBRANCH  14  17
ENDBRANCH   9  13
ENDBRANCH   5   8
ENDBRANCH   3   4
ENDBRANCH   2   3
ENDBRANCH   1   2
BRANCH   1  27
ATOM     27  C   UNL A   1      35.300  34.076  27.994  1.00  0.00     0.002 C 
BRANCH  27  28
ATOM     28  C   UNL A   1      34.220  35.087  28.378  1.00  0.00     0.021 C 
BRANCH  28  29
ATOM     29  C   UNL A   1      33.131  34.523  29.281  1.00  0.00     0.116 C 
BRANCH  29  30
ATOM     30  N   UNL A   1      32.910  35.356  30.454  1.00  0.00    -0.352 N 
ATOM     31  C   UNL A   1      33.512  35.273  31.687  1.00  0.00     0.251 C 
ATOM     32  H   UNL A   1      32.241  36.071  30.352  1.00  0.00     0.163 HD
ATOM     33  O   UNL A   1      33.080  35.917  32.638  1.00  0.00    -0.269 OA
BRANCH  31  34
ATOM     34  C   UNL A   1      34.674  34.376  31.855  1.00  0.00     0.039 A 
ATOM     35  C   UNL A   1      35.956  34.858  31.585  1.00  0.00     0.014 A 
ATOM     36  C   UNL A   1      34.490  33.075  32.332  1.00  0.00     0.014 A 
ATOM     37  C   UNL A   1      37.064  34.053  31.860  1.00  0.00     0.010 A 
ATOM     38  C   UNL A   1      35.595  32.313  32.687  1.00  0.00     0.010 A 
ATOM     39  C   UNL A   1      36.895  32.790  32.450  1.00  0.00    -0.014 A 
BRANCH  39  40
ATOM     40  C   UNL A   1      38.051  31.938  32.827  1.00  0.00     0.031 A 
ATOM     41  C   UNL A   1      38.819  32.241  34.084  1.00  0.00     0.074 A 
ATOM     42  C   UNL A   1      38.472  30.965  31.996  1.00  0.00     0.049 A 
ATOM     43  N   UNL A   1      39.933  31.711  34.517  1.00  0.00    -0.248 NA
ATOM     44  C   UNL A   1      38.279  33.301  34.953  1.00  0.00     0.031 C 
ATOM     45  C   UNL A   1      37.844  30.608  30.722  1.00  0.00     0.029 A 
ATOM     46  N   UNL A   1      39.554  30.123  32.078  1.00  0.00    -0.354 N 
ATOM     47  C   UNL A   1      40.246  32.397  35.685  1.00  0.00     0.074 A 
ATOM     48  C   UNL A   1      39.228  33.407  35.870  1.00  0.00     0.031 C 
ATOM     49  C   UNL A   1      38.554  29.628  30.140  1.00  0.00     0.029 A 
ATOM     50  C   UNL A   1      39.715  29.323  30.969  1.00  0.00     0.049 A 
ATOM     51  H   UNL A   1      40.157  30.095  32.855  1.00  0.00     0.167 HD
ATOM     52  C   UNL A   1      41.275  32.190  36.540  1.00  0.00     0.034 A 
ATOM     53  C   UNL A   1      40.702  28.465  30.641  1.00  0.00     0.034 A 
ATOM     54  C   UNL A   1      42.276  31.175  36.358  1.00  0.00     0.049 A 
ATOM     55  C   UNL A   1      41.847  28.263  31.597  1.00  0.00     0.074 A 
ATOM     56  C   UNL A   1      43.324  30.843  37.198  1.00  0.00     0.029 A 
ATOM     57  N   UNL A   1      42.367  30.342  35.254  1.00  0.00    -0.354 N 
ATOM     58  N   UNL A   1      42.066  28.839  32.753  1.00  0.00    -0.248 NA
ATOM     59  C   UNL A   1      42.867  27.272  31.221  1.00  0.00     0.031 C 
ATOM     60  C   UNL A   1      44.079  29.845  36.578  1.00  0.00     0.029 A 
ATOM     61  C   UNL A   1      43.463  29.508  35.382  1.00  0.00     0.049 A 
ATOM     62  H   UNL A   1      41.744  30.343  34.491  1.00  0.00     0.167 HD
ATOM     63  C   UNL A   1      43.216  28.249  33.263  1.00  0.00     0.074 A 
ATOM     64  C   UNL A   1      43.649  27.268  32.291  1.00  0.00     0.031 C 
ATOM     65  C   UNL A   1      43.854  28.498  34.432  1.00  0.00     0.034 A 
BRANCH  52  66
ATOM     66  C   UNL A   1      41.357  33.068  37.761  1.00  0.00     0.023 A 
ATOM     67  C   UNL A   1      40.650  32.718  38.929  1.00  0.00     0.012 A 
ATOM     68  C   UNL A   1      42.170  34.219  37.765  1.00  0.00     0.148 A 
ATOM     69  C   UNL A   1      40.709  33.524  40.065  1.00  0.00     0.002 A 
ATOM     70  C   UNL A   1      42.269  34.987  38.918  1.00  0.00     0.091 A 
ATOM     71  F   UNL A   1      42.824  34.545  36.642  1.00  0.00    -0.205 F 
ATOM     72  C   UNL A   1      41.526  34.651  40.063  1.00  0.00     0.022 A 
BRANCH  70  73
ATOM     73  S   UNL A   1      43.356  36.410  39.045  1.00  0.00     0.127 S 
ATOM     74  O   UNL A   1      43.113  36.845  40.420  1.00  0.00    -0.237 OA
ATOM     75  O   UNL A   1      44.672  35.810  38.819  1.00  0.00    -0.237 OA
ATOM     76  O   UNL A   1      42.925  37.341  38.013  1.00  0.00    -0.744 OA
ENDBRANCH  70  73
ENDBRANCH  52  66
BRANCH  53  77
ATOM     77  C   UNL A   1      40.644  27.723  29.351  1.00  0.00     0.023 A 
ATOM     78  C   UNL A   1      39.695  26.696  29.175  1.00  0.00     0.012 A 
ATOM     79  C   UNL A   1      41.517  28.040  28.292  1.00  0.00     0.148 A 
ATOM     80  C   UNL A   1      39.642  25.976  27.980  1.00  0.00     0.002 A 
ATOM     81  C   UNL A   1      41.419  27.359  27.085  1.00  0.00     0.091 A 
ATOM     82  F   UNL A   1      42.415  29.017  28.483  1.00  0.00    -0.205 F 
ATOM     83  C   UNL A   1      40.496  26.312  26.933  1.00  0.00     0.022 A 
BRANCH  81  84
ATOM     84  S   UNL A   1      42.391  27.809  25.644  1.00  0.00     0.127 S 
ATOM     85  O   UNL A   1      41.756  29.059  25.232  1.00  0.00    -0.237 OA
ATOM     86  O   UNL A   1      43.728  27.956  26.219  1.00  0.00    -0.237 OA
ATOM     87  O   UNL A   1      42.255  26.699  24.710  1.00  0.00    -0.744 OA
ENDBRANCH  81  84
ENDBRANCH  53  77
BRANCH  65  88
ATOM     88  C   UNL A   1      45.049  27.654  34.787  1.00  0.00     0.023 A 
ATOM     89  C   UNL A   1      46.353  28.102  34.505  1.00  0.00     0.012 A 
ATOM     90  C   UNL A   1      44.867  26.462  35.519  1.00  0.00     0.148 A 
ATOM     91  C   UNL A   1      47.459  27.367  34.933  1.00  0.00     0.002 A 
ATOM     92  C   UNL A   1      45.972  25.766  35.990  1.00  0.00     0.091 A 
ATOM     93  F   UNL A   1      43.615  26.048  35.761  1.00  0.00    -0.205 F 
ATOM     94  C   UNL A   1      47.269  26.210  35.688  1.00  0.00     0.022 A 
BRANCH  92  95
ATOM     95  S   UNL A   1      45.824  24.329  37.056  1.00  0.00     0.127 S 
ATOM     96  O   UNL A   1      47.223  24.062  37.390  1.00  0.00    -0.237 OA
ATOM     97  O   UNL A   1      45.022  24.851  38.163  1.00  0.00    -0.237 OA
ATOM     98  O   UNL A   1      45.171  23.298  36.262  1.00  0.00    -0.744 OA
ENDBRANCH  92  95
ENDBRANCH  65  88
ENDBRANCH  39  40
ENDBRANCH  31  34
ENDBRANCH  29  30
ENDBRANCH  28  29
ENDBRANCH  27  28
ENDBRANCH   1  27
TORSDOF 20
ENDMDL
MODEL 3
REMARK VINA RESULT:      -9.6      7.618     11.550
REMARK SMILES N#Cc1ccc(/C=C/C(=O)N[C@H]2C=C[C@H](C(=O)NCCCCCCNC(=O)c3ccc(-c4c5nc(c(-c6cccc(S(=O)(=O)[O-])c6F)c6ccc([nH]6)c(-c6cccc(S(=O)(=O)[O-])c6F)c6nc(c(-c7cccc(S(=O)(=O)[O-])c7F)c7ccc4[nH]7)C=C6)C=C5)cc3)C2)cc1
REMARK SMILES IDX 21 1 20 2 19 3 18 4 16 5 17 6 15 8 12 9 13 10 91 11 14 12
REMARK SMILES IDX 11 13 9 14 10 15 8 17 7 18 6 19 3 20 4 21 93 22 5 23 92 24
REMARK SMILES IDX 2 25 1 26 22 27 23 28 24 29 25 30 26 31 27 33 28 34 29 35
REMARK SMILES IDX 90 36 30 37 89 38 31 39 32 40 33 41 83 42 34 43 88 44 82 45
REMARK SMILES IDX 84 46 35 47 87 48 81 49 80 50 36 52 68 53 48 54 67 55 49 56
REMARK SMILES IDX 52 57 66 58 85 59 50 60 51 61 65 63 86 64 53 65 37 66 38 67
REMARK SMILES IDX 46 68 39 69 41 70 47 71 40 72 42 73 43 74 44 75 45 76 69 77
REMARK SMILES IDX 70 78 78 79 71 80 73 81 79 82 72 83 74 84 75 85 76 86 77 87
REMARK SMILES IDX 54 88 55 89 63 90 56 91 58 92 64 93 57 94 59 95 60 96 61 97
REMARK SMILES IDX 62 98
REMARK H PARENT 18 7 11 16 25 32 84 51 52 62
REMARK Flexibility Score: inf
ROOT
ATOM      1  C   UNL A   1      39.337  33.772  33.702  1.00  0.00     0.002 C 
ENDROOT
BRANCH   1   2
ATOM      2  C   UNL A   1      38.560  33.659  32.382  1.00  0.00     0.021 C 
BRANCH   2   3
ATOM      3  C   UNL A   1      37.430  34.674  32.227  1.00  0.00     0.116 C 
BRANCH   3   4
ATOM      4  N   UNL A   1      36.153  34.044  32.452  1.00  0.00    -0.356 N 
ATOM      5  C   UNL A   1      35.142  33.832  31.576  1.00  0.00     0.227 C 
ATOM      6  O   UNL A   1      34.084  33.410  32.046  1.00  0.00    -0.274 OA
ATOM      7  H   UNL A   1      35.993  33.721  33.368  1.00  0.00     0.163 HD
BRANCH   5   8
ATOM      8  C   UNL A   1      35.319  34.150  30.086  1.00  0.00     0.103 C 
ATOM      9  C   UNL A   1      35.316  32.000  29.005  1.00  0.00     0.106 C 
ATOM     10  C   UNL A   1      36.637  32.651  28.796  1.00  0.00    -0.006 C 
ATOM     11  C   UNL A   1      34.426  33.216  29.264  1.00  0.00     0.047 C 
ATOM     12  C   UNL A   1      36.672  33.792  29.508  1.00  0.00    -0.016 C 
BRANCH   9  13
ATOM     13  N   UNL A   1      34.816  31.184  27.939  1.00  0.00    -0.346 N 
ATOM     14  C   UNL A   1      35.276  29.969  27.513  1.00  0.00     0.244 C 
ATOM     15  O   UNL A   1      34.596  29.345  26.693  1.00  0.00    -0.270 OA
ATOM     16  H   UNL A   1      34.041  31.545  27.450  1.00  0.00     0.164 HD
BRANCH  14  17
ATOM     17  C   UNL A   1      36.554  29.318  27.986  1.00  0.00     0.072 C 
ATOM     18  C   UNL A   1      37.779  29.356  27.442  1.00  0.00     0.014 C 
BRANCH  18  19
ATOM     19  C   UNL A   1      39.069  28.760  27.825  1.00  0.00    -0.025 A 
ATOM     20  C   UNL A   1      41.371  27.347  28.625  1.00  0.00     0.052 A 
ATOM     21  C   UNL A   1      41.438  28.316  27.613  1.00  0.00     0.020 A 
ATOM     22  C   UNL A   1      40.159  27.100  29.260  1.00  0.00     0.020 A 
ATOM     23  C   UNL A   1      40.290  29.017  27.209  1.00  0.00     0.009 A 
ATOM     24  C   UNL A   1      39.030  27.813  28.871  1.00  0.00     0.009 A 
BRANCH  20  25
ATOM     25  C   UNL A   1      42.531  26.598  29.011  1.00  0.00     0.099 C 
ATOM     26  N   UNL A   1      43.467  25.997  29.336  1.00  0.00    -0.192 NA
ENDBRANCH  20  25
ENDBRANCH  18  19
ENDBRANCH  14  17
ENDBRANCH   9  13
ENDBRANCH   5   8
ENDBRANCH   3   4
ENDBRANCH   2   3
ENDBRANCH   1   2
BRANCH   1  27
ATOM     27  C   UNL A   1      38.535  33.425  34.961  1.00  0.00     0.002 C 
BRANCH  27  28
ATOM     28  C   UNL A   1      38.239  31.936  35.136  1.00  0.00     0.021 C 
BRANCH  28  29
ATOM     29  C   UNL A   1      37.509  31.303  33.960  1.00  0.00     0.116 C 
BRANCH  29  30
ATOM     30  N   UNL A   1      37.782  29.878  33.851  1.00  0.00    -0.352 N 
ATOM     31  C   UNL A   1      38.712  29.244  33.061  1.00  0.00     0.251 C 
ATOM     32  H   UNL A   1      37.229  29.291  34.415  1.00  0.00     0.163 HD
ATOM     33  O   UNL A   1      38.692  28.024  32.930  1.00  0.00    -0.269 OA
BRANCH  31  34
ATOM     34  C   UNL A   1      39.722  30.058  32.355  1.00  0.00     0.039 A 
ATOM     35  C   UNL A   1      40.887  30.437  33.025  1.00  0.00     0.014 A 
ATOM     36  C   UNL A   1      39.534  30.396  31.012  1.00  0.00     0.014 A 
ATOM     37  C   UNL A   1      41.897  31.100  32.324  1.00  0.00     0.010 A 
ATOM     38  C   UNL A   1      40.574  30.974  30.298  1.00  0.00     0.010 A 
ATOM     39  C   UNL A   1      41.766  31.339  30.947  1.00  0.00    -0.014 A 
BRANCH  39  40
ATOM     40  C   UNL A   1      42.849  31.972  30.152  1.00  0.00     0.031 A 
ATOM     41  C   UNL A   1      44.093  31.188  29.835  1.00  0.00     0.074 A 
ATOM     42  C   UNL A   1      42.763  33.272  29.809  1.00  0.00     0.049 A 
ATOM     43  N   UNL A   1      45.204  31.595  29.279  1.00  0.00    -0.248 NA
ATOM     44  C   UNL A   1      44.098  29.767  30.219  1.00  0.00     0.031 C 
ATOM     45  C   UNL A   1      41.633  34.154  30.105  1.00  0.00     0.029 A 
ATOM     46  N   UNL A   1      43.662  34.091  29.170  1.00  0.00    -0.354 N 
ATOM     47  C   UNL A   1      46.052  30.493  29.282  1.00  0.00     0.074 A 
ATOM     48  C   UNL A   1      45.342  29.414  29.931  1.00  0.00     0.031 C 
ATOM     49  C   UNL A   1      41.908  35.389  29.657  1.00  0.00     0.029 A 
ATOM     50  C   UNL A   1      43.252  35.402  29.090  1.00  0.00     0.049 A 
ATOM     51  H   UNL A   1      44.518  33.770  28.805  1.00  0.00     0.167 HD
ATOM     52  C   UNL A   1      47.300  30.383  28.771  1.00  0.00     0.034 A 
ATOM     53  C   UNL A   1      43.897  36.498  28.642  1.00  0.00     0.034 A 
ATOM     54  C   UNL A   1      47.995  31.455  28.114  1.00  0.00     0.049 A 
ATOM     55  C   UNL A   1      45.292  36.356  28.093  1.00  0.00     0.074 A 
ATOM     56  C   UNL A   1      49.238  31.427  27.507  1.00  0.00     0.029 A 
ATOM     57  N   UNL A   1      47.520  32.752  27.997  1.00  0.00    -0.354 N 
ATOM     58  N   UNL A   1      46.034  35.281  28.001  1.00  0.00    -0.248 NA
ATOM     59  C   UNL A   1      45.929  37.571  27.561  1.00  0.00     0.031 C 
ATOM     60  C   UNL A   1      49.536  32.720  27.068  1.00  0.00     0.029 A 
ATOM     61  C   UNL A   1      48.451  33.537  27.342  1.00  0.00     0.049 A 
ATOM     62  H   UNL A   1      46.648  33.067  28.330  1.00  0.00     0.167 HD
ATOM     63  C   UNL A   1      47.201  35.677  27.358  1.00  0.00     0.074 A 
ATOM     64  C   UNL A   1      47.069  37.091  27.082  1.00  0.00     0.031 C 
ATOM     65  C   UNL A   1      48.284  34.933  27.026  1.00  0.00     0.034 A 
BRANCH  52  66
ATOM     66  C   UNL A   1      47.986  29.046  28.884  1.00  0.00     0.023 A 
ATOM     67  C   UNL A   1      48.793  28.762  30.005  1.00  0.00     0.012 A 
ATOM     68  C   UNL A   1      47.797  28.055  27.901  1.00  0.00     0.148 A 
ATOM     69  C   UNL A   1      49.441  27.533  30.122  1.00  0.00     0.002 A 
ATOM     70  C   UNL A   1      48.401  26.814  28.051  1.00  0.00     0.091 A 
ATOM     71  F   UNL A   1      47.039  28.348  26.835  1.00  0.00    -0.205 F 
ATOM     72  C   UNL A   1      49.236  26.556  29.151  1.00  0.00     0.022 A 
BRANCH  70  73
ATOM     73  S   UNL A   1      48.135  25.461  26.901  1.00  0.00     0.127 S 
ATOM     74  O   UNL A   1      48.591  26.051  25.642  1.00  0.00    -0.237 OA
ATOM     75  O   UNL A   1      49.013  24.423  27.441  1.00  0.00    -0.237 OA
ATOM     76  O   UNL A   1      46.714  25.151  26.963  1.00  0.00    -0.744 OA
ENDBRANCH  70  73
ENDBRANCH  52  66
BRANCH  53  77
ATOM     77  C   UNL A   1      43.224  37.826  28.682  1.00  0.00     0.023 A 
ATOM     78  C   UNL A   1      42.329  38.190  27.656  1.00  0.00     0.012 A 
ATOM     79  C   UNL A   1      43.455  38.725  29.741  1.00  0.00     0.148 A 
ATOM     80  C   UNL A   1      41.706  39.439  27.666  1.00  0.00     0.002 A 
ATOM     81  C   UNL A   1      42.787  39.942  29.776  1.00  0.00     0.091 A 
ATOM     82  F   UNL A   1      44.314  38.361  30.704  1.00  0.00    -0.205 F 
ATOM     83  C   UNL A   1      41.928  40.311  28.729  1.00  0.00     0.022 A 
BRANCH  81  84
ATOM     84  S   UNL A   1      42.914  41.072  31.166  1.00  0.00     0.127 S 
ATOM     85  O   UNL A   1      44.286  41.559  31.032  1.00  0.00    -0.237 OA
ATOM     86  O   UNL A   1      41.877  42.054  30.849  1.00  0.00    -0.237 OA
ATOM     87  O   UNL A   1      42.645  40.273  32.355  1.00  0.00    -0.744 OA
ENDBRANCH  81  84
ENDBRANCH  53  77
BRANCH  65  88
ATOM     88  C   UNL A   1      49.395  35.594  26.254  1.00  0.00     0.023 A 
ATOM     89  C   UNL A   1      49.439  35.514  24.850  1.00  0.00     0.012 A 
ATOM     90  C   UNL A   1      50.330  36.403  26.934  1.00  0.00     0.148 A 
ATOM     91  C   UNL A   1      50.408  36.218  24.133  1.00  0.00     0.002 A 
ATOM     92  C   UNL A   1      51.255  37.145  26.212  1.00  0.00     0.091 A 
ATOM     93  F   UNL A   1      50.277  36.450  28.273  1.00  0.00    -0.205 F 
ATOM     94  C   UNL A   1      51.303  37.045  24.812  1.00  0.00     0.022 A 
BRANCH  92  95
ATOM     95  S   UNL A   1      52.374  38.312  26.990  1.00  0.00     0.127 S 
ATOM     96  O   UNL A   1      51.440  39.238  27.630  1.00  0.00    -0.237 OA
ATOM     97  O   UNL A   1      53.114  37.455  27.916  1.00  0.00    -0.237 OA
ATOM     98  O   UNL A   1      53.174  38.886  25.918  1.00  0.00    -0.744 OA
ENDBRANCH  92  95
ENDBRANCH  65  88
ENDBRANCH  39  40
ENDBRANCH  31  34
ENDBRANCH  29  30
ENDBRANCH  28  29
ENDBRANCH  27  28
ENDBRANCH   1  27
TORSDOF 20
ENDMDL
