MODEL 1
REMARK VINA RESULT:     -10.1      0.000      0.000
REMARK SMILES C[NH+](C)[C@H](CC(=O)Nc1cccc(Cl)c1)C(=O)NCCCCCCNC(=O)c1ccc(-c2c3nc(c(-c4cccc(S(=O)(=O)[O-])c4F)c4ccc([nH]4)c(-c4cccc(S(=O)(=O)[O-])c4F)c4nc(c(-c5cccc(S(=O)(=O)[O-])c5F)c5ccc2[nH]5)C=C4)C=C3)cc1
REMARK SMILES IDX 21 1 20 2 19 3 18 4 16 5 17 6 4 8 2 9 1 10 3 11 5 13 6 14
REMARK SMILES IDX 7 15 8 16 9 18 10 19 15 20 11 21 13 22 12 23 14 24 22 25
REMARK SMILES IDX 23 26 24 27 25 28 26 29 27 31 28 32 29 33 90 34 30 35 89 36
REMARK SMILES IDX 31 37 32 38 33 39 83 40 34 41 88 42 82 43 84 44 35 45 87 46
REMARK SMILES IDX 81 47 80 48 36 50 68 51 48 52 67 53 49 54 52 55 66 56 85 57
REMARK SMILES IDX 50 58 51 59 65 61 86 62 53 63 37 64 38 65 46 66 39 67 41 68
REMARK SMILES IDX 47 69 40 70 42 71 43 72 44 73 45 74 69 75 70 76 78 77 71 78
REMARK SMILES IDX 73 79 79 80 72 81 74 82 75 83 76 84 77 85 54 86 55 87 63 88
REMARK SMILES IDX 56 89 58 90 64 91 57 92 59 93 60 94 61 95 62 96
REMARK H PARENT 18 7 2 12 8 17 25 30 84 49 52 60
REMARK Flexibility Score: inf
ROOT
ATOM      1  C   UNL A   1      36.568  22.497  25.457  1.00  0.00     0.002 C 
ENDROOT
BRANCH   1   2
ATOM      2  C   UNL A   1      35.248  21.806  25.937  1.00  0.00     0.021 C 
BRANCH   2   3
ATOM      3  C   UNL A   1      34.463  20.664  25.236  1.00  0.00     0.116 C 
BRANCH   3   4
ATOM      4  N   UNL A   1      33.233  20.925  24.447  1.00  0.00    -0.351 N 
ATOM      5  C   UNL A   1      32.555  22.076  24.043  1.00  0.00     0.278 C 
ATOM      6  O   UNL A   1      31.942  21.933  22.969  1.00  0.00    -0.268 OA
ATOM      7  H   UNL A   1      32.797  20.097  24.140  1.00  0.00     0.163 HD
BRANCH   5   8
ATOM      8  C   UNL A   1      32.343  23.445  24.863  1.00  0.00     0.283 C 
BRANCH   8   9
ATOM      9  N   UNL A   1      33.097  24.698  24.391  1.00  0.00    -0.329 N 
ATOM     10  C   UNL A   1      33.821  24.698  23.120  1.00  0.00     0.333 C 
ATOM     11  C   UNL A   1      34.042  25.202  25.406  1.00  0.00     0.333 C 
ATOM     12  H   UNL A   1      32.286  25.295  24.233  1.00  0.00     0.348 HD
ENDBRANCH   8   9
BRANCH   8  13
ATOM     13  C   UNL A   1      31.880  23.370  26.306  1.00  0.00     0.175 C 
BRANCH  13  14
ATOM     14  C   UNL A   1      30.475  23.731  26.708  1.00  0.00     0.230 C 
ATOM     15  O   UNL A   1      29.896  22.988  27.515  1.00  0.00    -0.274 OA
ATOM     16  N   UNL A   1      29.828  24.877  26.415  1.00  0.00    -0.326 N 
ATOM     17  H   UNL A   1      28.910  24.895  26.773  1.00  0.00     0.169 HD
BRANCH  16  18
ATOM     18  C   UNL A   1      30.155  26.041  25.725  1.00  0.00     0.042 A 
ATOM     19  C   UNL A   1      29.819  26.372  24.419  1.00  0.00     0.026 A 
ATOM     20  C   UNL A   1      30.950  26.919  26.436  1.00  0.00     0.046 A 
ATOM     21  C   UNL A   1      30.265  27.538  23.801  1.00  0.00     0.004 A 
ATOM     22  C   UNL A   1      31.553  27.976  25.778  1.00  0.00     0.043 A 
ATOM     23  C   UNL A   1      31.185  28.320  24.473  1.00  0.00     0.020 A 
ATOM     24  Cl  UNL A   1      32.885  28.686  26.588  1.00  0.00    -0.084 Cl
ENDBRANCH  16  18
ENDBRANCH  13  14
ENDBRANCH   8  13
ENDBRANCH   5   8
ENDBRANCH   3   4
ENDBRANCH   2   3
ENDBRANCH   1   2
BRANCH   1  25
ATOM     25  C   UNL A   1      38.067  22.089  25.496  1.00  0.00     0.002 C 
BRANCH  25  26
ATOM     26  C   UNL A   1      39.206  22.488  26.461  1.00  0.00     0.021 C 
BRANCH  26  27
ATOM     27  C   UNL A   1      40.323  21.564  26.943  1.00  0.00     0.116 C 
BRANCH  27  28
ATOM     28  N   UNL A   1      41.482  21.529  26.069  1.00  0.00    -0.352 N 
ATOM     29  C   UNL A   1      42.327  22.568  25.723  1.00  0.00     0.251 C 
ATOM     30  H   UNL A   1      41.693  20.654  25.672  1.00  0.00     0.163 HD
ATOM     31  O   UNL A   1      43.124  22.407  24.800  1.00  0.00    -0.269 OA
BRANCH  29  32
ATOM     32  C   UNL A   1      42.301  23.880  26.436  1.00  0.00     0.039 A 
ATOM     33  C   UNL A   1      42.143  25.056  25.690  1.00  0.00     0.014 A 
ATOM     34  C   UNL A   1      42.530  23.974  27.814  1.00  0.00     0.014 A 
ATOM     35  C   UNL A   1      42.221  26.309  26.314  1.00  0.00     0.010 A 
ATOM     36  C   UNL A   1      42.556  25.225  28.444  1.00  0.00     0.010 A 
ATOM     37  C   UNL A   1      42.441  26.408  27.697  1.00  0.00    -0.014 A 
BRANCH  37  38
ATOM     38  C   UNL A   1      42.627  27.740  28.343  1.00  0.00     0.031 A 
ATOM     39  C   UNL A   1      44.015  28.306  28.523  1.00  0.00     0.074 A 
ATOM     40  C   UNL A   1      41.560  28.436  28.785  1.00  0.00     0.049 A 
ATOM     41  N   UNL A   1      44.382  29.460  29.022  1.00  0.00    -0.248 NA
ATOM     42  C   UNL A   1      45.141  27.455  28.106  1.00  0.00     0.031 C 
ATOM     43  C   UNL A   1      40.173  27.971  28.738  1.00  0.00     0.029 A 
ATOM     44  N   UNL A   1      41.474  29.675  29.373  1.00  0.00    -0.354 N 
ATOM     45  C   UNL A   1      45.774  29.460  29.006  1.00  0.00     0.074 A 
ATOM     46  C   UNL A   1      46.187  28.176  28.486  1.00  0.00     0.031 C 
ATOM     47  C   UNL A   1      39.374  28.915  29.263  1.00  0.00     0.029 A 
ATOM     48  C   UNL A   1      40.189  30.044  29.701  1.00  0.00     0.049 A 
ATOM     49  H   UNL A   1      42.257  30.247  29.544  1.00  0.00     0.167 HD
ATOM     50  C   UNL A   1      46.632  30.447  29.361  1.00  0.00     0.034 A 
ATOM     51  C   UNL A   1      39.720  31.167  30.284  1.00  0.00     0.034 A 
ATOM     52  C   UNL A   1      46.216  31.737  29.842  1.00  0.00     0.049 A 
ATOM     53  C   UNL A   1      40.689  32.270  30.624  1.00  0.00     0.074 A 
ATOM     54  C   UNL A   1      46.997  32.836  30.153  1.00  0.00     0.029 A 
ATOM     55  N   UNL A   1      44.900  32.098  30.088  1.00  0.00    -0.354 N 
ATOM     56  N   UNL A   1      41.988  32.309  30.454  1.00  0.00    -0.248 NA
ATOM     57  C   UNL A   1      40.123  33.501  31.196  1.00  0.00     0.031 C 
ATOM     58  C   UNL A   1      46.155  33.853  30.615  1.00  0.00     0.029 A 
ATOM     59  C   UNL A   1      44.846  33.400  30.557  1.00  0.00     0.049 A 
ATOM     60  H   UNL A   1      44.119  31.516  29.950  1.00  0.00     0.167 HD
ATOM     61  C   UNL A   1      42.391  33.575  30.861  1.00  0.00     0.074 A 
ATOM     62  C   UNL A   1      41.193  34.282  31.266  1.00  0.00     0.031 C 
ATOM     63  C   UNL A   1      43.639  34.103  30.908  1.00  0.00     0.034 A 
BRANCH  50  64
ATOM     64  C   UNL A   1      48.110  30.186  29.199  1.00  0.00     0.023 A 
ATOM     65  C   UNL A   1      48.841  29.622  30.266  1.00  0.00     0.012 A 
ATOM     66  C   UNL A   1      48.767  30.450  27.980  1.00  0.00     0.148 A 
ATOM     67  C   UNL A   1      50.207  29.369  30.140  1.00  0.00     0.002 A 
ATOM     68  C   UNL A   1      50.120  30.149  27.846  1.00  0.00     0.091 A 
ATOM     69  F   UNL A   1      48.065  30.999  26.980  1.00  0.00    -0.205 F 
ATOM     70  C   UNL A   1      50.843  29.623  28.929  1.00  0.00     0.022 A 
BRANCH  68  71
ATOM     71  S   UNL A   1      51.015  30.366  26.303  1.00  0.00     0.127 S 
ATOM     72  O   UNL A   1      50.446  29.298  25.480  1.00  0.00    -0.237 OA
ATOM     73  O   UNL A   1      50.619  31.717  25.906  1.00  0.00    -0.237 OA
ATOM     74  O   UNL A   1      52.425  30.217  26.631  1.00  0.00    -0.744 OA
ENDBRANCH  68  71
ENDBRANCH  50  64
BRANCH  51  75
ATOM     75  C   UNL A   1      38.255  31.334  30.518  1.00  0.00     0.023 A 
ATOM     76  C   UNL A   1      37.671  30.801  31.684  1.00  0.00     0.012 A 
ATOM     77  C   UNL A   1      37.446  32.038  29.605  1.00  0.00     0.148 A 
ATOM     78  C   UNL A   1      36.301  30.938  31.920  1.00  0.00     0.002 A 
ATOM     79  C   UNL A   1      36.093  32.219  29.876  1.00  0.00     0.091 A 
ATOM     80  F   UNL A   1      38.017  32.525  28.495  1.00  0.00    -0.205 F 
ATOM     81  C   UNL A   1      35.516  31.655  31.023  1.00  0.00     0.022 A 
BRANCH  79  82
ATOM     82  S   UNL A   1      35.044  33.248  28.840  1.00  0.00     0.127 S 
ATOM     83  O   UNL A   1      34.988  32.460  27.603  1.00  0.00    -0.237 OA
ATOM     84  O   UNL A   1      33.790  33.262  29.606  1.00  0.00    -0.237 OA
ATOM     85  O   UNL A   1      35.705  34.526  28.747  1.00  0.00    -0.744 OA
ENDBRANCH  79  82
ENDBRANCH  51  75
BRANCH  63  86
ATOM     86  C   UNL A   1      43.778  35.528  31.377  1.00  0.00     0.023 A 
ATOM     87  C   UNL A   1      44.002  35.803  32.741  1.00  0.00     0.012 A 
ATOM     88  C   UNL A   1      43.758  36.590  30.452  1.00  0.00     0.148 A 
ATOM     89  C   UNL A   1      44.168  37.115  33.181  1.00  0.00     0.002 A 
ATOM     90  C   UNL A   1      43.977  37.890  30.890  1.00  0.00     0.091 A 
ATOM     91  F   UNL A   1      43.526  36.311  29.161  1.00  0.00    -0.205 F 
ATOM     92  C   UNL A   1      44.168  38.156  32.256  1.00  0.00     0.022 A 
BRANCH  90  93
ATOM     93  S   UNL A   1      44.098  39.279  29.758  1.00  0.00     0.127 S 
ATOM     94  O   UNL A   1      44.154  40.412  30.682  1.00  0.00    -0.237 OA
ATOM     95  O   UNL A   1      45.352  39.002  29.057  1.00  0.00    -0.237 OA
ATOM     96  O   UNL A   1      42.910  39.216  28.917  1.00  0.00    -0.744 OA
ENDBRANCH  90  93
ENDBRANCH  63  86
ENDBRANCH  37  38
ENDBRANCH  29  32
ENDBRANCH  27  28
ENDBRANCH  26  27
ENDBRANCH  25  26
ENDBRANCH   1  25
TORSDOF 20
ENDMDL
MODEL 2
REMARK VINA RESULT:      -9.9      1.293      2.019
REMARK SMILES C[NH+](C)[C@H](CC(=O)Nc1cccc(Cl)c1)C(=O)NCCCCCCNC(=O)c1ccc(-c2c3nc(c(-c4cccc(S(=O)(=O)[O-])c4F)c4ccc([nH]4)c(-c4cccc(S(=O)(=O)[O-])c4F)c4nc(c(-c5cccc(S(=O)(=O)[O-])c5F)c5ccc2[nH]5)C=C4)C=C3)cc1
REMARK SMILES IDX 21 1 20 2 19 3 18 4 16 5 17 6 4 8 2 9 1 10 3 11 5 13 6 14
REMARK SMILES IDX 7 15 8 16 9 18 10 19 15 20 11 21 13 22 12 23 14 24 22 25
REMARK SMILES IDX 23 26 24 27 25 28 26 29 27 31 28 32 29 33 90 34 30 35 89 36
REMARK SMILES IDX 31 37 32 38 33 39 83 40 34 41 88 42 82 43 84 44 35 45 87 46
REMARK SMILES IDX 81 47 80 48 36 50 68 51 48 52 67 53 49 54 52 55 66 56 85 57
REMARK SMILES IDX 50 58 51 59 65 61 86 62 53 63 37 64 38 65 46 66 39 67 41 68
REMARK SMILES IDX 47 69 40 70 42 71 43 72 44 73 45 74 69 75 70 76 78 77 71 78
REMARK SMILES IDX 73 79 79 80 72 81 74 82 75 83 76 84 77 85 54 86 55 87 63 88
REMARK SMILES IDX 56 89 58 90 64 91 57 92 59 93 60 94 61 95 62 96
REMARK H PARENT 18 7 2 12 8 17 25 30 84 49 52 60
REMARK Flexibility Score: inf
ROOT
ATOM      1  C   UNL A   1      35.280  22.699  26.293  1.00  0.00     0.002 C 
ENDROOT
BRANCH   1   2
ATOM      2  C   UNL A   1      33.856  22.326  26.824  1.00  0.00     0.021 C 
BRANCH   2   3
ATOM      3  C   UNL A   1      32.575  22.039  25.994  1.00  0.00     0.116 C 
BRANCH   3   4
ATOM      4  N   UNL A   1      32.580  22.056  24.510  1.00  0.00    -0.351 N 
ATOM      5  C   UNL A   1      32.664  23.059  23.543  1.00  0.00     0.278 C 
ATOM      6  O   UNL A   1      33.202  22.679  22.487  1.00  0.00    -0.268 OA
ATOM      7  H   UNL A   1      32.507  21.155  24.120  1.00  0.00     0.163 HD
BRANCH   5   8
ATOM      8  C   UNL A   1      32.015  24.532  23.578  1.00  0.00     0.283 C 
BRANCH   8   9
ATOM      9  N   UNL A   1      31.272  24.969  24.850  1.00  0.00    -0.329 N 
ATOM     10  C   UNL A   1      30.128  25.879  24.770  1.00  0.00     0.333 C 
ATOM     11  C   UNL A   1      32.179  25.533  25.867  1.00  0.00     0.333 C 
ATOM     12  H   UNL A   1      30.872  24.063  25.093  1.00  0.00     0.348 HD
ENDBRANCH   8   9
BRANCH   8  13
ATOM     13  C   UNL A   1      31.681  25.216  22.265  1.00  0.00     0.175 C 
BRANCH  13  14
ATOM     14  C   UNL A   1      32.658  26.129  21.575  1.00  0.00     0.230 C 
ATOM     15  O   UNL A   1      33.139  25.751  20.495  1.00  0.00    -0.274 OA
ATOM     16  N   UNL A   1      32.946  27.401  21.919  1.00  0.00    -0.326 N 
ATOM     17  H   UNL A   1      33.624  27.807  21.331  1.00  0.00     0.169 HD
BRANCH  16  18
ATOM     18  C   UNL A   1      32.506  28.273  22.911  1.00  0.00     0.042 A 
ATOM     19  C   UNL A   1      33.137  28.575  24.111  1.00  0.00     0.026 A 
ATOM     20  C   UNL A   1      31.274  28.844  22.661  1.00  0.00     0.046 A 
ATOM     21  C   UNL A   1      32.567  29.411  25.069  1.00  0.00     0.004 A 
ATOM     22  C   UNL A   1      30.616  29.515  23.676  1.00  0.00     0.043 A 
ATOM     23  C   UNL A   1      31.269  29.841  24.869  1.00  0.00     0.020 A 
ATOM     24  Cl  UNL A   1      28.933  29.734  23.446  1.00  0.00    -0.084 Cl
ENDBRANCH  16  18
ENDBRANCH  13  14
ENDBRANCH   8  13
ENDBRANCH   5   8
ENDBRANCH   3   4
ENDBRANCH   2   3
ENDBRANCH   1   2
BRANCH   1  25
ATOM     25  C   UNL A   1      36.183  22.138  25.160  1.00  0.00     0.002 C 
BRANCH  25  26
ATOM     26  C   UNL A   1      37.718  21.999  25.055  1.00  0.00     0.021 C 
BRANCH  26  27
ATOM     27  C   UNL A   1      38.708  22.227  26.196  1.00  0.00     0.116 C 
BRANCH  27  28
ATOM     28  N   UNL A   1      40.057  21.776  25.908  1.00  0.00    -0.352 N 
ATOM     29  C   UNL A   1      41.240  22.488  26.009  1.00  0.00     0.251 C 
ATOM     30  H   UNL A   1      40.142  20.844  25.603  1.00  0.00     0.163 HD
ATOM     31  O   UNL A   1      42.263  22.017  25.514  1.00  0.00    -0.269 OA
BRANCH  29  32
ATOM     32  C   UNL A   1      41.310  23.810  26.698  1.00  0.00     0.039 A 
ATOM     33  C   UNL A   1      41.201  24.981  25.935  1.00  0.00     0.014 A 
ATOM     34  C   UNL A   1      41.582  23.913  28.067  1.00  0.00     0.014 A 
ATOM     35  C   UNL A   1      41.370  26.238  26.534  1.00  0.00     0.010 A 
ATOM     36  C   UNL A   1      41.699  25.171  28.674  1.00  0.00     0.010 A 
ATOM     37  C   UNL A   1      41.633  26.346  27.909  1.00  0.00    -0.014 A 
BRANCH  37  38
ATOM     38  C   UNL A   1      41.915  27.675  28.526  1.00  0.00     0.031 A 
ATOM     39  C   UNL A   1      43.341  28.140  28.702  1.00  0.00     0.074 A 
ATOM     40  C   UNL A   1      40.901  28.458  28.945  1.00  0.00     0.049 A 
ATOM     41  N   UNL A   1      43.791  29.274  29.177  1.00  0.00    -0.248 NA
ATOM     42  C   UNL A   1      44.403  27.198  28.311  1.00  0.00     0.031 C 
ATOM     43  C   UNL A   1      39.484  28.097  28.899  1.00  0.00     0.029 A 
ATOM     44  N   UNL A   1      40.905  29.714  29.504  1.00  0.00    -0.354 N 
ATOM     45  C   UNL A   1      45.179  29.170  29.170  1.00  0.00     0.074 A 
ATOM     46  C   UNL A   1      45.497  27.847  28.682  1.00  0.00     0.031 C 
ATOM     47  C   UNL A   1      38.755  29.110  29.397  1.00  0.00     0.029 A 
ATOM     48  C   UNL A   1      39.650  30.185  29.815  1.00  0.00     0.049 A 
ATOM     49  H   UNL A   1      41.728  30.229  29.666  1.00  0.00     0.167 HD
ATOM     50  C   UNL A   1      46.107  30.098  29.507  1.00  0.00     0.034 A 
ATOM     51  C   UNL A   1      39.264  31.353  30.369  1.00  0.00     0.034 A 
ATOM     52  C   UNL A   1      45.786  31.427  29.956  1.00  0.00     0.049 A 
ATOM     53  C   UNL A   1      40.311  32.388  30.690  1.00  0.00     0.074 A 
ATOM     54  C   UNL A   1      46.646  32.471  30.248  1.00  0.00     0.029 A 
ATOM     55  N   UNL A   1      44.500  31.891  30.186  1.00  0.00    -0.354 N 
ATOM     56  N   UNL A   1      41.610  32.326  30.528  1.00  0.00    -0.248 NA
ATOM     57  C   UNL A   1      39.836  33.671  31.230  1.00  0.00     0.031 C 
ATOM     58  C   UNL A   1      45.879  33.558  30.681  1.00  0.00     0.029 A 
ATOM     59  C   UNL A   1      44.541  33.203  30.624  1.00  0.00     0.049 A 
ATOM     60  H   UNL A   1      43.678  31.366  30.056  1.00  0.00     0.167 HD
ATOM     61  C   UNL A   1      42.104  33.568  30.909  1.00  0.00     0.074 A 
ATOM     62  C   UNL A   1      40.960  34.372  31.289  1.00  0.00     0.031 C 
ATOM     63  C   UNL A   1      43.388  34.003  30.952  1.00  0.00     0.034 A 
BRANCH  50  64
ATOM     64  C   UNL A   1      47.562  29.724  29.361  1.00  0.00     0.023 A 
ATOM     65  C   UNL A   1      48.240  29.121  30.441  1.00  0.00     0.012 A 
ATOM     66  C   UNL A   1      48.246  29.921  28.145  1.00  0.00     0.148 A 
ATOM     67  C   UNL A   1      49.584  28.764  30.331  1.00  0.00     0.002 A 
ATOM     68  C   UNL A   1      49.573  29.517  28.026  1.00  0.00     0.091 A 
ATOM     69  F   UNL A   1      47.595  30.508  27.132  1.00  0.00    -0.205 F 
ATOM     70  C   UNL A   1      50.246  28.952  29.122  1.00  0.00     0.022 A 
BRANCH  68  71
ATOM     71  S   UNL A   1      50.494  29.644  26.488  1.00  0.00     0.127 S 
ATOM     72  O   UNL A   1      49.725  28.760  25.611  1.00  0.00    -0.237 OA
ATOM     73  O   UNL A   1      50.371  31.068  26.174  1.00  0.00    -0.237 OA
ATOM     74  O   UNL A   1      51.846  29.201  26.790  1.00  0.00    -0.744 OA
ENDBRANCH  68  71
ENDBRANCH  50  64
BRANCH  51  75
ATOM     75  C   UNL A   1      37.814  31.634  30.589  1.00  0.00     0.023 A 
ATOM     76  C   UNL A   1      37.212  31.273  31.811  1.00  0.00     0.012 A 
ATOM     77  C   UNL A   1      37.038  32.279  29.606  1.00  0.00     0.148 A 
ATOM     78  C   UNL A   1      35.856  31.519  32.037  1.00  0.00     0.002 A 
ATOM     79  C   UNL A   1      35.702  32.571  29.861  1.00  0.00     0.091 A 
ATOM     80  F   UNL A   1      37.624  32.602  28.445  1.00  0.00    -0.205 F 
ATOM     81  C   UNL A   1      35.105  32.177  31.068  1.00  0.00     0.022 A 
BRANCH  79  82
ATOM     82  S   UNL A   1      34.704  33.538  28.721  1.00  0.00     0.127 S 
ATOM     83  O   UNL A   1      33.488  33.763  29.512  1.00  0.00    -0.237 OA
ATOM     84  O   UNL A   1      35.536  34.734  28.536  1.00  0.00    -0.237 OA
ATOM     85  O   UNL A   1      34.549  32.727  27.539  1.00  0.00    -0.744 OA
ENDBRANCH  79  82
ENDBRANCH  51  75
BRANCH  63  86
ATOM     86  C   UNL A   1      43.630  35.424  31.389  1.00  0.00     0.023 A 
ATOM     87  C   UNL A   1      43.882  35.711  32.746  1.00  0.00     0.012 A 
ATOM     88  C   UNL A   1      43.681  36.465  30.441  1.00  0.00     0.148 A 
ATOM     89  C   UNL A   1      44.143  37.017  33.157  1.00  0.00     0.002 A 
ATOM     90  C   UNL A   1      43.995  37.754  30.850  1.00  0.00     0.091 A 
ATOM     91  F   UNL A   1      43.421  36.175  29.158  1.00  0.00    -0.205 F 
ATOM     92  C   UNL A   1      44.212  38.035  32.209  1.00  0.00     0.022 A 
BRANCH  90  93
ATOM     93  S   UNL A   1      44.207  39.107  29.688  1.00  0.00     0.127 S 
ATOM     94  O   UNL A   1      43.586  40.219  30.408  1.00  0.00    -0.237 OA
ATOM     95  O   UNL A   1      45.662  39.192  29.572  1.00  0.00    -0.237 OA
ATOM     96  O   UNL A   1      43.526  38.697  28.466  1.00  0.00    -0.744 OA
ENDBRANCH  90  93
ENDBRANCH  63  86
ENDBRANCH  37  38
ENDBRANCH  29  32
ENDBRANCH  27  28
ENDBRANCH  26  27
ENDBRANCH  25  26
ENDBRANCH   1  25
TORSDOF 20
ENDMDL
MODEL 3
REMARK VINA RESULT:      -9.9      3.027      3.994
REMARK SMILES C[NH+](C)[C@H](CC(=O)Nc1cccc(Cl)c1)C(=O)NCCCCCCNC(=O)c1ccc(-c2c3nc(c(-c4cccc(S(=O)(=O)[O-])c4F)c4ccc([nH]4)c(-c4cccc(S(=O)(=O)[O-])c4F)c4nc(c(-c5cccc(S(=O)(=O)[O-])c5F)c5ccc2[nH]5)C=C4)C=C3)cc1
REMARK SMILES IDX 21 1 20 2 19 3 18 4 16 5 17 6 4 8 2 9 1 10 3 11 5 13 6 14
REMARK SMILES IDX 7 15 8 16 9 18 10 19 15 20 11 21 13 22 12 23 14 24 22 25
REMARK SMILES IDX 23 26 24 27 25 28 26 29 27 31 28 32 29 33 90 34 30 35 89 36
REMARK SMILES IDX 31 37 32 38 33 39 83 40 34 41 88 42 82 43 84 44 35 45 87 46
REMARK SMILES IDX 81 47 80 48 36 50 68 51 48 52 67 53 49 54 52 55 66 56 85 57
REMARK SMILES IDX 50 58 51 59 65 61 86 62 53 63 37 64 38 65 46 66 39 67 41 68
REMARK SMILES IDX 47 69 40 70 42 71 43 72 44 73 45 74 69 75 70 76 78 77 71 78
REMARK SMILES IDX 73 79 79 80 72 81 74 82 75 83 76 84 77 85 54 86 55 87 63 88
REMARK SMILES IDX 56 89 58 90 64 91 57 92 59 93 60 94 61 95 62 96
REMARK H PARENT 18 7 2 12 8 17 25 30 84 49 52 60
REMARK Flexibility Score: inf
ROOT
ATOM      1  C   UNL A   1      36.860  23.332  26.051  1.00  0.00     0.002 C 
ENDROOT
BRANCH   1   2
ATOM      2  C   UNL A   1      35.386  23.640  25.622  1.00  0.00     0.021 C 
BRANCH   2   3
ATOM      3  C   UNL A   1      34.782  25.009  25.206  1.00  0.00     0.116 C 
BRANCH   3   4
ATOM      4  N   UNL A   1      34.154  25.219  23.878  1.00  0.00    -0.351 N 
ATOM      5  C   UNL A   1      33.723  26.340  23.165  1.00  0.00     0.278 C 
ATOM      6  O   UNL A   1      33.793  26.193  21.932  1.00  0.00    -0.268 OA
ATOM      7  H   UNL A   1      34.006  24.377  23.390  1.00  0.00     0.163 HD
BRANCH   5   8
ATOM      8  C   UNL A   1      33.015  27.669  23.734  1.00  0.00     0.283 C 
BRANCH   8   9
ATOM      9  N   UNL A   1      32.914  27.844  25.257  1.00  0.00    -0.329 N 
ATOM     10  C   UNL A   1      31.682  28.340  25.871  1.00  0.00     0.333 C 
ATOM     11  C   UNL A   1      34.009  28.669  25.804  1.00  0.00     0.333 C 
ATOM     12  H   UNL A   1      32.957  26.858  25.512  1.00  0.00     0.348 HD
ENDBRANCH   8   9
BRANCH   8  13
ATOM     13  C   UNL A   1      32.034  28.413  22.846  1.00  0.00     0.175 C 
BRANCH  13  14
ATOM     14  C   UNL A   1      30.639  27.904  22.606  1.00  0.00     0.230 C 
ATOM     15  O   UNL A   1      30.448  26.680  22.683  1.00  0.00    -0.274 OA
ATOM     16  N   UNL A   1      29.524  28.652  22.482  1.00  0.00    -0.326 N 
ATOM     17  H   UNL A   1      28.719  28.107  22.321  1.00  0.00     0.169 HD
BRANCH  16  18
ATOM     18  C   UNL A   1      29.245  30.015  22.531  1.00  0.00     0.042 A 
ATOM     19  C   UNL A   1      29.176  30.825  23.657  1.00  0.00     0.026 A 
ATOM     20  C   UNL A   1      28.960  30.581  21.303  1.00  0.00     0.046 A 
ATOM     21  C   UNL A   1      28.815  32.169  23.596  1.00  0.00     0.004 A 
ATOM     22  C   UNL A   1      28.417  31.853  21.250  1.00  0.00     0.043 A 
ATOM     23  C   UNL A   1      28.380  32.671  22.384  1.00  0.00     0.020 A 
ATOM     24  Cl  UNL A   1      27.637  32.261  19.781  1.00  0.00    -0.084 Cl
ENDBRANCH  16  18
ENDBRANCH  13  14
ENDBRANCH   8  13
ENDBRANCH   5   8
ENDBRANCH   3   4
ENDBRANCH   2   3
ENDBRANCH   1   2
BRANCH   1  25
ATOM     25  C   UNL A   1      37.982  22.433  25.462  1.00  0.00     0.002 C 
BRANCH  25  26
ATOM     26  C   UNL A   1      38.713  21.204  26.046  1.00  0.00     0.021 C 
BRANCH  26  27
ATOM     27  C   UNL A   1      39.177  19.987  25.247  1.00  0.00     0.116 C 
BRANCH  27  28
ATOM     28  N   UNL A   1      40.249  19.238  25.879  1.00  0.00    -0.352 N 
ATOM     29  C   UNL A   1      41.408  19.722  26.459  1.00  0.00     0.251 C 
ATOM     30  H   UNL A   1      40.135  18.260  25.897  1.00  0.00     0.163 HD
ATOM     31  O   UNL A   1      42.305  18.932  26.747  1.00  0.00    -0.269 OA
BRANCH  29  32
ATOM     32  C   UNL A   1      41.602  21.175  26.744  1.00  0.00     0.039 A 
ATOM     33  C   UNL A   1      42.001  22.024  25.702  1.00  0.00     0.014 A 
ATOM     34  C   UNL A   1      41.495  21.692  28.040  1.00  0.00     0.014 A 
ATOM     35  C   UNL A   1      42.296  23.371  25.957  1.00  0.00     0.010 A 
ATOM     36  C   UNL A   1      41.741  23.050  28.284  1.00  0.00     0.010 A 
ATOM     37  C   UNL A   1      42.181  23.897  27.254  1.00  0.00    -0.014 A 
BRANCH  37  38
ATOM     38  C   UNL A   1      42.594  25.301  27.544  1.00  0.00     0.031 A 
ATOM     39  C   UNL A   1      43.953  25.794  27.110  1.00  0.00     0.074 A 
ATOM     40  C   UNL A   1      41.764  26.129  28.210  1.00  0.00     0.049 A 
ATOM     41  N   UNL A   1      44.481  26.986  27.232  1.00  0.00    -0.248 NA
ATOM     42  C   UNL A   1      44.847  24.813  26.473  1.00  0.00     0.031 C 
ATOM     43  C   UNL A   1      40.455  25.756  28.747  1.00  0.00     0.029 A 
ATOM     44  N   UNL A   1      41.902  27.451  28.560  1.00  0.00    -0.354 N 
ATOM     45  C   UNL A   1      45.770  26.891  26.716  1.00  0.00     0.074 A 
ATOM     46  C   UNL A   1      45.961  25.514  26.318  1.00  0.00     0.031 C 
ATOM     47  C   UNL A   1      39.906  26.824  29.348  1.00  0.00     0.029 A 
ATOM     48  C   UNL A   1      40.827  27.953  29.258  1.00  0.00     0.049 A 
ATOM     49  H   UNL A   1      42.695  27.988  28.334  1.00  0.00     0.167 HD
ATOM     50  C   UNL A   1      46.701  27.863  26.559  1.00  0.00     0.034 A 
ATOM     51  C   UNL A   1      40.607  29.185  29.762  1.00  0.00     0.034 A 
ATOM     52  C   UNL A   1      46.493  29.239  26.922  1.00  0.00     0.049 A 
ATOM     53  C   UNL A   1      41.636  30.261  29.531  1.00  0.00     0.074 A 
ATOM     54  C   UNL A   1      47.337  30.319  26.732  1.00  0.00     0.029 A 
ATOM     55  N   UNL A   1      45.359  29.723  27.556  1.00  0.00    -0.354 N 
ATOM     56  N   UNL A   1      42.783  30.185  28.901  1.00  0.00    -0.248 NA
ATOM     57  C   UNL A   1      41.322  31.604  30.041  1.00  0.00     0.031 C 
ATOM     58  C   UNL A   1      46.724  31.452  27.278  1.00  0.00     0.029 A 
ATOM     59  C   UNL A   1      45.484  31.084  27.776  1.00  0.00     0.049 A 
ATOM     60  H   UNL A   1      44.580  29.180  27.814  1.00  0.00     0.167 HD
ATOM     61  C   UNL A   1      43.310  31.470  28.906  1.00  0.00     0.074 A 
ATOM     62  C   UNL A   1      42.345  32.313  29.583  1.00  0.00     0.031 C 
ATOM     63  C   UNL A   1      44.491  31.915  28.407  1.00  0.00     0.034 A 
BRANCH  50  64
ATOM     64  C   UNL A   1      48.017  27.480  25.925  1.00  0.00     0.023 A 
ATOM     65  C   UNL A   1      49.055  26.964  26.729  1.00  0.00     0.012 A 
ATOM     66  C   UNL A   1      48.212  27.583  24.533  1.00  0.00     0.148 A 
ATOM     67  C   UNL A   1      50.279  26.602  26.167  1.00  0.00     0.002 A 
ATOM     68  C   UNL A   1      49.419  27.173  23.973  1.00  0.00     0.091 A 
ATOM     69  F   UNL A   1      47.223  28.089  23.784  1.00  0.00    -0.205 F 
ATOM     70  C   UNL A   1      50.458  26.697  24.790  1.00  0.00     0.022 A 
BRANCH  68  71
ATOM     71  S   UNL A   1      49.722  27.182  22.202  1.00  0.00     0.127 S 
ATOM     72  O   UNL A   1      48.730  26.214  21.730  1.00  0.00    -0.237 OA
ATOM     73  O   UNL A   1      49.431  28.571  21.848  1.00  0.00    -0.237 OA
ATOM     74  O   UNL A   1      51.111  26.787  22.029  1.00  0.00    -0.744 OA
ENDBRANCH  68  71
ENDBRANCH  50  64
BRANCH  51  75
ATOM     75  C   UNL A   1      39.330  29.485  30.473  1.00  0.00     0.023 A 
ATOM     76  C   UNL A   1      39.146  29.035  31.796  1.00  0.00     0.012 A 
ATOM     77  C   UNL A   1      38.309  30.235  29.856  1.00  0.00     0.148 A 
ATOM     78  C   UNL A   1      37.956  29.298  32.479  1.00  0.00     0.002 A 
ATOM     79  C   UNL A   1      37.151  30.541  30.563  1.00  0.00     0.091 A 
ATOM     80  F   UNL A   1      38.496  30.642  28.593  1.00  0.00    -0.205 F 
ATOM     81  C   UNL A   1      36.965  30.058  31.867  1.00  0.00     0.022 A 
BRANCH  79  82
ATOM     82  S   UNL A   1      35.887  31.631  29.895  1.00  0.00     0.127 S 
ATOM     83  O   UNL A   1      35.291  30.787  28.853  1.00  0.00    -0.237 OA
ATOM     84  O   UNL A   1      35.027  31.845  31.067  1.00  0.00    -0.237 OA
ATOM     85  O   UNL A   1      36.579  32.810  29.436  1.00  0.00    -0.744 OA
ENDBRANCH  79  82
ENDBRANCH  51  75
BRANCH  63  86
ATOM     86  C   UNL A   1      44.795  33.385  28.536  1.00  0.00     0.023 A 
ATOM     87  C   UNL A   1      44.404  34.278  27.518  1.00  0.00     0.012 A 
ATOM     88  C   UNL A   1      45.404  33.889  29.702  1.00  0.00     0.148 A 
ATOM     89  C   UNL A   1      44.647  35.644  27.643  1.00  0.00     0.002 A 
ATOM     90  C   UNL A   1      45.595  35.257  29.843  1.00  0.00     0.091 A 
ATOM     91  F   UNL A   1      45.785  33.022  30.652  1.00  0.00    -0.205 F 
ATOM     92  C   UNL A   1      45.230  36.135  28.809  1.00  0.00     0.022 A 
BRANCH  90  93
ATOM     93  S   UNL A   1      46.242  35.988  31.351  1.00  0.00     0.127 S 
ATOM     94  O   UNL A   1      46.246  37.411  31.014  1.00  0.00    -0.237 OA
ATOM     95  O   UNL A   1      45.239  35.598  32.341  1.00  0.00    -0.237 OA
ATOM     96  O   UNL A   1      47.556  35.390  31.555  1.00  0.00    -0.744 OA
ENDBRANCH  90  93
ENDBRANCH  63  86
ENDBRANCH  37  38
ENDBRANCH  29  32
ENDBRANCH  27  28
ENDBRANCH  26  27
ENDBRANCH  25  26
ENDBRANCH   1  25
TORSDOF 20
ENDMDL
