MODEL 1
REMARK VINA RESULT:     -11.7      0.000      0.000
REMARK SMILES Cc1oc2cc3c(cc2c1C)[C@H](C)[C@@H](CC(=O)N[C@H](CC1=c2ccccc2=NC1)C(=O)NCCCCCCNC(=O)c1ccc(-c2c4nc(c(-c5cccc(S(=O)(=O)[O-])c5F)c5ccc([nH]5)c(-c5cccc(S(=O)(=O)[O-])c5F)c5nc(c(-c6cccc(S(=O)(=O)[O-])c6F)c6ccc2[nH]6)C=C5)C=C4)cc1)C(=O)O3
REMARK SMILES IDX 35 1 34 2 33 3 32 4 30 5 31 6 19 8 18 9 16 10 17 11 15 13
REMARK SMILES IDX 14 14 1 15 2 16 3 17 10 18 4 19 9 20 11 21 5 22 8 23 6 24
REMARK SMILES IDX 7 25 107 26 12 27 105 28 13 29 106 30 20 31 21 32 22 33
REMARK SMILES IDX 29 34 23 35 27 36 28 37 24 38 26 39 25 40 36 41 37 42 38 43
REMARK SMILES IDX 39 44 40 45 41 47 42 48 43 49 104 50 44 51 103 52 45 53
REMARK SMILES IDX 46 54 47 55 97 56 48 57 102 58 96 59 98 60 49 61 101 62
REMARK SMILES IDX 95 63 94 64 50 66 82 67 62 68 81 69 63 70 66 71 80 72 99 73
REMARK SMILES IDX 64 74 65 75 79 77 100 78 67 79 51 80 52 81 60 82 53 83 55 84
REMARK SMILES IDX 61 85 54 86 56 87 57 88 58 89 59 90 83 91 84 92 92 93 85 94
REMARK SMILES IDX 87 95 93 96 86 97 88 98 89 99 90 100 91 101 68 102 69 103
REMARK SMILES IDX 77 104 70 105 72 106 78 107 71 108 73 109 74 110 75 111
REMARK SMILES IDX 76 112
REMARK H PARENT 32 7 18 12 39 46 98 65 66 76
REMARK Flexibility Score: inf
ROOT
ATOM      1  C   UNL A   1      35.181  30.969  28.113  1.00  0.00     0.002 C 
ENDROOT
BRANCH   1   2
ATOM      2  C   UNL A   1      34.087  30.316  27.258  1.00  0.00     0.021 C 
BRANCH   2   3
ATOM      3  C   UNL A   1      34.375  28.945  26.607  1.00  0.00     0.116 C 
BRANCH   3   4
ATOM      4  N   UNL A   1      34.245  29.023  25.150  1.00  0.00    -0.354 N 
ATOM      5  C   UNL A   1      34.048  28.149  24.129  1.00  0.00     0.242 C 
ATOM      6  O   UNL A   1      34.265  28.629  23.001  1.00  0.00    -0.273 OA
ATOM      7  H   UNL A   1      34.321  29.949  24.826  1.00  0.00     0.163 HD
BRANCH   5   8
ATOM      8  C   UNL A   1      33.506  26.676  24.203  1.00  0.00     0.175 C 
BRANCH   8   9
ATOM      9  N   UNL A   1      33.263  25.769  23.063  1.00  0.00    -0.344 N 
ATOM     10  C   UNL A   1      33.471  24.474  22.745  1.00  0.00     0.221 C 
ATOM     11  O   UNL A   1      33.640  24.258  21.537  1.00  0.00    -0.275 OA
ATOM     12  H   UNL A   1      32.821  26.245  22.323  1.00  0.00     0.164 HD
BRANCH  10  13
ATOM     13  C   UNL A   1      33.359  23.288  23.684  1.00  0.00     0.116 C 
BRANCH  13  14
ATOM     14  C   UNL A   1      34.567  22.747  24.434  1.00  0.00     0.116 C 
ATOM     15  C   UNL A   1      42.277  22.982  27.969  1.00  0.00     0.088 C 
ATOM     16  C   UNL A   1      40.947  23.146  27.352  1.00  0.00     0.105 A 
ATOM     17  O   UNL A   1      40.480  22.071  26.662  1.00  0.00    -0.461 OA
ATOM     18  C   UNL A   1      40.026  24.180  27.324  1.00  0.00    -0.002 A 
ATOM     19  C   UNL A   1      39.225  22.381  26.249  1.00  0.00     0.138 A 
ATOM     20  C   UNL A   1      38.861  23.641  26.704  1.00  0.00     0.024 A 
ATOM     21  C   UNL A   1      40.189  25.563  27.832  1.00  0.00     0.049 C 
ATOM     22  C   UNL A   1      38.427  21.571  25.458  1.00  0.00     0.095 A 
ATOM     23  C   UNL A   1      37.553  24.106  26.457  1.00  0.00     0.020 A 
ATOM     24  C   UNL A   1      37.171  22.096  25.165  1.00  0.00     0.138 A 
ATOM     25  C   UNL A   1      36.673  23.293  25.732  1.00  0.00    -0.001 A 
ATOM     26  O   UNL A   1      36.464  21.416  24.176  1.00  0.00    -0.426 OA
ATOM     27  C   UNL A   1      35.250  23.757  25.393  1.00  0.00     0.035 C 
ATOM     28  C   UNL A   1      35.735  22.411  23.575  1.00  0.00     0.315 C 
ATOM     29  C   UNL A   1      34.408  24.019  26.634  1.00  0.00     0.014 C 
ATOM     30  O   UNL A   1      36.112  23.038  22.601  1.00  0.00    -0.251 OA
ENDBRANCH  13  14
ENDBRANCH  10  13
ENDBRANCH   8   9
BRANCH   8  31
ATOM     31  C   UNL A   1      32.450  26.467  25.378  1.00  0.00     0.068 C 
BRANCH  31  32
ATOM     32  C   UNL A   1      31.076  27.092  25.248  1.00  0.00    -0.037 C 
ATOM     33  C   UNL A   1      30.860  28.144  24.455  1.00  0.00     0.001 A 
ATOM     34  C   UNL A   1      29.903  26.166  25.176  1.00  0.00     0.174 C 
ATOM     35  C   UNL A   1      30.704  29.547  24.764  1.00  0.00     0.010 A 
ATOM     36  C   UNL A   1      29.834  27.585  23.551  1.00  0.00     0.065 A 
ATOM     37  N   UNL A   1      29.293  26.448  23.858  1.00  0.00    -0.280 NA
ATOM     38  C   UNL A   1      30.101  30.316  23.835  1.00  0.00     0.001 A 
ATOM     39  C   UNL A   1      29.568  28.426  22.370  1.00  0.00     0.028 A 
ATOM     40  C   UNL A   1      29.726  29.751  22.542  1.00  0.00     0.002 A 
ENDBRANCH  31  32
ENDBRANCH   8  31
ENDBRANCH   5   8
ENDBRANCH   3   4
ENDBRANCH   2   3
ENDBRANCH   1   2
BRANCH   1  41
ATOM     41  C   UNL A   1      35.403  32.483  27.941  1.00  0.00     0.002 C 
BRANCH  41  42
ATOM     42  C   UNL A   1      35.859  33.297  29.169  1.00  0.00     0.021 C 
BRANCH  42  43
ATOM     43  C   UNL A   1      35.075  33.079  30.464  1.00  0.00     0.116 C 
BRANCH  43  44
ATOM     44  N   UNL A   1      35.198  34.124  31.466  1.00  0.00    -0.352 N 
ATOM     45  C   UNL A   1      36.174  34.280  32.425  1.00  0.00     0.251 C 
ATOM     46  H   UNL A   1      34.491  34.811  31.458  1.00  0.00     0.163 HD
ATOM     47  O   UNL A   1      36.254  35.312  33.082  1.00  0.00    -0.269 OA
BRANCH  45  48
ATOM     48  C   UNL A   1      37.113  33.169  32.663  1.00  0.00     0.039 A 
ATOM     49  C   UNL A   1      38.415  33.210  32.156  1.00  0.00     0.014 A 
ATOM     50  C   UNL A   1      36.653  32.058  33.368  1.00  0.00     0.014 A 
ATOM     51  C   UNL A   1      39.237  32.088  32.280  1.00  0.00     0.010 A 
ATOM     52  C   UNL A   1      37.481  30.947  33.505  1.00  0.00     0.010 A 
ATOM     53  C   UNL A   1      38.771  30.950  32.952  1.00  0.00    -0.014 A 
BRANCH  53  54
ATOM     54  C   UNL A   1      39.699  29.821  33.172  1.00  0.00     0.031 A 
ATOM     55  C   UNL A   1      40.250  29.259  31.903  1.00  0.00     0.074 A 
ATOM     56  C   UNL A   1      40.377  29.649  34.330  1.00  0.00     0.049 A 
ATOM     57  N   UNL A   1      41.185  29.878  31.245  1.00  0.00    -0.248 NA
ATOM     58  C   UNL A   1      39.632  28.166  31.158  1.00  0.00     0.031 C 
ATOM     59  C   UNL A   1      40.614  30.730  35.297  1.00  0.00     0.029 A 
ATOM     60  N   UNL A   1      41.177  28.616  34.779  1.00  0.00    -0.354 N 
ATOM     61  C   UNL A   1      41.248  29.319  29.985  1.00  0.00     0.074 A 
ATOM     62  C   UNL A   1      40.288  28.235  29.986  1.00  0.00     0.031 C 
ATOM     63  C   UNL A   1      41.633  30.374  36.105  1.00  0.00     0.029 A 
ATOM     64  C   UNL A   1      42.028  28.993  35.824  1.00  0.00     0.049 A 
ATOM     65  H   UNL A   1      41.152  27.708  34.401  1.00  0.00     0.167 HD
ATOM     66  C   UNL A   1      42.087  29.795  29.025  1.00  0.00     0.034 A 
ATOM     67  C   UNL A   1      43.300  28.532  36.014  1.00  0.00     0.034 A 
ATOM     68  C   UNL A   1      42.861  30.946  29.406  1.00  0.00     0.049 A 
ATOM     69  C   UNL A   1      43.993  29.028  34.769  1.00  0.00     0.074 A 
ATOM     70  C   UNL A   1      42.783  32.315  29.261  1.00  0.00     0.029 A 
ATOM     71  N   UNL A   1      43.953  30.754  30.219  1.00  0.00    -0.354 N 
ATOM     72  N   UNL A   1      44.376  30.257  34.539  1.00  0.00    -0.248 NA
ATOM     73  C   UNL A   1      43.935  28.172  33.585  1.00  0.00     0.031 C 
ATOM     74  C   UNL A   1      43.533  32.861  30.354  1.00  0.00     0.029 A 
ATOM     75  C   UNL A   1      43.981  31.788  31.120  1.00  0.00     0.049 A 
ATOM     76  H   UNL A   1      44.595  30.010  30.165  1.00  0.00     0.167 HD
ATOM     77  C   UNL A   1      44.330  30.406  33.150  1.00  0.00     0.074 A 
ATOM     78  C   UNL A   1      44.066  29.079  32.627  1.00  0.00     0.031 C 
ATOM     79  C   UNL A   1      44.352  31.613  32.510  1.00  0.00     0.034 A 
BRANCH  66  80
ATOM     80  C   UNL A   1      42.408  29.074  27.773  1.00  0.00     0.023 A 
ATOM     81  C   UNL A   1      41.484  29.249  26.722  1.00  0.00     0.012 A 
ATOM     82  C   UNL A   1      43.430  28.120  27.644  1.00  0.00     0.148 A 
ATOM     83  C   UNL A   1      41.527  28.453  25.586  1.00  0.00     0.002 A 
ATOM     84  C   UNL A   1      43.480  27.335  26.492  1.00  0.00     0.091 A 
ATOM     85  F   UNL A   1      44.299  27.966  28.652  1.00  0.00    -0.205 F 
ATOM     86  C   UNL A   1      42.520  27.490  25.474  1.00  0.00     0.022 A 
BRANCH  84  87
ATOM     87  S   UNL A   1      44.724  26.070  26.208  1.00  0.00     0.127 S 
ATOM     88  O   UNL A   1      44.150  25.323  25.090  1.00  0.00    -0.237 OA
ATOM     89  O   UNL A   1      45.899  26.873  25.864  1.00  0.00    -0.237 OA
ATOM     90  O   UNL A   1      44.841  25.336  27.461  1.00  0.00    -0.744 OA
ENDBRANCH  84  87
ENDBRANCH  66  80
BRANCH  67  91
ATOM     91  C   UNL A   1      43.439  27.114  36.506  1.00  0.00     0.023 A 
ATOM     92  C   UNL A   1      42.789  26.094  35.771  1.00  0.00     0.012 A 
ATOM     93  C   UNL A   1      44.152  26.722  37.658  1.00  0.00     0.148 A 
ATOM     94  C   UNL A   1      42.936  24.742  36.098  1.00  0.00     0.002 A 
ATOM     95  C   UNL A   1      44.361  25.372  37.936  1.00  0.00     0.091 A 
ATOM     96  F   UNL A   1      44.618  27.665  38.485  1.00  0.00    -0.205 F 
ATOM     97  C   UNL A   1      43.753  24.379  37.159  1.00  0.00     0.022 A 
BRANCH  95  98
ATOM     98  S   UNL A   1      45.495  24.811  39.216  1.00  0.00     0.127 S 
ATOM     99  O   UNL A   1      46.782  25.289  38.713  1.00  0.00    -0.237 OA
ATOM    100  O   UNL A   1      44.985  25.525  40.386  1.00  0.00    -0.237 OA
ATOM    101  O   UNL A   1      45.348  23.364  39.268  1.00  0.00    -0.744 OA
ENDBRANCH  95  98
ENDBRANCH  67  91
BRANCH  79 102
ATOM    102  C   UNL A   1      44.610  32.822  33.360  1.00  0.00     0.023 A 
ATOM    103  C   UNL A   1      45.928  33.307  33.447  1.00  0.00     0.012 A 
ATOM    104  C   UNL A   1      43.572  33.537  33.992  1.00  0.00     0.148 A 
ATOM    105  C   UNL A   1      46.208  34.496  34.119  1.00  0.00     0.002 A 
ATOM    106  C   UNL A   1      43.852  34.741  34.632  1.00  0.00     0.091 A 
ATOM    107  F   UNL A   1      42.322  33.055  33.933  1.00  0.00    -0.205 F 
ATOM    108  C   UNL A   1      45.170  35.221  34.696  1.00  0.00     0.022 A 
BRANCH 106 109
ATOM    109  S   UNL A   1      42.575  35.778  35.358  1.00  0.00     0.127 S 
ATOM    110  O   UNL A   1      42.155  34.990  36.518  1.00  0.00    -0.237 OA
ATOM    111  O   UNL A   1      43.323  36.991  35.687  1.00  0.00    -0.237 OA
ATOM    112  O   UNL A   1      41.544  35.938  34.339  1.00  0.00    -0.744 OA
ENDBRANCH 106 109
ENDBRANCH  79 102
ENDBRANCH  53  54
ENDBRANCH  45  48
ENDBRANCH  43  44
ENDBRANCH  42  43
ENDBRANCH  41  42
ENDBRANCH   1  41
TORSDOF 21
ENDMDL
MODEL 2
REMARK VINA RESULT:     -11.3      2.120      2.671
REMARK SMILES Cc1oc2cc3c(cc2c1C)[C@H](C)[C@@H](CC(=O)N[C@H](CC1=c2ccccc2=NC1)C(=O)NCCCCCCNC(=O)c1ccc(-c2c4nc(c(-c5cccc(S(=O)(=O)[O-])c5F)c5ccc([nH]5)c(-c5cccc(S(=O)(=O)[O-])c5F)c5nc(c(-c6cccc(S(=O)(=O)[O-])c6F)c6ccc2[nH]6)C=C5)C=C4)cc1)C(=O)O3
REMARK SMILES IDX 35 1 34 2 33 3 32 4 30 5 31 6 19 8 18 9 16 10 17 11 15 13
REMARK SMILES IDX 14 14 1 15 2 16 3 17 10 18 4 19 9 20 11 21 5 22 8 23 6 24
REMARK SMILES IDX 7 25 107 26 12 27 105 28 13 29 106 30 20 31 21 32 22 33
REMARK SMILES IDX 29 34 23 35 27 36 28 37 24 38 26 39 25 40 36 41 37 42 38 43
REMARK SMILES IDX 39 44 40 45 41 47 42 48 43 49 104 50 44 51 103 52 45 53
REMARK SMILES IDX 46 54 47 55 97 56 48 57 102 58 96 59 98 60 49 61 101 62
REMARK SMILES IDX 95 63 94 64 50 66 82 67 62 68 81 69 63 70 66 71 80 72 99 73
REMARK SMILES IDX 64 74 65 75 79 77 100 78 67 79 51 80 52 81 60 82 53 83 55 84
REMARK SMILES IDX 61 85 54 86 56 87 57 88 58 89 59 90 83 91 84 92 92 93 85 94
REMARK SMILES IDX 87 95 93 96 86 97 88 98 89 99 90 100 91 101 68 102 69 103
REMARK SMILES IDX 77 104 70 105 72 106 78 107 71 108 73 109 74 110 75 111
REMARK SMILES IDX 76 112
REMARK H PARENT 32 7 18 12 39 46 98 65 66 76
REMARK Flexibility Score: inf
ROOT
ATOM      1  C   UNL A   1      34.786  31.218  27.892  1.00  0.00     0.002 C 
ENDROOT
BRANCH   1   2
ATOM      2  C   UNL A   1      33.787  30.156  27.414  1.00  0.00     0.021 C 
BRANCH   2   3
ATOM      3  C   UNL A   1      34.333  28.860  26.774  1.00  0.00     0.116 C 
BRANCH   3   4
ATOM      4  N   UNL A   1      34.287  28.942  25.311  1.00  0.00    -0.354 N 
ATOM      5  C   UNL A   1      34.152  28.070  24.279  1.00  0.00     0.242 C 
ATOM      6  O   UNL A   1      34.432  28.554  23.167  1.00  0.00    -0.273 OA
ATOM      7  H   UNL A   1      34.379  29.869  24.996  1.00  0.00     0.163 HD
BRANCH   5   8
ATOM      8  C   UNL A   1      33.611  26.595  24.317  1.00  0.00     0.175 C 
BRANCH   8   9
ATOM      9  N   UNL A   1      33.339  25.726  23.155  1.00  0.00    -0.344 N 
ATOM     10  C   UNL A   1      33.546  24.445  22.785  1.00  0.00     0.221 C 
ATOM     11  O   UNL A   1      33.679  24.273  21.566  1.00  0.00    -0.275 OA
ATOM     12  H   UNL A   1      32.871  26.225  22.446  1.00  0.00     0.164 HD
BRANCH  10  13
ATOM     13  C   UNL A   1      33.472  23.226  23.685  1.00  0.00     0.116 C 
BRANCH  13  14
ATOM     14  C   UNL A   1      34.688  22.720  24.444  1.00  0.00     0.116 C 
ATOM     15  C   UNL A   1      42.245  23.239  28.270  1.00  0.00     0.088 C 
ATOM     16  C   UNL A   1      40.927  23.354  27.616  1.00  0.00     0.105 A 
ATOM     17  O   UNL A   1      40.557  22.296  26.845  1.00  0.00    -0.461 OA
ATOM     18  C   UNL A   1      39.939  24.325  27.617  1.00  0.00    -0.002 A 
ATOM     19  C   UNL A   1      39.299  22.548  26.405  1.00  0.00     0.138 A 
ATOM     20  C   UNL A   1      38.835  23.750  26.922  1.00  0.00     0.024 A 
ATOM     21  C   UNL A   1      39.991  25.680  28.213  1.00  0.00     0.049 C 
ATOM     22  C   UNL A   1      38.584  21.739  25.537  1.00  0.00     0.095 A 
ATOM     23  C   UNL A   1      37.507  24.142  26.656  1.00  0.00     0.020 A 
ATOM     24  C   UNL A   1      37.305  22.198  25.231  1.00  0.00     0.138 A 
ATOM     25  C   UNL A   1      36.709  23.320  25.850  1.00  0.00    -0.001 A 
ATOM     26  O   UNL A   1      36.680  21.536  24.177  1.00  0.00    -0.426 OA
ATOM     27  C   UNL A   1      35.269  23.710  25.489  1.00  0.00     0.035 C 
ATOM     28  C   UNL A   1      35.905  22.517  23.610  1.00  0.00     0.315 C 
ATOM     29  C   UNL A   1      34.371  23.836  26.711  1.00  0.00     0.014 C 
ATOM     30  O   UNL A   1      36.270  23.228  22.692  1.00  0.00    -0.251 OA
ENDBRANCH  13  14
ENDBRANCH  10  13
ENDBRANCH   8   9
BRANCH   8  31
ATOM     31  C   UNL A   1      32.585  26.347  25.512  1.00  0.00     0.068 C 
BRANCH  31  32
ATOM     32  C   UNL A   1      31.220  27.002  25.453  1.00  0.00    -0.037 C 
ATOM     33  C   UNL A   1      30.965  28.008  24.613  1.00  0.00     0.001 A 
ATOM     34  C   UNL A   1      30.024  26.107  25.536  1.00  0.00     0.174 C 
ATOM     35  C   UNL A   1      30.868  29.431  24.841  1.00  0.00     0.010 A 
ATOM     36  C   UNL A   1      29.855  27.423  23.833  1.00  0.00     0.065 A 
ATOM     37  N   UNL A   1      29.314  26.323  24.256  1.00  0.00    -0.280 NA
ATOM     38  C   UNL A   1      30.208  30.157  23.917  1.00  0.00     0.001 A 
ATOM     39  C   UNL A   1      29.512  28.195  22.625  1.00  0.00     0.028 A 
ATOM     40  C   UNL A   1      29.715  29.523  22.697  1.00  0.00     0.002 A 
ENDBRANCH  31  32
ENDBRANCH   8  31
ENDBRANCH   5   8
ENDBRANCH   3   4
ENDBRANCH   2   3
ENDBRANCH   1   2
BRANCH   1  41
ATOM     41  C   UNL A   1      34.453  32.690  27.588  1.00  0.00     0.002 C 
BRANCH  41  42
ATOM     42  C   UNL A   1      34.634  33.726  28.716  1.00  0.00     0.021 C 
BRANCH  42  43
ATOM     43  C   UNL A   1      34.469  33.215  30.148  1.00  0.00     0.116 C 
BRANCH  43  44
ATOM     44  N   UNL A   1      34.443  34.230  31.187  1.00  0.00    -0.352 N 
ATOM     45  C   UNL A   1      35.382  34.480  32.164  1.00  0.00     0.251 C 
ATOM     46  H   UNL A   1      33.651  34.816  31.195  1.00  0.00     0.163 HD
ATOM     47  O   UNL A   1      35.318  35.489  32.857  1.00  0.00    -0.269 OA
BRANCH  45  48
ATOM     48  C   UNL A   1      36.459  33.496  32.375  1.00  0.00     0.039 A 
ATOM     49  C   UNL A   1      37.767  33.765  31.962  1.00  0.00     0.014 A 
ATOM     50  C   UNL A   1      36.129  32.273  32.957  1.00  0.00     0.014 A 
ATOM     51  C   UNL A   1      38.736  32.765  32.051  1.00  0.00     0.010 A 
ATOM     52  C   UNL A   1      37.102  31.283  33.059  1.00  0.00     0.010 A 
ATOM     53  C   UNL A   1      38.406  31.517  32.597  1.00  0.00    -0.014 A 
BRANCH  53  54
ATOM     54  C   UNL A   1      39.476  30.515  32.788  1.00  0.00     0.031 A 
ATOM     55  C   UNL A   1      40.492  30.527  31.694  1.00  0.00     0.074 A 
ATOM     56  C   UNL A   1      39.808  30.027  34.005  1.00  0.00     0.049 A 
ATOM     57  N   UNL A   1      41.398  31.457  31.628  1.00  0.00    -0.248 NA
ATOM     58  C   UNL A   1      40.404  29.706  30.489  1.00  0.00     0.031 C 
ATOM     59  C   UNL A   1      39.482  30.706  35.267  1.00  0.00     0.029 A 
ATOM     60  N   UNL A   1      40.670  29.015  34.382  1.00  0.00    -0.354 N 
ATOM     61  C   UNL A   1      41.959  31.405  30.369  1.00  0.00     0.074 A 
ATOM     62  C   UNL A   1      41.335  30.279  29.706  1.00  0.00     0.031 C 
ATOM     63  C   UNL A   1      40.277  30.218  36.241  1.00  0.00     0.029 A 
ATOM     64  C   UNL A   1      41.060  29.096  35.724  1.00  0.00     0.049 A 
ATOM     65  H   UNL A   1      40.978  28.309  33.769  1.00  0.00     0.167 HD
ATOM     66  C   UNL A   1      42.898  32.300  29.959  1.00  0.00     0.034 A 
ATOM     67  C   UNL A   1      42.294  28.766  36.209  1.00  0.00     0.034 A 
ATOM     68  C   UNL A   1      43.222  33.326  30.914  1.00  0.00     0.049 A 
ATOM     69  C   UNL A   1      43.177  29.765  35.500  1.00  0.00     0.074 A 
ATOM     70  C   UNL A   1      42.859  34.632  31.163  1.00  0.00     0.029 A 
ATOM     71  N   UNL A   1      44.043  32.996  31.967  1.00  0.00    -0.354 N 
ATOM     72  N   UNL A   1      43.298  31.032  35.797  1.00  0.00    -0.248 NA
ATOM     73  C   UNL A   1      43.676  29.394  34.177  1.00  0.00     0.031 C 
ATOM     74  C   UNL A   1      43.101  34.839  32.561  1.00  0.00     0.029 A 
ATOM     75  C   UNL A   1      43.555  33.629  33.082  1.00  0.00     0.049 A 
ATOM     76  H   UNL A   1      44.834  32.412  31.927  1.00  0.00     0.167 HD
ATOM     77  C   UNL A   1      43.623  31.665  34.595  1.00  0.00     0.074 A 
ATOM     78  C   UNL A   1      43.855  30.595  33.644  1.00  0.00     0.031 C 
ATOM     79  C   UNL A   1      43.536  33.014  34.393  1.00  0.00     0.034 A 
BRANCH  66  80
ATOM     80  C   UNL A   1      43.736  32.128  28.751  1.00  0.00     0.023 A 
ATOM     81  C   UNL A   1      44.634  31.041  28.789  1.00  0.00     0.012 A 
ATOM     82  C   UNL A   1      43.816  33.056  27.701  1.00  0.00     0.148 A 
ATOM     83  C   UNL A   1      45.638  30.905  27.840  1.00  0.00     0.002 A 
ATOM     84  C   UNL A   1      44.816  32.904  26.740  1.00  0.00     0.091 A 
ATOM     85  F   UNL A   1      42.957  34.084  27.680  1.00  0.00    -0.205 F 
ATOM     86  C   UNL A   1      45.735  31.840  26.820  1.00  0.00     0.022 A 
BRANCH  84  87
ATOM     87  S   UNL A   1      45.040  34.028  25.356  1.00  0.00     0.127 S 
ATOM     88  O   UNL A   1      44.392  35.244  25.842  1.00  0.00    -0.237 OA
ATOM     89  O   UNL A   1      46.499  34.109  25.266  1.00  0.00    -0.237 OA
ATOM     90  O   UNL A   1      44.400  33.388  24.214  1.00  0.00    -0.744 OA
ENDBRANCH  84  87
ENDBRANCH  66  80
BRANCH  67  91
ATOM     91  C   UNL A   1      42.626  27.298  36.274  1.00  0.00     0.023 A 
ATOM     92  C   UNL A   1      41.706  26.388  35.700  1.00  0.00     0.012 A 
ATOM     93  C   UNL A   1      43.774  26.752  36.884  1.00  0.00     0.148 A 
ATOM     94  C   UNL A   1      41.970  25.016  35.633  1.00  0.00     0.002 A 
ATOM     95  C   UNL A   1      44.073  25.396  36.746  1.00  0.00     0.091 A 
ATOM     96  F   UNL A   1      44.570  27.552  37.602  1.00  0.00    -0.205 F 
ATOM     97  C   UNL A   1      43.172  24.525  36.123  1.00  0.00     0.022 A 
BRANCH  95  98
ATOM     98  S   UNL A   1      45.654  24.698  37.246  1.00  0.00     0.127 S 
ATOM     99  O   UNL A   1      45.546  23.323  36.764  1.00  0.00    -0.237 OA
ATOM    100  O   UNL A   1      46.589  25.542  36.502  1.00  0.00    -0.237 OA
ATOM    101  O   UNL A   1      45.713  24.847  38.693  1.00  0.00    -0.744 OA
ENDBRANCH  95  98
ENDBRANCH  67  91
BRANCH  79 102
ATOM    102  C   UNL A   1      43.232  33.856  35.597  1.00  0.00     0.023 A 
ATOM    103  C   UNL A   1      44.310  34.340  36.363  1.00  0.00     0.012 A 
ATOM    104  C   UNL A   1      41.921  34.256  35.929  1.00  0.00     0.148 A 
ATOM    105  C   UNL A   1      44.096  35.227  37.416  1.00  0.00     0.002 A 
ATOM    106  C   UNL A   1      41.716  35.169  36.960  1.00  0.00     0.091 A 
ATOM    107  F   UNL A   1      40.894  33.769  35.217  1.00  0.00    -0.205 F 
ATOM    108  C   UNL A   1      42.803  35.655  37.704  1.00  0.00     0.022 A 
BRANCH 106 109
ATOM    109  S   UNL A   1      40.093  35.824  37.372  1.00  0.00     0.127 S 
ATOM    110  O   UNL A   1      39.833  36.739  36.259  1.00  0.00    -0.237 OA
ATOM    111  O   UNL A   1      39.271  34.614  37.367  1.00  0.00    -0.237 OA
ATOM    112  O   UNL A   1      40.229  36.480  38.667  1.00  0.00    -0.744 OA
ENDBRANCH 106 109
ENDBRANCH  79 102
ENDBRANCH  53  54
ENDBRANCH  45  48
ENDBRANCH  43  44
ENDBRANCH  42  43
ENDBRANCH  41  42
ENDBRANCH   1  41
TORSDOF 21
ENDMDL
MODEL 3
REMARK VINA RESULT:     -11.2      5.315     11.619
REMARK SMILES Cc1oc2cc3c(cc2c1C)[C@H](C)[C@@H](CC(=O)N[C@H](CC1=c2ccccc2=NC1)C(=O)NCCCCCCNC(=O)c1ccc(-c2c4nc(c(-c5cccc(S(=O)(=O)[O-])c5F)c5ccc([nH]5)c(-c5cccc(S(=O)(=O)[O-])c5F)c5nc(c(-c6cccc(S(=O)(=O)[O-])c6F)c6ccc2[nH]6)C=C5)C=C4)cc1)C(=O)O3
REMARK SMILES IDX 35 1 34 2 33 3 32 4 30 5 31 6 19 8 18 9 16 10 17 11 15 13
REMARK SMILES IDX 14 14 1 15 2 16 3 17 10 18 4 19 9 20 11 21 5 22 8 23 6 24
REMARK SMILES IDX 7 25 107 26 12 27 105 28 13 29 106 30 20 31 21 32 22 33
REMARK SMILES IDX 29 34 23 35 27 36 28 37 24 38 26 39 25 40 36 41 37 42 38 43
REMARK SMILES IDX 39 44 40 45 41 47 42 48 43 49 104 50 44 51 103 52 45 53
REMARK SMILES IDX 46 54 47 55 97 56 48 57 102 58 96 59 98 60 49 61 101 62
REMARK SMILES IDX 95 63 94 64 50 66 82 67 62 68 81 69 63 70 66 71 80 72 99 73
REMARK SMILES IDX 64 74 65 75 79 77 100 78 67 79 51 80 52 81 60 82 53 83 55 84
REMARK SMILES IDX 61 85 54 86 56 87 57 88 58 89 59 90 83 91 84 92 92 93 85 94
REMARK SMILES IDX 87 95 93 96 86 97 88 98 89 99 90 100 91 101 68 102 69 103
REMARK SMILES IDX 77 104 70 105 72 106 78 107 71 108 73 109 74 110 75 111
REMARK SMILES IDX 76 112
REMARK H PARENT 32 7 18 12 39 46 98 65 66 76
REMARK Flexibility Score: inf
ROOT
ATOM      1  C   UNL A   1      45.501  31.959  26.927  1.00  0.00     0.002 C 
ENDROOT
BRANCH   1   2
ATOM      2  C   UNL A   1      45.444  30.622  27.678  1.00  0.00     0.021 C 
BRANCH   2   3
ATOM      3  C   UNL A   1      44.768  29.414  26.991  1.00  0.00     0.116 C 
BRANCH   3   4
ATOM      4  N   UNL A   1      45.404  29.126  25.702  1.00  0.00    -0.354 N 
ATOM      5  C   UNL A   1      46.508  28.461  25.274  1.00  0.00     0.242 C 
ATOM      6  O   UNL A   1      46.812  28.692  24.089  1.00  0.00    -0.273 OA
ATOM      7  H   UNL A   1      44.901  29.516  24.952  1.00  0.00     0.163 HD
BRANCH   5   8
ATOM      8  C   UNL A   1      47.363  27.397  26.052  1.00  0.00     0.175 C 
BRANCH   8   9
ATOM      9  N   UNL A   1      48.807  27.476  26.351  1.00  0.00    -0.344 N 
ATOM     10  C   UNL A   1      49.959  26.937  25.902  1.00  0.00     0.221 C 
ATOM     11  O   UNL A   1      50.848  26.827  26.757  1.00  0.00    -0.275 OA
ATOM     12  H   UNL A   1      48.978  28.103  27.091  1.00  0.00     0.164 HD
BRANCH  10  13
ATOM     13  C   UNL A   1      50.299  26.615  24.459  1.00  0.00     0.116 C 
BRANCH  13  14
ATOM     14  C   UNL A   1      50.383  27.700  23.397  1.00  0.00     0.116 C 
ATOM     15  C   UNL A   1      52.903  31.312  16.144  1.00  0.00     0.088 C 
ATOM     16  C   UNL A   1      52.534  30.509  17.325  1.00  0.00     0.105 A 
ATOM     17  O   UNL A   1      52.401  31.198  18.490  1.00  0.00    -0.461 OA
ATOM     18  C   UNL A   1      52.271  29.163  17.523  1.00  0.00    -0.002 A 
ATOM     19  C   UNL A   1      51.980  30.313  19.428  1.00  0.00     0.138 A 
ATOM     20  C   UNL A   1      51.801  29.056  18.865  1.00  0.00     0.024 A 
ATOM     21  C   UNL A   1      52.430  28.049  16.558  1.00  0.00     0.049 C 
ATOM     22  C   UNL A   1      51.785  30.607  20.767  1.00  0.00     0.095 A 
ATOM     23  C   UNL A   1      51.275  28.018  19.661  1.00  0.00     0.020 A 
ATOM     24  C   UNL A   1      51.343  29.538  21.542  1.00  0.00     0.138 A 
ATOM     25  C   UNL A   1      50.980  28.281  21.005  1.00  0.00    -0.001 A 
ATOM     26  O   UNL A   1      51.385  29.751  22.918  1.00  0.00    -0.426 OA
ATOM     27  C   UNL A   1      50.444  27.184  21.935  1.00  0.00     0.035 C 
ATOM     28  C   UNL A   1      51.639  28.499  23.419  1.00  0.00     0.315 C 
ATOM     29  C   UNL A   1      49.106  26.626  21.474  1.00  0.00     0.014 C 
ATOM     30  O   UNL A   1      52.756  28.070  23.646  1.00  0.00    -0.251 OA
ENDBRANCH  13  14
ENDBRANCH  10  13
ENDBRANCH   8   9
BRANCH   8  31
ATOM     31  C   UNL A   1      46.883  25.902  25.777  1.00  0.00     0.068 C 
BRANCH  31  32
ATOM     32  C   UNL A   1      45.451  25.523  26.096  1.00  0.00    -0.037 C 
ATOM     33  C   UNL A   1      44.938  24.352  25.712  1.00  0.00     0.001 A 
ATOM     34  C   UNL A   1      44.933  25.872  27.456  1.00  0.00     0.174 C 
ATOM     35  C   UNL A   1      44.050  24.018  24.623  1.00  0.00     0.010 A 
ATOM     36  C   UNL A   1      44.555  23.791  27.024  1.00  0.00     0.065 A 
ATOM     37  N   UNL A   1      44.585  24.568  28.061  1.00  0.00    -0.280 NA
ATOM     38  C   UNL A   1      43.381  22.852  24.712  1.00  0.00     0.001 A 
ATOM     39  C   UNL A   1      44.192  22.363  26.971  1.00  0.00     0.028 A 
ATOM     40  C   UNL A   1      43.638  21.937  25.822  1.00  0.00     0.002 A 
ENDBRANCH  31  32
ENDBRANCH   8  31
ENDBRANCH   5   8
ENDBRANCH   3   4
ENDBRANCH   2   3
ENDBRANCH   1   2
BRANCH   1  41
ATOM     41  C   UNL A   1      44.210  32.439  26.239  1.00  0.00     0.002 C 
BRANCH  41  42
ATOM     42  C   UNL A   1      44.304  33.628  25.262  1.00  0.00     0.021 C 
BRANCH  42  43
ATOM     43  C   UNL A   1      43.036  34.464  25.077  1.00  0.00     0.116 C 
BRANCH  43  44
ATOM     44  N   UNL A   1      43.139  35.867  25.441  1.00  0.00    -0.352 N 
ATOM     45  C   UNL A   1      43.204  36.421  26.701  1.00  0.00     0.251 C 
ATOM     46  H   UNL A   1      43.166  36.504  24.691  1.00  0.00     0.163 HD
ATOM     47  O   UNL A   1      43.478  37.606  26.855  1.00  0.00    -0.269 OA
BRANCH  45  48
ATOM     48  C   UNL A   1      42.915  35.565  27.865  1.00  0.00     0.039 A 
ATOM     49  C   UNL A   1      41.598  35.309  28.258  1.00  0.00     0.014 A 
ATOM     50  C   UNL A   1      43.990  35.055  28.591  1.00  0.00     0.014 A 
ATOM     51  C   UNL A   1      41.356  34.609  29.441  1.00  0.00     0.010 A 
ATOM     52  C   UNL A   1      43.746  34.343  29.762  1.00  0.00     0.010 A 
ATOM     53  C   UNL A   1      42.431  34.126  30.200  1.00  0.00    -0.014 A 
BRANCH  53  54
ATOM     54  C   UNL A   1      42.149  33.289  31.385  1.00  0.00     0.031 A 
ATOM     55  C   UNL A   1      40.782  33.506  31.945  1.00  0.00     0.074 A 
ATOM     56  C   UNL A   1      42.791  32.122  31.623  1.00  0.00     0.049 A 
ATOM     57  N   UNL A   1      39.731  33.009  31.364  1.00  0.00    -0.248 NA
ATOM     58  C   UNL A   1      40.471  34.485  32.984  1.00  0.00     0.031 C 
ATOM     59  C   UNL A   1      43.489  31.355  30.582  1.00  0.00     0.029 A 
ATOM     60  N   UNL A   1      42.771  31.269  32.709  1.00  0.00    -0.354 N 
ATOM     61  C   UNL A   1      38.623  33.638  31.894  1.00  0.00     0.074 A 
ATOM     62  C   UNL A   1      39.128  34.524  32.922  1.00  0.00     0.031 C 
ATOM     63  C   UNL A   1      43.658  30.089  31.014  1.00  0.00     0.029 A 
ATOM     64  C   UNL A   1      43.224  29.980  32.407  1.00  0.00     0.049 A 
ATOM     65  H   UNL A   1      42.468  31.541  33.605  1.00  0.00     0.167 HD
ATOM     66  C   UNL A   1      37.365  33.387  31.442  1.00  0.00     0.034 A 
ATOM     67  C   UNL A   1      42.734  28.824  32.944  1.00  0.00     0.034 A 
ATOM     68  C   UNL A   1      37.282  32.460  30.346  1.00  0.00     0.049 A 
ATOM     69  C   UNL A   1      41.306  28.843  32.456  1.00  0.00     0.074 A 
ATOM     70  C   UNL A   1      37.187  32.518  28.972  1.00  0.00     0.029 A 
ATOM     71  N   UNL A   1      37.417  31.119  30.619  1.00  0.00    -0.354 N 
ATOM     72  N   UNL A   1      40.902  28.560  31.245  1.00  0.00    -0.248 NA
ATOM     73  C   UNL A   1      40.328  29.555  33.278  1.00  0.00     0.031 C 
ATOM     74  C   UNL A   1      37.732  31.280  28.495  1.00  0.00     0.029 A 
ATOM     75  C   UNL A   1      38.166  30.567  29.611  1.00  0.00     0.049 A 
ATOM     76  H   UNL A   1      37.044  30.644  31.396  1.00  0.00     0.167 HD
ATOM     77  C   UNL A   1      39.735  29.306  31.059  1.00  0.00     0.074 A 
ATOM     78  C   UNL A   1      39.433  29.882  32.356  1.00  0.00     0.031 C 
ATOM     79  C   UNL A   1      39.165  29.544  29.840  1.00  0.00     0.034 A 
BRANCH  66  80
ATOM     80  C   UNL A   1      36.132  33.803  32.149  1.00  0.00     0.023 A 
ATOM     81  C   UNL A   1      35.918  33.187  33.400  1.00  0.00     0.012 A 
ATOM     82  C   UNL A   1      35.119  34.592  31.583  1.00  0.00     0.148 A 
ATOM     83  C   UNL A   1      34.699  33.296  34.055  1.00  0.00     0.002 A 
ATOM     84  C   UNL A   1      33.902  34.713  32.255  1.00  0.00     0.091 A 
ATOM     85  F   UNL A   1      35.338  35.168  30.394  1.00  0.00    -0.205 F 
ATOM     86  C   UNL A   1      33.688  34.052  33.480  1.00  0.00     0.022 A 
BRANCH  84  87
ATOM     87  S   UNL A   1      32.519  35.678  31.635  1.00  0.00     0.127 S 
ATOM     88  O   UNL A   1      33.014  37.046  31.772  1.00  0.00    -0.237 OA
ATOM     89  O   UNL A   1      32.415  35.204  30.253  1.00  0.00    -0.237 OA
ATOM     90  O   UNL A   1      31.381  35.334  32.477  1.00  0.00    -0.744 OA
ENDBRANCH  84  87
ENDBRANCH  66  80
BRANCH  67  91
ATOM     91  C   UNL A   1      43.094  28.537  34.378  1.00  0.00     0.023 A 
ATOM     92  C   UNL A   1      43.888  29.489  35.061  1.00  0.00     0.012 A 
ATOM     93  C   UNL A   1      42.721  27.380  35.092  1.00  0.00     0.148 A 
ATOM     94  C   UNL A   1      44.196  29.353  36.419  1.00  0.00     0.002 A 
ATOM     95  C   UNL A   1      42.962  27.284  36.463  1.00  0.00     0.091 A 
ATOM     96  F   UNL A   1      42.138  26.371  34.435  1.00  0.00    -0.205 F 
ATOM     97  C   UNL A   1      43.701  28.269  37.129  1.00  0.00     0.022 A 
BRANCH  95  98
ATOM     98  S   UNL A   1      42.260  25.977  37.481  1.00  0.00     0.127 S 
ATOM     99  O   UNL A   1      42.680  24.775  36.765  1.00  0.00    -0.237 OA
ATOM    100  O   UNL A   1      42.941  26.207  38.755  1.00  0.00    -0.237 OA
ATOM    101  O   UNL A   1      40.825  26.219  37.500  1.00  0.00    -0.744 OA
ENDBRANCH  95  98
ENDBRANCH  67  91
BRANCH  79 102
ATOM    102  C   UNL A   1      39.751  28.812  28.669  1.00  0.00     0.023 A 
ATOM    103  C   UNL A   1      40.522  29.540  27.744  1.00  0.00     0.012 A 
ATOM    104  C   UNL A   1      39.636  27.414  28.518  1.00  0.00     0.148 A 
ATOM    105  C   UNL A   1      41.192  28.892  26.707  1.00  0.00     0.002 A 
ATOM    106  C   UNL A   1      40.336  26.769  27.502  1.00  0.00     0.091 A 
ATOM    107  F   UNL A   1      38.876  26.728  29.384  1.00  0.00    -0.205 F 
ATOM    108  C   UNL A   1      41.113  27.508  26.596  1.00  0.00     0.022 A 
BRANCH 106 109
ATOM    109  S   UNL A   1      40.343  24.981  27.309  1.00  0.00     0.127 S 
ATOM    110  O   UNL A   1      38.918  24.653  27.374  1.00  0.00    -0.237 OA
ATOM    111  O   UNL A   1      40.941  24.825  25.983  1.00  0.00    -0.237 OA
ATOM    112  O   UNL A   1      41.131  24.450  28.415  1.00  0.00    -0.744 OA
ENDBRANCH 106 109
ENDBRANCH  79 102
ENDBRANCH  53  54
ENDBRANCH  45  48
ENDBRANCH  43  44
ENDBRANCH  42  43
ENDBRANCH  41  42
ENDBRANCH   1  41
TORSDOF 21
ENDMDL
