MODEL 1
REMARK VINA RESULT:     -12.6      0.000      0.000
REMARK SMILES Cc1ccccc1Nc1nc2c(c(=O)[nH]c(=O)n2C)n1CC(=O)NCCCCCCNC(=O)c1ccc(-c2c3nc(c(-c4cccc(S(=O)(=O)[O-])c4F)c4ccc([nH]4)c(-c4cccc(S(=O)(=O)[O-])c4F)c4nc(c(-c5cccc(S(=O)(=O)[O-])c5F)c5ccc2[nH]5)C=C4)C=C3)cc1
REMARK SMILES IDX 27 1 26 2 25 3 24 4 22 5 23 6 21 8 20 9 9 10 10 11 11 12
REMARK SMILES IDX 12 13 18 14 13 15 16 16 19 17 14 18 15 19 17 20 8 22 7 24
REMARK SMILES IDX 1 25 2 26 3 27 4 28 6 29 5 30 28 31 29 32 30 33 31 34 32 35
REMARK SMILES IDX 33 37 34 38 35 39 96 40 36 41 95 42 37 43 38 44 39 45 89 46
REMARK SMILES IDX 40 47 94 48 88 49 90 50 41 51 93 52 87 53 86 54 42 56 74 57
REMARK SMILES IDX 54 58 73 59 55 60 58 61 72 62 91 63 56 64 57 65 71 67 92 68
REMARK SMILES IDX 59 69 43 70 44 71 52 72 45 73 47 74 53 75 46 76 48 77 49 78
REMARK SMILES IDX 50 79 51 80 75 81 76 82 84 83 77 84 79 85 85 86 78 87 80 88
REMARK SMILES IDX 81 89 82 90 83 91 60 92 61 93 69 94 62 95 64 96 70 97 63 98
REMARK SMILES IDX 65 99 66 100 67 101 68 102
REMARK H PARENT 24 7 15 21 8 23 31 36 90 55 58 66
REMARK Flexibility Score: inf
ROOT
ATOM      1  C   UNL A   1      32.646  27.498  26.726  1.00  0.00     0.002 C 
ENDROOT
BRANCH   1   2
ATOM      2  C   UNL A   1      33.818  27.374  25.744  1.00  0.00     0.021 C 
BRANCH   2   3
ATOM      3  C   UNL A   1      34.096  25.947  25.271  1.00  0.00     0.116 C 
BRANCH   3   4
ATOM      4  N   UNL A   1      34.053  24.957  26.324  1.00  0.00    -0.355 N 
ATOM      5  C   UNL A   1      34.265  23.613  26.292  1.00  0.00     0.240 C 
ATOM      6  O   UNL A   1      34.430  23.049  27.380  1.00  0.00    -0.273 OA
ATOM      7  H   UNL A   1      33.832  25.317  27.213  1.00  0.00     0.163 HD
BRANCH   5   8
ATOM      8  C   UNL A   1      34.420  22.836  25.004  1.00  0.00     0.226 C 
BRANCH   8   9
ATOM      9  N   UNL A   1      33.681  21.587  24.902  1.00  0.00    -0.295 N 
ATOM     10  C   UNL A   1      32.304  21.407  24.972  1.00  0.00     0.210 A 
ATOM     11  N   UNL A   1      32.009  20.121  25.016  1.00  0.00    -0.194 NA
ATOM     12  C   UNL A   1      33.193  19.463  24.919  1.00  0.00     0.170 A 
ATOM     13  C   UNL A   1      34.249  20.328  24.918  1.00  0.00     0.154 A 
ATOM     14  N   UNL A   1      33.372  18.097  24.842  1.00  0.00    -0.279 N 
ATOM     15  C   UNL A   1      35.597  19.866  24.890  1.00  0.00     0.279 A 
ATOM     16  C   UNL A   1      34.662  17.592  24.729  1.00  0.00     0.329 A 
ATOM     17  C   UNL A   1      32.236  17.195  24.848  1.00  0.00     0.157 C 
ATOM     18  O   UNL A   1      36.598  20.581  24.954  1.00  0.00    -0.267 OA
ATOM     19  N   UNL A   1      35.696  18.506  24.752  1.00  0.00    -0.272 N 
ATOM     20  O   UNL A   1      34.942  16.401  24.627  1.00  0.00    -0.248 OA
ATOM     21  H   UNL A   1      36.606  18.141  24.658  1.00  0.00     0.175 HD
BRANCH  10  22
ATOM     22  N   UNL A   1      31.398  22.406  25.127  1.00  0.00    -0.325 N 
ATOM     23  H   UNL A   1      30.755  22.295  25.864  1.00  0.00     0.170 HD
BRANCH  22  24
ATOM     24  C   UNL A   1      31.262  23.592  24.357  1.00  0.00     0.044 A 
ATOM     25  C   UNL A   1      29.980  24.787  26.230  1.00  0.00     0.046 C 
ATOM     26  C   UNL A   1      30.674  24.754  24.898  1.00  0.00    -0.027 A 
ATOM     27  C   UNL A   1      30.655  25.948  24.145  1.00  0.00     0.005 A 
ATOM     28  C   UNL A   1      31.187  26.001  22.861  1.00  0.00     0.000 A 
ATOM     29  C   UNL A   1      31.708  23.658  23.033  1.00  0.00     0.026 A 
ATOM     30  C   UNL A   1      31.692  24.845  22.295  1.00  0.00     0.002 A 
ENDBRANCH  22  24
ENDBRANCH  10  22
ENDBRANCH   8   9
ENDBRANCH   5   8
ENDBRANCH   3   4
ENDBRANCH   2   3
ENDBRANCH   1   2
BRANCH   1  31
ATOM     31  C   UNL A   1      31.788  28.761  26.574  1.00  0.00     0.002 C 
BRANCH  31  32
ATOM     32  C   UNL A   1      32.287  29.980  27.344  1.00  0.00     0.021 C 
BRANCH  32  33
ATOM     33  C   UNL A   1      33.511  30.610  26.720  1.00  0.00     0.116 C 
BRANCH  33  34
ATOM     34  N   UNL A   1      34.144  31.576  27.577  1.00  0.00    -0.352 N 
ATOM     35  C   UNL A   1      34.999  31.354  28.635  1.00  0.00     0.251 C 
ATOM     36  H   UNL A   1      33.940  32.519  27.383  1.00  0.00     0.163 HD
ATOM     37  O   UNL A   1      35.132  32.259  29.454  1.00  0.00    -0.269 OA
BRANCH  35  38
ATOM     38  C   UNL A   1      35.872  30.147  28.660  1.00  0.00     0.039 A 
ATOM     39  C   UNL A   1      36.113  29.595  29.923  1.00  0.00     0.014 A 
ATOM     40  C   UNL A   1      36.697  29.799  27.595  1.00  0.00     0.014 A 
ATOM     41  C   UNL A   1      37.341  29.010  30.189  1.00  0.00     0.010 A 
ATOM     42  C   UNL A   1      37.948  29.316  27.867  1.00  0.00     0.010 A 
ATOM     43  C   UNL A   1      38.292  29.028  29.185  1.00  0.00    -0.014 A 
BRANCH  43  44
ATOM     44  C   UNL A   1      39.678  28.668  29.342  1.00  0.00     0.031 A 
ATOM     45  C   UNL A   1      40.045  27.280  29.081  1.00  0.00     0.074 A 
ATOM     46  C   UNL A   1      40.562  29.687  29.367  1.00  0.00     0.049 A 
ATOM     47  N   UNL A   1      41.233  26.822  29.215  1.00  0.00    -0.248 NA
ATOM     48  C   UNL A   1      39.074  26.285  28.640  1.00  0.00     0.031 C 
ATOM     49  C   UNL A   1      41.960  29.708  28.967  1.00  0.00     0.029 A 
ATOM     50  N   UNL A   1      40.355  30.950  29.905  1.00  0.00    -0.354 N 
ATOM     51  C   UNL A   1      41.259  25.594  28.596  1.00  0.00     0.074 A 
ATOM     52  C   UNL A   1      39.876  25.247  28.391  1.00  0.00     0.031 C 
ATOM     53  C   UNL A   1      42.544  30.805  29.482  1.00  0.00     0.029 A 
ATOM     54  C   UNL A   1      41.589  31.404  30.401  1.00  0.00     0.049 A 
ATOM     55  H   UNL A   1      39.501  31.439  29.935  1.00  0.00     0.167 HD
ATOM     56  C   UNL A   1      42.474  25.125  28.197  1.00  0.00     0.034 A 
ATOM     57  C   UNL A   1      41.747  31.482  31.763  1.00  0.00     0.034 A 
ATOM     58  C   UNL A   1      43.544  25.998  28.727  1.00  0.00     0.049 A 
ATOM     59  C   UNL A   1      42.710  30.429  32.316  1.00  0.00     0.074 A 
ATOM     60  C   UNL A   1      44.324  27.024  28.217  1.00  0.00     0.029 A 
ATOM     61  N   UNL A   1      43.663  26.096  30.103  1.00  0.00    -0.354 N 
ATOM     62  N   UNL A   1      43.352  29.550  31.591  1.00  0.00    -0.248 NA
ATOM     63  C   UNL A   1      42.974  30.254  33.744  1.00  0.00     0.031 C 
ATOM     64  C   UNL A   1      44.843  27.777  29.324  1.00  0.00     0.029 A 
ATOM     65  C   UNL A   1      44.413  27.186  30.502  1.00  0.00     0.049 A 
ATOM     66  H   UNL A   1      43.255  25.456  30.731  1.00  0.00     0.167 HD
ATOM     67  C   UNL A   1      43.934  28.613  32.403  1.00  0.00     0.074 A 
ATOM     68  C   UNL A   1      43.703  29.125  33.747  1.00  0.00     0.031 C 
ATOM     69  C   UNL A   1      44.513  27.460  31.936  1.00  0.00     0.034 A 
BRANCH  56  70
ATOM     70  C   UNL A   1      42.721  24.025  27.180  1.00  0.00     0.023 A 
ATOM     71  C   UNL A   1      43.373  24.413  25.989  1.00  0.00     0.012 A 
ATOM     72  C   UNL A   1      42.326  22.665  27.247  1.00  0.00     0.148 A 
ATOM     73  C   UNL A   1      43.573  23.536  24.916  1.00  0.00     0.002 A 
ATOM     74  C   UNL A   1      42.516  21.788  26.175  1.00  0.00     0.091 A 
ATOM     75  F   UNL A   1      41.769  22.175  28.350  1.00  0.00    -0.205 F 
ATOM     76  C   UNL A   1      43.134  22.225  25.004  1.00  0.00     0.022 A 
BRANCH  74  77
ATOM     77  S   UNL A   1      41.962  20.069  26.203  1.00  0.00     0.127 S 
ATOM     78  O   UNL A   1      40.517  20.214  26.014  1.00  0.00    -0.237 OA
ATOM     79  O   UNL A   1      42.668  19.495  25.059  1.00  0.00    -0.237 OA
ATOM     80  O   UNL A   1      42.346  19.526  27.500  1.00  0.00    -0.744 OA
ENDBRANCH  74  77
ENDBRANCH  56  70
BRANCH  57  81
ATOM     81  C   UNL A   1      40.459  31.925  32.419  1.00  0.00     0.023 A 
ATOM     82  C   UNL A   1      39.472  30.919  32.607  1.00  0.00     0.012 A 
ATOM     83  C   UNL A   1      40.416  33.060  33.247  1.00  0.00     0.148 A 
ATOM     84  C   UNL A   1      38.669  30.914  33.751  1.00  0.00     0.002 A 
ATOM     85  C   UNL A   1      39.566  33.075  34.354  1.00  0.00     0.091 A 
ATOM     86  F   UNL A   1      41.238  34.085  32.993  1.00  0.00    -0.205 F 
ATOM     87  C   UNL A   1      38.756  31.969  34.654  1.00  0.00     0.022 A 
BRANCH  85  88
ATOM     88  S   UNL A   1      39.551  34.491  35.458  1.00  0.00     0.127 S 
ATOM     89  O   UNL A   1      38.701  34.009  36.542  1.00  0.00    -0.237 OA
ATOM     90  O   UNL A   1      40.960  34.649  35.821  1.00  0.00    -0.237 OA
ATOM     91  O   UNL A   1      39.017  35.580  34.653  1.00  0.00    -0.744 OA
ENDBRANCH  85  88
ENDBRANCH  57  81
BRANCH  69  92
ATOM     92  C   UNL A   1      45.220  26.466  32.844  1.00  0.00     0.023 A 
ATOM     93  C   UNL A   1      46.592  26.197  32.667  1.00  0.00     0.012 A 
ATOM     94  C   UNL A   1      44.537  25.666  33.797  1.00  0.00     0.148 A 
ATOM     95  C   UNL A   1      47.266  25.253  33.449  1.00  0.00     0.002 A 
ATOM     96  C   UNL A   1      45.186  24.652  34.492  1.00  0.00     0.091 A 
ATOM     97  F   UNL A   1      43.256  25.907  34.087  1.00  0.00    -0.205 F 
ATOM     98  C   UNL A   1      46.560  24.469  34.350  1.00  0.00     0.022 A 
BRANCH  96  99
ATOM     99  S   UNL A   1      44.293  23.465  35.509  1.00  0.00     0.127 S 
ATOM    100  O   UNL A   1      45.332  22.468  35.778  1.00  0.00    -0.237 OA
ATOM    101  O   UNL A   1      43.918  24.281  36.662  1.00  0.00    -0.237 OA
ATOM    102  O   UNL A   1      43.191  22.977  34.695  1.00  0.00    -0.744 OA
ENDBRANCH  96  99
ENDBRANCH  69  92
ENDBRANCH  43  44
ENDBRANCH  35  38
ENDBRANCH  33  34
ENDBRANCH  32  33
ENDBRANCH  31  32
ENDBRANCH   1  31
TORSDOF 19
ENDMDL
MODEL 2
REMARK VINA RESULT:     -12.4      3.757      8.788
REMARK SMILES Cc1ccccc1Nc1nc2c(c(=O)[nH]c(=O)n2C)n1CC(=O)NCCCCCCNC(=O)c1ccc(-c2c3nc(c(-c4cccc(S(=O)(=O)[O-])c4F)c4ccc([nH]4)c(-c4cccc(S(=O)(=O)[O-])c4F)c4nc(c(-c5cccc(S(=O)(=O)[O-])c5F)c5ccc2[nH]5)C=C4)C=C3)cc1
REMARK SMILES IDX 27 1 26 2 25 3 24 4 22 5 23 6 21 8 20 9 9 10 10 11 11 12
REMARK SMILES IDX 12 13 18 14 13 15 16 16 19 17 14 18 15 19 17 20 8 22 7 24
REMARK SMILES IDX 1 25 2 26 3 27 4 28 6 29 5 30 28 31 29 32 30 33 31 34 32 35
REMARK SMILES IDX 33 37 34 38 35 39 96 40 36 41 95 42 37 43 38 44 39 45 89 46
REMARK SMILES IDX 40 47 94 48 88 49 90 50 41 51 93 52 87 53 86 54 42 56 74 57
REMARK SMILES IDX 54 58 73 59 55 60 58 61 72 62 91 63 56 64 57 65 71 67 92 68
REMARK SMILES IDX 59 69 43 70 44 71 52 72 45 73 47 74 53 75 46 76 48 77 49 78
REMARK SMILES IDX 50 79 51 80 75 81 76 82 84 83 77 84 79 85 85 86 78 87 80 88
REMARK SMILES IDX 81 89 82 90 83 91 60 92 61 93 69 94 62 95 64 96 70 97 63 98
REMARK SMILES IDX 65 99 66 100 67 101 68 102
REMARK H PARENT 24 7 15 21 8 23 31 36 90 55 58 66
REMARK Flexibility Score: inf
ROOT
ATOM      1  C   UNL A   1      36.075  22.414  23.491  1.00  0.00     0.002 C 
ENDROOT
BRANCH   1   2
ATOM      2  C   UNL A   1      35.780  23.851  23.938  1.00  0.00     0.021 C 
BRANCH   2   3
ATOM      3  C   UNL A   1      35.233  23.970  25.360  1.00  0.00     0.116 C 
BRANCH   3   4
ATOM      4  N   UNL A   1      34.318  25.073  25.551  1.00  0.00    -0.355 N 
ATOM      5  C   UNL A   1      33.036  25.099  26.008  1.00  0.00     0.240 C 
ATOM      6  O   UNL A   1      32.580  26.203  26.325  1.00  0.00    -0.273 OA
ATOM      7  H   UNL A   1      34.685  25.954  25.307  1.00  0.00     0.163 HD
BRANCH   5   8
ATOM      8  C   UNL A   1      32.224  23.846  26.247  1.00  0.00     0.226 C 
BRANCH   8   9
ATOM      9  N   UNL A   1      32.207  22.865  25.174  1.00  0.00    -0.295 N 
ATOM     10  C   UNL A   1      31.599  22.978  23.929  1.00  0.00     0.210 A 
ATOM     11  N   UNL A   1      31.642  21.824  23.288  1.00  0.00    -0.194 NA
ATOM     12  C   UNL A   1      32.328  20.975  24.096  1.00  0.00     0.170 A 
ATOM     13  C   UNL A   1      32.631  21.556  25.293  1.00  0.00     0.154 A 
ATOM     14  N   UNL A   1      32.690  19.675  23.805  1.00  0.00    -0.279 N 
ATOM     15  C   UNL A   1      33.292  20.835  26.330  1.00  0.00     0.279 A 
ATOM     16  C   UNL A   1      33.410  18.950  24.748  1.00  0.00     0.329 A 
ATOM     17  C   UNL A   1      32.356  19.075  22.527  1.00  0.00     0.157 C 
ATOM     18  O   UNL A   1      33.539  21.269  27.456  1.00  0.00    -0.267 OA
ATOM     19  N   UNL A   1      33.676  19.575  25.949  1.00  0.00    -0.272 N 
ATOM     20  O   UNL A   1      33.810  17.799  24.591  1.00  0.00    -0.248 OA
ATOM     21  H   UNL A   1      34.198  19.059  26.606  1.00  0.00     0.175 HD
BRANCH  10  22
ATOM     22  N   UNL A   1      30.922  24.070  23.492  1.00  0.00    -0.325 N 
ATOM     23  H   UNL A   1      29.942  23.989  23.467  1.00  0.00     0.170 HD
BRANCH  22  24
ATOM     24  C   UNL A   1      31.454  25.317  23.068  1.00  0.00     0.044 A 
ATOM     25  C   UNL A   1      29.441  26.610  23.994  1.00  0.00     0.046 C 
ATOM     26  C   UNL A   1      30.809  26.533  23.377  1.00  0.00    -0.027 A 
ATOM     27  C   UNL A   1      31.420  27.759  23.037  1.00  0.00     0.005 A 
ATOM     28  C   UNL A   1      32.644  27.798  22.379  1.00  0.00     0.000 A 
ATOM     29  C   UNL A   1      32.639  25.392  22.329  1.00  0.00     0.026 A 
ATOM     30  C   UNL A   1      33.242  26.610  22.002  1.00  0.00     0.002 A 
ENDBRANCH  22  24
ENDBRANCH  10  22
ENDBRANCH   8   9
ENDBRANCH   5   8
ENDBRANCH   3   4
ENDBRANCH   2   3
ENDBRANCH   1   2
BRANCH   1  31
ATOM     31  C   UNL A   1      36.466  21.441  24.612  1.00  0.00     0.002 C 
BRANCH  31  32
ATOM     32  C   UNL A   1      37.930  21.494  25.035  1.00  0.00     0.021 C 
BRANCH  32  33
ATOM     33  C   UNL A   1      38.150  22.304  26.293  1.00  0.00     0.116 C 
BRANCH  33  34
ATOM     34  N   UNL A   1      39.523  22.313  26.721  1.00  0.00    -0.352 N 
ATOM     35  C   UNL A   1      40.383  23.385  26.823  1.00  0.00     0.251 C 
ATOM     36  H   UNL A   1      39.898  21.438  26.975  1.00  0.00     0.163 HD
ATOM     37  O   UNL A   1      41.587  23.145  26.847  1.00  0.00    -0.269 OA
BRANCH  35  38
ATOM     38  C   UNL A   1      39.857  24.751  27.098  1.00  0.00     0.039 A 
ATOM     39  C   UNL A   1      40.437  25.788  26.358  1.00  0.00     0.014 A 
ATOM     40  C   UNL A   1      39.130  25.056  28.245  1.00  0.00     0.014 A 
ATOM     41  C   UNL A   1      40.592  27.037  26.939  1.00  0.00     0.010 A 
ATOM     42  C   UNL A   1      39.363  26.250  28.870  1.00  0.00     0.010 A 
ATOM     43  C   UNL A   1      40.186  27.189  28.252  1.00  0.00    -0.014 A 
BRANCH  43  44
ATOM     44  C   UNL A   1      40.459  28.334  29.083  1.00  0.00     0.031 A 
ATOM     45  C   UNL A   1      39.573  29.486  28.951  1.00  0.00     0.074 A 
ATOM     46  C   UNL A   1      41.267  28.125  30.142  1.00  0.00     0.049 A 
ATOM     47  N   UNL A   1      39.725  30.576  29.605  1.00  0.00    -0.248 NA
ATOM     48  C   UNL A   1      38.426  29.492  28.051  1.00  0.00     0.031 C 
ATOM     49  C   UNL A   1      41.316  28.817  31.420  1.00  0.00     0.029 A 
ATOM     50  N   UNL A   1      42.344  27.249  30.203  1.00  0.00    -0.354 N 
ATOM     51  C   UNL A   1      38.559  31.292  29.463  1.00  0.00     0.074 A 
ATOM     52  C   UNL A   1      37.856  30.652  28.381  1.00  0.00     0.031 C 
ATOM     53  C   UNL A   1      42.480  28.530  32.029  1.00  0.00     0.029 A 
ATOM     54  C   UNL A   1      43.300  27.816  31.063  1.00  0.00     0.049 A 
ATOM     55  H   UNL A   1      42.423  26.389  29.730  1.00  0.00     0.167 HD
ATOM     56  C   UNL A   1      38.289  32.234  30.408  1.00  0.00     0.034 A 
ATOM     57  C   UNL A   1      44.462  28.293  30.509  1.00  0.00     0.034 A 
ATOM     58  C   UNL A   1      39.464  32.408  31.290  1.00  0.00     0.049 A 
ATOM     59  C   UNL A   1      44.559  29.820  30.541  1.00  0.00     0.074 A 
ATOM     60  C   UNL A   1      39.826  31.958  32.550  1.00  0.00     0.029 A 
ATOM     61  N   UNL A   1      40.638  32.851  30.707  1.00  0.00    -0.354 N 
ATOM     62  N   UNL A   1      43.658  30.615  31.057  1.00  0.00    -0.248 NA
ATOM     63  C   UNL A   1      45.659  30.568  29.934  1.00  0.00     0.031 C 
ATOM     64  C   UNL A   1      41.252  32.075  32.668  1.00  0.00     0.029 A 
ATOM     65  C   UNL A   1      41.749  32.630  31.499  1.00  0.00     0.049 A 
ATOM     66  H   UNL A   1      40.677  33.279  29.820  1.00  0.00     0.167 HD
ATOM     67  C   UNL A   1      43.927  31.913  30.712  1.00  0.00     0.074 A 
ATOM     68  C   UNL A   1      45.218  31.833  30.042  1.00  0.00     0.031 C 
ATOM     69  C   UNL A   1      43.063  32.953  30.940  1.00  0.00     0.034 A 
BRANCH  56  70
ATOM     70  C   UNL A   1      36.934  32.860  30.691  1.00  0.00     0.023 A 
ATOM     71  C   UNL A   1      36.453  32.734  32.012  1.00  0.00     0.012 A 
ATOM     72  C   UNL A   1      36.060  33.504  29.778  1.00  0.00     0.148 A 
ATOM     73  C   UNL A   1      35.177  33.164  32.397  1.00  0.00     0.002 A 
ATOM     74  C   UNL A   1      34.781  33.927  30.156  1.00  0.00     0.091 A 
ATOM     75  F   UNL A   1      36.440  33.739  28.527  1.00  0.00    -0.205 F 
ATOM     76  C   UNL A   1      34.336  33.750  31.465  1.00  0.00     0.022 A 
BRANCH  74  77
ATOM     77  S   UNL A   1      33.619  34.686  29.002  1.00  0.00     0.127 S 
ATOM     78  O   UNL A   1      32.523  35.079  29.890  1.00  0.00    -0.237 OA
ATOM     79  O   UNL A   1      34.395  35.803  28.466  1.00  0.00    -0.237 OA
ATOM     80  O   UNL A   1      33.263  33.660  28.028  1.00  0.00    -0.744 OA
ENDBRANCH  74  77
ENDBRANCH  56  70
BRANCH  57  81
ATOM     81  C   UNL A   1      44.904  27.409  29.364  1.00  0.00     0.023 A 
ATOM     82  C   UNL A   1      45.066  26.029  29.664  1.00  0.00     0.012 A 
ATOM     83  C   UNL A   1      44.667  27.775  28.028  1.00  0.00     0.148 A 
ATOM     84  C   UNL A   1      44.719  25.051  28.727  1.00  0.00     0.002 A 
ATOM     85  C   UNL A   1      44.382  26.789  27.083  1.00  0.00     0.091 A 
ATOM     86  F   UNL A   1      44.660  29.072  27.698  1.00  0.00    -0.205 F 
ATOM     87  C   UNL A   1      44.324  25.436  27.450  1.00  0.00     0.022 A 
BRANCH  85  88
ATOM     88  S   UNL A   1      44.011  27.249  25.387  1.00  0.00     0.127 S 
ATOM     89  O   UNL A   1      45.334  27.606  24.883  1.00  0.00    -0.237 OA
ATOM     90  O   UNL A   1      43.460  26.019  24.817  1.00  0.00    -0.237 OA
ATOM     91  O   UNL A   1      43.049  28.336  25.502  1.00  0.00    -0.744 OA
ENDBRANCH  85  88
ENDBRANCH  57  81
BRANCH  69  92
ATOM     92  C   UNL A   1      43.408  34.398  30.618  1.00  0.00     0.023 A 
ATOM     93  C   UNL A   1      43.622  35.324  31.658  1.00  0.00     0.012 A 
ATOM     94  C   UNL A   1      43.394  34.921  29.298  1.00  0.00     0.148 A 
ATOM     95  C   UNL A   1      43.893  36.673  31.401  1.00  0.00     0.002 A 
ATOM     96  C   UNL A   1      43.551  36.281  29.054  1.00  0.00     0.091 A 
ATOM     97  F   UNL A   1      43.280  34.103  28.249  1.00  0.00    -0.205 F 
ATOM     98  C   UNL A   1      43.841  37.155  30.101  1.00  0.00     0.022 A 
BRANCH  96  99
ATOM     99  S   UNL A   1      43.283  37.000  27.426  1.00  0.00     0.127 S 
ATOM    100  O   UNL A   1      44.306  36.315  26.631  1.00  0.00    -0.237 OA
ATOM    101  O   UNL A   1      41.911  36.588  27.139  1.00  0.00    -0.237 OA
ATOM    102  O   UNL A   1      43.497  38.432  27.571  1.00  0.00    -0.744 OA
ENDBRANCH  96  99
ENDBRANCH  69  92
ENDBRANCH  43  44
ENDBRANCH  35  38
ENDBRANCH  33  34
ENDBRANCH  32  33
ENDBRANCH  31  32
ENDBRANCH   1  31
TORSDOF 19
ENDMDL
MODEL 3
REMARK VINA RESULT:     -12.4      1.648      2.202
REMARK SMILES Cc1ccccc1Nc1nc2c(c(=O)[nH]c(=O)n2C)n1CC(=O)NCCCCCCNC(=O)c1ccc(-c2c3nc(c(-c4cccc(S(=O)(=O)[O-])c4F)c4ccc([nH]4)c(-c4cccc(S(=O)(=O)[O-])c4F)c4nc(c(-c5cccc(S(=O)(=O)[O-])c5F)c5ccc2[nH]5)C=C4)C=C3)cc1
REMARK SMILES IDX 27 1 26 2 25 3 24 4 22 5 23 6 21 8 20 9 9 10 10 11 11 12
REMARK SMILES IDX 12 13 18 14 13 15 16 16 19 17 14 18 15 19 17 20 8 22 7 24
REMARK SMILES IDX 1 25 2 26 3 27 4 28 6 29 5 30 28 31 29 32 30 33 31 34 32 35
REMARK SMILES IDX 33 37 34 38 35 39 96 40 36 41 95 42 37 43 38 44 39 45 89 46
REMARK SMILES IDX 40 47 94 48 88 49 90 50 41 51 93 52 87 53 86 54 42 56 74 57
REMARK SMILES IDX 54 58 73 59 55 60 58 61 72 62 91 63 56 64 57 65 71 67 92 68
REMARK SMILES IDX 59 69 43 70 44 71 52 72 45 73 47 74 53 75 46 76 48 77 49 78
REMARK SMILES IDX 50 79 51 80 75 81 76 82 84 83 77 84 79 85 85 86 78 87 80 88
REMARK SMILES IDX 81 89 82 90 83 91 60 92 61 93 69 94 62 95 64 96 70 97 63 98
REMARK SMILES IDX 65 99 66 100 67 101 68 102
REMARK H PARENT 24 7 15 21 8 23 31 36 90 55 58 66
REMARK Flexibility Score: inf
ROOT
ATOM      1  C   UNL A   1      31.673  29.434  26.778  1.00  0.00     0.002 C 
ENDROOT
BRANCH   1   2
ATOM      2  C   UNL A   1      31.807  28.127  27.569  1.00  0.00     0.021 C 
BRANCH   2   3
ATOM      3  C   UNL A   1      32.315  26.942  26.747  1.00  0.00     0.116 C 
BRANCH   3   4
ATOM      4  N   UNL A   1      31.515  25.745  26.881  1.00  0.00    -0.355 N 
ATOM      5  C   UNL A   1      31.773  24.456  26.527  1.00  0.00     0.240 C 
ATOM      6  O   UNL A   1      31.030  23.589  26.999  1.00  0.00    -0.273 OA
ATOM      7  H   UNL A   1      30.634  25.887  27.297  1.00  0.00     0.163 HD
BRANCH   5   8
ATOM      8  C   UNL A   1      32.975  24.056  25.701  1.00  0.00     0.226 C 
BRANCH   8   9
ATOM      9  N   UNL A   1      32.820  22.893  24.842  1.00  0.00    -0.295 N 
ATOM     10  C   UNL A   1      32.422  22.868  23.509  1.00  0.00     0.210 A 
ATOM     11  N   UNL A   1      32.224  21.626  23.111  1.00  0.00    -0.194 NA
ATOM     12  C   UNL A   1      32.546  20.838  24.170  1.00  0.00     0.170 A 
ATOM     13  C   UNL A   1      32.849  21.581  25.273  1.00  0.00     0.154 A 
ATOM     14  N   UNL A   1      32.569  19.458  24.193  1.00  0.00    -0.279 N 
ATOM     15  C   UNL A   1      33.155  20.974  26.526  1.00  0.00     0.279 A 
ATOM     16  C   UNL A   1      32.941  18.811  25.365  1.00  0.00     0.329 A 
ATOM     17  C   UNL A   1      32.240  18.687  23.009  1.00  0.00     0.157 C 
ATOM     18  O   UNL A   1      33.373  21.577  27.578  1.00  0.00    -0.267 OA
ATOM     19  N   UNL A   1      33.220  19.606  26.458  1.00  0.00    -0.272 N 
ATOM     20  O   UNL A   1      33.025  17.593  25.497  1.00  0.00    -0.248 OA
ATOM     21  H   UNL A   1      33.496  19.140  27.281  1.00  0.00     0.175 HD
BRANCH  10  22
ATOM     22  N   UNL A   1      32.130  23.966  22.766  1.00  0.00    -0.325 N 
ATOM     23  H   UNL A   1      32.481  23.970  21.847  1.00  0.00     0.170 HD
BRANCH  22  24
ATOM     24  C   UNL A   1      31.381  25.110  23.152  1.00  0.00     0.044 A 
ATOM     25  C   UNL A   1      33.381  26.673  22.783  1.00  0.00     0.046 C 
ATOM     26  C   UNL A   1      31.933  26.406  23.078  1.00  0.00    -0.027 A 
ATOM     27  C   UNL A   1      31.126  27.529  23.363  1.00  0.00     0.005 A 
ATOM     28  C   UNL A   1      29.796  27.387  23.739  1.00  0.00     0.000 A 
ATOM     29  C   UNL A   1      30.067  24.999  23.617  1.00  0.00     0.026 A 
ATOM     30  C   UNL A   1      29.273  26.116  23.891  1.00  0.00     0.002 A 
ENDBRANCH  22  24
ENDBRANCH  10  22
ENDBRANCH   8   9
ENDBRANCH   5   8
ENDBRANCH   3   4
ENDBRANCH   2   3
ENDBRANCH   1   2
BRANCH   1  31
ATOM     31  C   UNL A   1      32.773  29.696  25.741  1.00  0.00     0.002 C 
BRANCH  31  32
ATOM     32  C   UNL A   1      34.146  30.020  26.322  1.00  0.00     0.021 C 
BRANCH  32  33
ATOM     33  C   UNL A   1      34.069  30.815  27.607  1.00  0.00     0.116 C 
BRANCH  33  34
ATOM     34  N   UNL A   1      35.123  31.786  27.730  1.00  0.00    -0.352 N 
ATOM     35  C   UNL A   1      36.376  31.627  28.281  1.00  0.00     0.251 C 
ATOM     36  H   UNL A   1      34.923  32.682  27.374  1.00  0.00     0.163 HD
ATOM     37  O   UNL A   1      36.977  32.641  28.622  1.00  0.00    -0.269 OA
BRANCH  35  38
ATOM     38  C   UNL A   1      37.043  30.295  28.267  1.00  0.00     0.039 A 
ATOM     39  C   UNL A   1      36.964  29.561  29.455  1.00  0.00     0.014 A 
ATOM     40  C   UNL A   1      37.991  29.944  27.310  1.00  0.00     0.014 A 
ATOM     41  C   UNL A   1      38.023  28.748  29.827  1.00  0.00     0.010 A 
ATOM     42  C   UNL A   1      39.087  29.226  27.707  1.00  0.00     0.010 A 
ATOM     43  C   UNL A   1      39.136  28.726  29.005  1.00  0.00    -0.014 A 
BRANCH  43  44
ATOM     44  C   UNL A   1      40.401  28.119  29.329  1.00  0.00     0.031 A 
ATOM     45  C   UNL A   1      40.599  26.727  28.936  1.00  0.00     0.074 A 
ATOM     46  C   UNL A   1      41.407  28.962  29.640  1.00  0.00     0.049 A 
ATOM     47  N   UNL A   1      41.662  26.062  29.193  1.00  0.00    -0.248 NA
ATOM     48  C   UNL A   1      39.588  25.970  28.209  1.00  0.00     0.031 C 
ATOM     49  C   UNL A   1      42.842  28.790  29.477  1.00  0.00     0.029 A 
ATOM     50  N   UNL A   1      41.296  30.173  30.312  1.00  0.00    -0.354 N 
ATOM     51  C   UNL A   1      41.617  24.925  28.418  1.00  0.00     0.074 A 
ATOM     52  C   UNL A   1      40.259  24.846  27.947  1.00  0.00     0.031 C 
ATOM     53  C   UNL A   1      43.480  29.705  30.229  1.00  0.00     0.029 A 
ATOM     54  C   UNL A   1      42.474  30.349  31.058  1.00  0.00     0.049 A 
ATOM     55  H   UNL A   1      40.533  30.794  30.273  1.00  0.00     0.167 HD
ATOM     56  C   UNL A   1      42.801  24.305  28.157  1.00  0.00     0.034 A 
ATOM     57  C   UNL A   1      42.392  30.244  32.425  1.00  0.00     0.034 A 
ATOM     58  C   UNL A   1      43.875  24.916  28.971  1.00  0.00     0.049 A 
ATOM     59  C   UNL A   1      43.072  28.986  32.971  1.00  0.00     0.074 A 
ATOM     60  C   UNL A   1      44.878  25.845  28.743  1.00  0.00     0.029 A 
ATOM     61  N   UNL A   1      43.756  24.834  30.347  1.00  0.00    -0.354 N 
ATOM     62  N   UNL A   1      43.696  28.098  32.241  1.00  0.00    -0.248 NA
ATOM     63  C   UNL A   1      43.044  28.607  34.383  1.00  0.00     0.031 C 
ATOM     64  C   UNL A   1      45.294  26.367  30.014  1.00  0.00     0.029 A 
ATOM     65  C   UNL A   1      44.574  25.728  31.012  1.00  0.00     0.049 A 
ATOM     66  H   UNL A   1      43.150  24.206  30.804  1.00  0.00     0.167 HD
ATOM     67  C   UNL A   1      43.976  26.989  32.994  1.00  0.00     0.074 A 
ATOM     68  C   UNL A   1      43.583  27.376  34.343  1.00  0.00     0.031 C 
ATOM     69  C   UNL A   1      44.452  25.816  32.468  1.00  0.00     0.034 A 
BRANCH  56  70
ATOM     70  C   UNL A   1      43.063  23.303  27.047  1.00  0.00     0.023 A 
ATOM     71  C   UNL A   1      43.597  23.824  25.849  1.00  0.00     0.012 A 
ATOM     72  C   UNL A   1      42.782  21.912  27.038  1.00  0.00     0.148 A 
ATOM     73  C   UNL A   1      43.791  23.043  24.703  1.00  0.00     0.002 A 
ATOM     74  C   UNL A   1      42.965  21.130  25.894  1.00  0.00     0.091 A 
ATOM     75  F   UNL A   1      42.344  21.303  28.135  1.00  0.00    -0.205 F 
ATOM     76  C   UNL A   1      43.463  21.697  24.721  1.00  0.00     0.022 A 
BRANCH  74  77
ATOM     77  S   UNL A   1      42.552  19.373  25.830  1.00  0.00     0.127 S 
ATOM     78  O   UNL A   1      43.022  18.903  27.134  1.00  0.00    -0.237 OA
ATOM     79  O   UNL A   1      41.098  19.400  25.682  1.00  0.00    -0.237 OA
ATOM     80  O   UNL A   1      43.276  18.814  24.694  1.00  0.00    -0.744 OA
ENDBRANCH  74  77
ENDBRANCH  56  70
BRANCH  57  81
ATOM     81  C   UNL A   1      41.086  30.822  32.923  1.00  0.00     0.023 A 
ATOM     82  C   UNL A   1      40.094  29.883  33.317  1.00  0.00     0.012 A 
ATOM     83  C   UNL A   1      41.021  32.120  33.457  1.00  0.00     0.148 A 
ATOM     84  C   UNL A   1      39.259  30.146  34.408  1.00  0.00     0.002 A 
ATOM     85  C   UNL A   1      40.140  32.392  34.504  1.00  0.00     0.091 A 
ATOM     86  F   UNL A   1      41.851  33.061  32.988  1.00  0.00    -0.205 F 
ATOM     87  C   UNL A   1      39.322  31.385  35.036  1.00  0.00     0.022 A 
BRANCH  85  88
ATOM     88  S   UNL A   1      40.096  34.031  35.240  1.00  0.00     0.127 S 
ATOM     89  O   UNL A   1      39.801  34.865  34.080  1.00  0.00    -0.237 OA
ATOM     90  O   UNL A   1      39.004  33.935  36.209  1.00  0.00    -0.237 OA
ATOM     91  O   UNL A   1      41.412  34.200  35.840  1.00  0.00    -0.744 OA
ENDBRANCH  85  88
ENDBRANCH  57  81
BRANCH  69  92
ATOM     92  C   UNL A   1      44.828  24.618  33.327  1.00  0.00     0.023 A 
ATOM     93  C   UNL A   1      43.838  23.702  33.736  1.00  0.00     0.012 A 
ATOM     94  C   UNL A   1      46.125  24.433  33.872  1.00  0.00     0.148 A 
ATOM     95  C   UNL A   1      44.136  22.615  34.566  1.00  0.00     0.002 A 
ATOM     96  C   UNL A   1      46.391  23.419  34.786  1.00  0.00     0.091 A 
ATOM     97  F   UNL A   1      47.140  25.205  33.476  1.00  0.00    -0.205 F 
ATOM     98  C   UNL A   1      45.408  22.484  35.105  1.00  0.00     0.022 A 
BRANCH  96  99
ATOM     99  S   UNL A   1      47.949  23.321  35.681  1.00  0.00     0.127 S 
ATOM    100  O   UNL A   1      47.996  24.630  36.336  1.00  0.00    -0.237 OA
ATOM    101  O   UNL A   1      47.706  22.196  36.581  1.00  0.00    -0.237 OA
ATOM    102  O   UNL A   1      48.984  23.116  34.678  1.00  0.00    -0.744 OA
ENDBRANCH  96  99
ENDBRANCH  69  92
ENDBRANCH  43  44
ENDBRANCH  35  38
ENDBRANCH  33  34
ENDBRANCH  32  33
ENDBRANCH  31  32
ENDBRANCH   1  31
TORSDOF 19
ENDMDL
