MODEL 1
REMARK VINA RESULT:     -11.4      0.000      0.000
REMARK SMILES O=C(NCCCCCCNC(=O)[C@H](NC(=O)[C@H]1CC[C@@H](CNC(=O)[C@@H]2Cc3ccccc3C[NH2+]2)CC1)c1ccccc1)c1ccc(-c2c3nc(c(-c4cccc(S(=O)(=O)[O-])c4F)c4ccc([nH]4)c(-c4cccc(S(=O)(=O)[O-])c4F)c4nc(c(-c5cccc(S(=O)(=O)[O-])c5F)c5ccc2[nH]5)C=C4)C=C3)cc1
REMARK SMILES IDX 7 1 6 2 5 3 4 4 3 5 1 6 2 7 43 9 44 10 105 11 45 12 104 13
REMARK SMILES IDX 46 14 47 15 48 16 98 17 49 18 103 19 97 20 99 21 50 22
REMARK SMILES IDX 102 23 96 24 95 25 51 27 83 28 63 29 82 30 64 31 67 32 81 33
REMARK SMILES IDX 100 34 65 35 66 36 80 38 101 39 68 40 52 41 53 42 61 43
REMARK SMILES IDX 54 44 56 45 62 46 55 47 57 48 58 49 59 50 60 51 84 52 85 53
REMARK SMILES IDX 93 54 86 55 88 56 94 57 87 58 89 59 90 60 91 61 92 62 69 63
REMARK SMILES IDX 70 64 78 65 71 66 73 67 79 68 72 69 74 70 75 71 76 72 77 73
REMARK SMILES IDX 8 74 9 75 10 76 11 77 12 79 13 80 37 81 38 82 42 83 39 84
REMARK SMILES IDX 41 85 40 86 14 87 15 88 16 90 17 91 36 92 18 93 35 94 19 95
REMARK SMILES IDX 20 96 21 97 22 98 23 99 24 101 25 102 26 103 34 104 27 105
REMARK SMILES IDX 33 106 28 109 32 110 29 111 31 112 30 113
REMARK H PARENT 3 8 99 26 67 37 10 78 14 89 22 100 34 107 34 108
REMARK Flexibility Score: inf
ROOT
ATOM      1  C   UNL A   1      33.720  30.979  27.916  1.00  0.00     0.002 C 
ENDROOT
BRANCH   1   2
ATOM      2  C   UNL A   1      34.315  32.387  27.966  1.00  0.00     0.002 C 
BRANCH   2   3
ATOM      3  C   UNL A   1      33.339  33.552  27.859  1.00  0.00     0.021 C 
BRANCH   3   4
ATOM      4  C   UNL A   1      33.878  34.875  28.369  1.00  0.00     0.116 C 
BRANCH   4   5
ATOM      5  N   UNL A   1      33.010  35.519  29.337  1.00  0.00    -0.352 N 
ATOM      6  O   UNL A   1      32.225  35.969  31.407  1.00  0.00    -0.269 OA
ATOM      7  C   UNL A   1      33.076  35.443  30.715  1.00  0.00     0.251 C 
ATOM      8  H   UNL A   1      32.288  36.077  28.968  1.00  0.00     0.163 HD
BRANCH   7   9
ATOM      9  C   UNL A   1      34.189  34.674  31.317  1.00  0.00     0.039 A 
ATOM     10  C   UNL A   1      35.415  35.296  31.555  1.00  0.00     0.014 A 
ATOM     11  C   UNL A   1      34.022  33.313  31.580  1.00  0.00     0.014 A 
ATOM     12  C   UNL A   1      36.517  34.529  31.897  1.00  0.00     0.010 A 
ATOM     13  C   UNL A   1      35.109  32.563  32.043  1.00  0.00     0.010 A 
ATOM     14  C   UNL A   1      36.370  33.159  32.181  1.00  0.00    -0.014 A 
BRANCH  14  15
ATOM     15  C   UNL A   1      37.538  32.428  32.735  1.00  0.00     0.031 A 
ATOM     16  C   UNL A   1      38.247  31.352  31.963  1.00  0.00     0.074 A 
ATOM     17  C   UNL A   1      37.972  32.790  33.960  1.00  0.00     0.049 A 
ATOM     18  N   UNL A   1      39.312  30.671  32.303  1.00  0.00    -0.248 NA
ATOM     19  C   UNL A   1      37.694  30.979  30.651  1.00  0.00     0.031 C 
ATOM     20  C   UNL A   1      37.320  33.784  34.819  1.00  0.00     0.029 A 
ATOM     21  N   UNL A   1      39.060  32.389  34.689  1.00  0.00    -0.354 N 
ATOM     22  C   UNL A   1      39.535  29.766  31.273  1.00  0.00     0.074 A 
ATOM     23  C   UNL A   1      38.493  29.980  30.293  1.00  0.00     0.031 C 
ATOM     24  C   UNL A   1      38.047  33.957  35.929  1.00  0.00     0.029 A 
ATOM     25  C   UNL A   1      39.176  33.036  35.897  1.00  0.00     0.049 A 
ATOM     26  H   UNL A   1      39.695  31.705  34.379  1.00  0.00     0.167 HD
ATOM     27  C   UNL A   1      40.529  28.851  31.155  1.00  0.00     0.034 A 
ATOM     28  C   UNL A   1      40.080  32.896  36.884  1.00  0.00     0.034 A 
ATOM     29  C   UNL A   1      41.580  28.672  32.125  1.00  0.00     0.049 A 
ATOM     30  C   UNL A   1      41.192  31.909  36.697  1.00  0.00     0.074 A 
ATOM     31  C   UNL A   1      42.653  27.800  32.079  1.00  0.00     0.029 A 
ATOM     32  N   UNL A   1      41.692  29.377  33.314  1.00  0.00    -0.354 N 
ATOM     33  N   UNL A   1      41.446  31.142  35.665  1.00  0.00    -0.248 NA
ATOM     34  C   UNL A   1      42.155  31.783  37.798  1.00  0.00     0.031 C 
ATOM     35  C   UNL A   1      43.409  27.970  33.245  1.00  0.00     0.029 A 
ATOM     36  C   UNL A   1      42.815  28.960  34.011  1.00  0.00     0.049 A 
ATOM     37  H   UNL A   1      41.065  30.072  33.619  1.00  0.00     0.167 HD
ATOM     38  C   UNL A   1      42.601  30.444  35.988  1.00  0.00     0.074 A 
ATOM     39  C   UNL A   1      43.023  30.919  37.291  1.00  0.00     0.031 C 
ATOM     40  C   UNL A   1      43.237  29.474  35.287  1.00  0.00     0.034 A 
BRANCH  27  41
ATOM     41  C   UNL A   1      40.566  27.998  29.912  1.00  0.00     0.023 A 
ATOM     42  C   UNL A   1      39.632  26.954  29.762  1.00  0.00     0.012 A 
ATOM     43  C   UNL A   1      41.454  28.288  28.856  1.00  0.00     0.148 A 
ATOM     44  C   UNL A   1      39.589  26.201  28.589  1.00  0.00     0.002 A 
ATOM     45  C   UNL A   1      41.381  27.557  27.674  1.00  0.00     0.091 A 
ATOM     46  F   UNL A   1      42.347  29.274  29.024  1.00  0.00    -0.205 F 
ATOM     47  C   UNL A   1      40.455  26.509  27.543  1.00  0.00     0.022 A 
BRANCH  45  48
ATOM     48  S   UNL A   1      42.398  27.920  26.238  1.00  0.00     0.127 S 
ATOM     49  O   UNL A   1      43.722  27.504  26.701  1.00  0.00    -0.237 OA
ATOM     50  O   UNL A   1      41.810  27.053  25.217  1.00  0.00    -0.237 OA
ATOM     51  O   UNL A   1      42.245  29.346  25.988  1.00  0.00    -0.744 OA
ENDBRANCH  45  48
ENDBRANCH  27  41
BRANCH  28  52
ATOM     52  C   UNL A   1      39.974  33.735  38.110  1.00  0.00     0.023 A 
ATOM     53  C   UNL A   1      40.693  34.942  38.194  1.00  0.00     0.012 A 
ATOM     54  C   UNL A   1      39.120  33.370  39.169  1.00  0.00     0.148 A 
ATOM     55  C   UNL A   1      40.582  35.757  39.322  1.00  0.00     0.002 A 
ATOM     56  C   UNL A   1      38.962  34.219  40.258  1.00  0.00     0.091 A 
ATOM     57  F   UNL A   1      38.458  32.208  39.086  1.00  0.00    -0.205 F 
ATOM     58  C   UNL A   1      39.707  35.404  40.346  1.00  0.00     0.022 A 
BRANCH  56  59
ATOM     59  S   UNL A   1      37.726  33.903  41.521  1.00  0.00     0.127 S 
ATOM     60  O   UNL A   1      37.632  35.200  42.183  1.00  0.00    -0.237 OA
ATOM     61  O   UNL A   1      36.555  33.531  40.725  1.00  0.00    -0.237 OA
ATOM     62  O   UNL A   1      38.270  32.810  42.316  1.00  0.00    -0.744 OA
ENDBRANCH  56  59
ENDBRANCH  28  52
BRANCH  40  63
ATOM     63  C   UNL A   1      44.459  28.871  35.925  1.00  0.00     0.023 A 
ATOM     64  C   UNL A   1      45.733  29.380  35.600  1.00  0.00     0.012 A 
ATOM     65  C   UNL A   1      44.348  27.826  36.861  1.00  0.00     0.148 A 
ATOM     66  C   UNL A   1      46.880  28.830  36.166  1.00  0.00     0.002 A 
ATOM     67  C   UNL A   1      45.494  27.313  37.455  1.00  0.00     0.091 A 
ATOM     68  F   UNL A   1      43.129  27.339  37.137  1.00  0.00    -0.205 F 
ATOM     69  C   UNL A   1      46.761  27.805  37.101  1.00  0.00     0.022 A 
BRANCH  67  70
ATOM     70  S   UNL A   1      45.422  26.050  38.729  1.00  0.00     0.127 S 
ATOM     71  O   UNL A   1      46.785  26.078  39.255  1.00  0.00    -0.237 OA
ATOM     72  O   UNL A   1      44.406  26.577  39.639  1.00  0.00    -0.237 OA
ATOM     73  O   UNL A   1      45.036  24.821  38.046  1.00  0.00    -0.744 OA
ENDBRANCH  67  70
ENDBRANCH  40  63
ENDBRANCH  14  15
ENDBRANCH   7   9
ENDBRANCH   4   5
ENDBRANCH   3   4
ENDBRANCH   2   3
ENDBRANCH   1   2
BRANCH   1  74
ATOM     74  C   UNL A   1      34.392  29.976  26.974  1.00  0.00     0.021 C 
BRANCH  74  75
ATOM     75  C   UNL A   1      33.486  28.891  26.410  1.00  0.00     0.116 C 
BRANCH  75  76
ATOM     76  N   UNL A   1      33.879  28.469  25.077  1.00  0.00    -0.354 N 
ATOM     77  C   UNL A   1      33.108  27.981  24.057  1.00  0.00     0.247 C 
ATOM     78  H   UNL A   1      34.841  28.547  24.878  1.00  0.00     0.163 HD
ATOM     79  O   UNL A   1      33.654  27.811  22.960  1.00  0.00    -0.272 OA
BRANCH  77  80
ATOM     80  C   UNL A   1      31.643  27.502  24.289  1.00  0.00     0.202 C 
BRANCH  80  81
ATOM     81  C   UNL A   1      30.736  28.605  23.719  1.00  0.00    -0.016 A 
ATOM     82  C   UNL A   1      30.672  29.898  24.263  1.00  0.00     0.006 A 
ATOM     83  C   UNL A   1      29.747  28.234  22.788  1.00  0.00     0.006 A 
ATOM     84  C   UNL A   1      29.575  30.726  24.015  1.00  0.00     0.000 A 
ATOM     85  C   UNL A   1      28.671  29.080  22.509  1.00  0.00     0.000 A 
ATOM     86  C   UNL A   1      28.563  30.307  23.155  1.00  0.00     0.000 A 
ENDBRANCH  80  81
BRANCH  80  87
ATOM     87  N   UNL A   1      31.320  26.159  23.813  1.00  0.00    -0.340 N 
ATOM     88  C   UNL A   1      31.288  24.984  24.507  1.00  0.00     0.224 C 
ATOM     89  H   UNL A   1      31.091  26.093  22.857  1.00  0.00     0.164 HD
ATOM     90  O   UNL A   1      30.621  24.072  24.012  1.00  0.00    -0.275 OA
BRANCH  88  91
ATOM     91  C   UNL A   1      32.123  24.763  25.784  1.00  0.00     0.078 C 
ATOM     92  C   UNL A   1      31.611  23.522  26.552  1.00  0.00     0.014 C 
ATOM     93  C   UNL A   1      33.589  24.569  25.385  1.00  0.00     0.014 C 
ATOM     94  C   UNL A   1      32.584  22.991  27.608  1.00  0.00     0.006 C 
ATOM     95  C   UNL A   1      34.508  24.044  26.470  1.00  0.00     0.006 C 
ATOM     96  C   UNL A   1      33.995  22.743  27.059  1.00  0.00     0.008 C 
BRANCH  96  97
ATOM     97  C   UNL A   1      34.054  21.566  26.053  1.00  0.00     0.119 C 
BRANCH  97  98
ATOM     98  N   UNL A   1      34.580  21.992  24.762  1.00  0.00    -0.351 N 
ATOM     99  C   UNL A   1      35.880  22.071  24.337  1.00  0.00     0.278 C 
ATOM    100  H   UNL A   1      33.904  22.263  24.101  1.00  0.00     0.163 HD
ATOM    101  O   UNL A   1      36.106  22.538  23.217  1.00  0.00    -0.268 OA
BRANCH  99 102
ATOM    102  C   UNL A   1      37.013  21.579  25.257  1.00  0.00     0.277 C 
ATOM    103  C   UNL A   1      38.207  22.541  25.195  1.00  0.00     0.111 C 
ATOM    104  N   UNL A   1      37.361  20.162  24.941  1.00  0.00    -0.332 N 
ATOM    105  C   UNL A   1      39.280  22.020  26.100  1.00  0.00    -0.033 A 
ATOM    106  C   UNL A   1      38.802  19.875  24.939  1.00  0.00     0.298 C 
ATOM    107  H   UNL A   1      36.991  19.942  24.016  1.00  0.00     0.347 HD
ATOM    108  H   UNL A   1      36.951  19.591  25.679  1.00  0.00     0.347 HD
ATOM    109  C   UNL A   1      39.913  22.822  27.050  1.00  0.00     0.004 A 
ATOM    110  C   UNL A   1      39.563  20.652  25.990  1.00  0.00     0.010 A 
ATOM    111  C   UNL A   1      40.849  22.249  27.904  1.00  0.00     0.000 A 
ATOM    112  C   UNL A   1      40.526  20.094  26.829  1.00  0.00     0.010 A 
ATOM    113  C   UNL A   1      41.159  20.892  27.789  1.00  0.00     0.001 A 
ENDBRANCH  99 102
ENDBRANCH  97  98
ENDBRANCH  96  97
ENDBRANCH  88  91
ENDBRANCH  80  87
ENDBRANCH  77  80
ENDBRANCH  75  76
ENDBRANCH  74  75
ENDBRANCH   1  74
TORSDOF 22
ENDMDL
MODEL 2
REMARK VINA RESULT:     -11.2      2.044      2.949
REMARK SMILES O=C(NCCCCCCNC(=O)[C@H](NC(=O)[C@H]1CC[C@@H](CNC(=O)[C@@H]2Cc3ccccc3C[NH2+]2)CC1)c1ccccc1)c1ccc(-c2c3nc(c(-c4cccc(S(=O)(=O)[O-])c4F)c4ccc([nH]4)c(-c4cccc(S(=O)(=O)[O-])c4F)c4nc(c(-c5cccc(S(=O)(=O)[O-])c5F)c5ccc2[nH]5)C=C4)C=C3)cc1
REMARK SMILES IDX 7 1 6 2 5 3 4 4 3 5 1 6 2 7 43 9 44 10 105 11 45 12 104 13
REMARK SMILES IDX 46 14 47 15 48 16 98 17 49 18 103 19 97 20 99 21 50 22
REMARK SMILES IDX 102 23 96 24 95 25 51 27 83 28 63 29 82 30 64 31 67 32 81 33
REMARK SMILES IDX 100 34 65 35 66 36 80 38 101 39 68 40 52 41 53 42 61 43
REMARK SMILES IDX 54 44 56 45 62 46 55 47 57 48 58 49 59 50 60 51 84 52 85 53
REMARK SMILES IDX 93 54 86 55 88 56 94 57 87 58 89 59 90 60 91 61 92 62 69 63
REMARK SMILES IDX 70 64 78 65 71 66 73 67 79 68 72 69 74 70 75 71 76 72 77 73
REMARK SMILES IDX 8 74 9 75 10 76 11 77 12 79 13 80 37 81 38 82 42 83 39 84
REMARK SMILES IDX 41 85 40 86 14 87 15 88 16 90 17 91 36 92 18 93 35 94 19 95
REMARK SMILES IDX 20 96 21 97 22 98 23 99 24 101 25 102 26 103 34 104 27 105
REMARK SMILES IDX 33 106 28 109 32 110 29 111 31 112 30 113
REMARK H PARENT 3 8 99 26 67 37 10 78 14 89 22 100 34 107 34 108
REMARK Flexibility Score: inf
ROOT
ATOM      1  C   UNL A   1      33.774  31.088  28.049  1.00  0.00     0.002 C 
ENDROOT
BRANCH   1   2
ATOM      2  C   UNL A   1      34.411  32.478  28.068  1.00  0.00     0.002 C 
BRANCH   2   3
ATOM      3  C   UNL A   1      33.465  33.670  28.003  1.00  0.00     0.021 C 
BRANCH   3   4
ATOM      4  C   UNL A   1      33.909  34.872  28.816  1.00  0.00     0.116 C 
BRANCH   4   5
ATOM      5  N   UNL A   1      32.929  35.302  29.796  1.00  0.00    -0.352 N 
ATOM      6  O   UNL A   1      32.046  35.491  31.866  1.00  0.00    -0.269 OA
ATOM      7  C   UNL A   1      32.984  35.159  31.168  1.00  0.00     0.251 C 
ATOM      8  H   UNL A   1      32.128  35.751  29.440  1.00  0.00     0.163 HD
BRANCH   7   9
ATOM      9  C   UNL A   1      34.203  34.556  31.756  1.00  0.00     0.039 A 
ATOM     10  C   UNL A   1      35.264  35.373  32.149  1.00  0.00     0.014 A 
ATOM     11  C   UNL A   1      34.307  33.167  31.849  1.00  0.00     0.014 A 
ATOM     12  C   UNL A   1      36.482  34.802  32.478  1.00  0.00     0.010 A 
ATOM     13  C   UNL A   1      35.502  32.594  32.298  1.00  0.00     0.010 A 
ATOM     14  C   UNL A   1      36.607  33.406  32.592  1.00  0.00    -0.014 A 
BRANCH  14  15
ATOM     15  C   UNL A   1      37.873  32.857  33.140  1.00  0.00     0.031 A 
ATOM     16  C   UNL A   1      38.880  32.156  32.275  1.00  0.00     0.074 A 
ATOM     17  C   UNL A   1      38.110  33.040  34.455  1.00  0.00     0.049 A 
ATOM     18  N   UNL A   1      40.051  31.676  32.610  1.00  0.00    -0.248 NA
ATOM     19  C   UNL A   1      38.537  31.953  30.858  1.00  0.00     0.031 C 
ATOM     20  C   UNL A   1      37.172  33.659  35.398  1.00  0.00     0.029 A 
ATOM     21  N   UNL A   1      39.206  32.750  35.226  1.00  0.00    -0.354 N 
ATOM     22  C   UNL A   1      40.567  31.083  31.465  1.00  0.00     0.074 A 
ATOM     23  C   UNL A   1      39.582  31.258  30.421  1.00  0.00     0.031 C 
ATOM     24  C   UNL A   1      37.748  33.752  36.602  1.00  0.00     0.029 A 
ATOM     25  C   UNL A   1      39.067  33.138  36.538  1.00  0.00     0.049 A 
ATOM     26  H   UNL A   1      40.011  32.308  34.874  1.00  0.00     0.167 HD
ATOM     27  C   UNL A   1      41.762  30.461  31.303  1.00  0.00     0.034 A 
ATOM     28  C   UNL A   1      39.901  32.999  37.586  1.00  0.00     0.034 A 
ATOM     29  C   UNL A   1      42.748  30.323  32.344  1.00  0.00     0.049 A 
ATOM     30  C   UNL A   1      41.232  32.351  37.356  1.00  0.00     0.074 A 
ATOM     31  C   UNL A   1      44.003  29.745  32.269  1.00  0.00     0.029 A 
ATOM     32  N   UNL A   1      42.593  30.768  33.649  1.00  0.00    -0.354 N 
ATOM     33  N   UNL A   1      41.744  31.896  36.239  1.00  0.00    -0.248 NA
ATOM     34  C   UNL A   1      42.110  32.216  38.525  1.00  0.00     0.031 C 
ATOM     35  C   UNL A   1      44.602  29.831  33.531  1.00  0.00     0.029 A 
ATOM     36  C   UNL A   1      43.727  30.478  34.389  1.00  0.00     0.049 A 
ATOM     37  H   UNL A   1      41.793  31.224  33.998  1.00  0.00     0.167 HD
ATOM     38  C   UNL A   1      43.007  31.424  36.566  1.00  0.00     0.074 A 
ATOM     39  C   UNL A   1      43.200  31.696  37.977  1.00  0.00     0.031 C 
ATOM     40  C   UNL A   1      43.913  30.793  35.781  1.00  0.00     0.034 A 
BRANCH  27  41
ATOM     41  C   UNL A   1      42.100  29.920  29.936  1.00  0.00     0.023 A 
ATOM     42  C   UNL A   1      42.829  30.723  29.036  1.00  0.00     0.012 A 
ATOM     43  C   UNL A   1      41.787  28.593  29.580  1.00  0.00     0.148 A 
ATOM     44  C   UNL A   1      43.226  30.221  27.796  1.00  0.00     0.002 A 
ATOM     45  C   UNL A   1      42.219  28.087  28.358  1.00  0.00     0.091 A 
ATOM     46  F   UNL A   1      41.079  27.850  30.443  1.00  0.00    -0.205 F 
ATOM     47  C   UNL A   1      42.931  28.902  27.463  1.00  0.00     0.022 A 
BRANCH  45  48
ATOM     48  S   UNL A   1      41.958  26.379  27.862  1.00  0.00     0.127 S 
ATOM     49  O   UNL A   1      42.777  26.295  26.652  1.00  0.00    -0.237 OA
ATOM     50  O   UNL A   1      42.488  25.641  29.008  1.00  0.00    -0.237 OA
ATOM     51  O   UNL A   1      40.524  26.236  27.654  1.00  0.00    -0.744 OA
ENDBRANCH  45  48
ENDBRANCH  27  41
BRANCH  28  52
ATOM     52  C   UNL A   1      39.500  33.515  38.924  1.00  0.00     0.023 A 
ATOM     53  C   UNL A   1      38.930  32.641  39.867  1.00  0.00     0.012 A 
ATOM     54  C   UNL A   1      39.735  34.857  39.286  1.00  0.00     0.148 A 
ATOM     55  C   UNL A   1      38.577  33.099  41.138  1.00  0.00     0.002 A 
ATOM     56  C   UNL A   1      39.444  35.289  40.574  1.00  0.00     0.091 A 
ATOM     57  F   UNL A   1      40.258  35.684  38.371  1.00  0.00    -0.205 F 
ATOM     58  C   UNL A   1      38.847  34.417  41.496  1.00  0.00     0.022 A 
BRANCH  56  59
ATOM     59  S   UNL A   1      39.926  36.921  41.145  1.00  0.00     0.127 S 
ATOM     60  O   UNL A   1      41.382  36.841  41.096  1.00  0.00    -0.237 OA
ATOM     61  O   UNL A   1      39.322  37.795  40.138  1.00  0.00    -0.237 OA
ATOM     62  O   UNL A   1      39.330  37.049  42.470  1.00  0.00    -0.744 OA
ENDBRANCH  56  59
ENDBRANCH  28  52
BRANCH  40  63
ATOM     63  C   UNL A   1      45.194  30.359  36.440  1.00  0.00     0.023 A 
ATOM     64  C   UNL A   1      46.302  31.231  36.441  1.00  0.00     0.012 A 
ATOM     65  C   UNL A   1      45.294  29.111  37.081  1.00  0.00     0.148 A 
ATOM     66  C   UNL A   1      47.503  30.848  37.033  1.00  0.00     0.002 A 
ATOM     67  C   UNL A   1      46.481  28.755  37.709  1.00  0.00     0.091 A 
ATOM     68  F   UNL A   1      44.236  28.286  37.048  1.00  0.00    -0.205 F 
ATOM     69  C   UNL A   1      47.590  29.616  37.676  1.00  0.00     0.022 A 
BRANCH  67  70
ATOM     70  S   UNL A   1      46.649  27.222  38.629  1.00  0.00     0.127 S 
ATOM     71  O   UNL A   1      48.099  27.119  38.776  1.00  0.00    -0.237 OA
ATOM     72  O   UNL A   1      45.930  27.519  39.869  1.00  0.00    -0.237 OA
ATOM     73  O   UNL A   1      46.025  26.195  37.805  1.00  0.00    -0.744 OA
ENDBRANCH  67  70
ENDBRANCH  40  63
ENDBRANCH  14  15
ENDBRANCH   7   9
ENDBRANCH   4   5
ENDBRANCH   3   4
ENDBRANCH   2   3
ENDBRANCH   1   2
BRANCH   1  74
ATOM     74  C   UNL A   1      34.012  30.234  26.800  1.00  0.00     0.021 C 
BRANCH  74  75
ATOM     75  C   UNL A   1      32.787  29.972  25.936  1.00  0.00     0.116 C 
BRANCH  75  76
ATOM     76  N   UNL A   1      33.130  29.610  24.572  1.00  0.00    -0.354 N 
ATOM     77  C   UNL A   1      32.332  29.109  23.579  1.00  0.00     0.247 C 
ATOM     78  H   UNL A   1      34.074  29.747  24.326  1.00  0.00     0.163 HD
ATOM     79  O   UNL A   1      32.827  29.001  22.450  1.00  0.00    -0.272 OA
BRANCH  77  80
ATOM     80  C   UNL A   1      30.910  28.544  23.872  1.00  0.00     0.202 C 
BRANCH  80  81
ATOM     81  C   UNL A   1      29.916  29.621  23.407  1.00  0.00    -0.016 A 
ATOM     82  C   UNL A   1      29.813  30.880  24.020  1.00  0.00     0.006 A 
ATOM     83  C   UNL A   1      28.899  29.241  22.510  1.00  0.00     0.006 A 
ATOM     84  C   UNL A   1      28.662  31.657  23.872  1.00  0.00     0.000 A 
ATOM     85  C   UNL A   1      27.766  30.039  22.332  1.00  0.00     0.000 A 
ATOM     86  C   UNL A   1      27.629  31.224  23.046  1.00  0.00     0.000 A 
ENDBRANCH  80  81
BRANCH  80  87
ATOM     87  N   UNL A   1      30.627  27.208  23.352  1.00  0.00    -0.340 N 
ATOM     88  C   UNL A   1      30.754  25.998  23.973  1.00  0.00     0.224 C 
ATOM     89  H   UNL A   1      30.298  27.175  22.425  1.00  0.00     0.164 HD
ATOM     90  O   UNL A   1      30.098  25.067  23.497  1.00  0.00    -0.275 OA
BRANCH  88  91
ATOM     91  C   UNL A   1      31.739  25.771  25.135  1.00  0.00     0.078 C 
ATOM     92  C   UNL A   1      31.469  24.407  25.811  1.00  0.00     0.014 C 
ATOM     93  C   UNL A   1      33.168  25.814  24.584  1.00  0.00     0.014 C 
ATOM     94  C   UNL A   1      32.606  23.914  26.710  1.00  0.00     0.006 C 
ATOM     95  C   UNL A   1      34.254  25.316  25.517  1.00  0.00     0.006 C 
ATOM     96  C   UNL A   1      33.970  23.909  26.009  1.00  0.00     0.008 C 
BRANCH  96  97
ATOM     97  C   UNL A   1      34.068  22.850  24.882  1.00  0.00     0.119 C 
BRANCH  97  98
ATOM     98  N   UNL A   1      35.442  22.401  24.689  1.00  0.00    -0.351 N 
ATOM     99  C   UNL A   1      35.972  21.145  24.823  1.00  0.00     0.278 C 
ATOM    100  H   UNL A   1      36.080  23.101  24.424  1.00  0.00     0.163 HD
ATOM    101  O   UNL A   1      37.190  21.003  24.685  1.00  0.00    -0.268 OA
BRANCH  99 102
ATOM    102  C   UNL A   1      35.045  19.956  25.139  1.00  0.00     0.277 C 
ATOM    103  C   UNL A   1      35.463  18.722  24.329  1.00  0.00     0.111 C 
ATOM    104  N   UNL A   1      33.617  20.347  24.951  1.00  0.00    -0.332 N 
ATOM    105  C   UNL A   1      34.534  17.599  24.666  1.00  0.00    -0.033 A 
ATOM    106  C   UNL A   1      32.787  19.328  24.294  1.00  0.00     0.298 C 
ATOM    107  H   UNL A   1      33.590  21.195  24.384  1.00  0.00     0.347 HD
ATOM    108  H   UNL A   1      33.227  20.482  25.884  1.00  0.00     0.347 HD
ATOM    109  C   UNL A   1      34.991  16.330  25.023  1.00  0.00     0.004 A 
ATOM    110  C   UNL A   1      33.168  17.916  24.678  1.00  0.00     0.010 A 
ATOM    111  C   UNL A   1      34.069  15.358  25.394  1.00  0.00     0.000 A 
ATOM    112  C   UNL A   1      32.250  16.925  25.020  1.00  0.00     0.010 A 
ATOM    113  C   UNL A   1      32.703  15.652  25.385  1.00  0.00     0.001 A 
ENDBRANCH  99 102
ENDBRANCH  97  98
ENDBRANCH  96  97
ENDBRANCH  88  91
ENDBRANCH  80  87
ENDBRANCH  77  80
ENDBRANCH  75  76
ENDBRANCH  74  75
ENDBRANCH   1  74
TORSDOF 22
ENDMDL
MODEL 3
REMARK VINA RESULT:     -11.2      7.083     16.281
REMARK SMILES O=C(NCCCCCCNC(=O)[C@H](NC(=O)[C@H]1CC[C@@H](CNC(=O)[C@@H]2Cc3ccccc3C[NH2+]2)CC1)c1ccccc1)c1ccc(-c2c3nc(c(-c4cccc(S(=O)(=O)[O-])c4F)c4ccc([nH]4)c(-c4cccc(S(=O)(=O)[O-])c4F)c4nc(c(-c5cccc(S(=O)(=O)[O-])c5F)c5ccc2[nH]5)C=C4)C=C3)cc1
REMARK SMILES IDX 7 1 6 2 5 3 4 4 3 5 1 6 2 7 43 9 44 10 105 11 45 12 104 13
REMARK SMILES IDX 46 14 47 15 48 16 98 17 49 18 103 19 97 20 99 21 50 22
REMARK SMILES IDX 102 23 96 24 95 25 51 27 83 28 63 29 82 30 64 31 67 32 81 33
REMARK SMILES IDX 100 34 65 35 66 36 80 38 101 39 68 40 52 41 53 42 61 43
REMARK SMILES IDX 54 44 56 45 62 46 55 47 57 48 58 49 59 50 60 51 84 52 85 53
REMARK SMILES IDX 93 54 86 55 88 56 94 57 87 58 89 59 90 60 91 61 92 62 69 63
REMARK SMILES IDX 70 64 78 65 71 66 73 67 79 68 72 69 74 70 75 71 76 72 77 73
REMARK SMILES IDX 8 74 9 75 10 76 11 77 12 79 13 80 37 81 38 82 42 83 39 84
REMARK SMILES IDX 41 85 40 86 14 87 15 88 16 90 17 91 36 92 18 93 35 94 19 95
REMARK SMILES IDX 20 96 21 97 22 98 23 99 24 101 25 102 26 103 34 104 27 105
REMARK SMILES IDX 33 106 28 109 32 110 29 111 31 112 30 113
REMARK H PARENT 3 8 99 26 67 37 10 78 14 89 22 100 34 107 34 108
REMARK Flexibility Score: inf
ROOT
ATOM      1  C   UNL A   1      51.192  19.633  35.008  1.00  0.00     0.002 C 
ENDROOT
BRANCH   1   2
ATOM      2  C   UNL A   1      51.727  20.803  35.835  1.00  0.00     0.002 C 
BRANCH   2   3
ATOM      3  C   UNL A   1      53.182  21.196  35.612  1.00  0.00     0.021 C 
BRANCH   3   4
ATOM      4  C   UNL A   1      53.433  22.692  35.583  1.00  0.00     0.116 C 
BRANCH   4   5
ATOM      5  N   UNL A   1      54.182  23.131  34.421  1.00  0.00    -0.352 N 
ATOM      6  O   UNL A   1      54.448  24.103  32.400  1.00  0.00    -0.269 OA
ATOM      7  C   UNL A   1      53.728  23.879  33.353  1.00  0.00     0.251 C 
ATOM      8  H   UNL A   1      55.130  22.864  34.390  1.00  0.00     0.163 HD
BRANCH   7   9
ATOM      9  C   UNL A   1      52.329  24.367  33.391  1.00  0.00     0.039 A 
ATOM     10  C   UNL A   1      51.274  23.463  33.263  1.00  0.00     0.014 A 
ATOM     11  C   UNL A   1      52.080  25.737  33.488  1.00  0.00     0.014 A 
ATOM     12  C   UNL A   1      49.987  23.936  33.066  1.00  0.00     0.010 A 
ATOM     13  C   UNL A   1      50.764  26.205  33.409  1.00  0.00     0.010 A 
ATOM     14  C   UNL A   1      49.710  25.311  33.173  1.00  0.00    -0.014 A 
BRANCH  14  15
ATOM     15  C   UNL A   1      48.290  25.745  33.153  1.00  0.00     0.031 A 
ATOM     16  C   UNL A   1      47.551  26.121  34.405  1.00  0.00     0.074 A 
ATOM     17  C   UNL A   1      47.684  25.826  31.950  1.00  0.00     0.049 A 
ATOM     18  N   UNL A   1      46.327  26.570  34.526  1.00  0.00    -0.248 NA
ATOM     19  C   UNL A   1      48.260  25.967  35.685  1.00  0.00     0.031 C 
ATOM     20  C   UNL A   1      48.295  25.430  30.676  1.00  0.00     0.029 A 
ATOM     21  N   UNL A   1      46.442  26.280  31.592  1.00  0.00    -0.354 N 
ATOM     22  C   UNL A   1      46.104  26.716  35.890  1.00  0.00     0.074 A 
ATOM     23  C   UNL A   1      47.319  26.305  36.560  1.00  0.00     0.031 C 
ATOM     24  C   UNL A   1      47.452  25.708  29.674  1.00  0.00     0.029 A 
ATOM     25  C   UNL A   1      46.215  26.234  30.236  1.00  0.00     0.049 A 
ATOM     26  H   UNL A   1      45.779  26.606  32.240  1.00  0.00     0.167 HD
ATOM     27  C   UNL A   1      44.989  27.164  36.518  1.00  0.00     0.034 A 
ATOM     28  C   UNL A   1      45.125  26.561  29.518  1.00  0.00     0.034 A 
ATOM     29  C   UNL A   1      43.799  27.601  35.835  1.00  0.00     0.049 A 
ATOM     30  C   UNL A   1      43.929  27.100  30.244  1.00  0.00     0.074 A 
ATOM     31  C   UNL A   1      42.632  28.109  36.379  1.00  0.00     0.029 A 
ATOM     32  N   UNL A   1      43.620  27.584  34.459  1.00  0.00    -0.354 N 
ATOM     33  N   UNL A   1      43.780  27.333  31.524  1.00  0.00    -0.248 NA
ATOM     34  C   UNL A   1      42.759  27.442  29.425  1.00  0.00     0.031 C 
ATOM     35  C   UNL A   1      41.744  28.389  35.334  1.00  0.00     0.029 A 
ATOM     36  C   UNL A   1      42.364  28.071  34.136  1.00  0.00     0.049 A 
ATOM     37  H   UNL A   1      44.289  27.271  33.808  1.00  0.00     0.167 HD
ATOM     38  C   UNL A   1      42.502  27.854  31.668  1.00  0.00     0.074 A 
ATOM     39  C   UNL A   1      41.940  27.948  30.335  1.00  0.00     0.031 C 
ATOM     40  C   UNL A   1      41.840  28.193  32.801  1.00  0.00     0.034 A 
BRANCH  27  41
ATOM     41  C   UNL A   1      45.011  27.256  38.023  1.00  0.00     0.023 A 
ATOM     42  C   UNL A   1      44.537  26.173  38.789  1.00  0.00     0.012 A 
ATOM     43  C   UNL A   1      45.587  28.364  38.677  1.00  0.00     0.148 A 
ATOM     44  C   UNL A   1      44.618  26.196  40.182  1.00  0.00     0.002 A 
ATOM     45  C   UNL A   1      45.700  28.364  40.064  1.00  0.00     0.091 A 
ATOM     46  F   UNL A   1      46.019  29.393  37.932  1.00  0.00    -0.205 F 
ATOM     47  C   UNL A   1      45.209  27.285  40.817  1.00  0.00     0.022 A 
BRANCH  45  48
ATOM     48  S   UNL A   1      46.511  29.683  40.977  1.00  0.00     0.127 S 
ATOM     49  O   UNL A   1      45.629  30.817  40.704  1.00  0.00    -0.237 OA
ATOM     50  O   UNL A   1      46.455  29.185  42.351  1.00  0.00    -0.237 OA
ATOM     51  O   UNL A   1      47.853  29.789  40.422  1.00  0.00    -0.744 OA
ENDBRANCH  45  48
ENDBRANCH  27  41
BRANCH  28  52
ATOM     52  C   UNL A   1      45.142  26.413  28.036  1.00  0.00     0.023 A 
ATOM     53  C   UNL A   1      45.429  27.527  27.226  1.00  0.00     0.012 A 
ATOM     54  C   UNL A   1      44.931  25.159  27.429  1.00  0.00     0.148 A 
ATOM     55  C   UNL A   1      45.480  27.401  25.837  1.00  0.00     0.002 A 
ATOM     56  C   UNL A   1      45.051  25.026  26.051  1.00  0.00     0.091 A 
ATOM     57  F   UNL A   1      44.637  24.111  28.211  1.00  0.00    -0.205 F 
ATOM     58  C   UNL A   1      45.306  26.149  25.251  1.00  0.00     0.022 A 
BRANCH  56  59
ATOM     59  S   UNL A   1      45.008  23.416  25.258  1.00  0.00     0.127 S 
ATOM     60  O   UNL A   1      45.951  22.654  26.070  1.00  0.00    -0.237 OA
ATOM     61  O   UNL A   1      43.605  23.029  25.414  1.00  0.00    -0.237 OA
ATOM     62  O   UNL A   1      45.400  23.665  23.876  1.00  0.00    -0.744 OA
ENDBRANCH  56  59
ENDBRANCH  28  52
BRANCH  40  63
ATOM     63  C   UNL A   1      40.433  28.699  32.636  1.00  0.00     0.023 A 
ATOM     64  C   UNL A   1      39.372  27.775  32.543  1.00  0.00     0.012 A 
ATOM     65  C   UNL A   1      40.157  30.078  32.602  1.00  0.00     0.148 A 
ATOM     66  C   UNL A   1      38.062  28.217  32.377  1.00  0.00     0.002 A 
ATOM     67  C   UNL A   1      38.843  30.512  32.481  1.00  0.00     0.091 A 
ATOM     68  F   UNL A   1      41.184  30.939  32.667  1.00  0.00    -0.205 F 
ATOM     69  C   UNL A   1      37.796  29.584  32.357  1.00  0.00     0.022 A 
BRANCH  67  70
ATOM     70  S   UNL A   1      38.406  32.252  32.530  1.00  0.00     0.127 S 
ATOM     71  O   UNL A   1      39.043  32.754  31.314  1.00  0.00    -0.237 OA
ATOM     72  O   UNL A   1      36.944  32.212  32.480  1.00  0.00    -0.237 OA
ATOM     73  O   UNL A   1      38.949  32.763  33.782  1.00  0.00    -0.744 OA
ENDBRANCH  67  70
ENDBRANCH  40  63
ENDBRANCH  14  15
ENDBRANCH   7   9
ENDBRANCH   4   5
ENDBRANCH   3   4
ENDBRANCH   2   3
ENDBRANCH   1   2
BRANCH   1  74
ATOM     74  C   UNL A   1      50.125  19.957  33.958  1.00  0.00     0.021 C 
BRANCH  74  75
ATOM     75  C   UNL A   1      48.878  20.656  34.478  1.00  0.00     0.116 C 
BRANCH  75  76
ATOM     76  N   UNL A   1      47.765  19.743  34.673  1.00  0.00    -0.354 N 
ATOM     77  C   UNL A   1      46.531  19.980  35.217  1.00  0.00     0.247 C 
ATOM     78  H   UNL A   1      47.921  18.819  34.369  1.00  0.00     0.163 HD
ATOM     79  O   UNL A   1      45.697  19.069  35.157  1.00  0.00    -0.272 OA
BRANCH  77  80
ATOM     80  C   UNL A   1      46.222  21.278  36.023  1.00  0.00     0.202 C 
BRANCH  80  81
ATOM     81  C   UNL A   1      45.306  22.130  35.129  1.00  0.00    -0.016 A 
ATOM     82  C   UNL A   1      45.583  22.386  33.776  1.00  0.00     0.006 A 
ATOM     83  C   UNL A   1      44.299  22.893  35.750  1.00  0.00     0.006 A 
ATOM     84  C   UNL A   1      44.995  23.468  33.117  1.00  0.00     0.000 A 
ATOM     85  C   UNL A   1      43.682  23.950  35.075  1.00  0.00     0.000 A 
ATOM     86  C   UNL A   1      44.062  24.263  33.775  1.00  0.00     0.000 A 
ENDBRANCH  80  81
BRANCH  80  87
ATOM     87  N   UNL A   1      45.721  21.089  37.382  1.00  0.00    -0.340 N 
ATOM     88  C   UNL A   1      46.380  21.226  38.570  1.00  0.00     0.224 C 
ATOM     89  H   UNL A   1      44.774  20.827  37.451  1.00  0.00     0.164 HD
ATOM     90  O   UNL A   1      45.678  21.404  39.569  1.00  0.00    -0.275 OA
BRANCH  88  91
ATOM     91  C   UNL A   1      47.908  21.062  38.684  1.00  0.00     0.078 C 
ATOM     92  C   UNL A   1      48.350  21.168  40.162  1.00  0.00     0.014 C 
ATOM     93  C   UNL A   1      48.299  19.697  38.112  1.00  0.00     0.014 C 
ATOM     94  C   UNL A   1      49.765  20.649  40.433  1.00  0.00     0.006 C 
ATOM     95  C   UNL A   1      49.712  19.233  38.409  1.00  0.00     0.006 C 
ATOM     96  C   UNL A   1      50.000  19.230  39.898  1.00  0.00     0.008 C 
BRANCH  96  97
ATOM     97  C   UNL A   1      49.190  18.153  40.663  1.00  0.00     0.119 C 
BRANCH  97  98
ATOM     98  N   UNL A   1      48.741  18.644  41.961  1.00  0.00    -0.351 N 
ATOM     99  C   UNL A   1      47.557  18.419  42.612  1.00  0.00     0.278 C 
ATOM    100  H   UNL A   1      49.380  19.221  42.437  1.00  0.00     0.163 HD
ATOM    101  O   UNL A   1      47.353  19.003  43.680  1.00  0.00    -0.268 OA
BRANCH  99 102
ATOM    102  C   UNL A   1      46.524  17.454  42.003  1.00  0.00     0.277 C 
ATOM    103  C   UNL A   1      45.719  18.158  40.902  1.00  0.00     0.111 C 
ATOM    104  N   UNL A   1      45.680  16.850  43.076  1.00  0.00    -0.332 N 
ATOM    105  C   UNL A   1      44.730  17.183  40.344  1.00  0.00    -0.033 A 
ATOM    106  C   UNL A   1      44.252  16.751  42.744  1.00  0.00     0.298 C 
ATOM    107  H   UNL A   1      45.774  17.422  43.915  1.00  0.00     0.347 HD
ATOM    108  H   UNL A   1      46.015  15.895  43.206  1.00  0.00     0.347 HD
ATOM    109  C   UNL A   1      44.587  16.962  38.974  1.00  0.00     0.004 A 
ATOM    110  C   UNL A   1      44.002  16.443  41.285  1.00  0.00     0.010 A 
ATOM    111  C   UNL A   1      43.697  15.988  38.534  1.00  0.00     0.000 A 
ATOM    112  C   UNL A   1      43.089  15.491  40.834  1.00  0.00     0.010 A 
ATOM    113  C   UNL A   1      42.946  15.261  39.461  1.00  0.00     0.001 A 
ENDBRANCH  99 102
ENDBRANCH  97  98
ENDBRANCH  96  97
ENDBRANCH  88  91
ENDBRANCH  80  87
ENDBRANCH  77  80
ENDBRANCH  75  76
ENDBRANCH  74  75
ENDBRANCH   1  74
TORSDOF 22
ENDMDL
