MODEL 1
REMARK VINA RESULT:     -10.3      0.000      0.000
REMARK SMILES CCCCOCc1cc(C(=O)NCCCCCCNC(=O)c2ccc(-c3c4nc(c(-c5cccc(S(=O)(=O)[O-])c5F)c5ccc([nH]5)c(-c5cccc(S(=O)(=O)[O-])c5F)c5nc(c(-c6cccc(S(=O)(=O)[O-])c6F)c6ccc3[nH]6)C=C5)C=C4)cc2)[nH]n1
REMARK SMILES IDX 14 1 13 2 12 3 10 4 11 5 9 7 7 8 8 9 86 10 85 11 6 13 5 14
REMARK SMILES IDX 4 15 3 16 2 17 1 18 15 19 16 20 17 21 18 22 19 23 20 24
REMARK SMILES IDX 21 26 22 27 23 28 84 29 24 30 83 31 25 32 26 33 27 34 77 35
REMARK SMILES IDX 28 36 82 37 76 38 78 39 29 40 81 41 75 42 74 43 30 45 62 46
REMARK SMILES IDX 42 47 61 48 43 49 46 50 60 51 79 52 44 53 45 54 59 56 80 57
REMARK SMILES IDX 47 58 31 59 32 60 40 61 33 62 35 63 41 64 34 65 36 66 37 67
REMARK SMILES IDX 38 68 39 69 63 70 64 71 72 72 65 73 67 74 73 75 66 76 68 77
REMARK SMILES IDX 69 78 70 79 71 80 48 81 49 82 57 83 50 84 52 85 58 86 51 87
REMARK SMILES IDX 53 88 54 89 55 90 56 91
REMARK H PARENT 12 6 85 12 19 25 78 44 46 55
REMARK Flexibility Score: inf
ROOT
ATOM      1  C   UNL A   1      31.726  28.406  27.373  1.00  0.00     0.021 C 
ENDROOT
BRANCH   1   2
ATOM      2  C   UNL A   1      31.936  27.110  26.597  1.00  0.00     0.116 C 
BRANCH   2   3
ATOM      3  N   UNL A   1      30.864  26.162  26.835  1.00  0.00    -0.351 N 
ATOM      4  C   UNL A   1      30.660  24.900  26.340  1.00  0.00     0.269 C 
ATOM      5  O   UNL A   1      29.769  24.228  26.859  1.00  0.00    -0.268 OA
ATOM      6  H   UNL A   1      30.168  26.478  27.455  1.00  0.00     0.163 HD
BRANCH   4   7
ATOM      7  C   UNL A   1      31.494  24.359  25.301  1.00  0.00     0.123 A 
ATOM      8  C   UNL A   1      32.651  23.747  23.493  1.00  0.00     0.089 A 
ATOM      9  C   UNL A   1      31.383  24.202  23.933  1.00  0.00     0.061 A 
ATOM     10  N   UNL A   1      33.444  23.458  24.533  1.00  0.00    -0.178 NA
ATOM     11  N   UNL A   1      32.711  23.805  25.603  1.00  0.00    -0.273 N 
ATOM     12  H   UNL A   1      33.021  23.672  26.528  1.00  0.00     0.190 HD
BRANCH   8  13
ATOM     13  C   UNL A   1      33.115  23.611  22.072  1.00  0.00     0.218 C 
BRANCH  13  14
ATOM     14  O   UNL A   1      33.204  24.830  21.321  1.00  0.00    -0.375 OA
BRANCH  14  15
ATOM     15  C   UNL A   1      33.547  26.012  22.041  1.00  0.00     0.160 C 
BRANCH  15  16
ATOM     16  C   UNL A   1      32.444  27.074  22.058  1.00  0.00     0.028 C 
BRANCH  16  17
ATOM     17  C   UNL A   1      32.573  28.172  23.116  1.00  0.00    -0.001 C 
ATOM     18  C   UNL A   1      34.008  28.473  23.510  1.00  0.00     0.004 C 
ENDBRANCH  16  17
ENDBRANCH  15  16
ENDBRANCH  14  15
ENDBRANCH  13  14
ENDBRANCH   8  13
ENDBRANCH   4   7
ENDBRANCH   2   3
ENDBRANCH   1   2
BRANCH   1  19
ATOM     19  C   UNL A   1      32.545  29.584  26.834  1.00  0.00     0.002 C 
BRANCH  19  20
ATOM     20  C   UNL A   1      31.746  30.609  26.018  1.00  0.00     0.002 C 
BRANCH  20  21
ATOM     21  C   UNL A   1      31.490  31.949  26.715  1.00  0.00     0.021 C 
BRANCH  21  22
ATOM     22  C   UNL A   1      32.733  32.625  27.289  1.00  0.00     0.116 C 
BRANCH  22  23
ATOM     23  N   UNL A   1      32.496  34.022  27.617  1.00  0.00    -0.352 N 
ATOM     24  C   UNL A   1      33.069  34.803  28.590  1.00  0.00     0.251 C 
ATOM     25  H   UNL A   1      31.825  34.476  27.057  1.00  0.00     0.163 HD
ATOM     26  O   UNL A   1      32.599  35.910  28.838  1.00  0.00    -0.269 OA
BRANCH  24  27
ATOM     27  C   UNL A   1      34.238  34.307  29.348  1.00  0.00     0.039 A 
ATOM     28  C   UNL A   1      34.022  33.582  30.524  1.00  0.00     0.014 A 
ATOM     29  C   UNL A   1      35.540  34.565  28.912  1.00  0.00     0.014 A 
ATOM     30  C   UNL A   1      35.112  33.061  31.226  1.00  0.00     0.010 A 
ATOM     31  C   UNL A   1      36.620  33.985  29.573  1.00  0.00     0.010 A 
ATOM     32  C   UNL A   1      36.419  33.228  30.737  1.00  0.00    -0.014 A 
BRANCH  32  33
ATOM     33  C   UNL A   1      37.582  32.598  31.413  1.00  0.00     0.031 A 
ATOM     34  C   UNL A   1      38.298  31.437  30.779  1.00  0.00     0.074 A 
ATOM     35  C   UNL A   1      37.938  33.015  32.645  1.00  0.00     0.049 A 
ATOM     36  N   UNL A   1      39.290  30.726  31.248  1.00  0.00    -0.248 NA
ATOM     37  C   UNL A   1      37.821  31.003  29.456  1.00  0.00     0.031 C 
ATOM     38  C   UNL A   1      37.277  34.084  33.399  1.00  0.00     0.029 A 
ATOM     39  N   UNL A   1      38.925  32.574  33.491  1.00  0.00    -0.354 N 
ATOM     40  C   UNL A   1      39.536  29.741  30.298  1.00  0.00     0.074 A 
ATOM     41  C   UNL A   1      38.565  29.927  29.241  1.00  0.00     0.031 C 
ATOM     42  C   UNL A   1      37.878  34.217  34.592  1.00  0.00     0.029 A 
ATOM     43  C   UNL A   1      38.942  33.224  34.704  1.00  0.00     0.049 A 
ATOM     44  H   UNL A   1      39.561  31.861  33.253  1.00  0.00     0.167 HD
ATOM     45  C   UNL A   1      40.497  28.786  30.291  1.00  0.00     0.034 A 
ATOM     46  C   UNL A   1      39.716  33.033  35.790  1.00  0.00     0.034 A 
ATOM     47  C   UNL A   1      41.479  28.624  31.329  1.00  0.00     0.049 A 
ATOM     48  C   UNL A   1      40.787  31.978  35.750  1.00  0.00     0.074 A 
ATOM     49  C   UNL A   1      42.547  27.744  31.373  1.00  0.00     0.029 A 
ATOM     50  N   UNL A   1      41.510  29.345  32.512  1.00  0.00    -0.354 N 
ATOM     51  N   UNL A   1      41.106  31.162  34.775  1.00  0.00    -0.248 NA
ATOM     52  C   UNL A   1      41.628  31.840  36.948  1.00  0.00     0.031 C 
ATOM     53  C   UNL A   1      43.202  27.910  32.598  1.00  0.00     0.029 A 
ATOM     54  C   UNL A   1      42.564  28.919  33.303  1.00  0.00     0.049 A 
ATOM     55  H   UNL A   1      40.873  30.057  32.755  1.00  0.00     0.167 HD
ATOM     56  C   UNL A   1      42.202  30.436  35.228  1.00  0.00     0.074 A 
ATOM     57  C   UNL A   1      42.507  30.927  36.556  1.00  0.00     0.031 C 
ATOM     58  C   UNL A   1      42.885  29.443  34.606  1.00  0.00     0.034 A 
BRANCH  45  59
ATOM     59  C   UNL A   1      40.557  27.865  29.099  1.00  0.00     0.023 A 
ATOM     60  C   UNL A   1      39.655  26.785  29.005  1.00  0.00     0.012 A 
ATOM     61  C   UNL A   1      41.467  28.096  28.048  1.00  0.00     0.148 A 
ATOM     62  C   UNL A   1      39.686  25.924  27.908  1.00  0.00     0.002 A 
ATOM     63  C   UNL A   1      41.460  27.263  26.935  1.00  0.00     0.091 A 
ATOM     64  F   UNL A   1      42.330  29.116  28.161  1.00  0.00    -0.205 F 
ATOM     65  C   UNL A   1      40.580  26.170  26.870  1.00  0.00     0.022 A 
BRANCH  63  66
ATOM     66  S   UNL A   1      42.517  27.541  25.509  1.00  0.00     0.127 S 
ATOM     67  O   UNL A   1      43.832  27.658  26.137  1.00  0.00    -0.237 OA
ATOM     68  O   UNL A   1      42.318  26.315  24.736  1.00  0.00    -0.237 OA
ATOM     69  O   UNL A   1      42.018  28.750  24.870  1.00  0.00    -0.744 OA
ENDBRANCH  63  66
ENDBRANCH  45  59
BRANCH  46  70
ATOM     70  C   UNL A   1      39.541  33.902  36.989  1.00  0.00     0.023 A 
ATOM     71  C   UNL A   1      39.972  35.241  36.941  1.00  0.00     0.012 A 
ATOM     72  C   UNL A   1      38.924  33.419  38.160  1.00  0.00     0.148 A 
ATOM     73  C   UNL A   1      39.821  36.077  38.048  1.00  0.00     0.002 A 
ATOM     74  C   UNL A   1      38.725  34.274  39.238  1.00  0.00     0.091 A 
ATOM     75  F   UNL A   1      38.528  32.139  38.187  1.00  0.00    -0.205 F 
ATOM     76  C   UNL A   1      39.189  35.597  39.192  1.00  0.00     0.022 A 
BRANCH  74  77
ATOM     77  S   UNL A   1      37.801  33.782  40.698  1.00  0.00     0.127 S 
ATOM     78  O   UNL A   1      37.557  35.069  41.344  1.00  0.00    -0.237 OA
ATOM     79  O   UNL A   1      36.619  33.153  40.108  1.00  0.00    -0.237 OA
ATOM     80  O   UNL A   1      38.669  32.864  41.425  1.00  0.00    -0.744 OA
ENDBRANCH  74  77
ENDBRANCH  46  70
BRANCH  58  81
ATOM     81  C   UNL A   1      44.053  28.833  35.339  1.00  0.00     0.023 A 
ATOM     82  C   UNL A   1      45.339  29.390  35.197  1.00  0.00     0.012 A 
ATOM     83  C   UNL A   1      43.862  27.751  36.219  1.00  0.00     0.148 A 
ATOM     84  C   UNL A   1      46.423  28.856  35.894  1.00  0.00     0.002 A 
ATOM     85  C   UNL A   1      44.936  27.256  36.950  1.00  0.00     0.091 A 
ATOM     86  F   UNL A   1      42.633  27.223  36.327  1.00  0.00    -0.205 F 
ATOM     87  C   UNL A   1      46.220  27.798  36.778  1.00  0.00     0.022 A 
BRANCH  85  88
ATOM     88  S   UNL A   1      44.753  25.963  38.181  1.00  0.00     0.127 S 
ATOM     89  O   UNL A   1      43.841  26.587  39.137  1.00  0.00    -0.237 OA
ATOM     90  O   UNL A   1      44.165  24.874  37.400  1.00  0.00    -0.237 OA
ATOM     91  O   UNL A   1      46.094  25.691  38.684  1.00  0.00    -0.744 OA
ENDBRANCH  85  88
ENDBRANCH  58  81
ENDBRANCH  32  33
ENDBRANCH  24  27
ENDBRANCH  22  23
ENDBRANCH  21  22
ENDBRANCH  20  21
ENDBRANCH  19  20
ENDBRANCH   1  19
TORSDOF 21
ENDMDL
MODEL 2
REMARK VINA RESULT:      -9.8      3.911      9.222
REMARK SMILES CCCCOCc1cc(C(=O)NCCCCCCNC(=O)c2ccc(-c3c4nc(c(-c5cccc(S(=O)(=O)[O-])c5F)c5ccc([nH]5)c(-c5cccc(S(=O)(=O)[O-])c5F)c5nc(c(-c6cccc(S(=O)(=O)[O-])c6F)c6ccc3[nH]6)C=C5)C=C4)cc2)[nH]n1
REMARK SMILES IDX 14 1 13 2 12 3 10 4 11 5 9 7 7 8 8 9 86 10 85 11 6 13 5 14
REMARK SMILES IDX 4 15 3 16 2 17 1 18 15 19 16 20 17 21 18 22 19 23 20 24
REMARK SMILES IDX 21 26 22 27 23 28 84 29 24 30 83 31 25 32 26 33 27 34 77 35
REMARK SMILES IDX 28 36 82 37 76 38 78 39 29 40 81 41 75 42 74 43 30 45 62 46
REMARK SMILES IDX 42 47 61 48 43 49 46 50 60 51 79 52 44 53 45 54 59 56 80 57
REMARK SMILES IDX 47 58 31 59 32 60 40 61 33 62 35 63 41 64 34 65 36 66 37 67
REMARK SMILES IDX 38 68 39 69 63 70 64 71 72 72 65 73 67 74 73 75 66 76 68 77
REMARK SMILES IDX 69 78 70 79 71 80 48 81 49 82 57 83 50 84 52 85 58 86 51 87
REMARK SMILES IDX 53 88 54 89 55 90 56 91
REMARK H PARENT 12 6 85 12 19 25 78 44 46 55
REMARK Flexibility Score: inf
ROOT
ATOM      1  C   UNL A   1      30.453  26.336  24.710  1.00  0.00     0.021 C 
ENDROOT
BRANCH   1   2
ATOM      2  C   UNL A   1      31.244  25.420  23.782  1.00  0.00     0.116 C 
BRANCH   2   3
ATOM      3  N   UNL A   1      32.669  25.490  24.044  1.00  0.00    -0.351 N 
ATOM      4  C   UNL A   1      33.594  24.496  24.230  1.00  0.00     0.269 C 
ATOM      5  O   UNL A   1      34.780  24.824  24.238  1.00  0.00    -0.268 OA
ATOM      6  H   UNL A   1      33.031  26.404  24.097  1.00  0.00     0.163 HD
BRANCH   4   7
ATOM      7  C   UNL A   1      33.200  23.118  24.346  1.00  0.00     0.123 A 
ATOM      8  C   UNL A   1      32.707  20.944  24.219  1.00  0.00     0.089 A 
ATOM      9  C   UNL A   1      32.750  22.148  23.471  1.00  0.00     0.061 A 
ATOM     10  N   UNL A   1      32.934  21.180  25.519  1.00  0.00    -0.178 NA
ATOM     11  N   UNL A   1      33.193  22.496  25.567  1.00  0.00    -0.273 N 
ATOM     12  H   UNL A   1      33.365  22.975  26.410  1.00  0.00     0.190 HD
BRANCH   8  13
ATOM     13  C   UNL A   1      32.475  19.561  23.686  1.00  0.00     0.218 C 
BRANCH  13  14
ATOM     14  O   UNL A   1      33.110  18.495  24.405  1.00  0.00    -0.375 OA
BRANCH  14  15
ATOM     15  C   UNL A   1      34.055  17.703  23.688  1.00  0.00     0.160 C 
BRANCH  15  16
ATOM     16  C   UNL A   1      34.167  16.261  24.191  1.00  0.00     0.028 C 
BRANCH  16  17
ATOM     17  C   UNL A   1      33.616  15.983  25.591  1.00  0.00    -0.001 C 
ATOM     18  C   UNL A   1      32.296  15.231  25.587  1.00  0.00     0.004 C 
ENDBRANCH  16  17
ENDBRANCH  15  16
ENDBRANCH  14  15
ENDBRANCH  13  14
ENDBRANCH   8  13
ENDBRANCH   4   7
ENDBRANCH   2   3
ENDBRANCH   1   2
BRANCH   1  19
ATOM     19  C   UNL A   1      31.075  26.484  26.103  1.00  0.00     0.002 C 
BRANCH  19  20
ATOM     20  C   UNL A   1      31.411  27.923  26.514  1.00  0.00     0.002 C 
BRANCH  20  21
ATOM     21  C   UNL A   1      32.786  28.120  27.159  1.00  0.00     0.021 C 
BRANCH  21  22
ATOM     22  C   UNL A   1      33.756  28.984  26.358  1.00  0.00     0.116 C 
BRANCH  22  23
ATOM     23  N   UNL A   1      33.751  30.370  26.798  1.00  0.00    -0.352 N 
ATOM     24  C   UNL A   1      34.603  31.021  27.654  1.00  0.00     0.251 C 
ATOM     25  H   UNL A   1      33.027  30.925  26.426  1.00  0.00     0.163 HD
ATOM     26  O   UNL A   1      34.322  32.148  28.055  1.00  0.00    -0.269 OA
BRANCH  24  27
ATOM     27  C   UNL A   1      35.849  30.364  28.105  1.00  0.00     0.039 A 
ATOM     28  C   UNL A   1      36.978  30.417  27.282  1.00  0.00     0.014 A 
ATOM     29  C   UNL A   1      35.903  29.689  29.328  1.00  0.00     0.014 A 
ATOM     30  C   UNL A   1      38.178  29.848  27.716  1.00  0.00     0.010 A 
ATOM     31  C   UNL A   1      37.118  29.186  29.788  1.00  0.00     0.010 A 
ATOM     32  C   UNL A   1      38.267  29.258  28.987  1.00  0.00    -0.014 A 
BRANCH  32  33
ATOM     33  C   UNL A   1      39.558  28.737  29.507  1.00  0.00     0.031 A 
ATOM     34  C   UNL A   1      40.276  29.447  30.621  1.00  0.00     0.074 A 
ATOM     35  C   UNL A   1      40.129  27.670  28.912  1.00  0.00     0.049 A 
ATOM     36  N   UNL A   1      41.436  29.174  31.160  1.00  0.00    -0.248 NA
ATOM     37  C   UNL A   1      39.618  30.635  31.188  1.00  0.00     0.031 C 
ATOM     38  C   UNL A   1      39.568  26.936  27.775  1.00  0.00     0.029 A 
ATOM     39  N   UNL A   1      41.319  27.034  29.162  1.00  0.00    -0.354 N 
ATOM     40  C   UNL A   1      41.664  30.170  32.103  1.00  0.00     0.074 A 
ATOM     41  C   UNL A   1      40.534  31.073  32.038  1.00  0.00     0.031 C 
ATOM     42  C   UNL A   1      40.410  25.951  27.428  1.00  0.00     0.029 A 
ATOM     43  C   UNL A   1      41.586  26.001  28.293  1.00  0.00     0.049 A 
ATOM     44  H   UNL A   1      41.925  27.291  29.894  1.00  0.00     0.167 HD
ATOM     45  C   UNL A   1      42.702  30.307  32.962  1.00  0.00     0.034 A 
ATOM     46  C   UNL A   1      42.661  25.195  28.193  1.00  0.00     0.034 A 
ATOM     47  C   UNL A   1      43.806  29.390  33.044  1.00  0.00     0.049 A 
ATOM     48  C   UNL A   1      43.792  25.356  29.170  1.00  0.00     0.074 A 
ATOM     49  C   UNL A   1      44.862  29.392  33.940  1.00  0.00     0.029 A 
ATOM     50  N   UNL A   1      44.010  28.314  32.194  1.00  0.00    -0.354 N 
ATOM     51  N   UNL A   1      43.912  26.208  30.159  1.00  0.00    -0.248 NA
ATOM     52  C   UNL A   1      44.921  24.424  29.039  1.00  0.00     0.031 C 
ATOM     53  C   UNL A   1      45.721  28.339  33.607  1.00  0.00     0.029 A 
ATOM     54  C   UNL A   1      45.182  27.657  32.528  1.00  0.00     0.049 A 
ATOM     55  H   UNL A   1      43.408  28.055  31.458  1.00  0.00     0.167 HD
ATOM     56  C   UNL A   1      45.113  25.895  30.788  1.00  0.00     0.074 A 
ATOM     57  C   UNL A   1      45.669  24.759  30.081  1.00  0.00     0.031 C 
ATOM     58  C   UNL A   1      45.707  26.502  31.846  1.00  0.00     0.034 A 
BRANCH  45  59
ATOM     59  C   UNL A   1      42.669  31.475  33.915  1.00  0.00     0.023 A 
ATOM     60  C   UNL A   1      43.250  32.702  33.534  1.00  0.00     0.012 A 
ATOM     61  C   UNL A   1      42.022  31.377  35.162  1.00  0.00     0.148 A 
ATOM     62  C   UNL A   1      43.225  33.799  34.395  1.00  0.00     0.002 A 
ATOM     63  C   UNL A   1      41.959  32.488  35.995  1.00  0.00     0.091 A 
ATOM     64  F   UNL A   1      41.491  30.197  35.517  1.00  0.00    -0.205 F 
ATOM     65  C   UNL A   1      42.571  33.695  35.619  1.00  0.00     0.022 A 
BRANCH  63  66
ATOM     66  S   UNL A   1      41.072  32.480  37.557  1.00  0.00     0.127 S 
ATOM     67  O   UNL A   1      41.919  31.611  38.372  1.00  0.00    -0.237 OA
ATOM     68  O   UNL A   1      41.105  33.893  37.937  1.00  0.00    -0.237 OA
ATOM     69  O   UNL A   1      39.744  31.961  37.261  1.00  0.00    -0.744 OA
ENDBRANCH  63  66
ENDBRANCH  45  59
BRANCH  46  70
ATOM     70  C   UNL A   1      42.690  24.122  27.157  1.00  0.00     0.023 A 
ATOM     71  C   UNL A   1      43.398  24.338  25.959  1.00  0.00     0.012 A 
ATOM     72  C   UNL A   1      42.050  22.885  27.365  1.00  0.00     0.148 A 
ATOM     73  C   UNL A   1      43.443  23.352  24.972  1.00  0.00     0.002 A 
ATOM     74  C   UNL A   1      42.147  21.887  26.402  1.00  0.00     0.091 A 
ATOM     75  F   UNL A   1      41.375  22.704  28.508  1.00  0.00    -0.205 F 
ATOM     76  C   UNL A   1      42.827  22.124  25.197  1.00  0.00     0.022 A 
BRANCH  74  77
ATOM     77  S   UNL A   1      41.500  20.231  26.663  1.00  0.00     0.127 S 
ATOM     78  O   UNL A   1      42.180  19.836  27.894  1.00  0.00    -0.237 OA
ATOM     79  O   UNL A   1      40.067  20.488  26.804  1.00  0.00    -0.237 OA
ATOM     80  O   UNL A   1      41.860  19.474  25.471  1.00  0.00    -0.744 OA
ENDBRANCH  74  77
ENDBRANCH  46  70
BRANCH  58  81
ATOM     81  C   UNL A   1      47.018  25.937  32.328  1.00  0.00     0.023 A 
ATOM     82  C   UNL A   1      48.230  26.437  31.812  1.00  0.00     0.012 A 
ATOM     83  C   UNL A   1      47.050  24.960  33.342  1.00  0.00     0.148 A 
ATOM     84  C   UNL A   1      49.452  25.946  32.272  1.00  0.00     0.002 A 
ATOM     85  C   UNL A   1      48.271  24.513  33.832  1.00  0.00     0.091 A 
ATOM     86  F   UNL A   1      45.886  24.484  33.808  1.00  0.00    -0.205 F 
ATOM     87  C   UNL A   1      49.473  24.995  33.289  1.00  0.00     0.022 A 
BRANCH  85  88
ATOM     88  S   UNL A   1      48.398  23.362  35.205  1.00  0.00     0.127 S 
ATOM     89  O   UNL A   1      49.838  23.125  35.264  1.00  0.00    -0.237 OA
ATOM     90  O   UNL A   1      47.863  24.148  36.317  1.00  0.00    -0.237 OA
ATOM     91  O   UNL A   1      47.589  22.206  34.838  1.00  0.00    -0.744 OA
ENDBRANCH  85  88
ENDBRANCH  58  81
ENDBRANCH  32  33
ENDBRANCH  24  27
ENDBRANCH  22  23
ENDBRANCH  21  22
ENDBRANCH  20  21
ENDBRANCH  19  20
ENDBRANCH   1  19
TORSDOF 21
ENDMDL
MODEL 3
REMARK VINA RESULT:      -9.4      3.220      4.412
REMARK SMILES CCCCOCc1cc(C(=O)NCCCCCCNC(=O)c2ccc(-c3c4nc(c(-c5cccc(S(=O)(=O)[O-])c5F)c5ccc([nH]5)c(-c5cccc(S(=O)(=O)[O-])c5F)c5nc(c(-c6cccc(S(=O)(=O)[O-])c6F)c6ccc3[nH]6)C=C5)C=C4)cc2)[nH]n1
REMARK SMILES IDX 14 1 13 2 12 3 10 4 11 5 9 7 7 8 8 9 86 10 85 11 6 13 5 14
REMARK SMILES IDX 4 15 3 16 2 17 1 18 15 19 16 20 17 21 18 22 19 23 20 24
REMARK SMILES IDX 21 26 22 27 23 28 84 29 24 30 83 31 25 32 26 33 27 34 77 35
REMARK SMILES IDX 28 36 82 37 76 38 78 39 29 40 81 41 75 42 74 43 30 45 62 46
REMARK SMILES IDX 42 47 61 48 43 49 46 50 60 51 79 52 44 53 45 54 59 56 80 57
REMARK SMILES IDX 47 58 31 59 32 60 40 61 33 62 35 63 41 64 34 65 36 66 37 67
REMARK SMILES IDX 38 68 39 69 63 70 64 71 72 72 65 73 67 74 73 75 66 76 68 77
REMARK SMILES IDX 69 78 70 79 71 80 48 81 49 82 57 83 50 84 52 85 58 86 51 87
REMARK SMILES IDX 53 88 54 89 55 90 56 91
REMARK H PARENT 12 6 85 12 19 25 78 44 46 55
REMARK Flexibility Score: inf
ROOT
ATOM      1  C   UNL A   1      34.172  24.605  23.190  1.00  0.00     0.021 C 
ENDROOT
BRANCH   1   2
ATOM      2  C   UNL A   1      35.251  23.760  23.858  1.00  0.00     0.116 C 
BRANCH   2   3
ATOM      3  N   UNL A   1      35.108  23.747  25.301  1.00  0.00    -0.351 N 
ATOM      4  C   UNL A   1      34.477  22.857  26.130  1.00  0.00     0.269 C 
ATOM      5  O   UNL A   1      34.676  22.973  27.339  1.00  0.00    -0.268 OA
ATOM      6  H   UNL A   1      35.537  24.505  25.761  1.00  0.00     0.163 HD
BRANCH   4   7
ATOM      7  C   UNL A   1      33.667  21.790  25.605  1.00  0.00     0.123 A 
ATOM      8  C   UNL A   1      32.678  19.944  24.832  1.00  0.00     0.089 A 
ATOM      9  C   UNL A   1      33.903  20.658  24.850  1.00  0.00     0.061 A 
ATOM     10  N   UNL A   1      31.694  20.670  25.379  1.00  0.00    -0.178 NA
ATOM     11  N   UNL A   1      32.311  21.783  25.803  1.00  0.00    -0.273 N 
ATOM     12  H   UNL A   1      31.830  22.533  26.222  1.00  0.00     0.190 HD
BRANCH   8  13
ATOM     13  C   UNL A   1      32.454  18.554  24.314  1.00  0.00     0.218 C 
BRANCH  13  14
ATOM     14  O   UNL A   1      33.392  18.090  23.333  1.00  0.00    -0.375 OA
BRANCH  14  15
ATOM     15  C   UNL A   1      33.600  16.682  23.247  1.00  0.00     0.160 C 
BRANCH  15  16
ATOM     16  C   UNL A   1      33.142  15.908  24.487  1.00  0.00     0.028 C 
BRANCH  16  17
ATOM     17  C   UNL A   1      34.055  15.987  25.713  1.00  0.00    -0.001 C 
ATOM     18  C   UNL A   1      35.528  15.810  25.387  1.00  0.00     0.004 C 
ENDBRANCH  16  17
ENDBRANCH  15  16
ENDBRANCH  14  15
ENDBRANCH  13  14
ENDBRANCH   8  13
ENDBRANCH   4   7
ENDBRANCH   2   3
ENDBRANCH   1   2
BRANCH   1  19
ATOM     19  C   UNL A   1      33.590  25.690  24.104  1.00  0.00     0.002 C 
BRANCH  19  20
ATOM     20  C   UNL A   1      33.757  27.126  23.592  1.00  0.00     0.002 C 
BRANCH  20  21
ATOM     21  C   UNL A   1      32.830  28.165  24.232  1.00  0.00     0.021 C 
BRANCH  21  22
ATOM     22  C   UNL A   1      33.348  28.775  25.533  1.00  0.00     0.116 C 
BRANCH  22  23
ATOM     23  N   UNL A   1      32.768  30.083  25.795  1.00  0.00    -0.352 N 
ATOM     24  C   UNL A   1      33.088  31.006  26.758  1.00  0.00     0.251 C 
ATOM     25  H   UNL A   1      32.037  30.347  25.189  1.00  0.00     0.163 HD
ATOM     26  O   UNL A   1      32.356  31.975  26.943  1.00  0.00    -0.269 OA
BRANCH  24  27
ATOM     27  C   UNL A   1      34.302  30.829  27.585  1.00  0.00     0.039 A 
ATOM     28  C   UNL A   1      34.505  29.607  28.233  1.00  0.00     0.014 A 
ATOM     29  C   UNL A   1      35.229  31.863  27.732  1.00  0.00     0.014 A 
ATOM     30  C   UNL A   1      35.671  29.402  28.975  1.00  0.00     0.010 A 
ATOM     31  C   UNL A   1      36.423  31.633  28.412  1.00  0.00     0.010 A 
ATOM     32  C   UNL A   1      36.656  30.401  29.042  1.00  0.00    -0.014 A 
BRANCH  32  33
ATOM     33  C   UNL A   1      37.946  30.167  29.741  1.00  0.00     0.031 A 
ATOM     34  C   UNL A   1      38.993  29.272  29.136  1.00  0.00     0.074 A 
ATOM     35  C   UNL A   1      38.139  30.692  30.969  1.00  0.00     0.049 A 
ATOM     36  N   UNL A   1      40.148  28.905  29.628  1.00  0.00    -0.248 NA
ATOM     37  C   UNL A   1      38.692  28.692  27.817  1.00  0.00     0.031 C 
ATOM     38  C   UNL A   1      37.171  31.517  31.695  1.00  0.00     0.029 A 
ATOM     39  N   UNL A   1      39.200  30.586  31.833  1.00  0.00    -0.354 N 
ATOM     40  C   UNL A   1      40.697  28.029  28.699  1.00  0.00     0.074 A 
ATOM     41  C   UNL A   1      39.732  27.893  27.629  1.00  0.00     0.031 C 
ATOM     42  C   UNL A   1      37.684  31.846  32.891  1.00  0.00     0.029 A 
ATOM     43  C   UNL A   1      38.999  31.228  33.033  1.00  0.00     0.049 A 
ATOM     44  H   UNL A   1      40.027  30.099  31.614  1.00  0.00     0.167 HD
ATOM     45  C   UNL A   1      41.904  27.414  28.720  1.00  0.00     0.034 A 
ATOM     46  C   UNL A   1      39.778  31.299  34.130  1.00  0.00     0.034 A 
ATOM     47  C   UNL A   1      42.873  27.576  29.771  1.00  0.00     0.049 A 
ATOM     48  C   UNL A   1      41.121  30.622  34.121  1.00  0.00     0.074 A 
ATOM     49  C   UNL A   1      44.158  27.066  29.842  1.00  0.00     0.029 A 
ATOM     50  N   UNL A   1      42.663  28.289  30.941  1.00  0.00    -0.354 N 
ATOM     51  N   UNL A   1      41.688  29.928  33.165  1.00  0.00    -0.248 NA
ATOM     52  C   UNL A   1      41.945  30.766  35.330  1.00  0.00     0.031 C 
ATOM     53  C   UNL A   1      44.711  27.443  31.071  1.00  0.00     0.029 A 
ATOM     54  C   UNL A   1      43.785  28.218  31.750  1.00  0.00     0.049 A 
ATOM     55  H   UNL A   1      41.836  28.775  31.164  1.00  0.00     0.167 HD
ATOM     56  C   UNL A   1      42.947  29.580  33.642  1.00  0.00     0.074 A 
ATOM     57  C   UNL A   1      43.067  30.161  34.964  1.00  0.00     0.031 C 
ATOM     58  C   UNL A   1      43.911  28.835  33.046  1.00  0.00     0.034 A 
BRANCH  45  59
ATOM     59  C   UNL A   1      42.262  26.538  27.546  1.00  0.00     0.023 A 
ATOM     60  C   UNL A   1      42.941  27.094  26.442  1.00  0.00     0.012 A 
ATOM     61  C   UNL A   1      41.974  25.159  27.555  1.00  0.00     0.148 A 
ATOM     62  C   UNL A   1      43.290  26.303  25.348  1.00  0.00     0.002 A 
ATOM     63  C   UNL A   1      42.367  24.367  26.482  1.00  0.00     0.091 A 
ATOM     64  F   UNL A   1      41.311  24.650  28.604  1.00  0.00    -0.205 F 
ATOM     65  C   UNL A   1      43.013  24.939  25.374  1.00  0.00     0.022 A 
BRANCH  63  66
ATOM     66  S   UNL A   1      42.128  22.586  26.453  1.00  0.00     0.127 S 
ATOM     67  O   UNL A   1      40.682  22.481  26.645  1.00  0.00    -0.237 OA
ATOM     68  O   UNL A   1      42.591  22.236  25.110  1.00  0.00    -0.237 OA
ATOM     69  O   UNL A   1      42.943  22.055  27.536  1.00  0.00    -0.744 OA
ENDBRANCH  63  66
ENDBRANCH  45  59
BRANCH  46  70
ATOM     70  C   UNL A   1      39.327  32.090  35.311  1.00  0.00     0.023 A 
ATOM     71  C   UNL A   1      38.461  31.498  36.250  1.00  0.00     0.012 A 
ATOM     72  C   UNL A   1      39.774  33.409  35.524  1.00  0.00     0.148 A 
ATOM     73  C   UNL A   1      38.022  32.214  37.364  1.00  0.00     0.002 A 
ATOM     74  C   UNL A   1      39.379  34.097  36.665  1.00  0.00     0.091 A 
ATOM     75  F   UNL A   1      40.591  33.956  34.614  1.00  0.00    -0.205 F 
ATOM     76  C   UNL A   1      38.489  33.509  37.577  1.00  0.00     0.022 A 
BRANCH  74  77
ATOM     77  S   UNL A   1      40.034  35.714  37.091  1.00  0.00     0.127 S 
ATOM     78  O   UNL A   1      39.621  36.515  35.941  1.00  0.00    -0.237 OA
ATOM     79  O   UNL A   1      39.324  36.008  38.336  1.00  0.00    -0.237 OA
ATOM     80  O   UNL A   1      41.471  35.530  37.249  1.00  0.00    -0.744 OA
ENDBRANCH  74  77
ENDBRANCH  46  70
BRANCH  58  81
ATOM     81  C   UNL A   1      45.198  28.622  33.802  1.00  0.00     0.023 A 
ATOM     82  C   UNL A   1      46.232  29.575  33.710  1.00  0.00     0.012 A 
ATOM     83  C   UNL A   1      45.354  27.513  34.654  1.00  0.00     0.148 A 
ATOM     84  C   UNL A   1      47.415  29.408  34.429  1.00  0.00     0.002 A 
ATOM     85  C   UNL A   1      46.515  27.379  35.408  1.00  0.00     0.091 A 
ATOM     86  F   UNL A   1      44.366  26.608  34.715  1.00  0.00    -0.205 F 
ATOM     87  C   UNL A   1      47.553  28.318  35.285  1.00  0.00     0.022 A 
BRANCH  85  88
ATOM     88  S   UNL A   1      46.742  26.063  36.607  1.00  0.00     0.127 S 
ATOM     89  O   UNL A   1      45.506  26.150  37.382  1.00  0.00    -0.237 OA
ATOM     90  O   UNL A   1      46.843  24.880  35.752  1.00  0.00    -0.237 OA
ATOM     91  O   UNL A   1      47.960  26.388  37.338  1.00  0.00    -0.744 OA
ENDBRANCH  85  88
ENDBRANCH  58  81
ENDBRANCH  32  33
ENDBRANCH  24  27
ENDBRANCH  22  23
ENDBRANCH  21  22
ENDBRANCH  20  21
ENDBRANCH  19  20
ENDBRANCH   1  19
TORSDOF 21
ENDMDL
