MODEL 1
REMARK VINA RESULT:     -12.8      0.000      0.000
REMARK SMILES NS(=O)(=O)c1ccc(-c2cc(Cl)cc3c2O[C@H](C(F)(F)F)C(C(=O)NCCCCCCNC(=O)c2ccc(-c4c5nc(c(-c6cccc(S(=O)(=O)[O-])c6F)c6ccc([nH]6)c(-c6cccc(S(=O)(=O)[O-])c6F)c6nc(c(-c7cccc(S(=O)(=O)[O-])c7F)c7ccc4[nH]7)C=C6)C=C5)cc2)=C3)cc1
REMARK SMILES IDX 28 1 27 2 26 3 25 4 23 5 24 6 22 8 9 9 10 10 15 11 11 12
REMARK SMILES IDX 14 13 16 14 12 15 13 16 98 17 17 18 8 19 5 20 6 21 100 22
REMARK SMILES IDX 7 23 99 24 2 25 3 26 4 27 1 28 18 31 19 32 20 33 21 34 29 35
REMARK SMILES IDX 30 36 31 37 32 38 33 39 34 41 35 42 36 43 97 44 37 45 96 46
REMARK SMILES IDX 38 47 39 48 40 49 90 50 41 51 95 52 89 53 91 54 42 55 94 56
REMARK SMILES IDX 88 57 87 58 43 60 75 61 55 62 74 63 56 64 59 65 73 66 92 67
REMARK SMILES IDX 57 68 58 69 72 71 93 72 60 73 44 74 45 75 53 76 46 77 48 78
REMARK SMILES IDX 54 79 47 80 49 81 50 82 51 83 52 84 76 85 77 86 85 87 78 88
REMARK SMILES IDX 80 89 86 90 79 91 81 92 82 93 83 94 84 95 61 96 62 97 70 98
REMARK SMILES IDX 63 99 65 100 71 101 64 102 66 103 67 104 68 105 69 106
REMARK H PARENT 25 7 1 29 1 30 32 40 91 59 59 70
REMARK Flexibility Score: inf
ROOT
ATOM      1  C   UNL A   1      31.294  30.270  25.046  1.00  0.00     0.002 C 
ENDROOT
BRANCH   1   2
ATOM      2  C   UNL A   1      31.852  28.980  24.421  1.00  0.00     0.021 C 
BRANCH   2   3
ATOM      3  C   UNL A   1      33.373  28.974  24.213  1.00  0.00     0.116 C 
BRANCH   3   4
ATOM      4  N   UNL A   1      33.956  27.840  24.902  1.00  0.00    -0.352 N 
ATOM      5  C   UNL A   1      33.330  26.659  25.128  1.00  0.00     0.251 C 
ATOM      6  O   UNL A   1      33.319  26.174  26.253  1.00  0.00    -0.270 OA
ATOM      7  H   UNL A   1      34.878  27.935  25.233  1.00  0.00     0.163 HD
BRANCH   5   8
ATOM      8  C   UNL A   1      32.853  25.928  23.917  1.00  0.00     0.067 C 
ATOM      9  C   UNL A   1      33.718  22.129  25.051  1.00  0.00     0.026 A 
ATOM     10  C   UNL A   1      34.999  22.196  25.665  1.00  0.00     0.033 A 
ATOM     11  C   UNL A   1      33.322  23.264  24.323  1.00  0.00     0.135 A 
ATOM     12  C   UNL A   1      35.907  23.215  25.395  1.00  0.00     0.042 A 
ATOM     13  C   UNL A   1      34.304  24.218  23.956  1.00  0.00     0.019 A 
ATOM     14  O   UNL A   1      32.000  23.551  23.998  1.00  0.00    -0.475 OA
ATOM     15  Cl  UNL A   1      37.431  23.234  26.189  1.00  0.00    -0.084 Cl
ATOM     16  C   UNL A   1      35.598  24.186  24.466  1.00  0.00     0.032 A 
ATOM     17  C   UNL A   1      33.860  25.403  23.192  1.00  0.00     0.025 C 
ATOM     18  C   UNL A   1      31.660  25.010  24.128  1.00  0.00     0.314 C 
BRANCH   9  19
ATOM     19  C   UNL A   1      33.118  20.764  25.038  1.00  0.00    -0.015 A 
ATOM     20  C   UNL A   1      33.184  17.941  24.824  1.00  0.00     0.082 A 
ATOM     21  C   UNL A   1      33.250  18.542  26.080  1.00  0.00     0.022 A 
ATOM     22  C   UNL A   1      32.974  18.721  23.685  1.00  0.00     0.022 A 
ATOM     23  C   UNL A   1      33.189  19.941  26.184  1.00  0.00     0.010 A 
ATOM     24  C   UNL A   1      32.926  20.122  23.797  1.00  0.00     0.010 A 
BRANCH  20  25
ATOM     25  S   UNL A   1      33.495  16.203  24.664  1.00  0.00     0.238 S 
ATOM     26  O   UNL A   1      34.489  15.800  25.636  1.00  0.00    -0.207 OA
ATOM     27  O   UNL A   1      33.611  15.874  23.265  1.00  0.00    -0.207 OA
BRANCH  25  28
ATOM     28  N   UNL A   1      32.063  15.506  25.191  1.00  0.00    -0.225 NA
ATOM     29  H   UNL A   1      31.871  14.668  24.643  1.00  0.00     0.137 HD
ATOM     30  H   UNL A   1      31.298  16.172  25.074  1.00  0.00     0.137 HD
ENDBRANCH  25  28
ENDBRANCH  20  25
ENDBRANCH   9  19
BRANCH  18  31
ATOM     31  C   UNL A   1      30.554  25.450  23.140  1.00  0.00     0.429 C 
ATOM     32  F   UNL A   1      29.926  26.580  23.535  1.00  0.00    -0.167 F 
ATOM     33  F   UNL A   1      31.060  25.667  21.904  1.00  0.00    -0.167 F 
ATOM     34  F   UNL A   1      29.587  24.504  22.992  1.00  0.00    -0.167 F 
ENDBRANCH  18  31
ENDBRANCH   5   8
ENDBRANCH   3   4
ENDBRANCH   2   3
ENDBRANCH   1   2
BRANCH   1  35
ATOM     35  C   UNL A   1      31.825  30.586  26.445  1.00  0.00     0.002 C 
BRANCH  35  36
ATOM     36  C   UNL A   1      31.556  32.017  26.912  1.00  0.00     0.021 C 
BRANCH  36  37
ATOM     37  C   UNL A   1      32.798  32.776  27.361  1.00  0.00     0.116 C 
BRANCH  37  38
ATOM     38  N   UNL A   1      32.509  34.166  27.683  1.00  0.00    -0.352 N 
ATOM     39  C   UNL A   1      33.051  34.949  28.671  1.00  0.00     0.251 C 
ATOM     40  H   UNL A   1      31.835  34.604  27.115  1.00  0.00     0.163 HD
ATOM     41  O   UNL A   1      32.571  36.049  28.923  1.00  0.00    -0.269 OA
BRANCH  39  42
ATOM     42  C   UNL A   1      34.205  34.442  29.444  1.00  0.00     0.039 A 
ATOM     43  C   UNL A   1      33.974  33.785  30.653  1.00  0.00     0.014 A 
ATOM     44  C   UNL A   1      35.508  34.594  28.959  1.00  0.00     0.014 A 
ATOM     45  C   UNL A   1      35.048  33.232  31.352  1.00  0.00     0.010 A 
ATOM     46  C   UNL A   1      36.564  33.970  29.614  1.00  0.00     0.010 A 
ATOM     47  C   UNL A   1      36.348  33.291  30.822  1.00  0.00    -0.014 A 
BRANCH  47  48
ATOM     48  C   UNL A   1      37.492  32.646  31.516  1.00  0.00     0.031 A 
ATOM     49  C   UNL A   1      38.213  31.491  30.874  1.00  0.00     0.074 A 
ATOM     50  C   UNL A   1      37.835  33.052  32.755  1.00  0.00     0.049 A 
ATOM     51  N   UNL A   1      39.201  30.775  31.343  1.00  0.00    -0.248 NA
ATOM     52  C   UNL A   1      37.747  31.068  29.543  1.00  0.00     0.031 C 
ATOM     53  C   UNL A   1      37.166  34.112  33.513  1.00  0.00     0.029 A 
ATOM     54  N   UNL A   1      38.816  32.606  33.604  1.00  0.00    -0.354 N 
ATOM     55  C   UNL A   1      39.453  29.800  30.384  1.00  0.00     0.074 A 
ATOM     56  C   UNL A   1      38.488  29.991  29.325  1.00  0.00     0.031 C 
ATOM     57  C   UNL A   1      37.761  34.240  34.709  1.00  0.00     0.029 A 
ATOM     58  C   UNL A   1      38.827  33.251  34.819  1.00  0.00     0.049 A 
ATOM     59  H   UNL A   1      39.452  31.893  33.366  1.00  0.00     0.167 HD
ATOM     60  C   UNL A   1      40.418  28.851  30.372  1.00  0.00     0.034 A 
ATOM     61  C   UNL A   1      39.602  33.058  35.904  1.00  0.00     0.034 A 
ATOM     62  C   UNL A   1      41.394  28.682  31.414  1.00  0.00     0.049 A 
ATOM     63  C   UNL A   1      40.677  32.006  35.859  1.00  0.00     0.074 A 
ATOM     64  C   UNL A   1      42.461  27.802  31.459  1.00  0.00     0.029 A 
ATOM     65  N   UNL A   1      41.417  29.398  32.601  1.00  0.00    -0.354 N 
ATOM     66  N   UNL A   1      40.996  31.193  34.880  1.00  0.00    -0.248 NA
ATOM     67  C   UNL A   1      41.524  31.868  37.053  1.00  0.00     0.031 C 
ATOM     68  C   UNL A   1      43.106  27.960  32.690  1.00  0.00     0.029 A 
ATOM     69  C   UNL A   1      42.469  28.969  33.392  1.00  0.00     0.049 A 
ATOM     70  H   UNL A   1      40.779  30.107  32.845  1.00  0.00     0.167 HD
ATOM     71  C   UNL A   1      42.102  30.477  35.324  1.00  0.00     0.074 A 
ATOM     72  C   UNL A   1      42.410  30.967  36.652  1.00  0.00     0.031 C 
ATOM     73  C   UNL A   1      42.794  29.497  34.693  1.00  0.00     0.034 A 
BRANCH  60  74
ATOM     74  C   UNL A   1      40.490  27.939  29.173  1.00  0.00     0.023 A 
ATOM     75  C   UNL A   1      39.596  26.853  29.065  1.00  0.00     0.012 A 
ATOM     76  C   UNL A   1      41.400  28.190  28.128  1.00  0.00     0.148 A 
ATOM     77  C   UNL A   1      39.634  26.008  27.956  1.00  0.00     0.002 A 
ATOM     78  C   UNL A   1      41.398  27.373  27.003  1.00  0.00     0.091 A 
ATOM     79  F   UNL A   1      42.255  29.215  28.256  1.00  0.00    -0.205 F 
ATOM     80  C   UNL A   1      40.527  26.275  26.922  1.00  0.00     0.022 A 
BRANCH  78  81
ATOM     81  S   UNL A   1      42.449  27.680  25.580  1.00  0.00     0.127 S 
ATOM     82  O   UNL A   1      42.207  26.485  24.771  1.00  0.00    -0.237 OA
ATOM     83  O   UNL A   1      41.876  28.911  25.036  1.00  0.00    -0.237 OA
ATOM     84  O   UNL A   1      43.803  27.816  26.099  1.00  0.00    -0.744 OA
ENDBRANCH  78  81
ENDBRANCH  60  74
BRANCH  61  85
ATOM     85  C   UNL A   1      39.423  33.912  37.113  1.00  0.00     0.023 A 
ATOM     86  C   UNL A   1      39.873  35.246  37.095  1.00  0.00     0.012 A 
ATOM     87  C   UNL A   1      38.798  33.414  38.273  1.00  0.00     0.148 A 
ATOM     88  C   UNL A   1      39.740  36.058  38.222  1.00  0.00     0.002 A 
ATOM     89  C   UNL A   1      38.617  34.245  39.373  1.00  0.00     0.091 A 
ATOM     90  F   UNL A   1      38.383  32.141  38.274  1.00  0.00    -0.205 F 
ATOM     91  C   UNL A   1      39.105  35.562  39.357  1.00  0.00     0.022 A 
BRANCH  89  92
ATOM     92  S   UNL A   1      37.697  33.732  40.827  1.00  0.00     0.127 S 
ATOM     93  O   UNL A   1      38.635  32.812  41.464  1.00  0.00    -0.237 OA
ATOM     94  O   UNL A   1      37.509  35.003  41.527  1.00  0.00    -0.237 OA
ATOM     95  O   UNL A   1      36.467  33.135  40.326  1.00  0.00    -0.744 OA
ENDBRANCH  89  92
ENDBRANCH  61  85
BRANCH  73  96
ATOM     96  C   UNL A   1      43.987  28.913  35.405  1.00  0.00     0.023 A 
ATOM     97  C   UNL A   1      45.259  29.498  35.251  1.00  0.00     0.012 A 
ATOM     98  C   UNL A   1      43.829  27.823  36.284  1.00  0.00     0.148 A 
ATOM     99  C   UNL A   1      46.362  28.983  35.934  1.00  0.00     0.002 A 
ATOM    100  C   UNL A   1      44.920  27.350  37.001  1.00  0.00     0.091 A 
ATOM    101  F   UNL A   1      42.614  27.270  36.403  1.00  0.00    -0.205 F 
ATOM    102  C   UNL A   1      46.191  27.920  36.816  1.00  0.00     0.022 A 
BRANCH 100 103
ATOM    103  S   UNL A   1      44.776  26.053  38.234  1.00  0.00     0.127 S 
ATOM    104  O   UNL A   1      46.177  25.686  38.445  1.00  0.00    -0.237 OA
ATOM    105  O   UNL A   1      44.156  26.760  39.354  1.00  0.00    -0.237 OA
ATOM    106  O   UNL A   1      43.945  25.017  37.635  1.00  0.00    -0.744 OA
ENDBRANCH 100 103
ENDBRANCH  73  96
ENDBRANCH  47  48
ENDBRANCH  39  42
ENDBRANCH  37  38
ENDBRANCH  36  37
ENDBRANCH  35  36
ENDBRANCH   1  35
TORSDOF 20
ENDMDL
MODEL 2
REMARK VINA RESULT:     -11.9      4.262      9.269
REMARK SMILES NS(=O)(=O)c1ccc(-c2cc(Cl)cc3c2O[C@H](C(F)(F)F)C(C(=O)NCCCCCCNC(=O)c2ccc(-c4c5nc(c(-c6cccc(S(=O)(=O)[O-])c6F)c6ccc([nH]6)c(-c6cccc(S(=O)(=O)[O-])c6F)c6nc(c(-c7cccc(S(=O)(=O)[O-])c7F)c7ccc4[nH]7)C=C6)C=C5)cc2)=C3)cc1
REMARK SMILES IDX 28 1 27 2 26 3 25 4 23 5 24 6 22 8 9 9 10 10 15 11 11 12
REMARK SMILES IDX 14 13 16 14 12 15 13 16 98 17 17 18 8 19 5 20 6 21 100 22
REMARK SMILES IDX 7 23 99 24 2 25 3 26 4 27 1 28 18 31 19 32 20 33 21 34 29 35
REMARK SMILES IDX 30 36 31 37 32 38 33 39 34 41 35 42 36 43 97 44 37 45 96 46
REMARK SMILES IDX 38 47 39 48 40 49 90 50 41 51 95 52 89 53 91 54 42 55 94 56
REMARK SMILES IDX 88 57 87 58 43 60 75 61 55 62 74 63 56 64 59 65 73 66 92 67
REMARK SMILES IDX 57 68 58 69 72 71 93 72 60 73 44 74 45 75 53 76 46 77 48 78
REMARK SMILES IDX 54 79 47 80 49 81 50 82 51 83 52 84 76 85 77 86 85 87 78 88
REMARK SMILES IDX 80 89 86 90 79 91 81 92 82 93 83 94 84 95 61 96 62 97 70 98
REMARK SMILES IDX 63 99 65 100 71 101 64 102 66 103 67 104 68 105 69 106
REMARK H PARENT 25 7 1 29 1 30 32 40 91 59 59 70
REMARK Flexibility Score: inf
ROOT
ATOM      1  C   UNL A   1      34.000  27.511  23.973  1.00  0.00     0.002 C 
ENDROOT
BRANCH   1   2
ATOM      2  C   UNL A   1      34.228  26.230  24.794  1.00  0.00     0.021 C 
BRANCH   2   3
ATOM      3  C   UNL A   1      34.481  24.968  23.957  1.00  0.00     0.116 C 
BRANCH   3   4
ATOM      4  N   UNL A   1      34.608  23.820  24.832  1.00  0.00    -0.352 N 
ATOM      5  C   UNL A   1      33.618  23.320  25.611  1.00  0.00     0.251 C 
ATOM      6  O   UNL A   1      33.821  23.100  26.799  1.00  0.00    -0.270 OA
ATOM      7  H   UNL A   1      35.482  23.367  24.865  1.00  0.00     0.163 HD
BRANCH   5   8
ATOM      8  C   UNL A   1      32.379  22.889  24.900  1.00  0.00     0.067 C 
ATOM      9  C   UNL A   1      30.636  26.512  24.348  1.00  0.00     0.026 A 
ATOM     10  C   UNL A   1      30.822  27.215  25.569  1.00  0.00     0.033 A 
ATOM     11  C   UNL A   1      30.901  25.132  24.383  1.00  0.00     0.135 A 
ATOM     12  C   UNL A   1      31.037  26.567  26.782  1.00  0.00     0.042 A 
ATOM     13  C   UNL A   1      30.987  24.483  25.640  1.00  0.00     0.019 A 
ATOM     14  O   UNL A   1      31.162  24.367  23.250  1.00  0.00    -0.475 OA
ATOM     15  Cl  UNL A   1      31.268  27.488  28.214  1.00  0.00    -0.084 Cl
ATOM     16  C   UNL A   1      31.030  25.189  26.838  1.00  0.00     0.032 A 
ATOM     17  C   UNL A   1      31.268  23.032  25.648  1.00  0.00     0.025 C 
ATOM     18  C   UNL A   1      32.252  23.352  23.457  1.00  0.00     0.314 C 
BRANCH   9  19
ATOM     19  C   UNL A   1      29.919  27.291  23.298  1.00  0.00    -0.015 A 
ATOM     20  C   UNL A   1      28.696  29.604  22.214  1.00  0.00     0.082 A 
ATOM     21  C   UNL A   1      30.034  29.332  21.935  1.00  0.00     0.022 A 
ATOM     22  C   UNL A   1      27.931  28.684  22.933  1.00  0.00     0.022 A 
ATOM     23  C   UNL A   1      30.630  28.171  22.451  1.00  0.00     0.010 A 
ATOM     24  C   UNL A   1      28.538  27.528  23.456  1.00  0.00     0.010 A 
BRANCH  20  25
ATOM     25  S   UNL A   1      28.006  31.174  21.768  1.00  0.00     0.238 S 
ATOM     26  O   UNL A   1      27.126  31.632  22.823  1.00  0.00    -0.207 OA
ATOM     27  O   UNL A   1      27.590  31.129  20.388  1.00  0.00    -0.207 OA
BRANCH  25  28
ATOM     28  N   UNL A   1      29.328  32.205  21.824  1.00  0.00    -0.225 NA
ATOM     29  H   UNL A   1      29.336  32.793  20.991  1.00  0.00     0.137 HD
ATOM     30  H   UNL A   1      30.186  31.655  21.862  1.00  0.00     0.137 HD
ENDBRANCH  25  28
ENDBRANCH  20  25
ENDBRANCH   9  19
BRANCH  18  31
ATOM     31  C   UNL A   1      32.064  22.093  22.578  1.00  0.00     0.429 C 
ATOM     32  F   UNL A   1      32.616  20.990  23.129  1.00  0.00    -0.167 F 
ATOM     33  F   UNL A   1      30.752  21.837  22.365  1.00  0.00    -0.167 F 
ATOM     34  F   UNL A   1      32.627  22.232  21.348  1.00  0.00    -0.167 F 
ENDBRANCH  18  31
ENDBRANCH   5   8
ENDBRANCH   3   4
ENDBRANCH   2   3
ENDBRANCH   1   2
BRANCH   1  35
ATOM     35  C   UNL A   1      33.768  28.773  24.806  1.00  0.00     0.002 C 
BRANCH  35  36
ATOM     36  C   UNL A   1      34.357  28.714  26.216  1.00  0.00     0.021 C 
BRANCH  36  37
ATOM     37  C   UNL A   1      33.475  29.334  27.293  1.00  0.00     0.116 C 
BRANCH  37  38
ATOM     38  N   UNL A   1      33.657  30.774  27.393  1.00  0.00    -0.352 N 
ATOM     39  C   UNL A   1      34.700  31.472  27.950  1.00  0.00     0.251 C 
ATOM     40  H   UNL A   1      32.936  31.323  27.008  1.00  0.00     0.163 HD
ATOM     41  O   UNL A   1      34.617  32.685  28.112  1.00  0.00    -0.269 OA
BRANCH  39  42
ATOM     42  C   UNL A   1      35.913  30.741  28.374  1.00  0.00     0.039 A 
ATOM     43  C   UNL A   1      37.143  31.088  27.814  1.00  0.00     0.014 A 
ATOM     44  C   UNL A   1      35.834  29.734  29.342  1.00  0.00     0.014 A 
ATOM     45  C   UNL A   1      38.306  30.461  28.265  1.00  0.00     0.010 A 
ATOM     46  C   UNL A   1      37.001  29.171  29.847  1.00  0.00     0.010 A 
ATOM     47  C   UNL A   1      38.248  29.521  29.308  1.00  0.00    -0.014 A 
BRANCH  47  48
ATOM     48  C   UNL A   1      39.482  28.896  29.849  1.00  0.00     0.031 A 
ATOM     49  C   UNL A   1      40.146  29.467  31.074  1.00  0.00     0.074 A 
ATOM     50  C   UNL A   1      40.046  27.861  29.196  1.00  0.00     0.049 A 
ATOM     51  N   UNL A   1      41.248  29.087  31.666  1.00  0.00    -0.248 NA
ATOM     52  C   UNL A   1      39.501  30.633  31.702  1.00  0.00     0.031 C 
ATOM     53  C   UNL A   1      39.539  27.264  27.958  1.00  0.00     0.029 A 
ATOM     54  N   UNL A   1      41.182  27.141  29.469  1.00  0.00    -0.354 N 
ATOM     55  C   UNL A   1      41.447  29.982  32.711  1.00  0.00     0.074 A 
ATOM     56  C   UNL A   1      40.373  30.948  32.649  1.00  0.00     0.031 C 
ATOM     57  C   UNL A   1      40.355  26.265  27.585  1.00  0.00     0.029 A 
ATOM     58  C   UNL A   1      41.460  26.173  28.533  1.00  0.00     0.049 A 
ATOM     59  H   UNL A   1      41.745  27.302  30.262  1.00  0.00     0.167 HD
ATOM     60  C   UNL A   1      42.418  29.983  33.654  1.00  0.00     0.034 A 
ATOM     61  C   UNL A   1      42.496  25.315  28.441  1.00  0.00     0.034 A 
ATOM     62  C   UNL A   1      43.467  29.004  33.730  1.00  0.00     0.049 A 
ATOM     63  C   UNL A   1      43.553  25.327  29.511  1.00  0.00     0.074 A 
ATOM     64  C   UNL A   1      44.452  28.872  34.693  1.00  0.00     0.029 A 
ATOM     65  N   UNL A   1      43.679  27.997  32.801  1.00  0.00    -0.354 N 
ATOM     66  N   UNL A   1      43.640  26.088  30.577  1.00  0.00    -0.248 NA
ATOM     67  C   UNL A   1      44.636  24.341  29.388  1.00  0.00     0.031 C 
ATOM     68  C   UNL A   1      45.282  27.807  34.325  1.00  0.00     0.029 A 
ATOM     69  C   UNL A   1      44.787  27.248  33.159  1.00  0.00     0.049 A 
ATOM     70  H   UNL A   1      43.123  27.836  32.005  1.00  0.00     0.167 HD
ATOM     71  C   UNL A   1      44.762  25.645  31.270  1.00  0.00     0.074 A 
ATOM     72  C   UNL A   1      45.309  24.538  30.513  1.00  0.00     0.031 C 
ATOM     73  C   UNL A   1      45.295  26.119  32.422  1.00  0.00     0.034 A 
BRANCH  60  74
ATOM     74  C   UNL A   1      42.369  31.061  34.708  1.00  0.00     0.023 A 
ATOM     75  C   UNL A   1      41.666  30.833  35.909  1.00  0.00     0.012 A 
ATOM     76  C   UNL A   1      43.065  32.273  34.536  1.00  0.00     0.148 A 
ATOM     77  C   UNL A   1      41.622  31.809  36.904  1.00  0.00     0.002 A 
ATOM     78  C   UNL A   1      43.059  33.221  35.553  1.00  0.00     0.091 A 
ATOM     79  F   UNL A   1      43.713  32.480  33.380  1.00  0.00    -0.205 F 
ATOM     80  C   UNL A   1      42.327  32.997  36.730  1.00  0.00     0.022 A 
BRANCH  78  81
ATOM     81  S   UNL A   1      44.002  34.746  35.462  1.00  0.00     0.127 S 
ATOM     82  O   UNL A   1      43.362  35.421  34.333  1.00  0.00    -0.237 OA
ATOM     83  O   UNL A   1      43.731  35.351  36.766  1.00  0.00    -0.237 OA
ATOM     84  O   UNL A   1      45.387  34.353  35.248  1.00  0.00    -0.744 OA
ENDBRANCH  78  81
ENDBRANCH  60  74
BRANCH  61  85
ATOM     85  C   UNL A   1      42.559  24.337  27.318  1.00  0.00     0.023 A 
ATOM     86  C   UNL A   1      43.281  24.662  26.153  1.00  0.00     0.012 A 
ATOM     87  C   UNL A   1      41.920  23.085  27.402  1.00  0.00     0.148 A 
ATOM     88  C   UNL A   1      43.334  23.775  25.077  1.00  0.00     0.002 A 
ATOM     89  C   UNL A   1      42.025  22.182  26.350  1.00  0.00     0.091 A 
ATOM     90  F   UNL A   1      41.232  22.798  28.514  1.00  0.00    -0.205 F 
ATOM     91  C   UNL A   1      42.715  22.533  25.178  1.00  0.00     0.022 A 
BRANCH  89  92
ATOM     92  S   UNL A   1      41.369  20.513  26.444  1.00  0.00     0.127 S 
ATOM     93  O   UNL A   1      41.758  20.115  27.794  1.00  0.00    -0.237 OA
ATOM     94  O   UNL A   1      39.936  20.743  26.257  1.00  0.00    -0.237 OA
ATOM     95  O   UNL A   1      42.004  19.777  25.360  1.00  0.00    -0.744 OA
ENDBRANCH  89  92
ENDBRANCH  61  85
BRANCH  73  96
ATOM     96  C   UNL A   1      46.510  25.416  32.972  1.00  0.00     0.023 A 
ATOM     97  C   UNL A   1      47.801  25.871  32.640  1.00  0.00     0.012 A 
ATOM     98  C   UNL A   1      46.365  24.347  33.878  1.00  0.00     0.148 A 
ATOM     99  C   UNL A   1      48.930  25.246  33.171  1.00  0.00     0.002 A 
ATOM    100  C   UNL A   1      47.492  23.765  34.445  1.00  0.00     0.091 A 
ATOM    101  F   UNL A   1      45.128  23.919  34.168  1.00  0.00    -0.205 F 
ATOM    102  C   UNL A   1      48.776  24.204  34.082  1.00  0.00     0.022 A 
BRANCH 100 103
ATOM    103  S   UNL A   1      47.388  22.487  35.702  1.00  0.00     0.127 S 
ATOM    104  O   UNL A   1      46.564  21.479  35.034  1.00  0.00    -0.237 OA
ATOM    105  O   UNL A   1      48.791  22.110  35.875  1.00  0.00    -0.237 OA
ATOM    106  O   UNL A   1      46.781  23.114  36.867  1.00  0.00    -0.744 OA
ENDBRANCH 100 103
ENDBRANCH  73  96
ENDBRANCH  47  48
ENDBRANCH  39  42
ENDBRANCH  37  38
ENDBRANCH  36  37
ENDBRANCH  35  36
ENDBRANCH   1  35
TORSDOF 20
ENDMDL
MODEL 3
REMARK VINA RESULT:     -11.7      3.523      9.090
REMARK SMILES NS(=O)(=O)c1ccc(-c2cc(Cl)cc3c2O[C@H](C(F)(F)F)C(C(=O)NCCCCCCNC(=O)c2ccc(-c4c5nc(c(-c6cccc(S(=O)(=O)[O-])c6F)c6ccc([nH]6)c(-c6cccc(S(=O)(=O)[O-])c6F)c6nc(c(-c7cccc(S(=O)(=O)[O-])c7F)c7ccc4[nH]7)C=C6)C=C5)cc2)=C3)cc1
REMARK SMILES IDX 28 1 27 2 26 3 25 4 23 5 24 6 22 8 9 9 10 10 15 11 11 12
REMARK SMILES IDX 14 13 16 14 12 15 13 16 98 17 17 18 8 19 5 20 6 21 100 22
REMARK SMILES IDX 7 23 99 24 2 25 3 26 4 27 1 28 18 31 19 32 20 33 21 34 29 35
REMARK SMILES IDX 30 36 31 37 32 38 33 39 34 41 35 42 36 43 97 44 37 45 96 46
REMARK SMILES IDX 38 47 39 48 40 49 90 50 41 51 95 52 89 53 91 54 42 55 94 56
REMARK SMILES IDX 88 57 87 58 43 60 75 61 55 62 74 63 56 64 59 65 73 66 92 67
REMARK SMILES IDX 57 68 58 69 72 71 93 72 60 73 44 74 45 75 53 76 46 77 48 78
REMARK SMILES IDX 54 79 47 80 49 81 50 82 51 83 52 84 76 85 77 86 85 87 78 88
REMARK SMILES IDX 80 89 86 90 79 91 81 92 82 93 83 94 84 95 61 96 62 97 70 98
REMARK SMILES IDX 63 99 65 100 71 101 64 102 66 103 67 104 68 105 69 106
REMARK H PARENT 25 7 1 29 1 30 32 40 91 59 59 70
REMARK Flexibility Score: inf
ROOT
ATOM      1  C   UNL A   1      33.997  27.672  23.909  1.00  0.00     0.002 C 
ENDROOT
BRANCH   1   2
ATOM      2  C   UNL A   1      34.207  26.407  24.760  1.00  0.00     0.021 C 
BRANCH   2   3
ATOM      3  C   UNL A   1      34.565  25.147  23.959  1.00  0.00     0.116 C 
BRANCH   3   4
ATOM      4  N   UNL A   1      34.690  24.017  24.858  1.00  0.00    -0.352 N 
ATOM      5  C   UNL A   1      33.690  23.514  25.623  1.00  0.00     0.251 C 
ATOM      6  O   UNL A   1      33.869  23.319  26.819  1.00  0.00    -0.270 OA
ATOM      7  H   UNL A   1      35.571  23.582  24.920  1.00  0.00     0.163 HD
BRANCH   5   8
ATOM      8  C   UNL A   1      32.477  23.048  24.889  1.00  0.00     0.067 C 
ATOM      9  C   UNL A   1      30.628  26.617  24.331  1.00  0.00     0.026 A 
ATOM     10  C   UNL A   1      30.772  27.318  25.559  1.00  0.00     0.033 A 
ATOM     11  C   UNL A   1      30.937  25.245  24.362  1.00  0.00     0.135 A 
ATOM     12  C   UNL A   1      30.990  26.670  26.771  1.00  0.00     0.042 A 
ATOM     13  C   UNL A   1      31.023  24.592  25.617  1.00  0.00     0.019 A 
ATOM     14  O   UNL A   1      31.238  24.496  23.229  1.00  0.00    -0.475 OA
ATOM     15  Cl  UNL A   1      31.169  27.589  28.211  1.00  0.00    -0.084 Cl
ATOM     16  C   UNL A   1      31.026  25.292  26.819  1.00  0.00     0.032 A 
ATOM     17  C   UNL A   1      31.351  23.151  25.621  1.00  0.00     0.025 C 
ATOM     18  C   UNL A   1      32.358  23.516  23.448  1.00  0.00     0.314 C 
BRANCH   9  19
ATOM     19  C   UNL A   1      29.902  27.379  23.274  1.00  0.00    -0.015 A 
ATOM     20  C   UNL A   1      28.666  29.673  22.165  1.00  0.00     0.082 A 
ATOM     21  C   UNL A   1      30.004  29.401  21.881  1.00  0.00     0.022 A 
ATOM     22  C   UNL A   1      27.908  28.761  22.901  1.00  0.00     0.022 A 
ATOM     23  C   UNL A   1      30.605  28.249  22.410  1.00  0.00     0.010 A 
ATOM     24  C   UNL A   1      28.521  27.614  23.437  1.00  0.00     0.010 A 
BRANCH  20  25
ATOM     25  S   UNL A   1      27.969  31.234  21.700  1.00  0.00     0.238 S 
ATOM     26  O   UNL A   1      27.065  31.687  22.737  1.00  0.00    -0.207 OA
ATOM     27  O   UNL A   1      27.580  31.181  20.313  1.00  0.00    -0.207 OA
BRANCH  25  28
ATOM     28  N   UNL A   1      29.280  32.279  21.779  1.00  0.00    -0.225 NA
ATOM     29  H   UNL A   1      30.028  31.845  22.318  1.00  0.00     0.137 HD
ATOM     30  H   UNL A   1      28.995  33.148  22.230  1.00  0.00     0.137 HD
ENDBRANCH  25  28
ENDBRANCH  20  25
ENDBRANCH   9  19
BRANCH  18  31
ATOM     31  C   UNL A   1      32.223  22.256  22.559  1.00  0.00     0.429 C 
ATOM     32  F   UNL A   1      32.816  21.172  23.105  1.00  0.00    -0.167 F 
ATOM     33  F   UNL A   1      30.923  21.950  22.338  1.00  0.00    -0.167 F 
ATOM     34  F   UNL A   1      32.785  22.427  21.332  1.00  0.00    -0.167 F 
ENDBRANCH  18  31
ENDBRANCH   5   8
ENDBRANCH   3   4
ENDBRANCH   2   3
ENDBRANCH   1   2
BRANCH   1  35
ATOM     35  C   UNL A   1      33.567  28.910  24.698  1.00  0.00     0.002 C 
BRANCH  35  36
ATOM     36  C   UNL A   1      34.140  28.986  26.113  1.00  0.00     0.021 C 
BRANCH  36  37
ATOM     37  C   UNL A   1      33.197  29.596  27.142  1.00  0.00     0.116 C 
BRANCH  37  38
ATOM     38  N   UNL A   1      33.276  31.049  27.170  1.00  0.00    -0.352 N 
ATOM     39  C   UNL A   1      34.243  31.846  27.731  1.00  0.00     0.251 C 
ATOM     40  H   UNL A   1      32.538  31.525  26.725  1.00  0.00     0.163 HD
ATOM     41  O   UNL A   1      34.072  33.057  27.822  1.00  0.00    -0.269 OA
BRANCH  39  42
ATOM     42  C   UNL A   1      35.482  31.225  28.247  1.00  0.00     0.039 A 
ATOM     43  C   UNL A   1      36.685  31.924  28.140  1.00  0.00     0.014 A 
ATOM     44  C   UNL A   1      35.446  29.966  28.856  1.00  0.00     0.014 A 
ATOM     45  C   UNL A   1      37.846  31.382  28.695  1.00  0.00     0.010 A 
ATOM     46  C   UNL A   1      36.585  29.469  29.479  1.00  0.00     0.010 A 
ATOM     47  C   UNL A   1      37.799  30.167  29.398  1.00  0.00    -0.014 A 
BRANCH  47  48
ATOM     48  C   UNL A   1      39.010  29.611  30.055  1.00  0.00     0.031 A 
ATOM     49  C   UNL A   1      39.455  30.139  31.393  1.00  0.00     0.074 A 
ATOM     50  C   UNL A   1      39.750  28.684  29.415  1.00  0.00     0.049 A 
ATOM     51  N   UNL A   1      40.505  29.812  32.099  1.00  0.00    -0.248 NA
ATOM     52  C   UNL A   1      38.625  31.190  32.006  1.00  0.00     0.031 C 
ATOM     53  C   UNL A   1      39.464  28.146  28.083  1.00  0.00     0.029 A 
ATOM     54  N   UNL A   1      40.907  28.048  29.788  1.00  0.00    -0.354 N 
ATOM     55  C   UNL A   1      40.482  30.635  33.219  1.00  0.00     0.074 A 
ATOM     56  C   UNL A   1      39.336  31.505  33.080  1.00  0.00     0.031 C 
ATOM     57  C   UNL A   1      40.413  27.255  27.755  1.00  0.00     0.029 A 
ATOM     58  C   UNL A   1      41.394  27.185  28.833  1.00  0.00     0.049 A 
ATOM     59  H   UNL A   1      41.347  28.194  30.657  1.00  0.00     0.167 HD
ATOM     60  C   UNL A   1      41.321  30.646  34.281  1.00  0.00     0.034 A 
ATOM     61  C   UNL A   1      42.511  26.431  28.823  1.00  0.00     0.034 A 
ATOM     62  C   UNL A   1      42.443  29.760  34.430  1.00  0.00     0.049 A 
ATOM     63  C   UNL A   1      43.418  26.451  30.023  1.00  0.00     0.074 A 
ATOM     64  C   UNL A   1      43.307  29.639  35.505  1.00  0.00     0.029 A 
ATOM     65  N   UNL A   1      42.867  28.852  33.473  1.00  0.00    -0.354 N 
ATOM     66  N   UNL A   1      43.296  27.129  31.139  1.00  0.00    -0.248 NA
ATOM     67  C   UNL A   1      44.598  25.576  29.979  1.00  0.00     0.031 C 
ATOM     68  C   UNL A   1      44.276  28.684  35.180  1.00  0.00     0.029 A 
ATOM     69  C   UNL A   1      43.989  28.178  33.924  1.00  0.00     0.049 A 
ATOM     70  H   UNL A   1      42.434  28.707  32.600  1.00  0.00     0.167 HD
ATOM     71  C   UNL A   1      44.358  26.733  31.944  1.00  0.00     0.074 A 
ATOM     72  C   UNL A   1      45.102  25.742  31.195  1.00  0.00     0.031 C 
ATOM     73  C   UNL A   1      44.693  27.159  33.187  1.00  0.00     0.034 A 
BRANCH  60  74
ATOM     74  C   UNL A   1      41.035  31.629  35.390  1.00  0.00     0.023 A 
ATOM     75  C   UNL A   1      41.875  32.749  35.566  1.00  0.00     0.012 A 
ATOM     76  C   UNL A   1      39.907  31.476  36.218  1.00  0.00     0.148 A 
ATOM     77  C   UNL A   1      41.620  33.678  36.573  1.00  0.00     0.002 A 
ATOM     78  C   UNL A   1      39.630  32.433  37.187  1.00  0.00     0.091 A 
ATOM     79  F   UNL A   1      39.131  30.395  36.049  1.00  0.00    -0.205 F 
ATOM     80  C   UNL A   1      40.492  33.525  37.376  1.00  0.00     0.022 A 
BRANCH  78  81
ATOM     81  S   UNL A   1      38.160  32.373  38.217  1.00  0.00     0.127 S 
ATOM     82  O   UNL A   1      37.430  33.554  37.755  1.00  0.00    -0.237 OA
ATOM     83  O   UNL A   1      37.564  31.097  37.824  1.00  0.00    -0.237 OA
ATOM     84  O   UNL A   1      38.628  32.430  39.594  1.00  0.00    -0.744 OA
ENDBRANCH  78  81
ENDBRANCH  60  74
BRANCH  61  85
ATOM     85  C   UNL A   1      42.811  25.555  27.655  1.00  0.00     0.023 A 
ATOM     86  C   UNL A   1      43.681  26.013  26.647  1.00  0.00     0.012 A 
ATOM     87  C   UNL A   1      42.250  24.267  27.545  1.00  0.00     0.148 A 
ATOM     88  C   UNL A   1      43.957  25.223  25.530  1.00  0.00     0.002 A 
ATOM     89  C   UNL A   1      42.574  23.462  26.459  1.00  0.00     0.091 A 
ATOM     90  F   UNL A   1      41.419  23.853  28.510  1.00  0.00    -0.205 F 
ATOM     91  C   UNL A   1      43.412  23.945  25.441  1.00  0.00     0.022 A 
BRANCH  89  92
ATOM     92  S   UNL A   1      42.023  21.759  26.324  1.00  0.00     0.127 S 
ATOM     93  O   UNL A   1      42.327  21.240  27.655  1.00  0.00    -0.237 OA
ATOM     94  O   UNL A   1      40.598  21.926  26.039  1.00  0.00    -0.237 OA
ATOM     95  O   UNL A   1      42.790  21.180  25.230  1.00  0.00    -0.744 OA
ENDBRANCH  89  92
ENDBRANCH  61  85
BRANCH  73  96
ATOM     96  C   UNL A   1      45.891  26.524  33.845  1.00  0.00     0.023 A 
ATOM     97  C   UNL A   1      47.163  27.117  33.722  1.00  0.00     0.012 A 
ATOM     98  C   UNL A   1      45.738  25.375  34.647  1.00  0.00     0.148 A 
ATOM     99  C   UNL A   1      48.271  26.553  34.356  1.00  0.00     0.002 A 
ATOM    100  C   UNL A   1      46.835  24.851  35.319  1.00  0.00     0.091 A 
ATOM    101  F   UNL A   1      44.523  24.817  34.737  1.00  0.00    -0.205 F 
ATOM    102  C   UNL A   1      48.105  25.430  35.163  1.00  0.00     0.022 A 
BRANCH 100 103
ATOM    103  S   UNL A   1      46.699  23.470  36.459  1.00  0.00     0.127 S 
ATOM    104  O   UNL A   1      45.702  23.966  37.408  1.00  0.00    -0.237 OA
ATOM    105  O   UNL A   1      46.228  22.395  35.586  1.00  0.00    -0.237 OA
ATOM    106  O   UNL A   1      48.032  23.266  37.007  1.00  0.00    -0.744 OA
ENDBRANCH 100 103
ENDBRANCH  73  96
ENDBRANCH  47  48
ENDBRANCH  39  42
ENDBRANCH  37  38
ENDBRANCH  36  37
ENDBRANCH  35  36
ENDBRANCH   1  35
TORSDOF 20
ENDMDL
