MODEL 1
REMARK VINA RESULT:     -11.7      0.000      0.000
REMARK SMILES Cc1cccc(-c2ncc(C[NH+]3CCC4(CC3)NC(=O)C[C@H]4C(=O)NCCCCCCNC(=O)c3ccc(-c4c5nc(c(-c6cccc(S(=O)(=O)[O-])c6F)c6ccc([nH]6)c(-c6cccc(S(=O)(=O)[O-])c6F)c6nc(c(-c7cccc(S(=O)(=O)[O-])c7F)c7ccc4[nH]7)C=C6)C=C5)cc3)cn2)c1
REMARK SMILES IDX 28 1 27 2 26 3 25 4 23 5 24 6 22 8 12 9 13 10 17 11 14 13
REMARK SMILES IDX 16 14 15 15 18 16 19 17 21 19 20 20 11 21 10 22 7 23 8 24
REMARK SMILES IDX 99 25 9 26 98 27 6 28 1 29 2 30 3 31 100 32 4 33 5 34 29 35
REMARK SMILES IDX 30 36 31 37 32 38 33 39 34 41 35 42 36 43 97 44 37 45 96 46
REMARK SMILES IDX 38 47 39 48 40 49 90 50 41 51 95 52 89 53 91 54 42 55 94 56
REMARK SMILES IDX 88 57 87 58 43 60 75 61 55 62 74 63 56 64 59 65 73 66 92 67
REMARK SMILES IDX 57 68 58 69 72 71 93 72 60 73 44 74 45 75 53 76 46 77 48 78
REMARK SMILES IDX 54 79 47 80 49 81 50 82 51 83 52 84 76 85 77 86 85 87 78 88
REMARK SMILES IDX 80 89 86 90 79 91 81 92 82 93 83 94 84 95 61 96 62 97 70 98
REMARK SMILES IDX 63 99 65 100 71 101 64 102 66 103 67 104 68 105 69 106
REMARK H PARENT 25 7 12 12 18 18 32 40 91 59 59 70
REMARK Flexibility Score: inf
ROOT
ATOM      1  C   UNL A   1      42.846  28.007  28.687  1.00  0.00     0.002 C 
ENDROOT
BRANCH   1   2
ATOM      2  C   UNL A   1      43.127  26.896  29.696  1.00  0.00     0.021 C 
BRANCH   2   3
ATOM      3  C   UNL A   1      43.757  25.614  29.120  1.00  0.00     0.116 C 
BRANCH   3   4
ATOM      4  N   UNL A   1      44.413  25.774  27.824  1.00  0.00    -0.356 N 
ATOM      5  C   UNL A   1      44.541  24.970  26.726  1.00  0.00     0.226 C 
ATOM      6  O   UNL A   1      45.213  25.423  25.790  1.00  0.00    -0.275 OA
ATOM      7  H   UNL A   1      44.857  26.648  27.719  1.00  0.00     0.163 HD
BRANCH   5   8
ATOM      8  C   UNL A   1      43.921  23.563  26.572  1.00  0.00     0.114 C 
ATOM      9  N   UNL A   1      39.826  24.081  27.010  1.00  0.00    -0.331 N 
ATOM     10  C   UNL A   1      40.404  22.767  27.262  1.00  0.00     0.264 C 
ATOM     11  C   UNL A   1      40.866  25.082  26.922  1.00  0.00     0.264 C 
ATOM     12  H   UNL A   1      39.263  24.246  27.845  1.00  0.00     0.348 HD
ATOM     13  C   UNL A   1      41.578  22.331  26.373  1.00  0.00     0.091 C 
ATOM     14  C   UNL A   1      41.842  24.789  25.801  1.00  0.00     0.091 C 
ATOM     15  C   UNL A   1      42.549  23.436  25.864  1.00  0.00     0.063 C 
ATOM     16  N   UNL A   1      42.958  22.953  24.548  1.00  0.00    -0.349 N 
ATOM     17  C   UNL A   1      44.240  22.451  24.482  1.00  0.00     0.221 C 
ATOM     18  H   UNL A   1      42.363  22.985  23.765  1.00  0.00     0.164 HD
ATOM     19  C   UNL A   1      44.897  22.658  25.815  1.00  0.00     0.116 C 
ATOM     20  O   UNL A   1      44.747  21.936  23.512  1.00  0.00    -0.275 OA
BRANCH   9  21
ATOM     21  C   UNL A   1      38.710  24.233  26.049  1.00  0.00     0.302 C 
BRANCH  21  22
ATOM     22  C   UNL A   1      37.617  23.201  26.084  1.00  0.00     0.043 A 
ATOM     23  C   UNL A   1      35.633  21.414  25.536  1.00  0.00     0.159 A 
ATOM     24  N   UNL A   1      36.910  20.983  25.484  1.00  0.00    -0.236 NA
ATOM     25  N   UNL A   1      35.266  22.655  25.911  1.00  0.00    -0.236 NA
ATOM     26  C   UNL A   1      37.865  21.873  25.818  1.00  0.00     0.124 A 
ATOM     27  C   UNL A   1      36.269  23.517  26.196  1.00  0.00     0.124 A 
BRANCH  23  28
ATOM     28  C   UNL A   1      34.602  20.512  25.007  1.00  0.00     0.019 A 
ATOM     29  C   UNL A   1      34.296  16.906  23.724  1.00  0.00     0.044 C 
ATOM     30  C   UNL A   1      33.938  18.305  24.136  1.00  0.00    -0.050 A 
ATOM     31  C   UNL A   1      32.607  18.723  24.119  1.00  0.00     0.003 A 
ATOM     32  C   UNL A   1      34.919  19.203  24.583  1.00  0.00     0.015 A 
ATOM     33  C   UNL A   1      32.271  20.018  24.515  1.00  0.00     0.001 A 
ATOM     34  C   UNL A   1      33.261  20.908  24.943  1.00  0.00     0.012 A 
ENDBRANCH  23  28
ENDBRANCH  21  22
ENDBRANCH   9  21
ENDBRANCH   5   8
ENDBRANCH   3   4
ENDBRANCH   2   3
ENDBRANCH   1   2
BRANCH   1  35
ATOM     35  C   UNL A   1      42.629  29.390  29.300  1.00  0.00     0.002 C 
BRANCH  35  36
ATOM     36  C   UNL A   1      41.213  29.950  29.166  1.00  0.00     0.021 C 
BRANCH  36  37
ATOM     37  C   UNL A   1      40.127  28.927  29.414  1.00  0.00     0.116 C 
BRANCH  37  38
ATOM     38  N   UNL A   1      38.938  29.221  28.646  1.00  0.00    -0.352 N 
ATOM     39  C   UNL A   1      37.770  29.832  29.046  1.00  0.00     0.251 C 
ATOM     40  H   UNL A   1      38.968  28.945  27.701  1.00  0.00     0.163 HD
ATOM     41  O   UNL A   1      36.744  29.580  28.422  1.00  0.00    -0.269 OA
BRANCH  39  42
ATOM     42  C   UNL A   1      37.823  30.939  30.038  1.00  0.00     0.039 A 
ATOM     43  C   UNL A   1      37.972  32.226  29.501  1.00  0.00     0.014 A 
ATOM     44  C   UNL A   1      38.167  30.698  31.361  1.00  0.00     0.014 A 
ATOM     45  C   UNL A   1      38.745  33.159  30.174  1.00  0.00     0.010 A 
ATOM     46  C   UNL A   1      39.054  31.546  31.960  1.00  0.00     0.010 A 
ATOM     47  C   UNL A   1      39.383  32.747  31.330  1.00  0.00    -0.014 A 
BRANCH  47  48
ATOM     48  C   UNL A   1      40.283  33.546  32.119  1.00  0.00     0.031 A 
ATOM     49  C   UNL A   1      39.690  34.229  33.278  1.00  0.00     0.074 A 
ATOM     50  C   UNL A   1      41.604  33.326  31.968  1.00  0.00     0.049 A 
ATOM     51  N   UNL A   1      40.340  35.006  34.059  1.00  0.00    -0.248 NA
ATOM     52  C   UNL A   1      38.281  34.092  33.641  1.00  0.00     0.031 C 
ATOM     53  C   UNL A   1      42.660  33.487  32.957  1.00  0.00     0.029 A 
ATOM     54  N   UNL A   1      42.298  33.008  30.815  1.00  0.00    -0.354 N 
ATOM     55  C   UNL A   1      39.551  35.233  35.166  1.00  0.00     0.074 A 
ATOM     56  C   UNL A   1      38.248  34.740  34.808  1.00  0.00     0.031 C 
ATOM     57  C   UNL A   1      43.851  33.508  32.331  1.00  0.00     0.029 A 
ATOM     58  C   UNL A   1      43.582  33.549  30.903  1.00  0.00     0.049 A 
ATOM     59  H   UNL A   1      41.946  32.488  30.057  1.00  0.00     0.167 HD
ATOM     60  C   UNL A   1      40.168  35.683  36.290  1.00  0.00     0.034 A 
ATOM     61  C   UNL A   1      43.942  34.592  30.086  1.00  0.00     0.034 A 
ATOM     62  C   UNL A   1      41.578  35.970  35.990  1.00  0.00     0.049 A 
ATOM     63  C   UNL A   1      44.160  35.894  30.843  1.00  0.00     0.074 A 
ATOM     64  C   UNL A   1      42.742  35.234  36.144  1.00  0.00     0.029 A 
ATOM     65  N   UNL A   1      41.876  37.008  35.117  1.00  0.00    -0.354 N 
ATOM     66  N   UNL A   1      43.756  36.103  32.067  1.00  0.00    -0.248 NA
ATOM     67  C   UNL A   1      44.893  37.040  30.312  1.00  0.00     0.031 C 
ATOM     68  C   UNL A   1      43.724  35.793  35.282  1.00  0.00     0.029 A 
ATOM     69  C   UNL A   1      43.168  36.886  34.634  1.00  0.00     0.049 A 
ATOM     70  H   UNL A   1      41.255  37.731  34.874  1.00  0.00     0.167 HD
ATOM     71  C   UNL A   1      44.088  37.367  32.475  1.00  0.00     0.074 A 
ATOM     72  C   UNL A   1      44.841  37.898  31.350  1.00  0.00     0.031 C 
ATOM     73  C   UNL A   1      43.691  37.867  33.688  1.00  0.00     0.034 A 
BRANCH  60  74
ATOM     74  C   UNL A   1      39.634  35.667  37.710  1.00  0.00     0.023 A 
ATOM     75  C   UNL A   1      39.735  36.885  38.423  1.00  0.00     0.012 A 
ATOM     76  C   UNL A   1      39.099  34.575  38.433  1.00  0.00     0.148 A 
ATOM     77  C   UNL A   1      39.388  37.008  39.771  1.00  0.00     0.002 A 
ATOM     78  C   UNL A   1      38.745  34.695  39.783  1.00  0.00     0.091 A 
ATOM     79  F   UNL A   1      38.913  33.399  37.837  1.00  0.00    -0.205 F 
ATOM     80  C   UNL A   1      38.898  35.910  40.456  1.00  0.00     0.022 A 
BRANCH  78  81
ATOM     81  S   UNL A   1      38.092  33.321  40.754  1.00  0.00     0.127 S 
ATOM     82  O   UNL A   1      39.169  32.336  40.648  1.00  0.00    -0.237 OA
ATOM     83  O   UNL A   1      37.944  33.919  42.080  1.00  0.00    -0.237 OA
ATOM     84  O   UNL A   1      36.842  32.920  40.119  1.00  0.00    -0.744 OA
ENDBRANCH  78  81
ENDBRANCH  60  74
BRANCH  61  85
ATOM     85  C   UNL A   1      43.365  34.436  28.710  1.00  0.00     0.023 A 
ATOM     86  C   UNL A   1      42.395  35.405  28.345  1.00  0.00     0.012 A 
ATOM     87  C   UNL A   1      44.057  33.756  27.690  1.00  0.00     0.148 A 
ATOM     88  C   UNL A   1      42.285  35.846  27.026  1.00  0.00     0.002 A 
ATOM     89  C   UNL A   1      43.914  34.180  26.367  1.00  0.00     0.091 A 
ATOM     90  F   UNL A   1      44.888  32.762  28.029  1.00  0.00    -0.205 F 
ATOM     91  C   UNL A   1      43.083  35.267  26.046  1.00  0.00     0.022 A 
BRANCH  89  92
ATOM     92  S   UNL A   1      44.846  33.437  25.019  1.00  0.00     0.127 S 
ATOM     93  O   UNL A   1      45.317  32.201  25.638  1.00  0.00    -0.237 OA
ATOM     94  O   UNL A   1      43.827  33.249  23.988  1.00  0.00    -0.237 OA
ATOM     95  O   UNL A   1      45.872  34.412  24.677  1.00  0.00    -0.744 OA
ENDBRANCH  89  92
ENDBRANCH  61  85
BRANCH  73  96
ATOM     96  C   UNL A   1      43.749  39.323  34.127  1.00  0.00     0.023 A 
ATOM     97  C   UNL A   1      43.015  40.335  33.485  1.00  0.00     0.012 A 
ATOM     98  C   UNL A   1      44.426  39.699  35.321  1.00  0.00     0.148 A 
ATOM     99  C   UNL A   1      42.991  41.651  33.961  1.00  0.00     0.002 A 
ATOM    100  C   UNL A   1      44.289  40.972  35.863  1.00  0.00     0.091 A 
ATOM    101  F   UNL A   1      45.240  38.830  35.939  1.00  0.00    -0.205 F 
ATOM    102  C   UNL A   1      43.602  41.964  35.167  1.00  0.00     0.022 A 
BRANCH 100 103
ATOM    103  S   UNL A   1      44.833  41.334  37.540  1.00  0.00     0.127 S 
ATOM    104  O   UNL A   1      44.376  42.710  37.716  1.00  0.00    -0.237 OA
ATOM    105  O   UNL A   1      44.097  40.342  38.326  1.00  0.00    -0.237 OA
ATOM    106  O   UNL A   1      46.275  41.131  37.526  1.00  0.00    -0.744 OA
ENDBRANCH 100 103
ENDBRANCH  73  96
ENDBRANCH  47  48
ENDBRANCH  39  42
ENDBRANCH  37  38
ENDBRANCH  36  37
ENDBRANCH  35  36
ENDBRANCH   1  35
TORSDOF 19
ENDMDL
MODEL 2
REMARK VINA RESULT:     -11.5      4.672     10.902
REMARK SMILES Cc1cccc(-c2ncc(C[NH+]3CCC4(CC3)NC(=O)C[C@H]4C(=O)NCCCCCCNC(=O)c3ccc(-c4c5nc(c(-c6cccc(S(=O)(=O)[O-])c6F)c6ccc([nH]6)c(-c6cccc(S(=O)(=O)[O-])c6F)c6nc(c(-c7cccc(S(=O)(=O)[O-])c7F)c7ccc4[nH]7)C=C6)C=C5)cc3)cn2)c1
REMARK SMILES IDX 28 1 27 2 26 3 25 4 23 5 24 6 22 8 12 9 13 10 17 11 14 13
REMARK SMILES IDX 16 14 15 15 18 16 19 17 21 19 20 20 11 21 10 22 7 23 8 24
REMARK SMILES IDX 99 25 9 26 98 27 6 28 1 29 2 30 3 31 100 32 4 33 5 34 29 35
REMARK SMILES IDX 30 36 31 37 32 38 33 39 34 41 35 42 36 43 97 44 37 45 96 46
REMARK SMILES IDX 38 47 39 48 40 49 90 50 41 51 95 52 89 53 91 54 42 55 94 56
REMARK SMILES IDX 88 57 87 58 43 60 75 61 55 62 74 63 56 64 59 65 73 66 92 67
REMARK SMILES IDX 57 68 58 69 72 71 93 72 60 73 44 74 45 75 53 76 46 77 48 78
REMARK SMILES IDX 54 79 47 80 49 81 50 82 51 83 52 84 76 85 77 86 85 87 78 88
REMARK SMILES IDX 80 89 86 90 79 91 81 92 82 93 83 94 84 95 61 96 62 97 70 98
REMARK SMILES IDX 63 99 65 100 71 101 64 102 66 103 67 104 68 105 69 106
REMARK H PARENT 25 7 12 12 18 18 32 40 91 59 59 70
REMARK Flexibility Score: inf
ROOT
ATOM      1  C   UNL A   1      36.042  29.496  27.306  1.00  0.00     0.002 C 
ENDROOT
BRANCH   1   2
ATOM      2  C   UNL A   1      34.732  29.389  26.531  1.00  0.00     0.021 C 
BRANCH   2   3
ATOM      3  C   UNL A   1      33.452  29.332  27.387  1.00  0.00     0.116 C 
BRANCH   3   4
ATOM      4  N   UNL A   1      32.273  29.945  26.780  1.00  0.00    -0.356 N 
ATOM      5  C   UNL A   1      31.676  29.831  25.556  1.00  0.00     0.226 C 
ATOM      6  O   UNL A   1      30.682  30.544  25.361  1.00  0.00    -0.275 OA
ATOM      7  H   UNL A   1      31.809  30.574  27.380  1.00  0.00     0.163 HD
BRANCH   5   8
ATOM      8  C   UNL A   1      32.142  28.895  24.417  1.00  0.00     0.114 C 
ATOM      9  N   UNL A   1      32.814  25.205  26.197  1.00  0.00    -0.331 N 
ATOM     10  C   UNL A   1      33.480  25.517  24.938  1.00  0.00     0.264 C 
ATOM     11  C   UNL A   1      32.233  26.399  26.769  1.00  0.00     0.264 C 
ATOM     12  H   UNL A   1      33.581  24.882  26.787  1.00  0.00     0.348 HD
ATOM     13  C   UNL A   1      32.697  26.348  23.912  1.00  0.00     0.091 C 
ATOM     14  C   UNL A   1      31.205  27.027  25.849  1.00  0.00     0.091 C 
ATOM     15  C   UNL A   1      31.698  27.411  24.456  1.00  0.00     0.063 C 
ATOM     16  N   UNL A   1      30.628  27.416  23.462  1.00  0.00    -0.349 N 
ATOM     17  C   UNL A   1      30.612  28.510  22.624  1.00  0.00     0.221 C 
ATOM     18  H   UNL A   1      29.966  26.691  23.395  1.00  0.00     0.164 HD
ATOM     19  C   UNL A   1      31.681  29.463  23.072  1.00  0.00     0.116 C 
ATOM     20  O   UNL A   1      29.861  28.673  21.689  1.00  0.00    -0.275 OA
BRANCH   9  21
ATOM     21  C   UNL A   1      32.002  23.974  26.326  1.00  0.00     0.302 C 
BRANCH  21  22
ATOM     22  C   UNL A   1      32.568  22.704  25.752  1.00  0.00     0.043 A 
ATOM     23  C   UNL A   1      33.201  20.134  25.104  1.00  0.00     0.159 A 
ATOM     24  N   UNL A   1      32.170  20.717  24.458  1.00  0.00    -0.236 NA
ATOM     25  N   UNL A   1      33.988  20.761  26.000  1.00  0.00    -0.236 NA
ATOM     26  C   UNL A   1      31.920  22.007  24.757  1.00  0.00     0.124 A 
ATOM     27  C   UNL A   1      33.664  22.043  26.290  1.00  0.00     0.124 A 
BRANCH  23  28
ATOM     28  C   UNL A   1      33.371  18.687  24.918  1.00  0.00     0.019 A 
ATOM     29  C   UNL A   1      31.856  15.406  26.214  1.00  0.00     0.044 C 
ATOM     30  C   UNL A   1      32.708  16.374  25.443  1.00  0.00    -0.050 A 
ATOM     31  C   UNL A   1      33.592  15.909  24.469  1.00  0.00     0.003 A 
ATOM     32  C   UNL A   1      32.605  17.757  25.654  1.00  0.00     0.015 A 
ATOM     33  C   UNL A   1      34.373  16.808  23.742  1.00  0.00     0.001 A 
ATOM     34  C   UNL A   1      34.273  18.183  23.973  1.00  0.00     0.012 A 
ENDBRANCH  23  28
ENDBRANCH  21  22
ENDBRANCH   9  21
ENDBRANCH   5   8
ENDBRANCH   3   4
ENDBRANCH   2   3
ENDBRANCH   1   2
BRANCH   1  35
ATOM     35  C   UNL A   1      36.234  30.809  28.065  1.00  0.00     0.002 C 
BRANCH  35  36
ATOM     36  C   UNL A   1      35.899  30.756  29.556  1.00  0.00     0.021 C 
BRANCH  36  37
ATOM     37  C   UNL A   1      34.899  31.804  29.994  1.00  0.00     0.116 C 
BRANCH  37  38
ATOM     38  N   UNL A   1      34.975  32.986  29.166  1.00  0.00    -0.352 N 
ATOM     39  C   UNL A   1      35.697  34.143  29.362  1.00  0.00     0.251 C 
ATOM     40  H   UNL A   1      34.433  32.960  28.344  1.00  0.00     0.163 HD
ATOM     41  O   UNL A   1      35.290  35.173  28.833  1.00  0.00    -0.269 OA
BRANCH  39  42
ATOM     42  C   UNL A   1      37.044  34.071  29.986  1.00  0.00     0.039 A 
ATOM     43  C   UNL A   1      38.125  34.056  29.093  1.00  0.00     0.014 A 
ATOM     44  C   UNL A   1      37.210  33.592  31.279  1.00  0.00     0.014 A 
ATOM     45  C   UNL A   1      39.240  33.286  29.385  1.00  0.00     0.010 A 
ATOM     46  C   UNL A   1      38.226  32.711  31.513  1.00  0.00     0.010 A 
ATOM     47  C   UNL A   1      39.204  32.520  30.536  1.00  0.00    -0.014 A 
BRANCH  47  48
ATOM     48  C   UNL A   1      40.229  31.604  30.964  1.00  0.00     0.031 A 
ATOM     49  C   UNL A   1      40.262  30.307  30.273  1.00  0.00     0.074 A 
ATOM     50  C   UNL A   1      41.262  32.112  31.666  1.00  0.00     0.049 A 
ATOM     51  N   UNL A   1      41.083  29.368  30.557  1.00  0.00    -0.248 NA
ATOM     52  C   UNL A   1      39.339  29.962  29.194  1.00  0.00     0.031 C 
ATOM     53  C   UNL A   1      42.638  31.640  31.706  1.00  0.00     0.029 A 
ATOM     54  N   UNL A   1      41.248  33.126  32.607  1.00  0.00    -0.354 N 
ATOM     55  C   UNL A   1      41.009  28.436  29.544  1.00  0.00     0.074 A 
ATOM     56  C   UNL A   1      39.839  28.792  28.787  1.00  0.00     0.031 C 
ATOM     57  C   UNL A   1      43.260  32.182  32.769  1.00  0.00     0.029 A 
ATOM     58  C   UNL A   1      42.246  32.872  33.551  1.00  0.00     0.049 A 
ATOM     59  H   UNL A   1      40.637  33.897  32.611  1.00  0.00     0.167 HD
ATOM     60  C   UNL A   1      42.051  27.573  29.413  1.00  0.00     0.034 A 
ATOM     61  C   UNL A   1      41.901  32.526  34.833  1.00  0.00     0.034 A 
ATOM     62  C   UNL A   1      42.983  27.761  30.535  1.00  0.00     0.049 A 
ATOM     63  C   UNL A   1      42.262  31.088  35.179  1.00  0.00     0.074 A 
ATOM     64  C   UNL A   1      44.148  28.497  30.676  1.00  0.00     0.029 A 
ATOM     65  N   UNL A   1      42.558  27.438  31.816  1.00  0.00    -0.354 N 
ATOM     66  N   UNL A   1      42.570  30.180  34.294  1.00  0.00    -0.248 NA
ATOM     67  C   UNL A   1      42.361  30.572  36.542  1.00  0.00     0.031 C 
ATOM     68  C   UNL A   1      44.372  28.688  32.067  1.00  0.00     0.029 A 
ATOM     69  C   UNL A   1      43.366  28.040  32.767  1.00  0.00     0.049 A 
ATOM     70  H   UNL A   1      41.787  26.861  32.022  1.00  0.00     0.167 HD
ATOM     71  C   UNL A   1      42.838  28.984  34.904  1.00  0.00     0.074 A 
ATOM     72  C   UNL A   1      42.736  29.297  36.321  1.00  0.00     0.031 C 
ATOM     73  C   UNL A   1      43.094  27.844  34.187  1.00  0.00     0.034 A 
BRANCH  60  74
ATOM     74  C   UNL A   1      42.402  26.718  28.210  1.00  0.00     0.023 A 
ATOM     75  C   UNL A   1      43.026  27.392  27.134  1.00  0.00     0.012 A 
ATOM     76  C   UNL A   1      42.132  25.345  28.001  1.00  0.00     0.148 A 
ATOM     77  C   UNL A   1      43.316  26.774  25.915  1.00  0.00     0.002 A 
ATOM     78  C   UNL A   1      42.426  24.720  26.782  1.00  0.00     0.091 A 
ATOM     79  F   UNL A   1      41.595  24.610  28.971  1.00  0.00    -0.205 F 
ATOM     80  C   UNL A   1      43.009  25.437  25.734  1.00  0.00     0.022 A 
BRANCH  78  81
ATOM     81  S   UNL A   1      42.068  22.981  26.459  1.00  0.00     0.127 S 
ATOM     82  O   UNL A   1      42.697  22.323  27.605  1.00  0.00    -0.237 OA
ATOM     83  O   UNL A   1      40.606  22.956  26.471  1.00  0.00    -0.237 OA
ATOM     84  O   UNL A   1      42.676  22.664  25.172  1.00  0.00    -0.744 OA
ENDBRANCH  78  81
ENDBRANCH  60  74
BRANCH  61  85
ATOM     85  C   UNL A   1      40.700  33.292  35.305  1.00  0.00     0.023 A 
ATOM     86  C   UNL A   1      39.453  32.639  35.120  1.00  0.00     0.012 A 
ATOM     87  C   UNL A   1      40.801  34.290  36.291  1.00  0.00     0.148 A 
ATOM     88  C   UNL A   1      38.415  32.810  36.036  1.00  0.00     0.002 A 
ATOM     89  C   UNL A   1      39.741  34.480  37.182  1.00  0.00     0.091 A 
ATOM     90  F   UNL A   1      41.941  34.986  36.389  1.00  0.00    -0.205 F 
ATOM     91  C   UNL A   1      38.580  33.693  37.096  1.00  0.00     0.022 A 
BRANCH  89  92
ATOM     92  S   UNL A   1      39.832  35.658  38.538  1.00  0.00     0.127 S 
ATOM     93  O   UNL A   1      41.134  35.336  39.116  1.00  0.00    -0.237 OA
ATOM     94  O   UNL A   1      39.776  36.947  37.851  1.00  0.00    -0.237 OA
ATOM     95  O   UNL A   1      38.675  35.374  39.375  1.00  0.00    -0.744 OA
ENDBRANCH  89  92
ENDBRANCH  61  85
BRANCH  73  96
ATOM     96  C   UNL A   1      43.121  26.422  34.731  1.00  0.00     0.023 A 
ATOM     97  C   UNL A   1      41.950  25.700  35.016  1.00  0.00     0.012 A 
ATOM     98  C   UNL A   1      44.344  25.698  34.820  1.00  0.00     0.148 A 
ATOM     99  C   UNL A   1      41.983  24.358  35.414  1.00  0.00     0.002 A 
ATOM    100  C   UNL A   1      44.361  24.333  35.083  1.00  0.00     0.091 A 
ATOM    101  F   UNL A   1      45.517  26.332  34.675  1.00  0.00    -0.205 F 
ATOM    102  C   UNL A   1      43.185  23.665  35.418  1.00  0.00     0.022 A 
BRANCH 100 103
ATOM    103  S   UNL A   1      45.851  23.355  34.833  1.00  0.00     0.127 S 
ATOM    104  O   UNL A   1      46.286  23.801  33.511  1.00  0.00    -0.237 OA
ATOM    105  O   UNL A   1      46.703  23.800  35.937  1.00  0.00    -0.237 OA
ATOM    106  O   UNL A   1      45.421  21.968  34.935  1.00  0.00    -0.744 OA
ENDBRANCH 100 103
ENDBRANCH  73  96
ENDBRANCH  47  48
ENDBRANCH  39  42
ENDBRANCH  37  38
ENDBRANCH  36  37
ENDBRANCH  35  36
ENDBRANCH   1  35
TORSDOF 19
ENDMDL
MODEL 3
REMARK VINA RESULT:     -11.5      1.681      2.278
REMARK SMILES Cc1cccc(-c2ncc(C[NH+]3CCC4(CC3)NC(=O)C[C@H]4C(=O)NCCCCCCNC(=O)c3ccc(-c4c5nc(c(-c6cccc(S(=O)(=O)[O-])c6F)c6ccc([nH]6)c(-c6cccc(S(=O)(=O)[O-])c6F)c6nc(c(-c7cccc(S(=O)(=O)[O-])c7F)c7ccc4[nH]7)C=C6)C=C5)cc3)cn2)c1
REMARK SMILES IDX 28 1 27 2 26 3 25 4 23 5 24 6 22 8 12 9 13 10 17 11 14 13
REMARK SMILES IDX 16 14 15 15 18 16 19 17 21 19 20 20 11 21 10 22 7 23 8 24
REMARK SMILES IDX 99 25 9 26 98 27 6 28 1 29 2 30 3 31 100 32 4 33 5 34 29 35
REMARK SMILES IDX 30 36 31 37 32 38 33 39 34 41 35 42 36 43 97 44 37 45 96 46
REMARK SMILES IDX 38 47 39 48 40 49 90 50 41 51 95 52 89 53 91 54 42 55 94 56
REMARK SMILES IDX 88 57 87 58 43 60 75 61 55 62 74 63 56 64 59 65 73 66 92 67
REMARK SMILES IDX 57 68 58 69 72 71 93 72 60 73 44 74 45 75 53 76 46 77 48 78
REMARK SMILES IDX 54 79 47 80 49 81 50 82 51 83 52 84 76 85 77 86 85 87 78 88
REMARK SMILES IDX 80 89 86 90 79 91 81 92 82 93 83 94 84 95 61 96 62 97 70 98
REMARK SMILES IDX 63 99 65 100 71 101 64 102 66 103 67 104 68 105 69 106
REMARK H PARENT 25 7 12 12 18 18 32 40 91 59 59 70
REMARK Flexibility Score: inf
ROOT
ATOM      1  C   UNL A   1      42.012  27.994  28.462  1.00  0.00     0.002 C 
ENDROOT
BRANCH   1   2
ATOM      2  C   UNL A   1      42.994  27.009  29.090  1.00  0.00     0.021 C 
BRANCH   2   3
ATOM      3  C   UNL A   1      43.043  25.611  28.445  1.00  0.00     0.116 C 
BRANCH   3   4
ATOM      4  N   UNL A   1      43.688  25.555  27.135  1.00  0.00    -0.356 N 
ATOM      5  C   UNL A   1      44.194  24.538  26.377  1.00  0.00     0.226 C 
ATOM      6  O   UNL A   1      44.715  24.862  25.301  1.00  0.00    -0.275 OA
ATOM      7  H   UNL A   1      43.775  26.438  26.707  1.00  0.00     0.163 HD
BRANCH   5   8
ATOM      8  C   UNL A   1      44.167  23.039  26.757  1.00  0.00     0.114 C 
ATOM      9  N   UNL A   1      40.152  22.005  26.970  1.00  0.00    -0.331 N 
ATOM     10  C   UNL A   1      41.130  21.202  27.692  1.00  0.00     0.264 C 
ATOM     11  C   UNL A   1      40.751  23.241  26.516  1.00  0.00     0.264 C 
ATOM     12  H   UNL A   1      39.451  22.207  27.683  1.00  0.00     0.348 HD
ATOM     13  C   UNL A   1      42.499  20.992  27.029  1.00  0.00     0.091 C 
ATOM     14  C   UNL A   1      41.921  22.996  25.585  1.00  0.00     0.091 C 
ATOM     15  C   UNL A   1      43.058  22.145  26.146  1.00  0.00     0.063 C 
ATOM     16  N   UNL A   1      43.806  21.447  25.105  1.00  0.00    -0.349 N 
ATOM     17  C   UNL A   1      45.178  21.506  25.230  1.00  0.00     0.221 C 
ATOM     18  H   UNL A   1      43.364  20.971  24.366  1.00  0.00     0.164 HD
ATOM     19  C   UNL A   1      45.508  22.398  26.391  1.00  0.00     0.116 C 
ATOM     20  O   UNL A   1      45.977  20.937  24.522  1.00  0.00    -0.275 OA
BRANCH   9  21
ATOM     21  C   UNL A   1      39.214  21.364  26.021  1.00  0.00     0.302 C 
BRANCH  21  22
ATOM     22  C   UNL A   1      37.967  22.123  25.655  1.00  0.00     0.043 A 
ATOM     23  C   UNL A   1      35.572  23.421  25.590  1.00  0.00     0.159 A 
ATOM     24  N   UNL A   1      36.672  24.131  25.917  1.00  0.00    -0.236 NA
ATOM     25  N   UNL A   1      35.587  22.126  25.221  1.00  0.00    -0.236 NA
ATOM     26  C   UNL A   1      37.849  23.475  25.882  1.00  0.00     0.124 A 
ATOM     27  C   UNL A   1      36.791  21.509  25.244  1.00  0.00     0.124 A 
BRANCH  23  28
ATOM     28  C   UNL A   1      34.273  24.074  25.794  1.00  0.00     0.019 A 
ATOM     29  C   UNL A   1      30.716  23.152  26.907  1.00  0.00     0.044 C 
ATOM     30  C   UNL A   1      31.902  23.953  26.452  1.00  0.00    -0.050 A 
ATOM     31  C   UNL A   1      31.805  25.339  26.323  1.00  0.00     0.003 A 
ATOM     32  C   UNL A   1      33.135  23.338  26.190  1.00  0.00     0.015 A 
ATOM     33  C   UNL A   1      32.911  26.086  25.915  1.00  0.00     0.001 A 
ATOM     34  C   UNL A   1      34.130  25.458  25.641  1.00  0.00     0.012 A 
ENDBRANCH  23  28
ENDBRANCH  21  22
ENDBRANCH   9  21
ENDBRANCH   5   8
ENDBRANCH   3   4
ENDBRANCH   2   3
ENDBRANCH   1   2
BRANCH   1  35
ATOM     35  C   UNL A   1      41.947  29.360  29.145  1.00  0.00     0.002 C 
BRANCH  35  36
ATOM     36  C   UNL A   1      40.587  30.056  29.088  1.00  0.00     0.021 C 
BRANCH  36  37
ATOM     37  C   UNL A   1      39.413  29.104  29.127  1.00  0.00     0.116 C 
BRANCH  37  38
ATOM     38  N   UNL A   1      38.319  29.581  28.312  1.00  0.00    -0.352 N 
ATOM     39  C   UNL A   1      37.213  30.316  28.680  1.00  0.00     0.251 C 
ATOM     40  H   UNL A   1      38.372  29.346  27.357  1.00  0.00     0.163 HD
ATOM     41  O   UNL A   1      36.203  30.224  27.987  1.00  0.00    -0.269 OA
BRANCH  39  42
ATOM     42  C   UNL A   1      37.342  31.359  29.730  1.00  0.00     0.039 A 
ATOM     43  C   UNL A   1      37.660  32.645  29.270  1.00  0.00     0.014 A 
ATOM     44  C   UNL A   1      37.591  31.017  31.052  1.00  0.00     0.014 A 
ATOM     45  C   UNL A   1      38.499  33.451  30.024  1.00  0.00     0.010 A 
ATOM     46  C   UNL A   1      38.538  31.728  31.733  1.00  0.00     0.010 A 
ATOM     47  C   UNL A   1      39.030  32.913  31.183  1.00  0.00    -0.014 A 
BRANCH  47  48
ATOM     48  C   UNL A   1      39.975  33.564  32.051  1.00  0.00     0.031 A 
ATOM     49  C   UNL A   1      39.414  34.195  33.254  1.00  0.00     0.074 A 
ATOM     50  C   UNL A   1      41.276  33.247  31.903  1.00  0.00     0.049 A 
ATOM     51  N   UNL A   1      40.108  34.847  34.109  1.00  0.00    -0.248 NA
ATOM     52  C   UNL A   1      37.990  34.148  33.582  1.00  0.00     0.031 C 
ATOM     53  C   UNL A   1      42.319  33.236  32.918  1.00  0.00     0.029 A 
ATOM     54  N   UNL A   1      41.968  32.969  30.738  1.00  0.00    -0.354 N 
ATOM     55  C   UNL A   1      39.315  35.047  35.218  1.00  0.00     0.074 A 
ATOM     56  C   UNL A   1      37.984  34.697  34.799  1.00  0.00     0.031 C 
ATOM     57  C   UNL A   1      43.522  33.208  32.316  1.00  0.00     0.029 A 
ATOM     58  C   UNL A   1      43.290  33.391  30.892  1.00  0.00     0.049 A 
ATOM     59  H   UNL A   1      41.591  32.545  29.933  1.00  0.00     0.167 HD
ATOM     60  C   UNL A   1      39.941  35.348  36.387  1.00  0.00     0.034 A 
ATOM     61  C   UNL A   1      43.753  34.464  30.173  1.00  0.00     0.034 A 
ATOM     62  C   UNL A   1      41.377  35.539  36.135  1.00  0.00     0.049 A 
ATOM     63  C   UNL A   1      44.060  35.675  31.041  1.00  0.00     0.074 A 
ATOM     64  C   UNL A   1      42.472  34.697  36.244  1.00  0.00     0.029 A 
ATOM     65  N   UNL A   1      41.779  36.617  35.358  1.00  0.00    -0.354 N 
ATOM     66  N   UNL A   1      43.648  35.815  32.272  1.00  0.00    -0.248 NA
ATOM     67  C   UNL A   1      44.898  36.796  30.622  1.00  0.00     0.031 C 
ATOM     68  C   UNL A   1      43.516  35.241  35.448  1.00  0.00     0.029 A 
ATOM     69  C   UNL A   1      43.068  36.427  34.886  1.00  0.00     0.049 A 
ATOM     70  H   UNL A   1      41.226  37.408  35.167  1.00  0.00     0.167 HD
ATOM     71  C   UNL A   1      44.073  37.008  32.791  1.00  0.00     0.074 A 
ATOM     72  C   UNL A   1      44.894  37.565  31.727  1.00  0.00     0.031 C 
ATOM     73  C   UNL A   1      43.692  37.436  34.036  1.00  0.00     0.034 A 
BRANCH  60  74
ATOM     74  C   UNL A   1      39.375  35.258  37.791  1.00  0.00     0.023 A 
ATOM     75  C   UNL A   1      39.520  36.416  38.592  1.00  0.00     0.012 A 
ATOM     76  C   UNL A   1      38.771  34.146  38.424  1.00  0.00     0.148 A 
ATOM     77  C   UNL A   1      39.149  36.460  39.938  1.00  0.00     0.002 A 
ATOM     78  C   UNL A   1      38.393  34.188  39.772  1.00  0.00     0.091 A 
ATOM     79  F   UNL A   1      38.541  33.026  37.741  1.00  0.00    -0.205 F 
ATOM     80  C   UNL A   1      38.591  35.343  40.533  1.00  0.00     0.022 A 
BRANCH  78  81
ATOM     81  S   UNL A   1      37.652  32.784  40.629  1.00  0.00     0.127 S 
ATOM     82  O   UNL A   1      36.552  32.425  39.731  1.00  0.00    -0.237 OA
ATOM     83  O   UNL A   1      38.751  31.820  40.656  1.00  0.00    -0.237 OA
ATOM     84  O   UNL A   1      37.230  33.270  41.937  1.00  0.00    -0.744 OA
ENDBRANCH  78  81
ENDBRANCH  60  74
BRANCH  61  85
ATOM     85  C   UNL A   1      43.197  34.472  28.779  1.00  0.00     0.023 A 
ATOM     86  C   UNL A   1      42.258  35.501  28.507  1.00  0.00     0.012 A 
ATOM     87  C   UNL A   1      43.890  33.888  27.703  1.00  0.00     0.148 A 
ATOM     88  C   UNL A   1      42.183  36.084  27.241  1.00  0.00     0.002 A 
ATOM     89  C   UNL A   1      43.781  34.456  26.431  1.00  0.00     0.091 A 
ATOM     90  F   UNL A   1      44.689  32.841  27.944  1.00  0.00    -0.205 F 
ATOM     91  C   UNL A   1      42.984  35.593  26.217  1.00  0.00     0.022 A 
BRANCH  89  92
ATOM     92  S   UNL A   1      44.718  33.838  25.025  1.00  0.00     0.127 S 
ATOM     93  O   UNL A   1      44.750  32.405  25.304  1.00  0.00    -0.237 OA
ATOM     94  O   UNL A   1      43.880  34.215  23.888  1.00  0.00    -0.237 OA
ATOM     95  O   UNL A   1      45.998  34.529  25.081  1.00  0.00    -0.744 OA
ENDBRANCH  89  92
ENDBRANCH  61  85
BRANCH  73  96
ATOM     96  C   UNL A   1      43.859  38.841  34.598  1.00  0.00     0.023 A 
ATOM     97  C   UNL A   1      44.534  39.096  35.805  1.00  0.00     0.012 A 
ATOM     98  C   UNL A   1      43.480  39.981  33.836  1.00  0.00     0.148 A 
ATOM     99  C   UNL A   1      44.775  40.398  36.259  1.00  0.00     0.002 A 
ATOM    100  C   UNL A   1      43.842  41.267  34.225  1.00  0.00     0.091 A 
ATOM    101  F   UNL A   1      42.736  39.838  32.729  1.00  0.00    -0.205 F 
ATOM    102  C   UNL A   1      44.457  41.484  35.455  1.00  0.00     0.022 A 
BRANCH 100 103
ATOM    103  S   UNL A   1      43.691  42.658  33.093  1.00  0.00     0.127 S 
ATOM    104  O   UNL A   1      44.469  43.689  33.777  1.00  0.00    -0.237 OA
ATOM    105  O   UNL A   1      44.311  42.135  31.874  1.00  0.00    -0.237 OA
ATOM    106  O   UNL A   1      42.261  42.903  32.977  1.00  0.00    -0.744 OA
ENDBRANCH 100 103
ENDBRANCH  73  96
ENDBRANCH  47  48
ENDBRANCH  39  42
ENDBRANCH  37  38
ENDBRANCH  36  37
ENDBRANCH  35  36
ENDBRANCH   1  35
TORSDOF 19
ENDMDL
