MODEL 1
REMARK VINA RESULT:     -12.1      0.000      0.000
REMARK SMILES O=C(NCCCCCCNC(=O)[C@@H]1CCCN(C(=O)Nc2ccccc2)C1)c1ccc(-c2c3nc(c(-c4cccc(S(=O)(=O)[O-])c4F)c4ccc([nH]4)c(-c4cccc(S(=O)(=O)[O-])c4F)c4nc(c(-c5cccc(S(=O)(=O)[O-])c5F)c5ccc2[nH]5)C=C4)C=C3)cc1
REMARK SMILES IDX 6 1 5 2 4 3 3 4 1 5 2 6 28 8 29 9 90 10 30 11 89 12 31 13
REMARK SMILES IDX 32 14 33 15 83 16 34 17 88 18 82 19 84 20 35 21 87 22 81 23
REMARK SMILES IDX 80 24 36 26 68 27 48 28 67 29 49 30 52 31 66 32 85 33 50 34
REMARK SMILES IDX 51 35 65 37 86 38 53 39 37 40 38 41 46 42 39 43 41 44 47 45
REMARK SMILES IDX 40 46 42 47 43 48 44 49 45 50 69 51 70 52 78 53 71 54 73 55
REMARK SMILES IDX 79 56 72 57 74 58 75 59 76 60 77 61 54 62 55 63 63 64 56 65
REMARK SMILES IDX 58 66 64 67 57 68 59 69 60 70 61 71 62 72 7 73 8 74 9 75
REMARK SMILES IDX 10 76 11 77 12 79 13 80 14 81 27 82 15 83 17 84 16 85 18 86
REMARK SMILES IDX 19 87 20 88 21 90 22 91 26 92 23 93 25 94 24 95
REMARK H PARENT 3 7 84 25 52 36 10 78 20 89
REMARK Flexibility Score: inf
ROOT
ATOM      1  C   UNL A   1      32.672  28.014  25.079  1.00  0.00     0.002 C 
ENDROOT
BRANCH   1   2
ATOM      2  C   UNL A   1      33.003  29.471  25.409  1.00  0.00     0.021 C 
BRANCH   2   3
ATOM      3  C   UNL A   1      32.369  30.002  26.690  1.00  0.00     0.116 C 
BRANCH   3   4
ATOM      4  N   UNL A   1      32.366  31.455  26.752  1.00  0.00    -0.352 N 
ATOM      5  O   UNL A   1      32.947  33.509  27.466  1.00  0.00    -0.269 OA
ATOM      6  C   UNL A   1      33.229  32.315  27.387  1.00  0.00     0.251 C 
ATOM      7  H   UNL A   1      31.632  31.890  26.262  1.00  0.00     0.163 HD
BRANCH   6   8
ATOM      8  C   UNL A   1      34.477  31.804  27.993  1.00  0.00     0.039 A 
ATOM      9  C   UNL A   1      34.543  30.504  28.497  1.00  0.00     0.014 A 
ATOM     10  C   UNL A   1      35.605  32.627  28.043  1.00  0.00     0.014 A 
ATOM     11  C   UNL A   1      35.671  30.084  29.193  1.00  0.00     0.010 A 
ATOM     12  C   UNL A   1      36.774  32.169  28.659  1.00  0.00     0.010 A 
ATOM     13  C   UNL A   1      36.806  30.908  29.276  1.00  0.00    -0.014 A 
BRANCH  13  14
ATOM     14  C   UNL A   1      38.027  30.405  29.958  1.00  0.00     0.031 A 
ATOM     15  C   UNL A   1      38.360  30.813  31.368  1.00  0.00     0.074 A 
ATOM     16  C   UNL A   1      38.844  29.567  29.289  1.00  0.00     0.049 A 
ATOM     17  N   UNL A   1      39.366  30.434  32.116  1.00  0.00    -0.248 NA
ATOM     18  C   UNL A   1      37.459  31.773  32.024  1.00  0.00     0.031 C 
ATOM     19  C   UNL A   1      38.652  29.135  27.902  1.00  0.00     0.029 A 
ATOM     20  N   UNL A   1      39.993  28.927  29.679  1.00  0.00    -0.354 N 
ATOM     21  C   UNL A   1      39.248  31.141  33.307  1.00  0.00     0.074 A 
ATOM     22  C   UNL A   1      38.073  31.977  33.182  1.00  0.00     0.031 C 
ATOM     23  C   UNL A   1      39.626  28.276  27.569  1.00  0.00     0.029 A 
ATOM     24  C   UNL A   1      40.542  28.137  28.695  1.00  0.00     0.049 A 
ATOM     25  H   UNL A   1      40.386  29.022  30.576  1.00  0.00     0.167 HD
ATOM     26  C   UNL A   1      40.036  31.088  34.409  1.00  0.00     0.034 A 
ATOM     27  C   UNL A   1      41.663  27.392  28.692  1.00  0.00     0.034 A 
ATOM     28  C   UNL A   1      41.183  30.228  34.543  1.00  0.00     0.049 A 
ATOM     29  C   UNL A   1      42.503  27.337  29.935  1.00  0.00     0.074 A 
ATOM     30  C   UNL A   1      41.998  30.046  35.646  1.00  0.00     0.029 A 
ATOM     31  N   UNL A   1      41.686  29.416  33.538  1.00  0.00    -0.354 N 
ATOM     32  N   UNL A   1      42.294  27.906  31.097  1.00  0.00    -0.248 NA
ATOM     33  C   UNL A   1      43.720  26.517  29.875  1.00  0.00     0.031 C 
ATOM     34  C   UNL A   1      43.011  29.144  35.300  1.00  0.00     0.029 A 
ATOM     35  C   UNL A   1      42.809  28.741  33.989  1.00  0.00     0.049 A 
ATOM     36  H   UNL A   1      41.303  29.331  32.635  1.00  0.00     0.167 HD
ATOM     37  C   UNL A   1      43.334  27.487  31.917  1.00  0.00     0.074 A 
ATOM     38  C   UNL A   1      44.158  26.598  31.123  1.00  0.00     0.031 C 
ATOM     39  C   UNL A   1      43.593  27.820  33.206  1.00  0.00     0.034 A 
BRANCH  26  40
ATOM     40  C   UNL A   1      39.671  31.969  35.579  1.00  0.00     0.023 A 
ATOM     41  C   UNL A   1      40.222  33.264  35.678  1.00  0.00     0.012 A 
ATOM     42  C   UNL A   1      38.736  31.543  36.543  1.00  0.00     0.148 A 
ATOM     43  C   UNL A   1      39.876  34.105  36.736  1.00  0.00     0.002 A 
ATOM     44  C   UNL A   1      38.363  32.404  37.571  1.00  0.00     0.091 A 
ATOM     45  F   UNL A   1      38.237  30.303  36.446  1.00  0.00    -0.205 F 
ATOM     46  C   UNL A   1      38.940  33.679  37.675  1.00  0.00     0.022 A 
BRANCH  44  47
ATOM     47  S   UNL A   1      37.107  31.974  38.782  1.00  0.00     0.127 S 
ATOM     48  O   UNL A   1      37.741  32.402  40.028  1.00  0.00    -0.237 OA
ATOM     49  O   UNL A   1      35.975  32.800  38.359  1.00  0.00    -0.237 OA
ATOM     50  O   UNL A   1      36.895  30.540  38.645  1.00  0.00    -0.744 OA
ENDBRANCH  44  47
ENDBRANCH  26  40
BRANCH  27  51
ATOM     51  C   UNL A   1      42.018  26.594  27.485  1.00  0.00     0.023 A 
ATOM     52  C   UNL A   1      42.687  27.220  26.416  1.00  0.00     0.012 A 
ATOM     53  C   UNL A   1      41.740  25.216  27.410  1.00  0.00     0.148 A 
ATOM     54  C   UNL A   1      43.050  26.493  25.282  1.00  0.00     0.002 A 
ATOM     55  C   UNL A   1      42.157  24.485  26.304  1.00  0.00     0.091 A 
ATOM     56  F   UNL A   1      41.090  24.642  28.433  1.00  0.00    -0.205 F 
ATOM     57  C   UNL A   1      42.796  25.125  25.232  1.00  0.00     0.022 A 
BRANCH  55  58
ATOM     58  S   UNL A   1      41.998  22.699  26.217  1.00  0.00     0.127 S 
ATOM     59  O   UNL A   1      42.650  22.403  24.945  1.00  0.00    -0.237 OA
ATOM     60  O   UNL A   1      42.738  22.271  27.405  1.00  0.00    -0.237 OA
ATOM     61  O   UNL A   1      40.568  22.430  26.275  1.00  0.00    -0.744 OA
ENDBRANCH  55  58
ENDBRANCH  27  51
BRANCH  39  62
ATOM     62  C   UNL A   1      44.798  27.191  33.855  1.00  0.00     0.023 A 
ATOM     63  C   UNL A   1      46.061  27.800  33.729  1.00  0.00     0.012 A 
ATOM     64  C   UNL A   1      44.667  26.024  34.632  1.00  0.00     0.148 A 
ATOM     65  C   UNL A   1      47.183  27.236  34.335  1.00  0.00     0.002 A 
ATOM     66  C   UNL A   1      45.779  25.496  35.274  1.00  0.00     0.091 A 
ATOM     67  F   UNL A   1      43.459  25.446  34.721  1.00  0.00    -0.205 F 
ATOM     68  C   UNL A   1      47.041  26.092  35.117  1.00  0.00     0.022 A 
BRANCH  66  69
ATOM     69  S   UNL A   1      45.667  24.081  36.376  1.00  0.00     0.127 S 
ATOM     70  O   UNL A   1      44.691  24.546  37.359  1.00  0.00    -0.237 OA
ATOM     71  O   UNL A   1      45.180  23.029  35.484  1.00  0.00    -0.237 OA
ATOM     72  O   UNL A   1      47.015  23.863  36.884  1.00  0.00    -0.744 OA
ENDBRANCH  66  69
ENDBRANCH  39  62
ENDBRANCH  13  14
ENDBRANCH   6   8
ENDBRANCH   3   4
ENDBRANCH   2   3
ENDBRANCH   1   2
BRANCH   1  73
ATOM     73  C   UNL A   1      31.570  27.368  25.928  1.00  0.00     0.002 C 
BRANCH  73  74
ATOM     74  C   UNL A   1      30.577  26.487  25.168  1.00  0.00     0.021 C 
BRANCH  74  75
ATOM     75  C   UNL A   1      30.406  25.079  25.728  1.00  0.00     0.116 C 
BRANCH  75  76
ATOM     76  N   UNL A   1      30.600  24.053  24.726  1.00  0.00    -0.356 N 
ATOM     77  C   UNL A   1      31.716  23.528  24.160  1.00  0.00     0.224 C 
ATOM     78  H   UNL A   1      29.761  23.661  24.390  1.00  0.00     0.163 HD
ATOM     79  O   UNL A   1      31.536  22.590  23.371  1.00  0.00    -0.275 OA
BRANCH  77  80
ATOM     80  C   UNL A   1      33.145  24.022  24.408  1.00  0.00     0.098 C 
ATOM     81  C   UNL A   1      34.114  23.997  23.233  1.00  0.00     0.017 C 
ATOM     82  C   UNL A   1      33.743  23.466  25.693  1.00  0.00     0.134 C 
ATOM     83  C   UNL A   1      35.263  22.995  23.328  1.00  0.00     0.022 C 
ATOM     84  N   UNL A   1      34.278  22.119  25.531  1.00  0.00    -0.324 N 
ATOM     85  C   UNL A   1      35.258  21.964  24.463  1.00  0.00     0.121 C 
BRANCH  84  86
ATOM     86  C   UNL A   1      33.839  21.158  26.420  1.00  0.00     0.321 C 
ATOM     87  O   UNL A   1      33.807  21.372  27.638  1.00  0.00    -0.248 OA
ATOM     88  N   UNL A   1      33.266  19.992  26.031  1.00  0.00    -0.308 N 
ATOM     89  H   UNL A   1      32.712  19.593  26.740  1.00  0.00     0.171 HD
BRANCH  88  90
ATOM     90  C   UNL A   1      33.273  19.221  24.868  1.00  0.00     0.042 A 
ATOM     91  C   UNL A   1      34.216  18.192  24.789  1.00  0.00     0.026 A 
ATOM     92  C   UNL A   1      32.411  19.443  23.798  1.00  0.00     0.026 A 
ATOM     93  C   UNL A   1      34.179  17.292  23.723  1.00  0.00     0.002 A 
ATOM     94  C   UNL A   1      32.372  18.542  22.732  1.00  0.00     0.002 A 
ATOM     95  C   UNL A   1      33.236  17.449  22.711  1.00  0.00     0.000 A 
ENDBRANCH  88  90
ENDBRANCH  84  86
ENDBRANCH  77  80
ENDBRANCH  75  76
ENDBRANCH  74  75
ENDBRANCH  73  74
ENDBRANCH   1  73
TORSDOF 18
ENDMDL
MODEL 2
REMARK VINA RESULT:     -11.7      5.002      9.893
REMARK SMILES O=C(NCCCCCCNC(=O)[C@@H]1CCCN(C(=O)Nc2ccccc2)C1)c1ccc(-c2c3nc(c(-c4cccc(S(=O)(=O)[O-])c4F)c4ccc([nH]4)c(-c4cccc(S(=O)(=O)[O-])c4F)c4nc(c(-c5cccc(S(=O)(=O)[O-])c5F)c5ccc2[nH]5)C=C4)C=C3)cc1
REMARK SMILES IDX 6 1 5 2 4 3 3 4 1 5 2 6 28 8 29 9 90 10 30 11 89 12 31 13
REMARK SMILES IDX 32 14 33 15 83 16 34 17 88 18 82 19 84 20 35 21 87 22 81 23
REMARK SMILES IDX 80 24 36 26 68 27 48 28 67 29 49 30 52 31 66 32 85 33 50 34
REMARK SMILES IDX 51 35 65 37 86 38 53 39 37 40 38 41 46 42 39 43 41 44 47 45
REMARK SMILES IDX 40 46 42 47 43 48 44 49 45 50 69 51 70 52 78 53 71 54 73 55
REMARK SMILES IDX 79 56 72 57 74 58 75 59 76 60 77 61 54 62 55 63 63 64 56 65
REMARK SMILES IDX 58 66 64 67 57 68 59 69 60 70 61 71 62 72 7 73 8 74 9 75
REMARK SMILES IDX 10 76 11 77 12 79 13 80 14 81 27 82 15 83 17 84 16 85 18 86
REMARK SMILES IDX 19 87 20 88 21 90 22 91 26 92 23 93 25 94 24 95
REMARK H PARENT 3 7 84 25 52 36 10 78 20 89
REMARK Flexibility Score: inf
ROOT
ATOM      1  C   UNL A   1      35.145  22.152  26.119  1.00  0.00     0.002 C 
ENDROOT
BRANCH   1   2
ATOM      2  C   UNL A   1      35.730  23.565  26.109  1.00  0.00     0.021 C 
BRANCH   2   3
ATOM      3  C   UNL A   1      36.965  23.747  25.235  1.00  0.00     0.116 C 
BRANCH   3   4
ATOM      4  N   UNL A   1      38.004  22.771  25.525  1.00  0.00    -0.352 N 
ATOM      5  O   UNL A   1      40.040  22.010  26.108  1.00  0.00    -0.269 OA
ATOM      6  C   UNL A   1      39.233  22.936  26.117  1.00  0.00     0.251 C 
ATOM      7  H   UNL A   1      37.794  21.849  25.255  1.00  0.00     0.163 HD
BRANCH   6   8
ATOM      8  C   UNL A   1      39.590  24.229  26.741  1.00  0.00     0.039 A 
ATOM      9  C   UNL A   1      40.203  25.234  25.994  1.00  0.00     0.014 A 
ATOM     10  C   UNL A   1      39.292  24.447  28.089  1.00  0.00     0.014 A 
ATOM     11  C   UNL A   1      40.664  26.386  26.622  1.00  0.00     0.010 A 
ATOM     12  C   UNL A   1      39.671  25.646  28.700  1.00  0.00     0.010 A 
ATOM     13  C   UNL A   1      40.397  26.611  27.983  1.00  0.00    -0.014 A 
BRANCH  13  14
ATOM     14  C   UNL A   1      40.833  27.885  28.613  1.00  0.00     0.031 A 
ATOM     15  C   UNL A   1      42.292  28.215  28.784  1.00  0.00     0.074 A 
ATOM     16  C   UNL A   1      39.893  28.755  29.036  1.00  0.00     0.049 A 
ATOM     17  N   UNL A   1      42.836  29.298  29.280  1.00  0.00    -0.248 NA
ATOM     18  C   UNL A   1      43.267  27.201  28.354  1.00  0.00     0.031 C 
ATOM     19  C   UNL A   1      38.446  28.527  28.967  1.00  0.00     0.029 A 
ATOM     20  N   UNL A   1      40.006  29.998  29.601  1.00  0.00    -0.354 N 
ATOM     21  C   UNL A   1      44.209  29.080  29.266  1.00  0.00     0.074 A 
ATOM     22  C   UNL A   1      44.416  27.757  28.717  1.00  0.00     0.031 C 
ATOM     23  C   UNL A   1      37.808  29.608  29.436  1.00  0.00     0.029 A 
ATOM     24  C   UNL A   1      38.793  30.581  29.891  1.00  0.00     0.049 A 
ATOM     25  H   UNL A   1      40.870  30.433  29.782  1.00  0.00     0.167 HD
ATOM     26  C   UNL A   1      45.205  29.909  29.662  1.00  0.00     0.034 A 
ATOM     27  C   UNL A   1      38.503  31.762  30.468  1.00  0.00     0.034 A 
ATOM     28  C   UNL A   1      44.996  31.239  30.174  1.00  0.00     0.049 A 
ATOM     29  C   UNL A   1      39.630  32.669  30.875  1.00  0.00     0.074 A 
ATOM     30  C   UNL A   1      45.943  32.184  30.527  1.00  0.00     0.029 A 
ATOM     31  N   UNL A   1      43.755  31.807  30.418  1.00  0.00    -0.354 N 
ATOM     32  N   UNL A   1      40.921  32.499  30.723  1.00  0.00    -0.248 NA
ATOM     33  C   UNL A   1      39.258  33.941  31.509  1.00  0.00     0.031 C 
ATOM     34  C   UNL A   1      45.274  33.315  31.012  1.00  0.00     0.029 A 
ATOM     35  C   UNL A   1      43.911  33.085  30.932  1.00  0.00     0.049 A 
ATOM     36  H   UNL A   1      42.890  31.369  30.252  1.00  0.00     0.167 HD
ATOM     37  C   UNL A   1      41.515  33.656  31.212  1.00  0.00     0.074 A 
ATOM     38  C   UNL A   1      40.440  34.527  31.642  1.00  0.00     0.031 C 
ATOM     39  C   UNL A   1      42.832  33.963  31.311  1.00  0.00     0.034 A 
BRANCH  26  40
ATOM     40  C   UNL A   1      46.626  29.417  29.531  1.00  0.00     0.023 A 
ATOM     41  C   UNL A   1      47.226  28.720  30.600  1.00  0.00     0.012 A 
ATOM     42  C   UNL A   1      47.344  29.585  28.330  1.00  0.00     0.148 A 
ATOM     43  C   UNL A   1      48.527  28.231  30.490  1.00  0.00     0.002 A 
ATOM     44  C   UNL A   1      48.625  29.056  28.212  1.00  0.00     0.091 A 
ATOM     45  F   UNL A   1      46.767  30.267  27.330  1.00  0.00    -0.205 F 
ATOM     46  C   UNL A   1      49.222  28.390  29.294  1.00  0.00     0.022 A 
BRANCH  44  47
ATOM     47  S   UNL A   1      49.568  29.142  26.685  1.00  0.00     0.127 S 
ATOM     48  O   UNL A   1      48.647  28.521  25.734  1.00  0.00    -0.237 OA
ATOM     49  O   UNL A   1      49.744  30.584  26.510  1.00  0.00    -0.237 OA
ATOM     50  O   UNL A   1      50.801  28.408  26.936  1.00  0.00    -0.744 OA
ENDBRANCH  44  47
ENDBRANCH  26  40
BRANCH  27  51
ATOM     51  C   UNL A   1      37.082  32.174  30.640  1.00  0.00     0.023 A 
ATOM     52  C   UNL A   1      36.469  32.029  31.900  1.00  0.00     0.012 A 
ATOM     53  C   UNL A   1      36.353  32.747  29.581  1.00  0.00     0.148 A 
ATOM     54  C   UNL A   1      35.146  32.425  32.095  1.00  0.00     0.002 A 
ATOM     55  C   UNL A   1      35.054  33.193  29.798  1.00  0.00     0.091 A 
ATOM     56  F   UNL A   1      36.950  32.862  28.387  1.00  0.00    -0.205 F 
ATOM     57  C   UNL A   1      34.443  33.017  31.049  1.00  0.00     0.022 A 
BRANCH  55  58
ATOM     58  S   UNL A   1      34.127  34.093  28.551  1.00  0.00     0.127 S 
ATOM     59  O   UNL A   1      34.985  35.251  28.318  1.00  0.00    -0.237 OA
ATOM     60  O   UNL A   1      34.081  33.127  27.453  1.00  0.00    -0.237 OA
ATOM     61  O   UNL A   1      32.831  34.374  29.154  1.00  0.00    -0.744 OA
ENDBRANCH  55  58
ENDBRANCH  27  51
BRANCH  39  62
ATOM     62  C   UNL A   1      43.187  35.314  31.872  1.00  0.00     0.023 A 
ATOM     63  C   UNL A   1      43.239  35.504  33.267  1.00  0.00     0.012 A 
ATOM     64  C   UNL A   1      43.520  36.382  31.016  1.00  0.00     0.148 A 
ATOM     65  C   UNL A   1      43.579  36.746  33.801  1.00  0.00     0.002 A 
ATOM     66  C   UNL A   1      43.907  37.602  31.555  1.00  0.00     0.091 A 
ATOM     67  F   UNL A   1      43.444  36.188  29.691  1.00  0.00    -0.205 F 
ATOM     68  C   UNL A   1      43.924  37.791  32.947  1.00  0.00     0.022 A 
BRANCH  66  69
ATOM     69  S   UNL A   1      44.460  38.971  30.530  1.00  0.00     0.127 S 
ATOM     70  O   UNL A   1      44.307  40.104  31.439  1.00  0.00    -0.237 OA
ATOM     71  O   UNL A   1      45.846  38.602  30.242  1.00  0.00    -0.237 OA
ATOM     72  O   UNL A   1      43.584  38.976  29.366  1.00  0.00    -0.744 OA
ENDBRANCH  66  69
ENDBRANCH  39  62
ENDBRANCH  13  14
ENDBRANCH   6   8
ENDBRANCH   3   4
ENDBRANCH   2   3
ENDBRANCH   1   2
BRANCH   1  73
ATOM     73  C   UNL A   1      34.810  21.556  24.746  1.00  0.00     0.002 C 
BRANCH  73  74
ATOM     74  C   UNL A   1      33.331  21.253  24.498  1.00  0.00     0.021 C 
BRANCH  74  75
ATOM     75  C   UNL A   1      32.581  22.316  23.700  1.00  0.00     0.116 C 
BRANCH  75  76
ATOM     76  N   UNL A   1      33.284  23.581  23.658  1.00  0.00    -0.356 N 
ATOM     77  C   UNL A   1      32.892  24.831  23.306  1.00  0.00     0.224 C 
ATOM     78  H   UNL A   1      34.226  23.522  23.938  1.00  0.00     0.163 HD
ATOM     79  O   UNL A   1      33.734  25.728  23.457  1.00  0.00    -0.275 OA
BRANCH  77  80
ATOM     80  C   UNL A   1      31.521  25.195  22.726  1.00  0.00     0.098 C 
ATOM     81  C   UNL A   1      31.426  26.456  21.878  1.00  0.00     0.017 C 
ATOM     82  C   UNL A   1      30.401  25.073  23.750  1.00  0.00     0.134 C 
ATOM     83  C   UNL A   1      30.626  27.612  22.475  1.00  0.00     0.022 C 
ATOM     84  N   UNL A   1      30.300  26.239  24.619  1.00  0.00    -0.324 N 
ATOM     85  C   UNL A   1      30.157  27.516  23.932  1.00  0.00     0.121 C 
BRANCH  84  86
ATOM     86  C   UNL A   1      30.306  26.009  25.981  1.00  0.00     0.321 C 
ATOM     87  O   UNL A   1      29.516  25.213  26.505  1.00  0.00    -0.248 OA
ATOM     88  N   UNL A   1      31.260  26.497  26.812  1.00  0.00    -0.308 N 
ATOM     89  H   UNL A   1      31.326  25.981  27.648  1.00  0.00     0.171 HD
BRANCH  88  90
ATOM     90  C   UNL A   1      32.170  27.554  26.768  1.00  0.00     0.042 A 
ATOM     91  C   UNL A   1      31.707  28.813  27.163  1.00  0.00     0.026 A 
ATOM     92  C   UNL A   1      33.486  27.412  26.339  1.00  0.00     0.026 A 
ATOM     93  C   UNL A   1      32.600  29.877  27.285  1.00  0.00     0.002 A 
ATOM     94  C   UNL A   1      34.381  28.476  26.464  1.00  0.00     0.002 A 
ATOM     95  C   UNL A   1      33.944  29.700  26.966  1.00  0.00     0.000 A 
ENDBRANCH  88  90
ENDBRANCH  84  86
ENDBRANCH  77  80
ENDBRANCH  75  76
ENDBRANCH  74  75
ENDBRANCH  73  74
ENDBRANCH   1  73
TORSDOF 18
ENDMDL
MODEL 3
REMARK VINA RESULT:     -11.7      5.257     10.608
REMARK SMILES O=C(NCCCCCCNC(=O)[C@@H]1CCCN(C(=O)Nc2ccccc2)C1)c1ccc(-c2c3nc(c(-c4cccc(S(=O)(=O)[O-])c4F)c4ccc([nH]4)c(-c4cccc(S(=O)(=O)[O-])c4F)c4nc(c(-c5cccc(S(=O)(=O)[O-])c5F)c5ccc2[nH]5)C=C4)C=C3)cc1
REMARK SMILES IDX 6 1 5 2 4 3 3 4 1 5 2 6 28 8 29 9 90 10 30 11 89 12 31 13
REMARK SMILES IDX 32 14 33 15 83 16 34 17 88 18 82 19 84 20 35 21 87 22 81 23
REMARK SMILES IDX 80 24 36 26 68 27 48 28 67 29 49 30 52 31 66 32 85 33 50 34
REMARK SMILES IDX 51 35 65 37 86 38 53 39 37 40 38 41 46 42 39 43 41 44 47 45
REMARK SMILES IDX 40 46 42 47 43 48 44 49 45 50 69 51 70 52 78 53 71 54 73 55
REMARK SMILES IDX 79 56 72 57 74 58 75 59 76 60 77 61 54 62 55 63 63 64 56 65
REMARK SMILES IDX 58 66 64 67 57 68 59 69 60 70 61 71 62 72 7 73 8 74 9 75
REMARK SMILES IDX 10 76 11 77 12 79 13 80 14 81 27 82 15 83 17 84 16 85 18 86
REMARK SMILES IDX 19 87 20 88 21 90 22 91 26 92 23 93 25 94 24 95
REMARK H PARENT 3 7 84 25 52 36 10 78 20 89
REMARK Flexibility Score: inf
ROOT
ATOM      1  C   UNL A   1      34.838  22.643  24.656  1.00  0.00     0.002 C 
ENDROOT
BRANCH   1   2
ATOM      2  C   UNL A   1      35.769  21.611  25.296  1.00  0.00     0.021 C 
BRANCH   2   3
ATOM      3  C   UNL A   1      37.172  21.552  24.702  1.00  0.00     0.116 C 
BRANCH   3   4
ATOM      4  N   UNL A   1      37.974  20.478  25.266  1.00  0.00    -0.352 N 
ATOM      5  O   UNL A   1      39.769  19.486  26.192  1.00  0.00    -0.269 OA
ATOM      6  C   UNL A   1      39.161  20.527  25.955  1.00  0.00     0.251 C 
ATOM      7  H   UNL A   1      37.608  19.574  25.133  1.00  0.00     0.163 HD
BRANCH   6   8
ATOM      8  C   UNL A   1      39.716  21.828  26.388  1.00  0.00     0.039 A 
ATOM      9  C   UNL A   1      39.211  23.023  25.874  1.00  0.00     0.014 A 
ATOM     10  C   UNL A   1      40.742  21.857  27.336  1.00  0.00     0.014 A 
ATOM     11  C   UNL A   1      39.835  24.229  26.176  1.00  0.00     0.010 A 
ATOM     12  C   UNL A   1      41.306  23.079  27.713  1.00  0.00     0.010 A 
ATOM     13  C   UNL A   1      40.886  24.274  27.107  1.00  0.00    -0.014 A 
BRANCH  13  14
ATOM     14  C   UNL A   1      41.484  25.585  27.472  1.00  0.00     0.031 A 
ATOM     15  C   UNL A   1      42.884  25.950  27.057  1.00  0.00     0.074 A 
ATOM     16  C   UNL A   1      40.746  26.457  28.190  1.00  0.00     0.049 A 
ATOM     17  N   UNL A   1      43.537  27.067  27.264  1.00  0.00    -0.248 NA
ATOM     18  C   UNL A   1      43.656  24.936  26.324  1.00  0.00     0.031 C 
ATOM     19  C   UNL A   1      39.393  26.199  28.690  1.00  0.00     0.029 A 
ATOM     20  N   UNL A   1      41.022  27.729  28.620  1.00  0.00    -0.354 N 
ATOM     21  C   UNL A   1      44.807  26.874  26.732  1.00  0.00     0.074 A 
ATOM     22  C   UNL A   1      44.836  25.530  26.196  1.00  0.00     0.031 C 
ATOM     23  C   UNL A   1      38.944  27.290  29.328  1.00  0.00     0.029 A 
ATOM     24  C   UNL A   1      39.993  28.303  29.331  1.00  0.00     0.049 A 
ATOM     25  H   UNL A   1      41.873  28.188  28.438  1.00  0.00     0.167 HD
ATOM     26  C   UNL A   1      45.848  27.740  26.682  1.00  0.00     0.034 A 
ATOM     27  C   UNL A   1      39.904  29.505  29.930  1.00  0.00     0.034 A 
ATOM     28  C   UNL A   1      45.803  29.089  27.184  1.00  0.00     0.049 A 
ATOM     29  C   UNL A   1      41.066  30.452  29.837  1.00  0.00     0.074 A 
ATOM     30  C   UNL A   1      46.778  30.068  27.110  1.00  0.00     0.029 A 
ATOM     31  N   UNL A   1      44.730  29.646  27.864  1.00  0.00    -0.354 N 
ATOM     32  N   UNL A   1      42.206  30.299  29.208  1.00  0.00    -0.248 NA
ATOM     33  C   UNL A   1      40.920  31.746  30.516  1.00  0.00     0.031 C 
ATOM     34  C   UNL A   1      46.306  31.209  27.770  1.00  0.00     0.029 A 
ATOM     35  C   UNL A   1      45.025  30.950  28.229  1.00  0.00     0.049 A 
ATOM     36  H   UNL A   1      43.884  29.184  28.060  1.00  0.00     0.167 HD
ATOM     37  C   UNL A   1      42.900  31.489  29.386  1.00  0.00     0.074 A 
ATOM     38  C   UNL A   1      42.041  32.360  30.163  1.00  0.00     0.031 C 
ATOM     39  C   UNL A   1      44.142  31.825  28.960  1.00  0.00     0.034 A 
BRANCH  26  40
ATOM     40  C   UNL A   1      47.127  27.268  26.034  1.00  0.00     0.023 A 
ATOM     41  C   UNL A   1      47.368  27.552  24.674  1.00  0.00     0.012 A 
ATOM     42  C   UNL A   1      48.117  26.603  26.785  1.00  0.00     0.148 A 
ATOM     43  C   UNL A   1      48.556  27.150  24.063  1.00  0.00     0.002 A 
ATOM     44  C   UNL A   1      49.317  26.244  26.180  1.00  0.00     0.091 A 
ATOM     45  F   UNL A   1      47.864  26.324  28.072  1.00  0.00    -0.205 F 
ATOM     46  C   UNL A   1      49.533  26.506  24.818  1.00  0.00     0.022 A 
BRANCH  44  47
ATOM     47  S   UNL A   1      50.667  25.483  27.089  1.00  0.00     0.127 S 
ATOM     48  O   UNL A   1      51.653  25.271  26.031  1.00  0.00    -0.237 OA
ATOM     49  O   UNL A   1      51.020  26.528  28.051  1.00  0.00    -0.237 OA
ATOM     50  O   UNL A   1      50.114  24.274  27.685  1.00  0.00    -0.744 OA
ENDBRANCH  44  47
ENDBRANCH  26  40
BRANCH  27  51
ATOM     51  C   UNL A   1      38.643  29.899  30.618  1.00  0.00     0.023 A 
ATOM     52  C   UNL A   1      38.432  29.501  31.953  1.00  0.00     0.012 A 
ATOM     53  C   UNL A   1      37.677  30.697  29.978  1.00  0.00     0.148 A 
ATOM     54  C   UNL A   1      37.270  29.871  32.629  1.00  0.00     0.002 A 
ATOM     55  C   UNL A   1      36.549  31.112  30.676  1.00  0.00     0.091 A 
ATOM     56  F   UNL A   1      37.890  31.052  28.703  1.00  0.00    -0.205 F 
ATOM     57  C   UNL A   1      36.335  30.686  31.996  1.00  0.00     0.022 A 
BRANCH  55  58
ATOM     58  S   UNL A   1      35.366  32.274  29.987  1.00  0.00     0.127 S 
ATOM     59  O   UNL A   1      34.844  31.528  28.846  1.00  0.00    -0.237 OA
ATOM     60  O   UNL A   1      34.426  32.442  31.096  1.00  0.00    -0.237 OA
ATOM     61  O   UNL A   1      36.133  33.470  29.666  1.00  0.00    -0.744 OA
ENDBRANCH  55  58
ENDBRANCH  27  51
BRANCH  39  62
ATOM     62  C   UNL A   1      44.637  33.209  29.289  1.00  0.00     0.023 A 
ATOM     63  C   UNL A   1      45.277  33.451  30.520  1.00  0.00     0.012 A 
ATOM     64  C   UNL A   1      44.512  34.257  28.357  1.00  0.00     0.148 A 
ATOM     65  C   UNL A   1      45.751  34.725  30.833  1.00  0.00     0.002 A 
ATOM     66  C   UNL A   1      45.031  35.510  28.655  1.00  0.00     0.091 A 
ATOM     67  F   UNL A   1      43.879  34.012  27.199  1.00  0.00    -0.205 F 
ATOM     68  C   UNL A   1      45.639  35.750  29.897  1.00  0.00     0.022 A 
BRANCH  66  69
ATOM     69  S   UNL A   1      45.016  36.860  27.469  1.00  0.00     0.127 S 
ATOM     70  O   UNL A   1      45.845  36.321  26.393  1.00  0.00    -0.237 OA
ATOM     71  O   UNL A   1      43.593  36.973  27.145  1.00  0.00    -0.237 OA
ATOM     72  O   UNL A   1      45.567  38.012  28.170  1.00  0.00    -0.744 OA
ENDBRANCH  66  69
ENDBRANCH  39  62
ENDBRANCH  13  14
ENDBRANCH   6   8
ENDBRANCH   3   4
ENDBRANCH   2   3
ENDBRANCH   1   2
BRANCH   1  73
ATOM     73  C   UNL A   1      33.380  22.203  24.466  1.00  0.00     0.002 C 
BRANCH  73  74
ATOM     74  C   UNL A   1      32.551  22.085  25.746  1.00  0.00     0.021 C 
BRANCH  74  75
ATOM     75  C   UNL A   1      31.107  22.562  25.623  1.00  0.00     0.116 C 
BRANCH  75  76
ATOM     76  N   UNL A   1      30.889  23.849  26.247  1.00  0.00    -0.356 N 
ATOM     77  C   UNL A   1      30.403  25.023  25.771  1.00  0.00     0.224 C 
ATOM     78  H   UNL A   1      31.143  23.879  27.197  1.00  0.00     0.163 HD
ATOM     79  O   UNL A   1      30.272  25.934  26.601  1.00  0.00    -0.275 OA
BRANCH  77  80
ATOM     80  C   UNL A   1      30.037  25.298  24.309  1.00  0.00     0.098 C 
ATOM     81  C   UNL A   1      30.879  24.628  23.232  1.00  0.00     0.017 C 
ATOM     82  C   UNL A   1      29.776  26.773  24.038  1.00  0.00     0.134 C 
ATOM     83  C   UNL A   1      31.753  25.553  22.386  1.00  0.00     0.022 C 
ATOM     84  N   UNL A   1      31.001  27.536  23.833  1.00  0.00    -0.324 N 
ATOM     85  C   UNL A   1      31.884  27.026  22.791  1.00  0.00     0.121 C 
BRANCH  84  86
ATOM     86  C   UNL A   1      31.173  28.668  24.605  1.00  0.00     0.321 C 
ATOM     87  O   UNL A   1      31.893  28.659  25.611  1.00  0.00    -0.248 OA
ATOM     88  N   UNL A   1      30.714  29.891  24.243  1.00  0.00    -0.308 N 
ATOM     89  H   UNL A   1      31.198  30.620  24.695  1.00  0.00     0.171 HD
BRANCH  88  90
ATOM     90  C   UNL A   1      29.721  30.366  23.386  1.00  0.00     0.042 A 
ATOM     91  C   UNL A   1      28.857  31.344  23.887  1.00  0.00     0.026 A 
ATOM     92  C   UNL A   1      29.549  29.902  22.085  1.00  0.00     0.026 A 
ATOM     93  C   UNL A   1      27.941  31.967  23.039  1.00  0.00     0.002 A 
ATOM     94  C   UNL A   1      28.634  30.526  21.235  1.00  0.00     0.002 A 
ATOM     95  C   UNL A   1      27.851  31.579  21.705  1.00  0.00     0.000 A 
ENDBRANCH  88  90
ENDBRANCH  84  86
ENDBRANCH  77  80
ENDBRANCH  75  76
ENDBRANCH  74  75
ENDBRANCH  73  74
ENDBRANCH   1  73
TORSDOF 18
ENDMDL
