MODEL 1
REMARK VINA RESULT:     -12.3      0.000      0.000
REMARK SMILES O=C(NCCCCCCNC(=O)[C@H]1[C@H]2CC[C@H](CC2)[C@@H]1C(=O)Nc1ccc(Cc2ccncc2)cc1)c1ccc(-c2c3nc(c(-c4cccc(S(=O)(=O)[O-])c4F)c4ccc([nH]4)c(-c4cccc(S(=O)(=O)[O-])c4F)c4nc(c(-c5cccc(S(=O)(=O)[O-])c5F)c5ccc2[nH]5)C=C4)C=C3)cc1
REMARK SMILES IDX 7 1 6 2 5 3 4 4 3 5 1 6 2 7 37 9 38 10 99 11 39 12 98 13
REMARK SMILES IDX 40 14 41 15 42 16 92 17 43 18 97 19 91 20 93 21 44 22 96 23
REMARK SMILES IDX 90 24 89 25 45 27 77 28 57 29 76 30 58 31 61 32 75 33 94 34
REMARK SMILES IDX 59 35 60 36 74 38 95 39 62 40 46 41 47 42 55 43 48 44 50 45
REMARK SMILES IDX 56 46 49 47 51 48 52 49 53 50 54 51 78 52 79 53 87 54 80 55
REMARK SMILES IDX 82 56 88 57 81 58 83 59 84 60 85 61 86 62 63 63 64 64 72 65
REMARK SMILES IDX 65 66 67 67 73 68 66 69 68 70 69 71 70 72 71 73 8 74 9 75
REMARK SMILES IDX 10 76 11 77 12 79 13 80 14 81 20 82 15 83 19 84 17 85 16 86
REMARK SMILES IDX 18 87 21 88 22 89 23 90 24 92 25 93 36 94 26 95 35 96 27 97
REMARK SMILES IDX 28 98 29 99 30 100 34 101 31 102 33 103 32 104
REMARK H PARENT 3 8 93 26 61 37 10 78 23 91
REMARK Flexibility Score: inf
ROOT
ATOM      1  C   UNL A   1      35.758  24.091  25.058  1.00  0.00     0.002 C 
ENDROOT
BRANCH   1   2
ATOM      2  C   UNL A   1      36.240  23.255  23.867  1.00  0.00     0.002 C 
BRANCH   2   3
ATOM      3  C   UNL A   1      37.227  22.143  24.222  1.00  0.00     0.021 C 
BRANCH   3   4
ATOM      4  C   UNL A   1      37.457  21.970  25.717  1.00  0.00     0.116 C 
BRANCH   4   5
ATOM      5  N   UNL A   1      38.461  20.957  25.993  1.00  0.00    -0.352 N 
ATOM      6  O   UNL A   1      40.553  20.184  26.317  1.00  0.00    -0.269 OA
ATOM      7  C   UNL A   1      39.778  21.135  26.336  1.00  0.00     0.251 C 
ATOM      8  H   UNL A   1      38.158  20.023  25.925  1.00  0.00     0.163 HD
BRANCH   7   9
ATOM      9  C   UNL A   1      40.249  22.486  26.713  1.00  0.00     0.039 A 
ATOM     10  C   UNL A   1      40.969  22.673  27.897  1.00  0.00     0.014 A 
ATOM     11  C   UNL A   1      39.974  23.568  25.875  1.00  0.00     0.014 A 
ATOM     12  C   UNL A   1      41.319  23.956  28.296  1.00  0.00     0.010 A 
ATOM     13  C   UNL A   1      40.400  24.849  26.239  1.00  0.00     0.010 A 
ATOM     14  C   UNL A   1      41.065  25.054  27.458  1.00  0.00    -0.014 A 
BRANCH  14  15
ATOM     15  C   UNL A   1      41.620  26.381  27.821  1.00  0.00     0.031 A 
ATOM     16  C   UNL A   1      43.039  26.757  27.501  1.00  0.00     0.074 A 
ATOM     17  C   UNL A   1      40.815  27.246  28.471  1.00  0.00     0.049 A 
ATOM     18  N   UNL A   1      43.658  27.884  27.742  1.00  0.00    -0.248 NA
ATOM     19  C   UNL A   1      43.875  25.745  26.835  1.00  0.00     0.031 C 
ATOM     20  C   UNL A   1      39.437  26.961  28.881  1.00  0.00     0.029 A 
ATOM     21  N   UNL A   1      41.030  28.527  28.905  1.00  0.00    -0.354 N 
ATOM     22  C   UNL A   1      44.963  27.707  27.297  1.00  0.00     0.074 A 
ATOM     23  C   UNL A   1      45.048  26.364  26.767  1.00  0.00     0.031 C 
ATOM     24  C   UNL A   1      38.925  28.039  29.490  1.00  0.00     0.029 A 
ATOM     25  C   UNL A   1      39.951  29.070  29.563  1.00  0.00     0.049 A 
ATOM     26  H   UNL A   1      41.875  29.012  28.760  1.00  0.00     0.167 HD
ATOM     27  C   UNL A   1      45.988  28.593  27.321  1.00  0.00     0.034 A 
ATOM     28  C   UNL A   1      39.808  30.259  30.179  1.00  0.00     0.034 A 
ATOM     29  C   UNL A   1      45.880  29.941  27.816  1.00  0.00     0.049 A 
ATOM     30  C   UNL A   1      40.956  31.225  30.157  1.00  0.00     0.074 A 
ATOM     31  C   UNL A   1      46.839  30.940  27.801  1.00  0.00     0.029 A 
ATOM     32  N   UNL A   1      44.756  30.477  28.426  1.00  0.00    -0.354 N 
ATOM     33  N   UNL A   1      42.131  31.094  29.592  1.00  0.00    -0.248 NA
ATOM     34  C   UNL A   1      40.752  32.511  30.837  1.00  0.00     0.031 C 
ATOM     35  C   UNL A   1      46.303  32.071  28.426  1.00  0.00     0.029 A 
ATOM     36  C   UNL A   1      45.003  31.784  28.809  1.00  0.00     0.049 A 
ATOM     37  H   UNL A   1      43.908  29.997  28.567  1.00  0.00     0.167 HD
ATOM     38  C   UNL A   1      42.800  32.287  29.828  1.00  0.00     0.074 A 
ATOM     39  C   UNL A   1      41.885  33.142  30.558  1.00  0.00     0.031 C 
ATOM     40  C   UNL A   1      44.066  32.637  29.493  1.00  0.00     0.034 A 
BRANCH  27  41
ATOM     41  C   UNL A   1      47.319  28.162  26.759  1.00  0.00     0.023 A 
ATOM     42  C   UNL A   1      48.347  27.766  27.637  1.00  0.00     0.012 A 
ATOM     43  C   UNL A   1      47.509  28.040  25.368  1.00  0.00     0.148 A 
ATOM     44  C   UNL A   1      49.550  27.265  27.138  1.00  0.00     0.002 A 
ATOM     45  C   UNL A   1      48.696  27.506  24.880  1.00  0.00     0.091 A 
ATOM     46  F   UNL A   1      46.523  28.439  24.552  1.00  0.00    -0.205 F 
ATOM     47  C   UNL A   1      49.719  27.124  25.763  1.00  0.00     0.022 A 
BRANCH  45  48
ATOM     48  S   UNL A   1      48.985  27.211  23.131  1.00  0.00     0.127 S 
ATOM     49  O   UNL A   1      48.268  25.952  22.923  1.00  0.00    -0.237 OA
ATOM     50  O   UNL A   1      48.356  28.379  22.515  1.00  0.00    -0.237 OA
ATOM     51  O   UNL A   1      50.430  27.137  22.968  1.00  0.00    -0.744 OA
ENDBRANCH  45  48
ENDBRANCH  27  41
BRANCH  28  52
ATOM     52  C   UNL A   1      38.517  30.604  30.836  1.00  0.00     0.023 A 
ATOM     53  C   UNL A   1      38.309  30.259  32.185  1.00  0.00     0.012 A 
ATOM     54  C   UNL A   1      37.509  31.302  30.142  1.00  0.00     0.148 A 
ATOM     55  C   UNL A   1      37.110  30.576  32.822  1.00  0.00     0.002 A 
ATOM     56  C   UNL A   1      36.342  31.669  30.801  1.00  0.00     0.091 A 
ATOM     57  F   UNL A   1      37.714  31.605  28.853  1.00  0.00    -0.205 F 
ATOM     58  C   UNL A   1      36.131  31.292  32.135  1.00  0.00     0.022 A 
BRANCH  56  59
ATOM     59  S   UNL A   1      35.111  32.722  30.025  1.00  0.00     0.127 S 
ATOM     60  O   UNL A   1      34.168  32.937  31.119  1.00  0.00    -0.237 OA
ATOM     61  O   UNL A   1      35.899  33.897  29.650  1.00  0.00    -0.237 OA
ATOM     62  O   UNL A   1      34.614  31.956  28.890  1.00  0.00    -0.744 OA
ENDBRANCH  56  59
ENDBRANCH  28  52
BRANCH  40  63
ATOM     63  C   UNL A   1      44.532  34.009  29.900  1.00  0.00     0.023 A 
ATOM     64  C   UNL A   1      45.243  34.172  31.105  1.00  0.00     0.012 A 
ATOM     65  C   UNL A   1      44.314  35.122  29.066  1.00  0.00     0.148 A 
ATOM     66  C   UNL A   1      45.702  35.430  31.490  1.00  0.00     0.002 A 
ATOM     67  C   UNL A   1      44.815  36.364  29.435  1.00  0.00     0.091 A 
ATOM     68  F   UNL A   1      43.615  34.949  27.935  1.00  0.00    -0.205 F 
ATOM     69  C   UNL A   1      45.498  36.523  30.652  1.00  0.00     0.022 A 
BRANCH  67  70
ATOM     70  S   UNL A   1      44.679  37.808  28.373  1.00  0.00     0.127 S 
ATOM     71  O   UNL A   1      43.241  38.063  28.400  1.00  0.00    -0.237 OA
ATOM     72  O   UNL A   1      45.488  38.797  29.087  1.00  0.00    -0.237 OA
ATOM     73  O   UNL A   1      45.221  37.405  27.081  1.00  0.00    -0.744 OA
ENDBRANCH  67  70
ENDBRANCH  40  63
ENDBRANCH  14  15
ENDBRANCH   7   9
ENDBRANCH   4   5
ENDBRANCH   3   4
ENDBRANCH   2   3
ENDBRANCH   1   2
BRANCH   1  74
ATOM     74  C   UNL A   1      34.653  25.107  24.732  1.00  0.00     0.021 C 
BRANCH  74  75
ATOM     75  C   UNL A   1      34.004  25.721  25.972  1.00  0.00     0.116 C 
BRANCH  75  76
ATOM     76  N   UNL A   1      33.792  27.135  25.772  1.00  0.00    -0.356 N 
ATOM     77  C   UNL A   1      32.729  27.847  25.333  1.00  0.00     0.224 C 
ATOM     78  H   UNL A   1      34.573  27.690  26.000  1.00  0.00     0.163 HD
ATOM     79  O   UNL A   1      32.920  29.062  25.214  1.00  0.00    -0.275 OA
BRANCH  77  80
ATOM     80  C   UNL A   1      31.337  27.226  25.128  1.00  0.00     0.094 C 
ATOM     81  C   UNL A   1      30.570  28.028  24.027  1.00  0.00     0.002 C 
ATOM     82  C   UNL A   1      31.268  25.693  24.793  1.00  0.00     0.094 C 
ATOM     83  C   UNL A   1      31.215  27.802  22.644  1.00  0.00     0.005 C 
ATOM     84  C   UNL A   1      29.121  27.513  23.965  1.00  0.00     0.005 C 
ATOM     85  C   UNL A   1      30.543  25.519  23.426  1.00  0.00     0.002 C 
ATOM     86  C   UNL A   1      31.319  26.306  22.359  1.00  0.00     0.005 C 
ATOM     87  C   UNL A   1      29.106  26.055  23.507  1.00  0.00     0.005 C 
BRANCH  82  88
ATOM     88  C   UNL A   1      30.581  24.919  25.946  1.00  0.00     0.228 C 
ATOM     89  O   UNL A   1      29.599  25.384  26.537  1.00  0.00    -0.274 OA
ATOM     90  N   UNL A   1      30.989  23.690  26.373  1.00  0.00    -0.326 N 
ATOM     91  H   UNL A   1      30.517  23.350  27.167  1.00  0.00     0.169 HD
BRANCH  90  92
ATOM     92  C   UNL A   1      31.968  22.840  25.863  1.00  0.00     0.041 A 
ATOM     93  C   UNL A   1      32.874  22.323  26.788  1.00  0.00     0.026 A 
ATOM     94  C   UNL A   1      32.029  22.448  24.527  1.00  0.00     0.026 A 
ATOM     95  C   UNL A   1      33.738  21.300  26.411  1.00  0.00     0.006 A 
ATOM     96  C   UNL A   1      32.937  21.455  24.139  1.00  0.00     0.006 A 
ATOM     97  C   UNL A   1      33.767  20.839  25.088  1.00  0.00    -0.043 A 
BRANCH  97  98
ATOM     98  C   UNL A   1      34.668  19.685  24.710  1.00  0.00     0.071 C 
BRANCH  98  99
ATOM     99  C   UNL A   1      33.997  18.336  24.756  1.00  0.00    -0.041 A 
ATOM    100  C   UNL A   1      32.901  18.100  25.595  1.00  0.00     0.024 A 
ATOM    101  C   UNL A   1      34.462  17.280  23.968  1.00  0.00     0.024 A 
ATOM    102  C   UNL A   1      32.335  16.837  25.619  1.00  0.00     0.111 A 
ATOM    103  C   UNL A   1      33.818  16.055  24.050  1.00  0.00     0.111 A 
ATOM    104  N   UNL A   1      32.762  15.812  24.854  1.00  0.00    -0.265 NA
ENDBRANCH  98  99
ENDBRANCH  97  98
ENDBRANCH  90  92
ENDBRANCH  82  88
ENDBRANCH  77  80
ENDBRANCH  75  76
ENDBRANCH  74  75
ENDBRANCH   1  74
TORSDOF 20
ENDMDL
MODEL 2
REMARK VINA RESULT:     -12.2      5.137     10.768
REMARK SMILES O=C(NCCCCCCNC(=O)[C@H]1[C@H]2CC[C@H](CC2)[C@@H]1C(=O)Nc1ccc(Cc2ccncc2)cc1)c1ccc(-c2c3nc(c(-c4cccc(S(=O)(=O)[O-])c4F)c4ccc([nH]4)c(-c4cccc(S(=O)(=O)[O-])c4F)c4nc(c(-c5cccc(S(=O)(=O)[O-])c5F)c5ccc2[nH]5)C=C4)C=C3)cc1
REMARK SMILES IDX 7 1 6 2 5 3 4 4 3 5 1 6 2 7 37 9 38 10 99 11 39 12 98 13
REMARK SMILES IDX 40 14 41 15 42 16 92 17 43 18 97 19 91 20 93 21 44 22 96 23
REMARK SMILES IDX 90 24 89 25 45 27 77 28 57 29 76 30 58 31 61 32 75 33 94 34
REMARK SMILES IDX 59 35 60 36 74 38 95 39 62 40 46 41 47 42 55 43 48 44 50 45
REMARK SMILES IDX 56 46 49 47 51 48 52 49 53 50 54 51 78 52 79 53 87 54 80 55
REMARK SMILES IDX 82 56 88 57 81 58 83 59 84 60 85 61 86 62 63 63 64 64 72 65
REMARK SMILES IDX 65 66 67 67 73 68 66 69 68 70 69 71 70 72 71 73 8 74 9 75
REMARK SMILES IDX 10 76 11 77 12 79 13 80 14 81 20 82 15 83 19 84 17 85 16 86
REMARK SMILES IDX 18 87 21 88 22 89 23 90 24 92 25 93 36 94 26 95 35 96 27 97
REMARK SMILES IDX 28 98 29 99 30 100 34 101 31 102 33 103 32 104
REMARK H PARENT 3 8 93 26 61 37 10 78 23 91
REMARK Flexibility Score: inf
ROOT
ATOM      1  C   UNL A   1      31.894  28.369  25.981  1.00  0.00     0.002 C 
ENDROOT
BRANCH   1   2
ATOM      2  C   UNL A   1      31.785  29.769  25.367  1.00  0.00     0.002 C 
BRANCH   2   3
ATOM      3  C   UNL A   1      31.539  30.893  26.373  1.00  0.00     0.021 C 
BRANCH   3   4
ATOM      4  C   UNL A   1      32.804  31.427  27.031  1.00  0.00     0.116 C 
BRANCH   4   5
ATOM      5  N   UNL A   1      32.755  32.869  27.198  1.00  0.00    -0.352 N 
ATOM      6  O   UNL A   1      33.195  34.826  28.227  1.00  0.00    -0.269 OA
ATOM      7  C   UNL A   1      33.507  33.654  28.037  1.00  0.00     0.251 C 
ATOM      8  H   UNL A   1      32.101  33.344  26.638  1.00  0.00     0.163 HD
BRANCH   7   9
ATOM      9  C   UNL A   1      34.682  33.065  28.715  1.00  0.00     0.039 A 
ATOM     10  C   UNL A   1      34.509  32.243  29.833  1.00  0.00     0.014 A 
ATOM     11  C   UNL A   1      35.963  33.331  28.226  1.00  0.00     0.014 A 
ATOM     12  C   UNL A   1      35.618  31.777  30.525  1.00  0.00     0.010 A 
ATOM     13  C   UNL A   1      37.076  32.792  28.877  1.00  0.00     0.010 A 
ATOM     14  C   UNL A   1      36.913  32.022  30.038  1.00  0.00    -0.014 A 
BRANCH  14  15
ATOM     15  C   UNL A   1      38.066  31.350  30.688  1.00  0.00     0.031 A 
ATOM     16  C   UNL A   1      38.477  31.675  32.096  1.00  0.00     0.074 A 
ATOM     17  C   UNL A   1      38.756  30.443  29.967  1.00  0.00     0.049 A 
ATOM     18  N   UNL A   1      39.452  31.160  32.800  1.00  0.00    -0.248 NA
ATOM     19  C   UNL A   1      37.708  32.711  32.805  1.00  0.00     0.031 C 
ATOM     20  C   UNL A   1      38.476  30.094  28.572  1.00  0.00     0.029 A 
ATOM     21  N   UNL A   1      39.828  29.657  30.296  1.00  0.00    -0.354 N 
ATOM     22  C   UNL A   1      39.443  31.832  34.017  1.00  0.00     0.074 A 
ATOM     23  C   UNL A   1      38.362  32.792  33.958  1.00  0.00     0.031 C 
ATOM     24  C   UNL A   1      39.341  29.153  28.169  1.00  0.00     0.029 A 
ATOM     25  C   UNL A   1      40.269  28.871  29.256  1.00  0.00     0.049 A 
ATOM     26  H   UNL A   1      40.243  29.654  31.189  1.00  0.00     0.167 HD
ATOM     27  C   UNL A   1      40.256  31.652  35.085  1.00  0.00     0.034 A 
ATOM     28  C   UNL A   1      41.319  28.031  29.177  1.00  0.00     0.034 A 
ATOM     29  C   UNL A   1      41.304  30.665  35.145  1.00  0.00     0.049 A 
ATOM     30  C   UNL A   1      42.179  27.835  30.391  1.00  0.00     0.074 A 
ATOM     31  C   UNL A   1      42.124  30.348  36.215  1.00  0.00     0.029 A 
ATOM     32  N   UNL A   1      41.688  29.847  34.094  1.00  0.00    -0.354 N 
ATOM     33  N   UNL A   1      42.055  28.367  31.582  1.00  0.00    -0.248 NA
ATOM     34  C   UNL A   1      43.309  26.906  30.258  1.00  0.00     0.031 C 
ATOM     35  C   UNL A   1      43.020  29.356  35.802  1.00  0.00     0.029 A 
ATOM     36  C   UNL A   1      42.744  29.040  34.482  1.00  0.00     0.049 A 
ATOM     37  H   UNL A   1      41.272  29.842  33.201  1.00  0.00     0.167 HD
ATOM     38  C   UNL A   1      43.076  27.822  32.348  1.00  0.00     0.074 A 
ATOM     39  C   UNL A   1      43.788  26.892  31.495  1.00  0.00     0.031 C 
ATOM     40  C   UNL A   1      43.411  28.086  33.635  1.00  0.00     0.034 A 
BRANCH  27  41
ATOM     41  C   UNL A   1      40.034  32.505  36.307  1.00  0.00     0.023 A 
ATOM     42  C   UNL A   1      40.744  33.713  36.448  1.00  0.00     0.012 A 
ATOM     43  C   UNL A   1      39.041  32.169  37.249  1.00  0.00     0.148 A 
ATOM     44  C   UNL A   1      40.478  34.570  37.517  1.00  0.00     0.002 A 
ATOM     45  C   UNL A   1      38.758  33.045  38.291  1.00  0.00     0.091 A 
ATOM     46  F   UNL A   1      38.390  31.007  37.104  1.00  0.00    -0.205 F 
ATOM     47  C   UNL A   1      39.479  34.242  38.430  1.00  0.00     0.022 A 
BRANCH  45  48
ATOM     48  S   UNL A   1      37.438  32.754  39.476  1.00  0.00     0.127 S 
ATOM     49  O   UNL A   1      36.260  32.747  38.608  1.00  0.00    -0.237 OA
ATOM     50  O   UNL A   1      37.800  31.447  40.023  1.00  0.00    -0.237 OA
ATOM     51  O   UNL A   1      37.502  33.854  40.429  1.00  0.00    -0.744 OA
ENDBRANCH  45  48
ENDBRANCH  27  41
BRANCH  28  52
ATOM     52  C   UNL A   1      41.586  27.296  27.910  1.00  0.00     0.023 A 
ATOM     53  C   UNL A   1      42.090  27.992  26.795  1.00  0.00     0.012 A 
ATOM     54  C   UNL A   1      41.379  25.906  27.815  1.00  0.00     0.148 A 
ATOM     55  C   UNL A   1      42.352  27.323  25.599  1.00  0.00     0.002 A 
ATOM     56  C   UNL A   1      41.701  25.236  26.642  1.00  0.00     0.091 A 
ATOM     57  F   UNL A   1      40.880  25.261  28.879  1.00  0.00    -0.205 F 
ATOM     58  C   UNL A   1      42.170  25.944  25.526  1.00  0.00     0.022 A 
BRANCH  56  59
ATOM     59  S   UNL A   1      41.638  23.444  26.529  1.00  0.00     0.127 S 
ATOM     60  O   UNL A   1      42.307  23.043  27.763  1.00  0.00    -0.237 OA
ATOM     61  O   UNL A   1      40.198  23.185  26.497  1.00  0.00    -0.237 OA
ATOM     62  O   UNL A   1      42.327  23.115  25.289  1.00  0.00    -0.744 OA
ENDBRANCH  56  59
ENDBRANCH  28  52
BRANCH  40  63
ATOM     63  C   UNL A   1      44.592  27.346  34.204  1.00  0.00     0.023 A 
ATOM     64  C   UNL A   1      45.888  27.874  34.038  1.00  0.00     0.012 A 
ATOM     65  C   UNL A   1      44.414  26.163  34.947  1.00  0.00     0.148 A 
ATOM     66  C   UNL A   1      46.993  27.216  34.575  1.00  0.00     0.002 A 
ATOM     67  C   UNL A   1      45.515  25.539  35.518  1.00  0.00     0.091 A 
ATOM     68  F   UNL A   1      43.175  25.667  35.074  1.00  0.00    -0.205 F 
ATOM     69  C   UNL A   1      46.806  26.056  35.323  1.00  0.00     0.022 A 
BRANCH  67  70
ATOM     70  S   UNL A   1      45.359  24.094  36.574  1.00  0.00     0.127 S 
ATOM     71  O   UNL A   1      46.743  23.877  36.990  1.00  0.00    -0.237 OA
ATOM     72  O   UNL A   1      44.471  24.577  37.633  1.00  0.00    -0.237 OA
ATOM     73  O   UNL A   1      44.785  23.048  35.737  1.00  0.00    -0.744 OA
ENDBRANCH  67  70
ENDBRANCH  40  63
ENDBRANCH  14  15
ENDBRANCH   7   9
ENDBRANCH   4   5
ENDBRANCH   3   4
ENDBRANCH   2   3
ENDBRANCH   1   2
BRANCH   1  74
ATOM     74  C   UNL A   1      33.143  27.576  25.571  1.00  0.00     0.021 C 
BRANCH  74  75
ATOM     75  C   UNL A   1      33.079  26.097  25.950  1.00  0.00     0.116 C 
BRANCH  75  76
ATOM     76  N   UNL A   1      34.408  25.532  25.971  1.00  0.00    -0.356 N 
ATOM     77  C   UNL A   1      34.929  24.403  25.439  1.00  0.00     0.224 C 
ATOM     78  H   UNL A   1      35.062  26.073  26.470  1.00  0.00     0.163 HD
ATOM     79  O   UNL A   1      36.113  24.186  25.718  1.00  0.00    -0.275 OA
BRANCH  77  80
ATOM     80  C   UNL A   1      34.160  23.519  24.443  1.00  0.00     0.094 C 
ATOM     81  C   UNL A   1      34.023  22.076  25.030  1.00  0.00     0.002 C 
ATOM     82  C   UNL A   1      32.749  24.019  23.967  1.00  0.00     0.094 C 
ATOM     83  C   UNL A   1      33.070  22.075  26.243  1.00  0.00     0.005 C 
ATOM     84  C   UNL A   1      33.418  21.162  23.950  1.00  0.00     0.005 C 
ATOM     85  C   UNL A   1      31.691  22.939  24.339  1.00  0.00     0.002 C 
ATOM     86  C   UNL A   1      31.739  22.714  25.857  1.00  0.00     0.005 C 
ATOM     87  C   UNL A   1      31.997  21.616  23.620  1.00  0.00     0.005 C 
BRANCH  82  88
ATOM     88  C   UNL A   1      32.775  24.345  22.452  1.00  0.00     0.228 C 
ATOM     89  O   UNL A   1      33.446  23.671  21.660  1.00  0.00    -0.274 OA
ATOM     90  N   UNL A   1      32.064  25.364  21.891  1.00  0.00    -0.326 N 
ATOM     91  H   UNL A   1      32.237  25.512  20.933  1.00  0.00     0.169 HD
BRANCH  90  92
ATOM     92  C   UNL A   1      31.133  26.231  22.460  1.00  0.00     0.041 A 
ATOM     93  C   UNL A   1      31.211  27.564  22.060  1.00  0.00     0.026 A 
ATOM     94  C   UNL A   1      30.122  25.816  23.325  1.00  0.00     0.026 A 
ATOM     95  C   UNL A   1      30.192  28.447  22.398  1.00  0.00     0.006 A 
ATOM     96  C   UNL A   1      29.125  26.722  23.707  1.00  0.00     0.006 A 
ATOM     97  C   UNL A   1      29.126  28.033  23.209  1.00  0.00    -0.043 A 
BRANCH  97  98
ATOM     98  C   UNL A   1      27.995  28.989  23.515  1.00  0.00     0.071 C 
BRANCH  98  99
ATOM     99  C   UNL A   1      28.182  30.372  22.946  1.00  0.00    -0.041 A 
ATOM    100  C   UNL A   1      28.643  31.427  23.742  1.00  0.00     0.024 A 
ATOM    101  C   UNL A   1      27.886  30.638  21.606  1.00  0.00     0.024 A 
ATOM    102  C   UNL A   1      28.776  32.684  23.177  1.00  0.00     0.111 A 
ATOM    103  C   UNL A   1      28.066  31.928  21.129  1.00  0.00     0.111 A 
ATOM    104  N   UNL A   1      28.509  32.955  21.883  1.00  0.00    -0.265 NA
ENDBRANCH  98  99
ENDBRANCH  97  98
ENDBRANCH  90  92
ENDBRANCH  82  88
ENDBRANCH  77  80
ENDBRANCH  75  76
ENDBRANCH  74  75
ENDBRANCH   1  74
TORSDOF 20
ENDMDL
MODEL 3
REMARK VINA RESULT:     -12.2      5.038      8.855
REMARK SMILES O=C(NCCCCCCNC(=O)[C@H]1[C@H]2CC[C@H](CC2)[C@@H]1C(=O)Nc1ccc(Cc2ccncc2)cc1)c1ccc(-c2c3nc(c(-c4cccc(S(=O)(=O)[O-])c4F)c4ccc([nH]4)c(-c4cccc(S(=O)(=O)[O-])c4F)c4nc(c(-c5cccc(S(=O)(=O)[O-])c5F)c5ccc2[nH]5)C=C4)C=C3)cc1
REMARK SMILES IDX 7 1 6 2 5 3 4 4 3 5 1 6 2 7 37 9 38 10 99 11 39 12 98 13
REMARK SMILES IDX 40 14 41 15 42 16 92 17 43 18 97 19 91 20 93 21 44 22 96 23
REMARK SMILES IDX 90 24 89 25 45 27 77 28 57 29 76 30 58 31 61 32 75 33 94 34
REMARK SMILES IDX 59 35 60 36 74 38 95 39 62 40 46 41 47 42 55 43 48 44 50 45
REMARK SMILES IDX 56 46 49 47 51 48 52 49 53 50 54 51 78 52 79 53 87 54 80 55
REMARK SMILES IDX 82 56 88 57 81 58 83 59 84 60 85 61 86 62 63 63 64 64 72 65
REMARK SMILES IDX 65 66 67 67 73 68 66 69 68 70 69 71 70 72 71 73 8 74 9 75
REMARK SMILES IDX 10 76 11 77 12 79 13 80 14 81 20 82 15 83 19 84 17 85 16 86
REMARK SMILES IDX 18 87 21 88 22 89 23 90 24 92 25 93 36 94 26 95 35 96 27 97
REMARK SMILES IDX 28 98 29 99 30 100 34 101 31 102 33 103 32 104
REMARK H PARENT 3 8 93 26 61 37 10 78 23 91
REMARK Flexibility Score: inf
ROOT
ATOM      1  C   UNL A   1      31.648  28.564  25.844  1.00  0.00     0.002 C 
ENDROOT
BRANCH   1   2
ATOM      2  C   UNL A   1      31.512  29.986  25.288  1.00  0.00     0.002 C 
BRANCH   2   3
ATOM      3  C   UNL A   1      31.408  31.082  26.349  1.00  0.00     0.021 C 
BRANCH   3   4
ATOM      4  C   UNL A   1      32.746  31.503  26.941  1.00  0.00     0.116 C 
BRANCH   4   5
ATOM      5  N   UNL A   1      32.809  32.937  27.161  1.00  0.00    -0.352 N 
ATOM      6  O   UNL A   1      33.445  34.818  28.228  1.00  0.00    -0.269 OA
ATOM      7  C   UNL A   1      33.662  33.636  27.980  1.00  0.00     0.251 C 
ATOM      8  H   UNL A   1      32.159  33.477  26.659  1.00  0.00     0.163 HD
BRANCH   7   9
ATOM      9  C   UNL A   1      34.830  32.942  28.565  1.00  0.00     0.039 A 
ATOM     10  C   UNL A   1      36.126  33.373  28.264  1.00  0.00     0.014 A 
ATOM     11  C   UNL A   1      34.628  31.860  29.424  1.00  0.00     0.014 A 
ATOM     12  C   UNL A   1      37.218  32.657  28.733  1.00  0.00     0.010 A 
ATOM     13  C   UNL A   1      35.731  31.191  29.963  1.00  0.00     0.010 A 
ATOM     14  C   UNL A   1      37.033  31.575  29.611  1.00  0.00    -0.014 A 
BRANCH  14  15
ATOM     15  C   UNL A   1      38.221  30.953  30.247  1.00  0.00     0.031 A 
ATOM     16  C   UNL A   1      39.063  29.941  29.525  1.00  0.00     0.074 A 
ATOM     17  C   UNL A   1      38.518  31.310  31.513  1.00  0.00     0.049 A 
ATOM     18  N   UNL A   1      40.137  29.324  29.946  1.00  0.00    -0.248 NA
ATOM     19  C   UNL A   1      38.651  29.563  28.163  1.00  0.00     0.031 C 
ATOM     20  C   UNL A   1      37.733  32.243  32.327  1.00  0.00     0.029 A 
ATOM     21  N   UNL A   1      39.545  30.935  32.339  1.00  0.00    -0.354 N 
ATOM     22  C   UNL A   1      40.508  28.457  28.924  1.00  0.00     0.074 A 
ATOM     23  C   UNL A   1      39.545  28.629  27.858  1.00  0.00     0.031 C 
ATOM     24  C   UNL A   1      38.313  32.380  33.526  1.00  0.00     0.029 A 
ATOM     25  C   UNL A   1      39.478  31.508  33.588  1.00  0.00     0.049 A 
ATOM     26  H   UNL A   1      40.260  30.316  32.065  1.00  0.00     0.167 HD
ATOM     27  C   UNL A   1      41.562  27.608  28.881  1.00  0.00     0.034 A 
ATOM     28  C   UNL A   1      40.257  31.334  34.673  1.00  0.00     0.034 A 
ATOM     29  C   UNL A   1      42.536  27.475  29.933  1.00  0.00     0.049 A 
ATOM     30  C   UNL A   1      41.433  30.408  34.576  1.00  0.00     0.074 A 
ATOM     31  C   UNL A   1      43.687  26.705  29.945  1.00  0.00     0.029 A 
ATOM     32  N   UNL A   1      42.471  28.111  31.164  1.00  0.00    -0.354 N 
ATOM     33  N   UNL A   1      41.854  29.717  33.545  1.00  0.00    -0.248 NA
ATOM     34  C   UNL A   1      42.256  30.254  35.784  1.00  0.00     0.031 C 
ATOM     35  C   UNL A   1      44.303  26.857  31.192  1.00  0.00     0.029 A 
ATOM     36  C   UNL A   1      43.548  27.738  31.949  1.00  0.00     0.049 A 
ATOM     37  H   UNL A   1      41.761  28.736  31.438  1.00  0.00     0.167 HD
ATOM     38  C   UNL A   1      43.002  29.064  33.971  1.00  0.00     0.074 A 
ATOM     39  C   UNL A   1      43.230  29.469  35.344  1.00  0.00     0.031 C 
ATOM     40  C   UNL A   1      43.785  28.187  33.296  1.00  0.00     0.034 A 
BRANCH  27  41
ATOM     41  C   UNL A   1      41.760  26.774  27.641  1.00  0.00     0.023 A 
ATOM     42  C   UNL A   1      42.370  27.348  26.509  1.00  0.00     0.012 A 
ATOM     43  C   UNL A   1      41.450  25.400  27.640  1.00  0.00     0.148 A 
ATOM     44  C   UNL A   1      42.657  26.569  25.388  1.00  0.00     0.002 A 
ATOM     45  C   UNL A   1      41.772  24.622  26.533  1.00  0.00     0.091 A 
ATOM     46  F   UNL A   1      40.855  24.879  28.722  1.00  0.00    -0.205 F 
ATOM     47  C   UNL A   1      42.370  25.207  25.405  1.00  0.00     0.022 A 
BRANCH  45  48
ATOM     48  S   UNL A   1      41.515  22.845  26.483  1.00  0.00     0.127 S 
ATOM     49  O   UNL A   1      42.221  22.480  25.254  1.00  0.00    -0.237 OA
ATOM     50  O   UNL A   1      42.170  22.405  27.715  1.00  0.00    -0.237 OA
ATOM     51  O   UNL A   1      40.073  22.646  26.454  1.00  0.00    -0.744 OA
ENDBRANCH  45  48
ENDBRANCH  27  41
BRANCH  28  52
ATOM     52  C   UNL A   1      39.958  32.081  35.927  1.00  0.00     0.023 A 
ATOM     53  C   UNL A   1      40.735  33.203  36.269  1.00  0.00     0.012 A 
ATOM     54  C   UNL A   1      38.887  31.706  36.761  1.00  0.00     0.148 A 
ATOM     55  C   UNL A   1      40.470  33.920  37.437  1.00  0.00     0.002 A 
ATOM     56  C   UNL A   1      38.590  32.461  37.889  1.00  0.00     0.091 A 
ATOM     57  F   UNL A   1      38.170  30.623  36.431  1.00  0.00    -0.205 F 
ATOM     58  C   UNL A   1      39.391  33.558  38.240  1.00  0.00     0.022 A 
BRANCH  56  59
ATOM     59  S   UNL A   1      37.126  32.144  38.880  1.00  0.00     0.127 S 
ATOM     60  O   UNL A   1      36.988  30.695  38.756  1.00  0.00    -0.237 OA
ATOM     61  O   UNL A   1      37.538  32.613  40.203  1.00  0.00    -0.237 OA
ATOM     62  O   UNL A   1      36.072  32.943  38.269  1.00  0.00    -0.744 OA
ENDBRANCH  56  59
ENDBRANCH  28  52
BRANCH  40  63
ATOM     63  C   UNL A   1      44.971  27.618  34.028  1.00  0.00     0.023 A 
ATOM     64  C   UNL A   1      46.202  28.305  33.997  1.00  0.00     0.012 A 
ATOM     65  C   UNL A   1      44.854  26.439  34.788  1.00  0.00     0.148 A 
ATOM     66  C   UNL A   1      47.306  27.808  34.685  1.00  0.00     0.002 A 
ATOM     67  C   UNL A   1      45.947  25.975  35.508  1.00  0.00     0.091 A 
ATOM     68  F   UNL A   1      43.681  25.790  34.786  1.00  0.00    -0.205 F 
ATOM     69  C   UNL A   1      47.177  26.651  35.448  1.00  0.00     0.022 A 
BRANCH  67  70
ATOM     70  S   UNL A   1      45.845  24.545  36.591  1.00  0.00     0.127 S 
ATOM     71  O   UNL A   1      44.607  24.811  37.321  1.00  0.00    -0.237 OA
ATOM     72  O   UNL A   1      45.766  23.438  35.638  1.00  0.00    -0.237 OA
ATOM     73  O   UNL A   1      47.062  24.564  37.393  1.00  0.00    -0.744 OA
ENDBRANCH  67  70
ENDBRANCH  40  63
ENDBRANCH  14  15
ENDBRANCH   7   9
ENDBRANCH   4   5
ENDBRANCH   3   4
ENDBRANCH   2   3
ENDBRANCH   1   2
BRANCH   1  74
ATOM     74  C   UNL A   1      32.942  27.837  25.454  1.00  0.00     0.021 C 
BRANCH  74  75
ATOM     75  C   UNL A   1      32.905  26.334  25.730  1.00  0.00     0.116 C 
BRANCH  75  76
ATOM     76  N   UNL A   1      34.248  25.817  25.848  1.00  0.00    -0.356 N 
ATOM     77  C   UNL A   1      34.824  24.666  25.432  1.00  0.00     0.224 C 
ATOM     78  H   UNL A   1      34.865  26.419  26.326  1.00  0.00     0.163 HD
ATOM     79  O   UNL A   1      36.001  24.512  25.774  1.00  0.00    -0.275 OA
BRANCH  77  80
ATOM     80  C   UNL A   1      34.124  23.679  24.484  1.00  0.00     0.094 C 
ATOM     81  C   UNL A   1      34.124  22.254  25.129  1.00  0.00     0.002 C 
ATOM     82  C   UNL A   1      32.667  24.033  24.013  1.00  0.00     0.094 C 
ATOM     83  C   UNL A   1      33.191  22.216  26.357  1.00  0.00     0.005 C 
ATOM     84  C   UNL A   1      33.588  21.247  24.095  1.00  0.00     0.005 C 
ATOM     85  C   UNL A   1      31.715  22.878  24.444  1.00  0.00     0.002 C 
ATOM     86  C   UNL A   1      31.803  22.719  25.970  1.00  0.00     0.005 C 
ATOM     87  C   UNL A   1      32.127  21.561  23.772  1.00  0.00     0.005 C 
BRANCH  82  88
ATOM     88  C   UNL A   1      32.644  24.299  22.487  1.00  0.00     0.228 C 
ATOM     89  O   UNL A   1      33.300  23.603  21.702  1.00  0.00    -0.274 OA
ATOM     90  N   UNL A   1      31.902  25.286  21.908  1.00  0.00    -0.326 N 
ATOM     91  H   UNL A   1      32.044  25.398  20.941  1.00  0.00     0.169 HD
BRANCH  90  92
ATOM     92  C   UNL A   1      30.975  26.162  22.471  1.00  0.00     0.041 A 
ATOM     93  C   UNL A   1      31.093  27.501  22.101  1.00  0.00     0.026 A 
ATOM     94  C   UNL A   1      29.934  25.753  23.302  1.00  0.00     0.026 A 
ATOM     95  C   UNL A   1      30.085  28.400  22.431  1.00  0.00     0.006 A 
ATOM     96  C   UNL A   1      28.947  26.673  23.677  1.00  0.00     0.006 A 
ATOM     97  C   UNL A   1      28.990  27.994  23.205  1.00  0.00    -0.043 A 
BRANCH  97  98
ATOM     98  C   UNL A   1      27.873  28.969  23.503  1.00  0.00     0.071 C 
BRANCH  98  99
ATOM     99  C   UNL A   1      28.074  30.340  22.912  1.00  0.00    -0.041 A 
ATOM    100  C   UNL A   1      27.926  30.566  21.538  1.00  0.00     0.024 A 
ATOM    101  C   UNL A   1      28.428  31.422  23.723  1.00  0.00     0.024 A 
ATOM    102  C   UNL A   1      28.145  31.839  21.041  1.00  0.00     0.111 A 
ATOM    103  C   UNL A   1      28.611  32.664  23.132  1.00  0.00     0.111 A 
ATOM    104  N   UNL A   1      28.472  32.897  21.811  1.00  0.00    -0.265 NA
ENDBRANCH  98  99
ENDBRANCH  97  98
ENDBRANCH  90  92
ENDBRANCH  82  88
ENDBRANCH  77  80
ENDBRANCH  75  76
ENDBRANCH  74  75
ENDBRANCH   1  74
TORSDOF 20
ENDMDL
