MODEL 1
REMARK VINA RESULT:     -12.9      0.000      0.000
REMARK SMILES Cc1cc(C)c2c(CCCC(=O)NCCCCCCNC(=O)c3ccc(-c4c5nc(c(-c6cccc(S(=O)(=O)[O-])c6F)c6ccc([nH]6)c(-c6cccc(S(=O)(=O)[O-])c6F)c6nc(c(-c7cccc(S(=O)(=O)[O-])c7F)c7ccc4[nH]7)C=C6)C=C5)cc3)c(-c3ccccn3)[nH]c2c1
REMARK SMILES IDX 16 1 15 2 14 3 13 4 11 5 12 6 10 8 9 9 8 10 7 11 1 12 2 13
REMARK SMILES IDX 3 14 95 15 4 16 94 17 5 18 6 19 93 20 86 21 87 23 88 24
REMARK SMILES IDX 92 25 89 26 91 27 90 28 17 29 18 30 19 31 20 32 21 33 22 35
REMARK SMILES IDX 23 36 24 37 85 38 25 39 84 40 26 41 27 42 28 43 78 44 29 45
REMARK SMILES IDX 83 46 77 47 79 48 30 49 82 50 76 51 75 52 31 54 63 55 43 56
REMARK SMILES IDX 62 57 44 58 47 59 61 60 80 61 45 62 46 63 60 65 81 66 48 67
REMARK SMILES IDX 32 68 33 69 41 70 34 71 36 72 42 73 35 74 37 75 38 76 39 77
REMARK SMILES IDX 40 78 64 79 65 80 73 81 66 82 68 83 74 84 67 85 69 86 70 87
REMARK SMILES IDX 71 88 72 89 49 90 50 91 58 92 51 93 53 94 59 95 52 96 54 97
REMARK SMILES IDX 55 98 56 99 57 100
REMARK H PARENT 13 7 93 22 20 34 79 53 47 64
REMARK Flexibility Score: inf
ROOT
ATOM      1  C   UNL A   1      31.370  27.544  24.929  1.00  0.00     0.002 C 
ENDROOT
BRANCH   1   2
ATOM      2  C   UNL A   1      30.897  26.566  26.006  1.00  0.00     0.021 C 
BRANCH   2   3
ATOM      3  C   UNL A   1      30.080  25.417  25.428  1.00  0.00     0.116 C 
BRANCH   3   4
ATOM      4  N   UNL A   1      29.630  24.474  26.418  1.00  0.00    -0.356 N 
ATOM      5  C   UNL A   1      30.147  23.295  26.834  1.00  0.00     0.220 C 
ATOM      6  O   UNL A   1      29.663  22.845  27.884  1.00  0.00    -0.275 OA
ATOM      7  H   UNL A   1      28.796  24.734  26.872  1.00  0.00     0.163 HD
BRANCH   5   8
ATOM      8  C   UNL A   1      31.336  22.585  26.209  1.00  0.00     0.100 C 
BRANCH   8   9
ATOM      9  C   UNL A   1      31.358  21.965  24.831  1.00  0.00     0.015 C 
BRANCH   9  10
ATOM     10  C   UNL A   1      32.619  21.852  23.993  1.00  0.00     0.039 C 
BRANCH  10  11
ATOM     11  C   UNL A   1      33.970  21.303  24.442  1.00  0.00    -0.013 A 
ATOM     12  C   UNL A   1      38.633  24.127  26.325  1.00  0.00     0.044 C 
ATOM     13  C   UNL A   1      37.372  23.445  25.884  1.00  0.00    -0.049 A 
ATOM     14  C   UNL A   1      36.254  24.224  25.584  1.00  0.00     0.007 A 
ATOM     15  C   UNL A   1      37.297  22.055  25.775  1.00  0.00     0.030 A 
ATOM     16  C   UNL A   1      35.039  23.658  25.137  1.00  0.00    -0.041 A 
ATOM     17  C   UNL A   1      36.108  21.497  25.292  1.00  0.00     0.047 A 
ATOM     18  C   UNL A   1      33.895  24.620  24.912  1.00  0.00     0.045 C 
ATOM     19  C   UNL A   1      34.988  22.244  24.935  1.00  0.00     0.006 A 
ATOM     20  N   UNL A   1      35.794  20.182  25.089  1.00  0.00    -0.353 N 
ATOM     21  C   UNL A   1      34.489  20.014  24.682  1.00  0.00     0.068 A 
ATOM     22  H   UNL A   1      36.428  19.440  25.218  1.00  0.00     0.167 HD
BRANCH  21  23
ATOM     23  C   UNL A   1      33.950  18.651  24.739  1.00  0.00     0.087 A 
ATOM     24  C   UNL A   1      34.726  17.564  24.332  1.00  0.00     0.030 A 
ATOM     25  N   UNL A   1      32.698  18.502  25.212  1.00  0.00    -0.255 NA
ATOM     26  C   UNL A   1      34.280  16.273  24.605  1.00  0.00     0.004 A 
ATOM     27  C   UNL A   1      32.296  17.234  25.486  1.00  0.00     0.112 A 
ATOM     28  C   UNL A   1      33.058  16.103  25.237  1.00  0.00     0.020 A 
ENDBRANCH  21  23
ENDBRANCH  10  11
ENDBRANCH   9  10
ENDBRANCH   8   9
ENDBRANCH   5   8
ENDBRANCH   3   4
ENDBRANCH   2   3
ENDBRANCH   1   2
BRANCH   1  29
ATOM     29  C   UNL A   1      32.449  28.548  25.376  1.00  0.00     0.002 C 
BRANCH  29  30
ATOM     30  C   UNL A   1      33.549  28.008  26.301  1.00  0.00     0.021 C 
BRANCH  30  31
ATOM     31  C   UNL A   1      33.665  28.769  27.613  1.00  0.00     0.116 C 
BRANCH  31  32
ATOM     32  N   UNL A   1      33.447  30.205  27.429  1.00  0.00    -0.352 N 
ATOM     33  C   UNL A   1      34.271  31.255  27.780  1.00  0.00     0.251 C 
ATOM     34  H   UNL A   1      32.598  30.455  26.997  1.00  0.00     0.163 HD
ATOM     35  O   UNL A   1      33.836  32.392  27.869  1.00  0.00    -0.269 OA
BRANCH  33  36
ATOM     36  C   UNL A   1      35.693  30.972  28.028  1.00  0.00     0.039 A 
ATOM     37  C   UNL A   1      36.530  31.927  28.609  1.00  0.00     0.014 A 
ATOM     38  C   UNL A   1      36.170  29.707  27.688  1.00  0.00     0.014 A 
ATOM     39  C   UNL A   1      37.840  31.569  28.910  1.00  0.00     0.010 A 
ATOM     40  C   UNL A   1      37.401  29.308  28.129  1.00  0.00     0.010 A 
ATOM     41  C   UNL A   1      38.260  30.250  28.681  1.00  0.00    -0.014 A 
BRANCH  41  42
ATOM     42  C   UNL A   1      39.556  29.785  29.158  1.00  0.00     0.031 A 
ATOM     43  C   UNL A   1      39.780  30.081  30.599  1.00  0.00     0.074 A 
ATOM     44  C   UNL A   1      40.346  28.970  28.422  1.00  0.00     0.049 A 
ATOM     45  N   UNL A   1      40.616  30.926  31.105  1.00  0.00    -0.248 NA
ATOM     46  C   UNL A   1      38.842  29.517  31.588  1.00  0.00     0.031 C 
ATOM     47  C   UNL A   1      40.021  28.362  27.121  1.00  0.00     0.029 A 
ATOM     48  N   UNL A   1      41.535  28.380  28.731  1.00  0.00    -0.354 N 
ATOM     49  C   UNL A   1      40.506  30.762  32.486  1.00  0.00     0.074 A 
ATOM     50  C   UNL A   1      39.255  30.099  32.718  1.00  0.00     0.031 C 
ATOM     51  C   UNL A   1      40.829  27.302  26.900  1.00  0.00     0.029 A 
ATOM     52  C   UNL A   1      41.845  27.277  27.933  1.00  0.00     0.049 A 
ATOM     53  H   UNL A   1      42.123  28.703  29.451  1.00  0.00     0.167 HD
ATOM     54  C   UNL A   1      41.609  30.868  33.280  1.00  0.00     0.034 A 
ATOM     55  C   UNL A   1      42.848  26.389  28.135  1.00  0.00     0.034 A 
ATOM     56  C   UNL A   1      42.713  31.420  32.541  1.00  0.00     0.049 A 
ATOM     57  C   UNL A   1      43.848  27.064  28.986  1.00  0.00     0.074 A 
ATOM     58  C   UNL A   1      43.099  32.656  32.077  1.00  0.00     0.029 A 
ATOM     59  N   UNL A   1      43.400  30.473  31.828  1.00  0.00    -0.354 N 
ATOM     60  N   UNL A   1      44.531  28.102  28.597  1.00  0.00    -0.248 NA
ATOM     61  C   UNL A   1      43.862  26.794  30.418  1.00  0.00     0.031 C 
ATOM     62  C   UNL A   1      43.939  32.409  30.950  1.00  0.00     0.029 A 
ATOM     63  C   UNL A   1      44.088  31.033  30.788  1.00  0.00     0.049 A 
ATOM     64  H   UNL A   1      43.399  29.511  32.038  1.00  0.00     0.167 HD
ATOM     65  C   UNL A   1      44.652  28.857  29.747  1.00  0.00     0.074 A 
ATOM     66  C   UNL A   1      44.414  27.931  30.849  1.00  0.00     0.031 C 
ATOM     67  C   UNL A   1      44.580  30.215  29.702  1.00  0.00     0.034 A 
BRANCH  54  68
ATOM     68  C   UNL A   1      41.871  30.063  34.536  1.00  0.00     0.023 A 
ATOM     69  C   UNL A   1      42.429  30.745  35.640  1.00  0.00     0.012 A 
ATOM     70  C   UNL A   1      41.858  28.651  34.604  1.00  0.00     0.148 A 
ATOM     71  C   UNL A   1      42.958  30.060  36.743  1.00  0.00     0.002 A 
ATOM     72  C   UNL A   1      42.303  27.977  35.737  1.00  0.00     0.091 A 
ATOM     73  F   UNL A   1      41.551  27.933  33.521  1.00  0.00    -0.205 F 
ATOM     74  C   UNL A   1      42.880  28.674  36.798  1.00  0.00     0.022 A 
BRANCH  72  75
ATOM     75  S   UNL A   1      42.170  26.188  35.884  1.00  0.00     0.127 S 
ATOM     76  O   UNL A   1      43.267  25.740  35.033  1.00  0.00    -0.237 OA
ATOM     77  O   UNL A   1      42.379  25.996  37.320  1.00  0.00    -0.237 OA
ATOM     78  O   UNL A   1      40.826  25.857  35.428  1.00  0.00    -0.744 OA
ENDBRANCH  72  75
ENDBRANCH  54  68
BRANCH  55  79
ATOM     79  C   UNL A   1      42.950  24.935  27.863  1.00  0.00     0.023 A 
ATOM     80  C   UNL A   1      41.863  24.100  28.199  1.00  0.00     0.012 A 
ATOM     81  C   UNL A   1      43.917  24.443  26.963  1.00  0.00     0.148 A 
ATOM     82  C   UNL A   1      41.698  22.848  27.595  1.00  0.00     0.002 A 
ATOM     83  C   UNL A   1      43.742  23.203  26.354  1.00  0.00     0.091 A 
ATOM     84  F   UNL A   1      44.948  25.232  26.631  1.00  0.00    -0.205 F 
ATOM     85  C   UNL A   1      42.625  22.411  26.654  1.00  0.00     0.022 A 
BRANCH  83  86
ATOM     86  S   UNL A   1      44.850  22.595  25.074  1.00  0.00     0.127 S 
ATOM     87  O   UNL A   1      44.134  21.413  24.591  1.00  0.00    -0.237 OA
ATOM     88  O   UNL A   1      44.875  23.720  24.143  1.00  0.00    -0.237 OA
ATOM     89  O   UNL A   1      46.111  22.303  25.746  1.00  0.00    -0.744 OA
ENDBRANCH  83  86
ENDBRANCH  55  79
BRANCH  67  90
ATOM     90  C   UNL A   1      44.878  30.895  28.399  1.00  0.00     0.023 A 
ATOM     91  C   UNL A   1      43.892  31.232  27.451  1.00  0.00     0.012 A 
ATOM     92  C   UNL A   1      46.200  31.318  28.193  1.00  0.00     0.148 A 
ATOM     93  C   UNL A   1      44.227  31.979  26.317  1.00  0.00     0.002 A 
ATOM     94  C   UNL A   1      46.517  32.105  27.096  1.00  0.00     0.091 A 
ATOM     95  F   UNL A   1      47.124  30.966  29.100  1.00  0.00    -0.205 F 
ATOM     96  C   UNL A   1      45.535  32.431  26.149  1.00  0.00     0.022 A 
BRANCH  94  97
ATOM     97  S   UNL A   1      48.149  32.822  26.909  1.00  0.00     0.127 S 
ATOM     98  O   UNL A   1      48.961  31.651  26.583  1.00  0.00    -0.237 OA
ATOM     99  O   UNL A   1      47.952  33.760  25.803  1.00  0.00    -0.237 OA
ATOM    100  O   UNL A   1      48.456  33.462  28.183  1.00  0.00    -0.744 OA
ENDBRANCH  94  97
ENDBRANCH  67  90
ENDBRANCH  41  42
ENDBRANCH  33  36
ENDBRANCH  31  32
ENDBRANCH  30  31
ENDBRANCH  29  30
ENDBRANCH   1  29
TORSDOF 20
ENDMDL
MODEL 2
REMARK VINA RESULT:     -12.8      3.083      8.117
REMARK SMILES Cc1cc(C)c2c(CCCC(=O)NCCCCCCNC(=O)c3ccc(-c4c5nc(c(-c6cccc(S(=O)(=O)[O-])c6F)c6ccc([nH]6)c(-c6cccc(S(=O)(=O)[O-])c6F)c6nc(c(-c7cccc(S(=O)(=O)[O-])c7F)c7ccc4[nH]7)C=C6)C=C5)cc3)c(-c3ccccn3)[nH]c2c1
REMARK SMILES IDX 16 1 15 2 14 3 13 4 11 5 12 6 10 8 9 9 8 10 7 11 1 12 2 13
REMARK SMILES IDX 3 14 95 15 4 16 94 17 5 18 6 19 93 20 86 21 87 23 88 24
REMARK SMILES IDX 92 25 89 26 91 27 90 28 17 29 18 30 19 31 20 32 21 33 22 35
REMARK SMILES IDX 23 36 24 37 85 38 25 39 84 40 26 41 27 42 28 43 78 44 29 45
REMARK SMILES IDX 83 46 77 47 79 48 30 49 82 50 76 51 75 52 31 54 63 55 43 56
REMARK SMILES IDX 62 57 44 58 47 59 61 60 80 61 45 62 46 63 60 65 81 66 48 67
REMARK SMILES IDX 32 68 33 69 41 70 34 71 36 72 42 73 35 74 37 75 38 76 39 77
REMARK SMILES IDX 40 78 64 79 65 80 73 81 66 82 68 83 74 84 67 85 69 86 70 87
REMARK SMILES IDX 71 88 72 89 49 90 50 91 58 92 51 93 53 94 59 95 52 96 54 97
REMARK SMILES IDX 55 98 56 99 57 100
REMARK H PARENT 13 7 93 22 20 34 79 53 47 64
REMARK Flexibility Score: inf
ROOT
ATOM      1  C   UNL A   1      35.571  22.263  26.040  1.00  0.00     0.002 C 
ENDROOT
BRANCH   1   2
ATOM      2  C   UNL A   1      34.465  23.320  26.021  1.00  0.00     0.021 C 
BRANCH   2   3
ATOM      3  C   UNL A   1      33.081  22.709  25.847  1.00  0.00     0.116 C 
BRANCH   3   4
ATOM      4  N   UNL A   1      32.025  23.498  26.426  1.00  0.00    -0.356 N 
ATOM      5  C   UNL A   1      31.024  24.210  25.859  1.00  0.00     0.220 C 
ATOM      6  O   UNL A   1      30.124  24.569  26.633  1.00  0.00    -0.275 OA
ATOM      7  H   UNL A   1      32.034  23.525  27.410  1.00  0.00     0.163 HD
BRANCH   5   8
ATOM      8  C   UNL A   1      30.857  24.464  24.370  1.00  0.00     0.100 C 
BRANCH   8   9
ATOM      9  C   UNL A   1      30.240  25.701  23.758  1.00  0.00     0.015 C 
BRANCH   9  10
ATOM     10  C   UNL A   1      31.052  26.917  23.348  1.00  0.00     0.039 C 
BRANCH  10  11
ATOM     11  C   UNL A   1      31.161  28.240  24.101  1.00  0.00    -0.013 A 
ATOM     12  C   UNL A   1      35.097  29.950  27.954  1.00  0.00     0.044 C 
ATOM     13  C   UNL A   1      34.138  29.472  26.905  1.00  0.00    -0.049 A 
ATOM     14  C   UNL A   1      34.325  28.208  26.345  1.00  0.00     0.007 A 
ATOM     15  C   UNL A   1      33.072  30.267  26.478  1.00  0.00     0.030 A 
ATOM     16  C   UNL A   1      33.451  27.677  25.371  1.00  0.00    -0.041 A 
ATOM     17  C   UNL A   1      32.180  29.725  25.545  1.00  0.00     0.047 A 
ATOM     18  C   UNL A   1      33.816  26.322  24.810  1.00  0.00     0.045 C 
ATOM     19  C   UNL A   1      32.306  28.449  25.001  1.00  0.00     0.006 A 
ATOM     20  N   UNL A   1      31.069  30.291  24.985  1.00  0.00    -0.353 N 
ATOM     21  C   UNL A   1      30.490  29.479  24.037  1.00  0.00     0.068 A 
ATOM     22  H   UNL A   1      30.722  31.179  25.233  1.00  0.00     0.167 HD
BRANCH  21  23
ATOM     23  C   UNL A   1      29.495  30.098  23.154  1.00  0.00     0.087 A 
ATOM     24  C   UNL A   1      28.467  30.879  23.684  1.00  0.00     0.030 A 
ATOM     25  N   UNL A   1      29.632  29.891  21.831  1.00  0.00    -0.255 NA
ATOM     26  C   UNL A   1      27.677  31.635  22.820  1.00  0.00     0.004 A 
ATOM     27  C   UNL A   1      28.862  30.654  21.012  1.00  0.00     0.112 A 
ATOM     28  C   UNL A   1      27.908  31.557  21.455  1.00  0.00     0.020 A 
ENDBRANCH  21  23
ENDBRANCH  10  11
ENDBRANCH   9  10
ENDBRANCH   8   9
ENDBRANCH   5   8
ENDBRANCH   3   4
ENDBRANCH   2   3
ENDBRANCH   1   2
BRANCH   1  29
ATOM     29  C   UNL A   1      36.082  21.816  24.658  1.00  0.00     0.002 C 
BRANCH  29  30
ATOM     30  C   UNL A   1      37.124  20.688  24.642  1.00  0.00     0.021 C 
BRANCH  30  31
ATOM     31  C   UNL A   1      38.351  20.985  25.491  1.00  0.00     0.116 C 
BRANCH  31  32
ATOM     32  N   UNL A   1      39.235  19.822  25.594  1.00  0.00    -0.352 N 
ATOM     33  C   UNL A   1      40.583  19.785  25.887  1.00  0.00     0.251 C 
ATOM     34  H   UNL A   1      38.810  18.948  25.431  1.00  0.00     0.163 HD
ATOM     35  O   UNL A   1      41.257  18.803  25.622  1.00  0.00    -0.269 OA
BRANCH  33  36
ATOM     36  C   UNL A   1      41.185  20.957  26.543  1.00  0.00     0.039 A 
ATOM     37  C   UNL A   1      41.746  21.994  25.796  1.00  0.00     0.014 A 
ATOM     38  C   UNL A   1      41.151  21.007  27.935  1.00  0.00     0.014 A 
ATOM     39  C   UNL A   1      42.212  23.120  26.466  1.00  0.00     0.010 A 
ATOM     40  C   UNL A   1      41.459  22.175  28.577  1.00  0.00     0.010 A 
ATOM     41  C   UNL A   1      42.046  23.207  27.858  1.00  0.00    -0.014 A 
BRANCH  41  42
ATOM     42  C   UNL A   1      42.343  24.444  28.569  1.00  0.00     0.031 A 
ATOM     43  C   UNL A   1      41.299  25.486  28.373  1.00  0.00     0.074 A 
ATOM     44  C   UNL A   1      43.332  24.528  29.488  1.00  0.00     0.049 A 
ATOM     45  N   UNL A   1      41.411  26.592  27.715  1.00  0.00    -0.248 NA
ATOM     46  C   UNL A   1      39.917  25.186  28.791  1.00  0.00     0.031 C 
ATOM     47  C   UNL A   1      44.182  23.429  29.977  1.00  0.00     0.029 A 
ATOM     48  N   UNL A   1      43.699  25.561  30.297  1.00  0.00    -0.354 N 
ATOM     49  C   UNL A   1      40.197  27.252  27.906  1.00  0.00     0.074 A 
ATOM     50  C   UNL A   1      39.257  26.256  28.337  1.00  0.00     0.031 C 
ATOM     51  C   UNL A   1      44.737  23.775  31.159  1.00  0.00     0.029 A 
ATOM     52  C   UNL A   1      44.450  25.173  31.408  1.00  0.00     0.049 A 
ATOM     53  H   UNL A   1      43.456  26.498  30.114  1.00  0.00     0.167 HD
ATOM     54  C   UNL A   1      40.165  28.609  28.034  1.00  0.00     0.034 A 
ATOM     55  C   UNL A   1      44.779  25.946  32.472  1.00  0.00     0.034 A 
ATOM     56  C   UNL A   1      41.433  29.181  27.668  1.00  0.00     0.049 A 
ATOM     57  C   UNL A   1      44.684  27.349  32.024  1.00  0.00     0.074 A 
ATOM     58  C   UNL A   1      42.123  29.445  26.508  1.00  0.00     0.029 A 
ATOM     59  N   UNL A   1      42.337  29.173  28.698  1.00  0.00    -0.354 N 
ATOM     60  N   UNL A   1      45.463  27.861  31.115  1.00  0.00    -0.248 NA
ATOM     61  C   UNL A   1      43.489  28.119  32.345  1.00  0.00     0.031 C 
ATOM     62  C   UNL A   1      43.505  29.448  26.863  1.00  0.00     0.029 A 
ATOM     63  C   UNL A   1      43.621  29.240  28.236  1.00  0.00     0.049 A 
ATOM     64  H   UNL A   1      42.092  29.124  29.650  1.00  0.00     0.167 HD
ATOM     65  C   UNL A   1      44.637  28.736  30.439  1.00  0.00     0.074 A 
ATOM     66  C   UNL A   1      43.525  29.004  31.344  1.00  0.00     0.031 C 
ATOM     67  C   UNL A   1      44.733  28.887  29.089  1.00  0.00     0.034 A 
BRANCH  54  68
ATOM     68  C   UNL A   1      39.215  29.388  28.920  1.00  0.00     0.023 A 
ATOM     69  C   UNL A   1      38.623  30.550  28.374  1.00  0.00     0.012 A 
ATOM     70  C   UNL A   1      39.084  29.207  30.316  1.00  0.00     0.148 A 
ATOM     71  C   UNL A   1      37.952  31.484  29.174  1.00  0.00     0.002 A 
ATOM     72  C   UNL A   1      38.342  30.090  31.094  1.00  0.00     0.091 A 
ATOM     73  F   UNL A   1      39.792  28.259  30.935  1.00  0.00    -0.205 F 
ATOM     74  C   UNL A   1      37.797  31.246  30.534  1.00  0.00     0.022 A 
BRANCH  72  75
ATOM     75  S   UNL A   1      38.062  29.797  32.847  1.00  0.00     0.127 S 
ATOM     76  O   UNL A   1      37.154  30.887  33.186  1.00  0.00    -0.237 OA
ATOM     77  O   UNL A   1      37.455  28.465  32.828  1.00  0.00    -0.237 OA
ATOM     78  O   UNL A   1      39.381  29.841  33.467  1.00  0.00    -0.744 OA
ENDBRANCH  72  75
ENDBRANCH  54  68
BRANCH  55  79
ATOM     79  C   UNL A   1      44.954  25.624  33.909  1.00  0.00     0.023 A 
ATOM     80  C   UNL A   1      46.260  25.547  34.437  1.00  0.00     0.012 A 
ATOM     81  C   UNL A   1      43.876  25.762  34.807  1.00  0.00     0.148 A 
ATOM     82  C   UNL A   1      46.494  25.688  35.810  1.00  0.00     0.002 A 
ATOM     83  C   UNL A   1      44.115  25.917  36.171  1.00  0.00     0.091 A 
ATOM     84  F   UNL A   1      42.633  25.845  34.313  1.00  0.00    -0.205 F 
ATOM     85  C   UNL A   1      45.424  25.898  36.674  1.00  0.00     0.022 A 
BRANCH  83  86
ATOM     86  S   UNL A   1      42.797  26.266  37.344  1.00  0.00     0.127 S 
ATOM     87  O   UNL A   1      43.524  26.294  38.614  1.00  0.00    -0.237 OA
ATOM     88  O   UNL A   1      42.322  27.566  36.880  1.00  0.00    -0.237 OA
ATOM     89  O   UNL A   1      41.850  25.165  37.217  1.00  0.00    -0.744 OA
ENDBRANCH  83  86
ENDBRANCH  55  79
BRANCH  67  90
ATOM     90  C   UNL A   1      46.026  28.512  28.428  1.00  0.00     0.023 A 
ATOM     91  C   UNL A   1      47.192  29.299  28.493  1.00  0.00     0.012 A 
ATOM     92  C   UNL A   1      46.086  27.246  27.825  1.00  0.00     0.148 A 
ATOM     93  C   UNL A   1      48.397  28.824  27.961  1.00  0.00     0.002 A 
ATOM     94  C   UNL A   1      47.292  26.757  27.348  1.00  0.00     0.091 A 
ATOM     95  F   UNL A   1      44.955  26.526  27.758  1.00  0.00    -0.205 F 
ATOM     96  C   UNL A   1      48.450  27.547  27.405  1.00  0.00     0.022 A 
BRANCH  94  97
ATOM     97  S   UNL A   1      47.440  25.074  26.752  1.00  0.00     0.127 S 
ATOM     98  O   UNL A   1      46.810  24.312  27.828  1.00  0.00    -0.237 OA
ATOM     99  O   UNL A   1      46.680  25.117  25.502  1.00  0.00    -0.237 OA
ATOM    100  O   UNL A   1      48.868  24.836  26.571  1.00  0.00    -0.744 OA
ENDBRANCH  94  97
ENDBRANCH  67  90
ENDBRANCH  41  42
ENDBRANCH  33  36
ENDBRANCH  31  32
ENDBRANCH  30  31
ENDBRANCH  29  30
ENDBRANCH   1  29
TORSDOF 20
ENDMDL
MODEL 3
REMARK VINA RESULT:     -12.7      3.575      8.002
REMARK SMILES Cc1cc(C)c2c(CCCC(=O)NCCCCCCNC(=O)c3ccc(-c4c5nc(c(-c6cccc(S(=O)(=O)[O-])c6F)c6ccc([nH]6)c(-c6cccc(S(=O)(=O)[O-])c6F)c6nc(c(-c7cccc(S(=O)(=O)[O-])c7F)c7ccc4[nH]7)C=C6)C=C5)cc3)c(-c3ccccn3)[nH]c2c1
REMARK SMILES IDX 16 1 15 2 14 3 13 4 11 5 12 6 10 8 9 9 8 10 7 11 1 12 2 13
REMARK SMILES IDX 3 14 95 15 4 16 94 17 5 18 6 19 93 20 86 21 87 23 88 24
REMARK SMILES IDX 92 25 89 26 91 27 90 28 17 29 18 30 19 31 20 32 21 33 22 35
REMARK SMILES IDX 23 36 24 37 85 38 25 39 84 40 26 41 27 42 28 43 78 44 29 45
REMARK SMILES IDX 83 46 77 47 79 48 30 49 82 50 76 51 75 52 31 54 63 55 43 56
REMARK SMILES IDX 62 57 44 58 47 59 61 60 80 61 45 62 46 63 60 65 81 66 48 67
REMARK SMILES IDX 32 68 33 69 41 70 34 71 36 72 42 73 35 74 37 75 38 76 39 77
REMARK SMILES IDX 40 78 64 79 65 80 73 81 66 82 68 83 74 84 67 85 69 86 70 87
REMARK SMILES IDX 71 88 72 89 49 90 50 91 58 92 51 93 53 94 59 95 52 96 54 97
REMARK SMILES IDX 55 98 56 99 57 100
REMARK H PARENT 13 7 93 22 20 34 79 53 47 64
REMARK Flexibility Score: inf
ROOT
ATOM      1  C   UNL A   1      34.037  22.624  24.846  1.00  0.00     0.002 C 
ENDROOT
BRANCH   1   2
ATOM      2  C   UNL A   1      34.158  23.121  23.404  1.00  0.00     0.021 C 
BRANCH   2   3
ATOM      3  C   UNL A   1      32.817  23.136  22.682  1.00  0.00     0.116 C 
BRANCH   3   4
ATOM      4  N   UNL A   1      32.868  23.753  21.383  1.00  0.00    -0.356 N 
ATOM      5  C   UNL A   1      32.755  25.046  20.999  1.00  0.00     0.220 C 
ATOM      6  O   UNL A   1      33.101  25.285  19.833  1.00  0.00    -0.275 OA
ATOM      7  H   UNL A   1      33.010  23.122  20.641  1.00  0.00     0.163 HD
BRANCH   5   8
ATOM      8  C   UNL A   1      32.387  26.206  21.909  1.00  0.00     0.100 C 
BRANCH   8   9
ATOM      9  C   UNL A   1      30.997  26.512  22.417  1.00  0.00     0.015 C 
BRANCH   9  10
ATOM     10  C   UNL A   1      30.715  26.965  23.839  1.00  0.00     0.039 C 
BRANCH  10  11
ATOM     11  C   UNL A   1      31.009  28.338  24.436  1.00  0.00    -0.013 A 
ATOM     12  C   UNL A   1      35.255  29.956  27.988  1.00  0.00     0.044 C 
ATOM     13  C   UNL A   1      34.210  29.490  27.020  1.00  0.00    -0.049 A 
ATOM     14  C   UNL A   1      34.223  28.159  26.602  1.00  0.00     0.007 A 
ATOM     15  C   UNL A   1      33.233  30.359  26.530  1.00  0.00     0.030 A 
ATOM     16  C   UNL A   1      33.258  27.637  25.712  1.00  0.00    -0.041 A 
ATOM     17  C   UNL A   1      32.250  29.834  25.683  1.00  0.00     0.047 A 
ATOM     18  C   UNL A   1      33.437  26.195  25.298  1.00  0.00     0.045 C 
ATOM     19  C   UNL A   1      32.202  28.501  25.282  1.00  0.00     0.006 A 
ATOM     20  N   UNL A   1      31.197  30.469  25.087  1.00  0.00    -0.353 N 
ATOM     21  C   UNL A   1      30.491  29.636  24.249  1.00  0.00     0.068 A 
ATOM     22  H   UNL A   1      30.968  31.415  25.241  1.00  0.00     0.167 HD
BRANCH  21  23
ATOM     23  C   UNL A   1      29.548  30.274  23.324  1.00  0.00     0.087 A 
ATOM     24  C   UNL A   1      28.863  31.432  23.697  1.00  0.00     0.030 A 
ATOM     25  N   UNL A   1      29.392  29.706  22.113  1.00  0.00    -0.255 NA
ATOM     26  C   UNL A   1      28.153  32.140  22.730  1.00  0.00     0.004 A 
ATOM     27  C   UNL A   1      28.710  30.426  21.184  1.00  0.00     0.112 A 
ATOM     28  C   UNL A   1      28.112  31.652  21.433  1.00  0.00     0.020 A 
ENDBRANCH  21  23
ENDBRANCH  10  11
ENDBRANCH   9  10
ENDBRANCH   8   9
ENDBRANCH   5   8
ENDBRANCH   3   4
ENDBRANCH   2   3
ENDBRANCH   1   2
BRANCH   1  29
ATOM     29  C   UNL A   1      35.371  22.323  25.555  1.00  0.00     0.002 C 
BRANCH  29  30
ATOM     30  C   UNL A   1      35.991  20.942  25.298  1.00  0.00     0.021 C 
BRANCH  30  31
ATOM     31  C   UNL A   1      37.386  21.006  24.696  1.00  0.00     0.116 C 
BRANCH  31  32
ATOM     32  N   UNL A   1      38.169  19.810  25.012  1.00  0.00    -0.352 N 
ATOM     33  C   UNL A   1      39.407  19.724  25.617  1.00  0.00     0.251 C 
ATOM     34  H   UNL A   1      37.758  18.952  24.758  1.00  0.00     0.163 HD
ATOM     35  O   UNL A   1      40.082  18.711  25.525  1.00  0.00    -0.269 OA
BRANCH  33  36
ATOM     36  C   UNL A   1      39.886  20.880  26.391  1.00  0.00     0.039 A 
ATOM     37  C   UNL A   1      40.691  20.710  27.520  1.00  0.00     0.014 A 
ATOM     38  C   UNL A   1      39.533  22.150  25.942  1.00  0.00     0.014 A 
ATOM     39  C   UNL A   1      41.195  21.841  28.153  1.00  0.00     0.010 A 
ATOM     40  C   UNL A   1      40.156  23.250  26.464  1.00  0.00     0.010 A 
ATOM     41  C   UNL A   1      40.935  23.107  27.605  1.00  0.00    -0.014 A 
BRANCH  41  42
ATOM     42  C   UNL A   1      41.601  24.296  28.123  1.00  0.00     0.031 A 
ATOM     43  C   UNL A   1      40.695  25.473  28.206  1.00  0.00     0.074 A 
ATOM     44  C   UNL A   1      42.831  24.248  28.683  1.00  0.00     0.049 A 
ATOM     45  N   UNL A   1      40.737  26.547  27.489  1.00  0.00    -0.248 NA
ATOM     46  C   UNL A   1      39.488  25.375  29.048  1.00  0.00     0.031 C 
ATOM     47  C   UNL A   1      43.640  23.044  28.941  1.00  0.00     0.029 A 
ATOM     48  N   UNL A   1      43.566  25.226  29.282  1.00  0.00    -0.354 N 
ATOM     49  C   UNL A   1      39.743  27.373  28.012  1.00  0.00     0.074 A 
ATOM     50  C   UNL A   1      38.864  26.523  28.766  1.00  0.00     0.031 C 
ATOM     51  C   UNL A   1      44.579  23.319  29.872  1.00  0.00     0.029 A 
ATOM     52  C   UNL A   1      44.571  24.746  30.124  1.00  0.00     0.049 A 
ATOM     53  H   UNL A   1      43.403  26.186  29.135  1.00  0.00     0.167 HD
ATOM     54  C   UNL A   1      39.931  28.721  28.072  1.00  0.00     0.034 A 
ATOM     55  C   UNL A   1      45.317  25.474  30.990  1.00  0.00     0.034 A 
ATOM     56  C   UNL A   1      41.082  29.106  27.301  1.00  0.00     0.049 A 
ATOM     57  C   UNL A   1      45.270  26.872  30.521  1.00  0.00     0.074 A 
ATOM     58  C   UNL A   1      41.400  29.260  25.971  1.00  0.00     0.029 A 
ATOM     59  N   UNL A   1      42.255  28.979  27.997  1.00  0.00    -0.354 N 
ATOM     60  N   UNL A   1      45.783  27.261  29.389  1.00  0.00    -0.248 NA
ATOM     61  C   UNL A   1      44.349  27.806  31.156  1.00  0.00     0.031 C 
ATOM     62  C   UNL A   1      42.811  29.071  25.878  1.00  0.00     0.029 A 
ATOM     63  C   UNL A   1      43.325  28.861  27.156  1.00  0.00     0.049 A 
ATOM     64  H   UNL A   1      42.319  28.974  28.980  1.00  0.00     0.167 HD
ATOM     65  C   UNL A   1      44.908  28.238  28.958  1.00  0.00     0.074 A 
ATOM     66  C   UNL A   1      44.184  28.668  30.149  1.00  0.00     0.031 C 
ATOM     67  C   UNL A   1      44.594  28.362  27.639  1.00  0.00     0.034 A 
BRANCH  54  68
ATOM     68  C   UNL A   1      39.419  29.634  29.167  1.00  0.00     0.023 A 
ATOM     69  C   UNL A   1      38.682  30.774  28.770  1.00  0.00     0.012 A 
ATOM     70  C   UNL A   1      39.842  29.592  30.515  1.00  0.00     0.148 A 
ATOM     71  C   UNL A   1      38.396  31.817  29.662  1.00  0.00     0.002 A 
ATOM     72  C   UNL A   1      39.481  30.585  31.419  1.00  0.00     0.091 A 
ATOM     73  F   UNL A   1      40.718  28.664  30.910  1.00  0.00    -0.205 F 
ATOM     74  C   UNL A   1      38.783  31.715  30.992  1.00  0.00     0.022 A 
BRANCH  72  75
ATOM     75  S   UNL A   1      39.905  30.473  33.164  1.00  0.00     0.127 S 
ATOM     76  O   UNL A   1      41.358  30.350  33.108  1.00  0.00    -0.237 OA
ATOM     77  O   UNL A   1      39.408  31.754  33.670  1.00  0.00    -0.237 OA
ATOM     78  O   UNL A   1      39.181  29.313  33.669  1.00  0.00    -0.744 OA
ENDBRANCH  72  75
ENDBRANCH  54  68
BRANCH  55  79
ATOM     79  C   UNL A   1      45.891  25.143  32.317  1.00  0.00     0.023 A 
ATOM     80  C   UNL A   1      47.111  25.742  32.701  1.00  0.00     0.012 A 
ATOM     81  C   UNL A   1      45.088  24.561  33.318  1.00  0.00     0.148 A 
ATOM     82  C   UNL A   1      47.478  25.834  34.049  1.00  0.00     0.002 A 
ATOM     83  C   UNL A   1      45.450  24.668  34.658  1.00  0.00     0.091 A 
ATOM     84  F   UNL A   1      43.924  23.999  32.963  1.00  0.00    -0.205 F 
ATOM     85  C   UNL A   1      46.636  25.319  35.029  1.00  0.00     0.022 A 
BRANCH  83  86
ATOM     86  S   UNL A   1      44.385  24.097  35.991  1.00  0.00     0.127 S 
ATOM     87  O   UNL A   1      43.229  24.985  35.855  1.00  0.00    -0.237 OA
ATOM     88  O   UNL A   1      44.143  22.710  35.604  1.00  0.00    -0.237 OA
ATOM     89  O   UNL A   1      45.149  24.286  37.218  1.00  0.00    -0.744 OA
ENDBRANCH  83  86
ENDBRANCH  55  79
BRANCH  67  90
ATOM     90  C   UNL A   1      45.551  27.803  26.630  1.00  0.00     0.023 A 
ATOM     91  C   UNL A   1      46.738  28.451  26.238  1.00  0.00     0.012 A 
ATOM     92  C   UNL A   1      45.291  26.507  26.160  1.00  0.00     0.148 A 
ATOM     93  C   UNL A   1      47.647  27.811  25.388  1.00  0.00     0.002 A 
ATOM     94  C   UNL A   1      46.219  25.855  25.363  1.00  0.00     0.091 A 
ATOM     95  F   UNL A   1      44.143  25.919  26.532  1.00  0.00    -0.205 F 
ATOM     96  C   UNL A   1      47.396  26.507  24.965  1.00  0.00     0.022 A 
BRANCH  94  97
ATOM     97  S   UNL A   1      46.006  24.134  24.908  1.00  0.00     0.127 S 
ATOM     98  O   UNL A   1      47.023  23.964  23.871  1.00  0.00    -0.237 OA
ATOM     99  O   UNL A   1      46.290  23.442  26.166  1.00  0.00    -0.237 OA
ATOM    100  O   UNL A   1      44.625  24.004  24.457  1.00  0.00    -0.744 OA
ENDBRANCH  94  97
ENDBRANCH  67  90
ENDBRANCH  41  42
ENDBRANCH  33  36
ENDBRANCH  31  32
ENDBRANCH  30  31
ENDBRANCH  29  30
ENDBRANCH   1  29
TORSDOF 20
ENDMDL
