MODEL 1
REMARK VINA RESULT:     -11.5      0.000      0.000
REMARK SMILES CC[C@@H](C)N(CC)c1cc(C(=O)NCCCCCCNC(=O)c2ccc(-c3c4nc(c(-c5cccc(S(=O)(=O)[O-])c5F)c5ccc([nH]5)c(-c5cccc(S(=O)(=O)[O-])c5F)c5nc(c(-c6cccc(S(=O)(=O)[O-])c6F)c6ccc3[nH]6)C=C5)C=C4)cc2)c2ccccc2n1
REMARK SMILES IDX 16 1 15 2 14 3 13 4 11 5 12 6 10 8 8 9 9 10 92 11 91 12
REMARK SMILES IDX 86 13 90 14 87 15 89 16 88 17 5 18 3 19 4 20 2 21 1 22 6 23
REMARK SMILES IDX 7 24 17 25 18 26 19 27 20 28 21 29 22 31 23 32 24 33 85 34
REMARK SMILES IDX 25 35 84 36 26 37 27 38 28 39 78 40 29 41 83 42 77 43 79 44
REMARK SMILES IDX 30 45 82 46 76 47 75 48 31 50 63 51 43 52 62 53 44 54 47 55
REMARK SMILES IDX 61 56 80 57 45 58 46 59 60 61 81 62 48 63 32 64 33 65 41 66
REMARK SMILES IDX 34 67 36 68 42 69 35 70 37 71 38 72 39 73 40 74 64 75 65 76
REMARK SMILES IDX 73 77 66 78 68 79 74 80 67 81 69 82 70 83 71 84 72 85 49 86
REMARK SMILES IDX 50 87 58 88 51 89 53 90 59 91 52 92 54 93 55 94 56 95 57 96
REMARK H PARENT 13 7 20 30 79 49 47 60
REMARK Flexibility Score: inf
ROOT
ATOM      1  C   UNL A   1      32.698  29.580  26.805  1.00  0.00     0.002 C 
ENDROOT
BRANCH   1   2
ATOM      2  C   UNL A   1      31.988  28.360  27.392  1.00  0.00     0.021 C 
BRANCH   2   3
ATOM      3  C   UNL A   1      31.291  27.477  26.345  1.00  0.00     0.116 C 
BRANCH   3   4
ATOM      4  N   UNL A   1      31.123  26.158  26.911  1.00  0.00    -0.352 N 
ATOM      5  C   UNL A   1      31.228  24.890  26.412  1.00  0.00     0.252 C 
ATOM      6  O   UNL A   1      30.717  24.010  27.116  1.00  0.00    -0.269 OA
ATOM      7  H   UNL A   1      30.882  26.177  27.864  1.00  0.00     0.163 HD
BRANCH   5   8
ATOM      8  C   UNL A   1      32.008  24.462  25.209  1.00  0.00     0.052 A 
ATOM      9  C   UNL A   1      33.669  22.807  24.564  1.00  0.00     0.130 A 
ATOM     10  C   UNL A   1      32.858  23.384  25.516  1.00  0.00     0.061 A 
ATOM     11  N   UNL A   1      33.757  23.380  23.360  1.00  0.00    -0.231 NA
ATOM     12  C   UNL A   1      32.961  24.396  23.016  1.00  0.00     0.073 A 
ATOM     13  C   UNL A   1      31.990  24.943  23.876  1.00  0.00     0.013 A 
ATOM     14  C   UNL A   1      33.111  24.883  21.725  1.00  0.00     0.029 A 
ATOM     15  C   UNL A   1      31.093  25.871  23.294  1.00  0.00     0.011 A 
ATOM     16  C   UNL A   1      32.301  25.895  21.220  1.00  0.00     0.002 A 
ATOM     17  C   UNL A   1      31.269  26.377  22.003  1.00  0.00     0.001 A 
BRANCH   9  18
ATOM     18  N   UNL A   1      34.403  21.658  24.827  1.00  0.00    -0.354 N 
BRANCH  18  19
ATOM     19  C   UNL A   1      35.858  21.628  24.554  1.00  0.00     0.080 C 
ATOM     20  C   UNL A   1      36.435  20.299  25.049  1.00  0.00     0.031 C 
BRANCH  19  21
ATOM     21  C   UNL A   1      36.620  22.867  25.072  1.00  0.00     0.021 C 
ATOM     22  C   UNL A   1      37.983  22.546  25.671  1.00  0.00     0.006 C 
ENDBRANCH  19  21
ENDBRANCH  18  19
BRANCH  18  23
ATOM     23  C   UNL A   1      33.684  20.380  24.907  1.00  0.00     0.115 C 
ATOM     24  C   UNL A   1      32.693  20.185  23.765  1.00  0.00     0.027 C 
ENDBRANCH  18  23
ENDBRANCH   9  18
ENDBRANCH   5   8
ENDBRANCH   3   4
ENDBRANCH   2   3
ENDBRANCH   1   2
BRANCH   1  25
ATOM     25  C   UNL A   1      31.765  30.532  26.053  1.00  0.00     0.002 C 
BRANCH  25  26
ATOM     26  C   UNL A   1      31.549  31.891  26.728  1.00  0.00     0.021 C 
BRANCH  26  27
ATOM     27  C   UNL A   1      32.808  32.499  27.341  1.00  0.00     0.116 C 
BRANCH  27  28
ATOM     28  N   UNL A   1      32.619  33.911  27.644  1.00  0.00    -0.352 N 
ATOM     29  C   UNL A   1      33.179  34.653  28.647  1.00  0.00     0.251 C 
ATOM     30  H   UNL A   1      32.007  34.396  27.045  1.00  0.00     0.163 HD
ATOM     31  O   UNL A   1      32.697  35.750  28.949  1.00  0.00    -0.269 OA
BRANCH  29  32
ATOM     32  C   UNL A   1      34.360  34.141  29.367  1.00  0.00     0.039 A 
ATOM     33  C   UNL A   1      34.184  33.287  30.458  1.00  0.00     0.014 A 
ATOM     34  C   UNL A   1      35.644  34.519  28.963  1.00  0.00     0.014 A 
ATOM     35  C   UNL A   1      35.302  32.773  31.118  1.00  0.00     0.010 A 
ATOM     36  C   UNL A   1      36.755  33.949  29.575  1.00  0.00     0.010 A 
ATOM     37  C   UNL A   1      36.596  33.081  30.666  1.00  0.00    -0.014 A 
BRANCH  37  38
ATOM     38  C   UNL A   1      37.803  32.510  31.312  1.00  0.00     0.031 A 
ATOM     39  C   UNL A   1      38.510  31.340  30.686  1.00  0.00     0.074 A 
ATOM     40  C   UNL A   1      38.195  32.973  32.516  1.00  0.00     0.049 A 
ATOM     41  N   UNL A   1      39.511  30.636  31.148  1.00  0.00    -0.248 NA
ATOM     42  C   UNL A   1      38.003  30.877  29.383  1.00  0.00     0.031 C 
ATOM     43  C   UNL A   1      37.538  34.047  33.262  1.00  0.00     0.029 A 
ATOM     44  N   UNL A   1      39.213  32.568  33.343  1.00  0.00    -0.354 N 
ATOM     45  C   UNL A   1      39.728  29.628  30.217  1.00  0.00     0.074 A 
ATOM     46  C   UNL A   1      38.731  29.789  29.181  1.00  0.00     0.031 C 
ATOM     47  C   UNL A   1      38.159  34.207  34.441  1.00  0.00     0.029 A 
ATOM     48  C   UNL A   1      39.237  33.227  34.548  1.00  0.00     0.049 A 
ATOM     49  H   UNL A   1      39.865  31.872  33.095  1.00  0.00     0.167 HD
ATOM     50  C   UNL A   1      40.687  28.673  30.207  1.00  0.00     0.034 A 
ATOM     51  C   UNL A   1      40.022  33.050  35.629  1.00  0.00     0.034 A 
ATOM     52  C   UNL A   1      41.698  28.543  31.221  1.00  0.00     0.049 A 
ATOM     53  C   UNL A   1      41.108  32.012  35.581  1.00  0.00     0.074 A 
ATOM     54  C   UNL A   1      42.771  27.671  31.260  1.00  0.00     0.029 A 
ATOM     55  N   UNL A   1      41.757  29.300  32.381  1.00  0.00    -0.354 N 
ATOM     56  N   UNL A   1      41.401  31.172  34.617  1.00  0.00    -0.248 NA
ATOM     57  C   UNL A   1      41.995  31.918  36.750  1.00  0.00     0.031 C 
ATOM     58  C   UNL A   1      43.463  27.883  32.457  1.00  0.00     0.029 A 
ATOM     59  C   UNL A   1      42.840  28.908  33.149  1.00  0.00     0.049 A 
ATOM     60  H   UNL A   1      41.121  30.013  32.623  1.00  0.00     0.167 HD
ATOM     61  C   UNL A   1      42.524  30.474  35.048  1.00  0.00     0.074 A 
ATOM     62  C   UNL A   1      42.868  31.002  36.351  1.00  0.00     0.031 C 
ATOM     63  C   UNL A   1      43.200  29.478  34.423  1.00  0.00     0.034 A 
BRANCH  50  64
ATOM     64  C   UNL A   1      40.714  27.722  29.038  1.00  0.00     0.023 A 
ATOM     65  C   UNL A   1      39.762  26.685  28.963  1.00  0.00     0.012 A 
ATOM     66  C   UNL A   1      41.652  27.874  27.999  1.00  0.00     0.148 A 
ATOM     67  C   UNL A   1      39.770  25.786  27.896  1.00  0.00     0.002 A 
ATOM     68  C   UNL A   1      41.624  27.002  26.915  1.00  0.00     0.091 A 
ATOM     69  F   UNL A   1      42.564  28.851  28.095  1.00  0.00    -0.205 F 
ATOM     70  C   UNL A   1      40.695  25.951  26.869  1.00  0.00     0.022 A 
BRANCH  68  71
ATOM     71  S   UNL A   1      42.721  27.182  25.503  1.00  0.00     0.127 S 
ATOM     72  O   UNL A   1      44.020  27.335  26.156  1.00  0.00    -0.237 OA
ATOM     73  O   UNL A   1      42.536  25.908  24.805  1.00  0.00    -0.237 OA
ATOM     74  O   UNL A   1      42.244  28.347  24.772  1.00  0.00    -0.744 OA
ENDBRANCH  68  71
ENDBRANCH  50  64
BRANCH  51  75
ATOM     75  C   UNL A   1      39.833  33.918  36.826  1.00  0.00     0.023 A 
ATOM     76  C   UNL A   1      40.216  35.272  36.771  1.00  0.00     0.012 A 
ATOM     77  C   UNL A   1      39.228  33.422  37.996  1.00  0.00     0.148 A 
ATOM     78  C   UNL A   1      40.023  36.109  37.870  1.00  0.00     0.002 A 
ATOM     79  C   UNL A   1      38.986  34.274  39.066  1.00  0.00     0.091 A 
ATOM     80  F   UNL A   1      38.878  32.127  38.030  1.00  0.00    -0.205 F 
ATOM     81  C   UNL A   1      39.398  35.614  39.012  1.00  0.00     0.022 A 
BRANCH  79  82
ATOM     82  S   UNL A   1      38.065  33.759  40.519  1.00  0.00     0.127 S 
ATOM     83  O   UNL A   1      37.976  35.005  41.275  1.00  0.00    -0.237 OA
ATOM     84  O   UNL A   1      36.804  33.303  39.931  1.00  0.00    -0.237 OA
ATOM     85  O   UNL A   1      38.855  32.701  41.134  1.00  0.00    -0.744 OA
ENDBRANCH  79  82
ENDBRANCH  51  75
BRANCH  63  86
ATOM     86  C   UNL A   1      44.410  28.909  35.117  1.00  0.00     0.023 A 
ATOM     87  C   UNL A   1      45.662  29.538  34.974  1.00  0.00     0.012 A 
ATOM     88  C   UNL A   1      44.281  27.809  35.989  1.00  0.00     0.148 A 
ATOM     89  C   UNL A   1      46.774  29.063  35.668  1.00  0.00     0.002 A 
ATOM     90  C   UNL A   1      45.383  27.373  36.715  1.00  0.00     0.091 A 
ATOM     91  F   UNL A   1      43.083  27.215  36.096  1.00  0.00    -0.205 F 
ATOM     92  C   UNL A   1      46.633  27.992  36.548  1.00  0.00     0.022 A 
BRANCH  90  93
ATOM     93  S   UNL A   1      45.274  26.066  37.942  1.00  0.00     0.127 S 
ATOM     94  O   UNL A   1      44.776  24.948  37.142  1.00  0.00    -0.237 OA
ATOM     95  O   UNL A   1      46.665  25.934  38.376  1.00  0.00    -0.237 OA
ATOM     96  O   UNL A   1      44.363  26.551  38.969  1.00  0.00    -0.744 OA
ENDBRANCH  90  93
ENDBRANCH  63  86
ENDBRANCH  37  38
ENDBRANCH  29  32
ENDBRANCH  27  28
ENDBRANCH  26  27
ENDBRANCH  25  26
ENDBRANCH   1  25
TORSDOF 20
ENDMDL
MODEL 2
REMARK VINA RESULT:     -11.0      5.544      8.700
REMARK SMILES CC[C@@H](C)N(CC)c1cc(C(=O)NCCCCCCNC(=O)c2ccc(-c3c4nc(c(-c5cccc(S(=O)(=O)[O-])c5F)c5ccc([nH]5)c(-c5cccc(S(=O)(=O)[O-])c5F)c5nc(c(-c6cccc(S(=O)(=O)[O-])c6F)c6ccc3[nH]6)C=C5)C=C4)cc2)c2ccccc2n1
REMARK SMILES IDX 16 1 15 2 14 3 13 4 11 5 12 6 10 8 8 9 9 10 92 11 91 12
REMARK SMILES IDX 86 13 90 14 87 15 89 16 88 17 5 18 3 19 4 20 2 21 1 22 6 23
REMARK SMILES IDX 7 24 17 25 18 26 19 27 20 28 21 29 22 31 23 32 24 33 85 34
REMARK SMILES IDX 25 35 84 36 26 37 27 38 28 39 78 40 29 41 83 42 77 43 79 44
REMARK SMILES IDX 30 45 82 46 76 47 75 48 31 50 63 51 43 52 62 53 44 54 47 55
REMARK SMILES IDX 61 56 80 57 45 58 46 59 60 61 81 62 48 63 32 64 33 65 41 66
REMARK SMILES IDX 34 67 36 68 42 69 35 70 37 71 38 72 39 73 40 74 64 75 65 76
REMARK SMILES IDX 73 77 66 78 68 79 74 80 67 81 69 82 70 83 71 84 72 85 49 86
REMARK SMILES IDX 50 87 58 88 51 89 53 90 59 91 52 92 54 93 55 94 56 95 57 96
REMARK H PARENT 13 7 20 30 79 49 47 60
REMARK Flexibility Score: inf
ROOT
ATOM      1  C   UNL A   1      35.408  23.117  25.751  1.00  0.00     0.002 C 
ENDROOT
BRANCH   1   2
ATOM      2  C   UNL A   1      34.641  23.408  27.041  1.00  0.00     0.021 C 
BRANCH   2   3
ATOM      3  C   UNL A   1      34.095  22.154  27.741  1.00  0.00     0.116 C 
BRANCH   3   4
ATOM      4  N   UNL A   1      32.663  22.301  27.871  1.00  0.00    -0.352 N 
ATOM      5  C   UNL A   1      31.678  22.778  27.053  1.00  0.00     0.252 C 
ATOM      6  O   UNL A   1      30.607  23.029  27.617  1.00  0.00    -0.269 OA
ATOM      7  H   UNL A   1      32.322  21.989  28.739  1.00  0.00     0.163 HD
BRANCH   5   8
ATOM      8  C   UNL A   1      31.726  22.880  25.560  1.00  0.00     0.052 A 
ATOM      9  C   UNL A   1      31.503  24.548  23.804  1.00  0.00     0.130 A 
ATOM     10  C   UNL A   1      31.496  24.203  25.137  1.00  0.00     0.061 A 
ATOM     11  N   UNL A   1      31.585  23.578  22.888  1.00  0.00    -0.231 NA
ATOM     12  C   UNL A   1      31.818  22.311  23.238  1.00  0.00     0.073 A 
ATOM     13  C   UNL A   1      31.984  21.897  24.573  1.00  0.00     0.013 A 
ATOM     14  C   UNL A   1      31.926  21.397  22.199  1.00  0.00     0.029 A 
ATOM     15  C   UNL A   1      32.427  20.565  24.763  1.00  0.00     0.011 A 
ATOM     16  C   UNL A   1      32.231  20.058  22.424  1.00  0.00     0.002 A 
ATOM     17  C   UNL A   1      32.506  19.644  23.714  1.00  0.00     0.001 A 
BRANCH   9  18
ATOM     18  N   UNL A   1      31.417  25.870  23.391  1.00  0.00    -0.354 N 
BRANCH  18  19
ATOM     19  C   UNL A   1      32.643  26.617  23.031  1.00  0.00     0.080 C 
ATOM     20  C   UNL A   1      33.003  26.323  21.572  1.00  0.00     0.031 C 
BRANCH  19  21
ATOM     21  C   UNL A   1      33.816  26.409  24.013  1.00  0.00     0.021 C 
ATOM     22  C   UNL A   1      33.723  27.261  25.273  1.00  0.00     0.006 C 
ENDBRANCH  19  21
ENDBRANCH  18  19
BRANCH  18  23
ATOM     23  C   UNL A   1      30.221  26.636  23.765  1.00  0.00     0.115 C 
ATOM     24  C   UNL A   1      29.999  27.858  22.881  1.00  0.00     0.027 C 
ENDBRANCH  18  23
ENDBRANCH   9  18
ENDBRANCH   5   8
ENDBRANCH   3   4
ENDBRANCH   2   3
ENDBRANCH   1   2
BRANCH   1  25
ATOM     25  C   UNL A   1      35.974  21.697  25.678  1.00  0.00     0.002 C 
BRANCH  25  26
ATOM     26  C   UNL A   1      37.402  21.599  25.129  1.00  0.00     0.021 C 
BRANCH  26  27
ATOM     27  C   UNL A   1      38.447  22.352  25.949  1.00  0.00     0.116 C 
BRANCH  27  28
ATOM     28  N   UNL A   1      39.689  21.597  26.040  1.00  0.00    -0.352 N 
ATOM     29  C   UNL A   1      40.960  22.061  26.242  1.00  0.00     0.251 C 
ATOM     30  H   UNL A   1      39.603  20.621  25.944  1.00  0.00     0.163 HD
ATOM     31  O   UNL A   1      41.931  21.336  26.001  1.00  0.00    -0.269 OA
BRANCH  29  32
ATOM     32  C   UNL A   1      41.168  23.430  26.751  1.00  0.00     0.039 A 
ATOM     33  C   UNL A   1      41.372  23.634  28.117  1.00  0.00     0.014 A 
ATOM     34  C   UNL A   1      41.147  24.515  25.868  1.00  0.00     0.014 A 
ATOM     35  C   UNL A   1      41.603  24.926  28.594  1.00  0.00     0.010 A 
ATOM     36  C   UNL A   1      41.450  25.789  26.335  1.00  0.00     0.010 A 
ATOM     37  C   UNL A   1      41.669  26.009  27.703  1.00  0.00    -0.014 A 
BRANCH  37  38
ATOM     38  C   UNL A   1      41.964  27.386  28.172  1.00  0.00     0.031 A 
ATOM     39  C   UNL A   1      43.390  27.834  28.338  1.00  0.00     0.074 A 
ATOM     40  C   UNL A   1      40.952  28.191  28.553  1.00  0.00     0.049 A 
ATOM     41  N   UNL A   1      43.851  28.954  28.833  1.00  0.00    -0.248 NA
ATOM     42  C   UNL A   1      44.437  26.885  27.924  1.00  0.00     0.031 C 
ATOM     43  C   UNL A   1      39.533  27.836  28.518  1.00  0.00     0.029 A 
ATOM     44  N   UNL A   1      40.966  29.455  29.085  1.00  0.00    -0.354 N 
ATOM     45  C   UNL A   1      45.235  28.829  28.827  1.00  0.00     0.074 A 
ATOM     46  C   UNL A   1      45.538  27.511  28.314  1.00  0.00     0.031 C 
ATOM     47  C   UNL A   1      38.813  28.852  29.020  1.00  0.00     0.029 A 
ATOM     48  C   UNL A   1      39.721  29.915  29.442  1.00  0.00     0.049 A 
ATOM     49  H   UNL A   1      41.790  29.983  29.200  1.00  0.00     0.167 HD
ATOM     50  C   UNL A   1      46.171  29.738  29.189  1.00  0.00     0.034 A 
ATOM     51  C   UNL A   1      39.351  31.055  30.058  1.00  0.00     0.034 A 
ATOM     52  C   UNL A   1      45.862  31.060  29.662  1.00  0.00     0.049 A 
ATOM     53  C   UNL A   1      40.403  32.068  30.413  1.00  0.00     0.074 A 
ATOM     54  C   UNL A   1      46.734  32.091  29.967  1.00  0.00     0.029 A 
ATOM     55  N   UNL A   1      44.583  31.532  29.911  1.00  0.00    -0.354 N 
ATOM     56  N   UNL A   1      41.702  31.998  30.249  1.00  0.00    -0.248 NA
ATOM     57  C   UNL A   1      39.940  33.333  31.003  1.00  0.00     0.031 C 
ATOM     58  C   UNL A   1      45.982  33.177  30.425  1.00  0.00     0.029 A 
ATOM     59  C   UNL A   1      44.640  32.835  30.377  1.00  0.00     0.049 A 
ATOM     60  H   UNL A   1      43.754  31.016  29.777  1.00  0.00     0.167 HD
ATOM     61  C   UNL A   1      42.208  33.218  30.683  1.00  0.00     0.074 A 
ATOM     62  C   UNL A   1      41.074  34.015  31.102  1.00  0.00     0.031 C 
ATOM     63  C   UNL A   1      43.497  33.634  30.741  1.00  0.00     0.034 A 
BRANCH  50  64
ATOM     64  C   UNL A   1      47.619  29.347  29.040  1.00  0.00     0.023 A 
ATOM     65  C   UNL A   1      48.320  28.838  30.153  1.00  0.00     0.012 A 
ATOM     66  C   UNL A   1      48.275  29.446  27.798  1.00  0.00     0.148 A 
ATOM     67  C   UNL A   1      49.663  28.477  30.044  1.00  0.00     0.002 A 
ATOM     68  C   UNL A   1      49.601  29.039  27.686  1.00  0.00     0.091 A 
ATOM     69  F   UNL A   1      47.602  29.951  26.755  1.00  0.00    -0.205 F 
ATOM     70  C   UNL A   1      50.299  28.569  28.810  1.00  0.00     0.022 A 
BRANCH  68  71
ATOM     71  S   UNL A   1      50.483  29.042  26.121  1.00  0.00     0.127 S 
ATOM     72  O   UNL A   1      50.735  30.469  25.927  1.00  0.00    -0.237 OA
ATOM     73  O   UNL A   1      51.674  28.250  26.437  1.00  0.00    -0.237 OA
ATOM     74  O   UNL A   1      49.585  28.425  25.155  1.00  0.00    -0.744 OA
ENDBRANCH  68  71
ENDBRANCH  50  64
BRANCH  51  75
ATOM     75  C   UNL A   1      37.908  31.308  30.330  1.00  0.00     0.023 A 
ATOM     76  C   UNL A   1      37.327  30.820  31.516  1.00  0.00     0.012 A 
ATOM     77  C   UNL A   1      37.124  32.074  29.445  1.00  0.00     0.148 A 
ATOM     78  C   UNL A   1      35.985  31.069  31.804  1.00  0.00     0.002 A 
ATOM     79  C   UNL A   1      35.804  32.366  29.764  1.00  0.00     0.091 A 
ATOM     80  F   UNL A   1      37.696  32.522  28.317  1.00  0.00    -0.205 F 
ATOM     81  C   UNL A   1      35.227  31.851  30.935  1.00  0.00     0.022 A 
BRANCH  79  82
ATOM     82  S   UNL A   1      34.798  33.478  28.776  1.00  0.00     0.127 S 
ATOM     83  O   UNL A   1      34.535  32.670  27.589  1.00  0.00    -0.237 OA
ATOM     84  O   UNL A   1      33.640  33.690  29.647  1.00  0.00    -0.237 OA
ATOM     85  O   UNL A   1      35.613  34.667  28.565  1.00  0.00    -0.744 OA
ENDBRANCH  79  82
ENDBRANCH  51  75
BRANCH  63  86
ATOM     86  C   UNL A   1      43.762  35.031  31.241  1.00  0.00     0.023 A 
ATOM     87  C   UNL A   1      44.072  35.244  32.598  1.00  0.00     0.012 A 
ATOM     88  C   UNL A   1      43.800  36.115  30.342  1.00  0.00     0.148 A 
ATOM     89  C   UNL A   1      44.390  36.521  33.059  1.00  0.00     0.002 A 
ATOM     90  C   UNL A   1      44.166  37.375  30.799  1.00  0.00     0.091 A 
ATOM     91  F   UNL A   1      43.486  35.892  29.058  1.00  0.00    -0.205 F 
ATOM     92  C   UNL A   1      44.450  37.582  32.159  1.00  0.00     0.022 A 
BRANCH  90  93
ATOM     93  S   UNL A   1      44.366  38.780  29.697  1.00  0.00     0.127 S 
ATOM     94  O   UNL A   1      44.925  39.787  30.597  1.00  0.00    -0.237 OA
ATOM     95  O   UNL A   1      45.307  38.260  28.704  1.00  0.00    -0.237 OA
ATOM     96  O   UNL A   1      43.039  39.077  29.176  1.00  0.00    -0.744 OA
ENDBRANCH  90  93
ENDBRANCH  63  86
ENDBRANCH  37  38
ENDBRANCH  29  32
ENDBRANCH  27  28
ENDBRANCH  26  27
ENDBRANCH  25  26
ENDBRANCH   1  25
TORSDOF 20
ENDMDL
MODEL 3
REMARK VINA RESULT:     -11.0      6.369     11.496
REMARK SMILES CC[C@@H](C)N(CC)c1cc(C(=O)NCCCCCCNC(=O)c2ccc(-c3c4nc(c(-c5cccc(S(=O)(=O)[O-])c5F)c5ccc([nH]5)c(-c5cccc(S(=O)(=O)[O-])c5F)c5nc(c(-c6cccc(S(=O)(=O)[O-])c6F)c6ccc3[nH]6)C=C5)C=C4)cc2)c2ccccc2n1
REMARK SMILES IDX 16 1 15 2 14 3 13 4 11 5 12 6 10 8 8 9 9 10 92 11 91 12
REMARK SMILES IDX 86 13 90 14 87 15 89 16 88 17 5 18 3 19 4 20 2 21 1 22 6 23
REMARK SMILES IDX 7 24 17 25 18 26 19 27 20 28 21 29 22 31 23 32 24 33 85 34
REMARK SMILES IDX 25 35 84 36 26 37 27 38 28 39 78 40 29 41 83 42 77 43 79 44
REMARK SMILES IDX 30 45 82 46 76 47 75 48 31 50 63 51 43 52 62 53 44 54 47 55
REMARK SMILES IDX 61 56 80 57 45 58 46 59 60 61 81 62 48 63 32 64 33 65 41 66
REMARK SMILES IDX 34 67 36 68 42 69 35 70 37 71 38 72 39 73 40 74 64 75 65 76
REMARK SMILES IDX 73 77 66 78 68 79 74 80 67 81 69 82 70 83 71 84 72 85 49 86
REMARK SMILES IDX 50 87 58 88 51 89 53 90 59 91 52 92 54 93 55 94 56 95 57 96
REMARK H PARENT 13 7 20 30 79 49 47 60
REMARK Flexibility Score: inf
ROOT
ATOM      1  C   UNL A   1      37.650  21.910  25.624  1.00  0.00     0.002 C 
ENDROOT
BRANCH   1   2
ATOM      2  C   UNL A   1      37.008  23.173  25.050  1.00  0.00     0.021 C 
BRANCH   2   3
ATOM      3  C   UNL A   1      36.276  24.032  26.093  1.00  0.00     0.116 C 
BRANCH   3   4
ATOM      4  N   UNL A   1      35.503  23.149  26.938  1.00  0.00    -0.352 N 
ATOM      5  C   UNL A   1      34.249  22.612  26.856  1.00  0.00     0.252 C 
ATOM      6  O   UNL A   1      33.813  22.142  27.914  1.00  0.00    -0.269 OA
ATOM      7  H   UNL A   1      35.986  22.874  27.749  1.00  0.00     0.163 HD
BRANCH   5   8
ATOM      8  C   UNL A   1      33.441  22.410  25.613  1.00  0.00     0.052 A 
ATOM      9  C   UNL A   1      32.011  23.668  24.101  1.00  0.00     0.130 A 
ATOM     10  C   UNL A   1      32.803  23.603  25.226  1.00  0.00     0.061 A 
ATOM     11  N   UNL A   1      31.726  22.539  23.447  1.00  0.00    -0.231 NA
ATOM     12  C   UNL A   1      32.317  21.385  23.766  1.00  0.00     0.073 A 
ATOM     13  C   UNL A   1      33.263  21.261  24.801  1.00  0.00     0.013 A 
ATOM     14  C   UNL A   1      31.977  20.285  22.990  1.00  0.00     0.029 A 
ATOM     15  C   UNL A   1      33.947  20.024  24.878  1.00  0.00     0.011 A 
ATOM     16  C   UNL A   1      32.569  19.040  23.176  1.00  0.00     0.002 A 
ATOM     17  C   UNL A   1      33.578  18.914  24.112  1.00  0.00     0.001 A 
BRANCH   9  18
ATOM     18  N   UNL A   1      31.494  24.871  23.640  1.00  0.00    -0.354 N 
BRANCH  18  19
ATOM     19  C   UNL A   1      32.369  25.829  22.925  1.00  0.00     0.080 C 
ATOM     20  C   UNL A   1      33.099  25.097  21.796  1.00  0.00     0.031 C 
BRANCH  19  21
ATOM     21  C   UNL A   1      33.305  26.636  23.850  1.00  0.00     0.021 C 
ATOM     22  C   UNL A   1      33.936  27.850  23.181  1.00  0.00     0.006 C 
ENDBRANCH  19  21
ENDBRANCH  18  19
BRANCH  18  23
ATOM     23  C   UNL A   1      30.266  25.383  24.263  1.00  0.00     0.115 C 
ATOM     24  C   UNL A   1      29.782  26.684  23.636  1.00  0.00     0.027 C 
ENDBRANCH  18  23
ENDBRANCH   9  18
ENDBRANCH   5   8
ENDBRANCH   3   4
ENDBRANCH   2   3
ENDBRANCH   1   2
BRANCH   1  25
ATOM     25  C   UNL A   1      37.543  20.691  24.705  1.00  0.00     0.002 C 
BRANCH  25  26
ATOM     26  C   UNL A   1      38.534  19.563  25.010  1.00  0.00     0.021 C 
BRANCH  26  27
ATOM     27  C   UNL A   1      39.545  19.890  26.106  1.00  0.00     0.116 C 
BRANCH  27  28
ATOM     28  N   UNL A   1      40.660  18.953  26.092  1.00  0.00    -0.352 N 
ATOM     29  C   UNL A   1      42.001  19.218  26.037  1.00  0.00     0.251 C 
ATOM     30  H   UNL A   1      40.416  18.000  26.130  1.00  0.00     0.163 HD
ATOM     31  O   UNL A   1      42.798  18.323  25.737  1.00  0.00    -0.269 OA
BRANCH  29  32
ATOM     32  C   UNL A   1      42.492  20.576  26.337  1.00  0.00     0.039 A 
ATOM     33  C   UNL A   1      42.717  21.474  25.292  1.00  0.00     0.014 A 
ATOM     34  C   UNL A   1      42.740  20.953  27.661  1.00  0.00     0.014 A 
ATOM     35  C   UNL A   1      43.149  22.771  25.579  1.00  0.00     0.010 A 
ATOM     36  C   UNL A   1      43.099  22.265  27.948  1.00  0.00     0.010 A 
ATOM     37  C   UNL A   1      43.319  23.184  26.910  1.00  0.00    -0.014 A 
BRANCH  37  38
ATOM     38  C   UNL A   1      43.726  24.570  27.250  1.00  0.00     0.031 A 
ATOM     39  C   UNL A   1      42.734  25.515  27.870  1.00  0.00     0.074 A 
ATOM     40  C   UNL A   1      44.951  25.008  26.899  1.00  0.00     0.049 A 
ATOM     41  N   UNL A   1      42.864  26.788  28.140  1.00  0.00    -0.248 NA
ATOM     42  C   UNL A   1      41.408  24.964  28.198  1.00  0.00     0.031 C 
ATOM     43  C   UNL A   1      45.970  24.209  26.217  1.00  0.00     0.029 A 
ATOM     44  N   UNL A   1      45.530  26.246  27.028  1.00  0.00    -0.354 N 
ATOM     45  C   UNL A   1      41.631  27.198  28.631  1.00  0.00     0.074 A 
ATOM     46  C   UNL A   1      40.754  26.048  28.587  1.00  0.00     0.031 C 
ATOM     47  C   UNL A   1      47.043  24.979  25.975  1.00  0.00     0.029 A 
ATOM     48  C   UNL A   1      46.776  26.332  26.454  1.00  0.00     0.049 A 
ATOM     49  H   UNL A   1      45.094  26.999  27.489  1.00  0.00     0.167 HD
ATOM     50  C   UNL A   1      41.268  28.414  29.103  1.00  0.00     0.034 A 
ATOM     51  C   UNL A   1      47.603  27.386  26.310  1.00  0.00     0.034 A 
ATOM     52  C   UNL A   1      42.156  29.542  29.179  1.00  0.00     0.049 A 
ATOM     53  C   UNL A   1      47.197  28.717  26.879  1.00  0.00     0.074 A 
ATOM     54  C   UNL A   1      41.917  30.791  29.725  1.00  0.00     0.029 A 
ATOM     55  N   UNL A   1      43.451  29.564  28.684  1.00  0.00    -0.354 N 
ATOM     56  N   UNL A   1      46.083  29.046  27.489  1.00  0.00    -0.248 NA
ATOM     57  C   UNL A   1      48.171  29.813  26.775  1.00  0.00     0.031 C 
ATOM     58  C   UNL A   1      43.059  31.575  29.537  1.00  0.00     0.029 A 
ATOM     59  C   UNL A   1      44.021  30.806  28.901  1.00  0.00     0.049 A 
ATOM     60  H   UNL A   1      43.899  28.806  28.243  1.00  0.00     0.167 HD
ATOM     61  C   UNL A   1      46.236  30.375  27.870  1.00  0.00     0.074 A 
ATOM     62  C   UNL A   1      47.556  30.784  27.438  1.00  0.00     0.031 C 
ATOM     63  C   UNL A   1      45.355  31.184  28.510  1.00  0.00     0.034 A 
BRANCH  50  64
ATOM     64  C   UNL A   1      39.860  28.571  29.618  1.00  0.00     0.023 A 
ATOM     65  C   UNL A   1      39.535  28.104  30.909  1.00  0.00     0.012 A 
ATOM     66  C   UNL A   1      38.869  29.208  28.847  1.00  0.00     0.148 A 
ATOM     67  C   UNL A   1      38.238  28.228  31.407  1.00  0.00     0.002 A 
ATOM     68  C   UNL A   1      37.590  29.371  29.368  1.00  0.00     0.091 A 
ATOM     69  F   UNL A   1      39.187  29.627  27.614  1.00  0.00    -0.205 F 
ATOM     70  C   UNL A   1      37.269  28.869  30.640  1.00  0.00     0.022 A 
BRANCH  68  71
ATOM     71  S   UNL A   1      36.295  30.255  28.491  1.00  0.00     0.127 S 
ATOM     72  O   UNL A   1      35.391  30.614  29.582  1.00  0.00    -0.237 OA
ATOM     73  O   UNL A   1      37.029  31.382  27.911  1.00  0.00    -0.237 OA
ATOM     74  O   UNL A   1      35.760  29.316  27.515  1.00  0.00    -0.744 OA
ENDBRANCH  68  71
ENDBRANCH  50  64
BRANCH  51  75
ATOM     75  C   UNL A   1      48.920  27.200  25.638  1.00  0.00     0.023 A 
ATOM     76  C   UNL A   1      50.019  26.725  26.379  1.00  0.00     0.012 A 
ATOM     77  C   UNL A   1      49.074  27.442  24.259  1.00  0.00     0.148 A 
ATOM     78  C   UNL A   1      51.253  26.518  25.764  1.00  0.00     0.002 A 
ATOM     79  C   UNL A   1      50.289  27.180  23.641  1.00  0.00     0.091 A 
ATOM     80  F   UNL A   1      48.016  27.903  23.574  1.00  0.00    -0.205 F 
ATOM     81  C   UNL A   1      51.386  26.734  24.394  1.00  0.00     0.022 A 
BRANCH  79  82
ATOM     82  S   UNL A   1      50.511  27.296  21.862  1.00  0.00     0.127 S 
ATOM     83  O   UNL A   1      50.231  28.708  21.616  1.00  0.00    -0.237 OA
ATOM     84  O   UNL A   1      51.915  26.909  21.708  1.00  0.00    -0.237 OA
ATOM     85  O   UNL A   1      49.564  26.353  21.284  1.00  0.00    -0.744 OA
ENDBRANCH  79  82
ENDBRANCH  51  75
BRANCH  63  86
ATOM     86  C   UNL A   1      45.795  32.591  28.822  1.00  0.00     0.023 A 
ATOM     87  C   UNL A   1      46.581  32.844  29.963  1.00  0.00     0.012 A 
ATOM     88  C   UNL A   1      45.510  33.643  27.929  1.00  0.00     0.148 A 
ATOM     89  C   UNL A   1      47.055  34.129  30.225  1.00  0.00     0.002 A 
ATOM     90  C   UNL A   1      46.027  34.910  28.170  1.00  0.00     0.091 A 
ATOM     91  F   UNL A   1      44.746  33.382  26.858  1.00  0.00    -0.205 F 
ATOM     92  C   UNL A   1      46.790  35.157  29.323  1.00  0.00     0.022 A 
BRANCH  90  93
ATOM     93  S   UNL A   1      45.821  36.271  27.016  1.00  0.00     0.127 S 
ATOM     94  O   UNL A   1      46.422  35.725  25.800  1.00  0.00    -0.237 OA
ATOM     95  O   UNL A   1      44.366  36.414  26.966  1.00  0.00    -0.237 OA
ATOM     96  O   UNL A   1      46.521  37.406  27.601  1.00  0.00    -0.744 OA
ENDBRANCH  90  93
ENDBRANCH  63  86
ENDBRANCH  37  38
ENDBRANCH  29  32
ENDBRANCH  27  28
ENDBRANCH  26  27
ENDBRANCH  25  26
ENDBRANCH   1  25
TORSDOF 20
ENDMDL
