MODEL 1
REMARK VINA RESULT:     -10.9      0.000      0.000
REMARK SMILES CC(C)Cc1ccc([C@H](CF)C(=O)NCCCCCCNC(=O)c2ccc(-c3c4nc(c(-c5cccc(S(=O)(=O)[O-])c5F)c5ccc([nH]5)c(-c5cccc(S(=O)(=O)[O-])c5F)c5nc(c(-c6cccc(S(=O)(=O)[O-])c6F)c6ccc3[nH]6)C=C5)C=C4)cc2)cc1
REMARK SMILES IDX 17 1 16 2 15 3 14 4 12 5 13 6 9 8 8 9 5 10 6 11 88 12 7 13
REMARK SMILES IDX 87 14 4 15 2 16 1 17 3 18 10 19 11 20 18 21 19 22 20 23
REMARK SMILES IDX 21 24 22 25 23 27 24 28 25 29 86 30 26 31 85 32 27 33 28 34
REMARK SMILES IDX 29 35 79 36 30 37 84 38 78 39 80 40 31 41 83 42 77 43 76 44
REMARK SMILES IDX 32 46 64 47 44 48 63 49 45 50 48 51 62 52 81 53 46 54 47 55
REMARK SMILES IDX 61 57 82 58 49 59 33 60 34 61 42 62 35 63 37 64 43 65 36 66
REMARK SMILES IDX 38 67 39 68 40 69 41 70 65 71 66 72 74 73 67 74 69 75 75 76
REMARK SMILES IDX 68 77 70 78 71 79 72 80 73 81 50 82 51 83 59 84 52 85 54 86
REMARK SMILES IDX 60 87 53 88 55 89 56 90 57 91 58 92
REMARK H PARENT 14 7 21 26 80 45 48 56
REMARK Flexibility Score: inf
ROOT
ATOM      1  C   UNL A   1      36.535  22.015  24.845  1.00  0.00     0.002 C 
ENDROOT
BRANCH   1   2
ATOM      2  C   UNL A   1      35.701  22.795  25.863  1.00  0.00     0.021 C 
BRANCH   2   3
ATOM      3  C   UNL A   1      34.458  23.460  25.281  1.00  0.00     0.116 C 
BRANCH   3   4
ATOM      4  N   UNL A   1      33.477  23.757  26.308  1.00  0.00    -0.355 N 
ATOM      5  C   UNL A   1      32.166  23.392  26.405  1.00  0.00     0.230 C 
ATOM      6  O   UNL A   1      31.556  23.734  27.423  1.00  0.00    -0.274 OA
ATOM      7  H   UNL A   1      33.809  24.309  27.052  1.00  0.00     0.163 HD
BRANCH   5   8
ATOM      8  C   UNL A   1      31.458  22.605  25.298  1.00  0.00     0.139 C 
BRANCH   8   9
ATOM      9  C   UNL A   1      32.153  21.275  25.027  1.00  0.00    -0.033 A 
ATOM     10  C   UNL A   1      33.077  18.687  24.365  1.00  0.00    -0.048 A 
ATOM     11  C   UNL A   1      32.819  19.623  23.360  1.00  0.00     0.004 A 
ATOM     12  C   UNL A   1      32.952  19.079  25.701  1.00  0.00     0.004 A 
ATOM     13  C   UNL A   1      32.358  20.899  23.688  1.00  0.00     0.005 A 
ATOM     14  C   UNL A   1      32.520  20.369  26.030  1.00  0.00     0.005 A 
BRANCH  10  15
ATOM     15  C   UNL A   1      33.425  17.260  24.013  1.00  0.00     0.038 C 
BRANCH  15  16
ATOM     16  C   UNL A   1      33.707  16.382  25.252  1.00  0.00    -0.013 C 
ATOM     17  C   UNL A   1      32.727  15.209  25.372  1.00  0.00     0.008 C 
ATOM     18  C   UNL A   1      35.140  15.847  25.196  1.00  0.00     0.008 C 
ENDBRANCH  15  16
ENDBRANCH  10  15
ENDBRANCH   8   9
BRANCH   8  19
ATOM     19  C   UNL A   1      31.158  23.544  24.133  1.00  0.00     0.232 C 
ATOM     20  F   UNL A   1      30.104  24.344  24.457  1.00  0.00    -0.250 F 
ENDBRANCH   8  19
ENDBRANCH   5   8
ENDBRANCH   3   4
ENDBRANCH   2   3
ENDBRANCH   1   2
BRANCH   1  21
ATOM     21  C   UNL A   1      36.370  20.492  24.897  1.00  0.00     0.002 C 
BRANCH  21  22
ATOM     22  C   UNL A   1      37.671  19.686  24.830  1.00  0.00     0.021 C 
BRANCH  22  23
ATOM     23  C   UNL A   1      38.821  20.246  25.661  1.00  0.00     0.116 C 
BRANCH  23  24
ATOM     24  N   UNL A   1      39.871  19.264  25.878  1.00  0.00    -0.352 N 
ATOM     25  C   UNL A   1      41.203  19.456  26.136  1.00  0.00     0.251 C 
ATOM     26  H   UNL A   1      39.584  18.323  25.834  1.00  0.00     0.163 HD
ATOM     27  O   UNL A   1      41.974  18.494  26.105  1.00  0.00    -0.269 OA
BRANCH  25  28
ATOM     28  C   UNL A   1      41.722  20.808  26.434  1.00  0.00     0.039 A 
ATOM     29  C   UNL A   1      42.017  21.665  25.372  1.00  0.00     0.014 A 
ATOM     30  C   UNL A   1      41.934  21.226  27.751  1.00  0.00     0.014 A 
ATOM     31  C   UNL A   1      42.479  22.957  25.631  1.00  0.00     0.010 A 
ATOM     32  C   UNL A   1      42.323  22.539  28.009  1.00  0.00     0.010 A 
ATOM     33  C   UNL A   1      42.609  23.416  26.954  1.00  0.00    -0.014 A 
BRANCH  33  34
ATOM     34  C   UNL A   1      43.026  24.813  27.239  1.00  0.00     0.031 A 
ATOM     35  C   UNL A   1      42.078  25.780  27.894  1.00  0.00     0.074 A 
ATOM     36  C   UNL A   1      44.243  25.234  26.839  1.00  0.00     0.049 A 
ATOM     37  N   UNL A   1      42.269  27.036  28.208  1.00  0.00    -0.248 NA
ATOM     38  C   UNL A   1      40.730  25.282  28.213  1.00  0.00     0.031 C 
ATOM     39  C   UNL A   1      45.220  24.420  26.112  1.00  0.00     0.029 A 
ATOM     40  N   UNL A   1      44.856  26.455  26.966  1.00  0.00    -0.354 N 
ATOM     41  C   UNL A   1      41.061  27.488  28.726  1.00  0.00     0.074 A 
ATOM     42  C   UNL A   1      40.132  26.381  28.653  1.00  0.00     0.031 C 
ATOM     43  C   UNL A   1      46.311  25.162  25.863  1.00  0.00     0.029 A 
ATOM     44  C   UNL A   1      46.102  26.509  26.386  1.00  0.00     0.049 A 
ATOM     45  H   UNL A   1      44.443  27.220  27.426  1.00  0.00     0.167 HD
ATOM     46  C   UNL A   1      40.758  28.703  29.242  1.00  0.00     0.034 A 
ATOM     47  C   UNL A   1      46.978  27.527  26.283  1.00  0.00     0.034 A 
ATOM     48  C   UNL A   1      41.696  29.789  29.348  1.00  0.00     0.049 A 
ATOM     49  C   UNL A   1      46.640  28.851  26.912  1.00  0.00     0.074 A 
ATOM     50  C   UNL A   1      41.518  31.024  29.947  1.00  0.00     0.029 A 
ATOM     51  N   UNL A   1      42.981  29.781  28.828  1.00  0.00    -0.354 N 
ATOM     52  N   UNL A   1      45.556  29.204  27.557  1.00  0.00    -0.248 NA
ATOM     53  C   UNL A   1      47.663  29.903  26.834  1.00  0.00     0.031 C 
ATOM     54  C   UNL A   1      42.685  31.773  29.761  1.00  0.00     0.029 A 
ATOM     55  C   UNL A   1      43.603  30.993  29.077  1.00  0.00     0.049 A 
ATOM     56  H   UNL A   1      43.392  29.023  28.352  1.00  0.00     0.167 HD
ATOM     57  C   UNL A   1      45.775  30.507  27.989  1.00  0.00     0.074 A 
ATOM     58  C   UNL A   1      47.109  30.869  27.553  1.00  0.00     0.031 C 
ATOM     59  C   UNL A   1      44.944  31.332  28.672  1.00  0.00     0.034 A 
BRANCH  46  60
ATOM     60  C   UNL A   1      39.362  28.911  29.772  1.00  0.00     0.023 A 
ATOM     61  C   UNL A   1      39.027  28.450  31.062  1.00  0.00     0.012 A 
ATOM     62  C   UNL A   1      38.396  29.606  29.016  1.00  0.00     0.148 A 
ATOM     63  C   UNL A   1      37.744  28.639  31.575  1.00  0.00     0.002 A 
ATOM     64  C   UNL A   1      37.135  29.833  29.554  1.00  0.00     0.091 A 
ATOM     65  F   UNL A   1      38.724  30.019  27.784  1.00  0.00    -0.205 F 
ATOM     66  C   UNL A   1      36.803  29.339  30.825  1.00  0.00     0.022 A 
BRANCH  64  67
ATOM     67  S   UNL A   1      35.878  30.794  28.702  1.00  0.00     0.127 S 
ATOM     68  O   UNL A   1      35.201  29.764  27.917  1.00  0.00    -0.237 OA
ATOM     69  O   UNL A   1      35.093  31.327  29.815  1.00  0.00    -0.237 OA
ATOM     70  O   UNL A   1      36.597  31.798  27.931  1.00  0.00    -0.744 OA
ENDBRANCH  64  67
ENDBRANCH  46  60
BRANCH  47  71
ATOM     71  C   UNL A   1      48.287  27.308  25.605  1.00  0.00     0.023 A 
ATOM     72  C   UNL A   1      49.380  26.818  26.346  1.00  0.00     0.012 A 
ATOM     73  C   UNL A   1      48.441  27.540  24.226  1.00  0.00     0.148 A 
ATOM     74  C   UNL A   1      50.612  26.590  25.732  1.00  0.00     0.002 A 
ATOM     75  C   UNL A   1      49.653  27.256  23.608  1.00  0.00     0.091 A 
ATOM     76  F   UNL A   1      47.391  28.014  23.540  1.00  0.00    -0.205 F 
ATOM     77  C   UNL A   1      50.745  26.799  24.362  1.00  0.00     0.022 A 
BRANCH  75  78
ATOM     78  S   UNL A   1      49.875  27.362  21.828  1.00  0.00     0.127 S 
ATOM     79  O   UNL A   1      49.724  28.796  21.592  1.00  0.00    -0.237 OA
ATOM     80  O   UNL A   1      51.235  26.848  21.664  1.00  0.00    -0.237 OA
ATOM     81  O   UNL A   1      48.841  26.516  21.250  1.00  0.00    -0.744 OA
ENDBRANCH  75  78
ENDBRANCH  47  71
BRANCH  59  82
ATOM     82  C   UNL A   1      45.457  32.707  29.017  1.00  0.00     0.023 A 
ATOM     83  C   UNL A   1      46.087  32.932  30.257  1.00  0.00     0.012 A 
ATOM     84  C   UNL A   1      45.367  33.761  28.086  1.00  0.00     0.148 A 
ATOM     85  C   UNL A   1      46.580  34.196  30.584  1.00  0.00     0.002 A 
ATOM     86  C   UNL A   1      45.909  35.003  28.397  1.00  0.00     0.091 A 
ATOM     87  F   UNL A   1      44.749  33.534  26.918  1.00  0.00    -0.205 F 
ATOM     88  C   UNL A   1      46.502  35.227  29.651  1.00  0.00     0.022 A 
BRANCH  86  89
ATOM     89  S   UNL A   1      45.941  36.360  27.220  1.00  0.00     0.127 S 
ATOM     90  O   UNL A   1      46.914  35.881  26.240  1.00  0.00    -0.237 OA
ATOM     91  O   UNL A   1      44.558  36.388  26.741  1.00  0.00    -0.237 OA
ATOM     92  O   UNL A   1      46.342  37.538  27.977  1.00  0.00    -0.744 OA
ENDBRANCH  86  89
ENDBRANCH  59  82
ENDBRANCH  33  34
ENDBRANCH  25  28
ENDBRANCH  23  24
ENDBRANCH  22  23
ENDBRANCH  21  22
ENDBRANCH   1  21
TORSDOF 20
ENDMDL
MODEL 2
REMARK VINA RESULT:     -10.7      5.445      8.370
REMARK SMILES CC(C)Cc1ccc([C@H](CF)C(=O)NCCCCCCNC(=O)c2ccc(-c3c4nc(c(-c5cccc(S(=O)(=O)[O-])c5F)c5ccc([nH]5)c(-c5cccc(S(=O)(=O)[O-])c5F)c5nc(c(-c6cccc(S(=O)(=O)[O-])c6F)c6ccc3[nH]6)C=C5)C=C4)cc2)cc1
REMARK SMILES IDX 17 1 16 2 15 3 14 4 12 5 13 6 9 8 8 9 5 10 6 11 88 12 7 13
REMARK SMILES IDX 87 14 4 15 2 16 1 17 3 18 10 19 11 20 18 21 19 22 20 23
REMARK SMILES IDX 21 24 22 25 23 27 24 28 25 29 86 30 26 31 85 32 27 33 28 34
REMARK SMILES IDX 29 35 79 36 30 37 84 38 78 39 80 40 31 41 83 42 77 43 76 44
REMARK SMILES IDX 32 46 64 47 44 48 63 49 45 50 48 51 62 52 81 53 46 54 47 55
REMARK SMILES IDX 61 57 82 58 49 59 33 60 34 61 42 62 35 63 37 64 43 65 36 66
REMARK SMILES IDX 38 67 39 68 40 69 41 70 65 71 66 72 74 73 67 74 69 75 75 76
REMARK SMILES IDX 68 77 70 78 71 79 72 80 73 81 50 82 51 83 59 84 52 85 54 86
REMARK SMILES IDX 60 87 53 88 55 89 56 90 57 91 58 92
REMARK H PARENT 14 7 21 26 80 45 48 56
REMARK Flexibility Score: inf
ROOT
ATOM      1  C   UNL A   1      31.339  27.738  24.677  1.00  0.00     0.002 C 
ENDROOT
BRANCH   1   2
ATOM      2  C   UNL A   1      30.039  27.055  24.246  1.00  0.00     0.021 C 
BRANCH   2   3
ATOM      3  C   UNL A   1      30.121  25.534  24.171  1.00  0.00     0.116 C 
BRANCH   3   4
ATOM      4  N   UNL A   1      30.268  24.939  25.486  1.00  0.00    -0.355 N 
ATOM      5  C   UNL A   1      31.342  24.322  26.059  1.00  0.00     0.230 C 
ATOM      6  O   UNL A   1      31.223  23.946  27.229  1.00  0.00    -0.274 OA
ATOM      7  H   UNL A   1      29.466  24.987  26.056  1.00  0.00     0.163 HD
BRANCH   5   8
ATOM      8  C   UNL A   1      32.646  24.082  25.290  1.00  0.00     0.139 C 
BRANCH   8   9
ATOM      9  C   UNL A   1      32.982  22.597  25.213  1.00  0.00    -0.033 A 
ATOM     10  C   UNL A   1      33.949  19.963  24.867  1.00  0.00    -0.048 A 
ATOM     11  C   UNL A   1      34.576  20.833  25.762  1.00  0.00     0.004 A 
ATOM     12  C   UNL A   1      32.788  20.388  24.213  1.00  0.00     0.004 A 
ATOM     13  C   UNL A   1      34.101  22.135  25.928  1.00  0.00     0.005 A 
ATOM     14  C   UNL A   1      32.294  21.683  24.403  1.00  0.00     0.005 A 
BRANCH  10  15
ATOM     15  C   UNL A   1      34.548  18.609  24.566  1.00  0.00     0.038 C 
BRANCH  15  16
ATOM     16  C   UNL A   1      33.505  17.582  24.071  1.00  0.00    -0.013 C 
ATOM     17  C   UNL A   1      34.087  16.610  23.039  1.00  0.00     0.008 C 
ATOM     18  C   UNL A   1      32.948  16.794  25.259  1.00  0.00     0.008 C 
ENDBRANCH  15  16
ENDBRANCH  10  15
ENDBRANCH   8   9
BRANCH   8  19
ATOM     19  C   UNL A   1      33.703  25.063  25.786  1.00  0.00     0.232 C 
ATOM     20  F   UNL A   1      34.659  25.221  24.827  1.00  0.00    -0.250 F 
ENDBRANCH   8  19
ENDBRANCH   5   8
ENDBRANCH   3   4
ENDBRANCH   2   3
ENDBRANCH   1   2
BRANCH   1  21
ATOM     21  C   UNL A   1      31.407  28.136  26.155  1.00  0.00     0.002 C 
BRANCH  21  22
ATOM     22  C   UNL A   1      32.819  28.302  26.727  1.00  0.00     0.021 C 
BRANCH  22  23
ATOM     23  C   UNL A   1      33.691  29.326  26.007  1.00  0.00     0.116 C 
BRANCH  23  24
ATOM     24  N   UNL A   1      33.357  30.691  26.379  1.00  0.00    -0.352 N 
ATOM     25  C   UNL A   1      33.896  31.484  27.358  1.00  0.00     0.251 C 
ATOM     26  H   UNL A   1      32.638  31.108  25.850  1.00  0.00     0.163 HD
ATOM     27  O   UNL A   1      33.352  32.553  27.645  1.00  0.00    -0.269 OA
BRANCH  25  28
ATOM     28  C   UNL A   1      35.114  31.059  28.080  1.00  0.00     0.039 A 
ATOM     29  C   UNL A   1      35.078  29.880  28.828  1.00  0.00     0.014 A 
ATOM     30  C   UNL A   1      36.283  31.826  28.038  1.00  0.00     0.014 A 
ATOM     31  C   UNL A   1      36.225  29.445  29.493  1.00  0.00     0.010 A 
ATOM     32  C   UNL A   1      37.447  31.351  28.640  1.00  0.00     0.010 A 
ATOM     33  C   UNL A   1      37.429  30.162  29.382  1.00  0.00    -0.014 A 
BRANCH  33  34
ATOM     34  C   UNL A   1      38.674  29.665  30.023  1.00  0.00     0.031 A 
ATOM     35  C   UNL A   1      39.120  30.201  31.356  1.00  0.00     0.074 A 
ATOM     36  C   UNL A   1      39.446  28.776  29.366  1.00  0.00     0.049 A 
ATOM     37  N   UNL A   1      40.180  29.891  32.056  1.00  0.00    -0.248 NA
ATOM     38  C   UNL A   1      38.282  31.244  31.971  1.00  0.00     0.031 C 
ATOM     39  C   UNL A   1      39.172  28.249  28.027  1.00  0.00     0.029 A 
ATOM     40  N   UNL A   1      40.629  28.179  29.723  1.00  0.00    -0.354 N 
ATOM     41  C   UNL A   1      40.158  30.719  33.172  1.00  0.00     0.074 A 
ATOM     42  C   UNL A   1      38.996  31.571  33.039  1.00  0.00     0.031 C 
ATOM     43  C   UNL A   1      40.155  27.403  27.679  1.00  0.00     0.029 A 
ATOM     44  C   UNL A   1      41.141  27.348  28.754  1.00  0.00     0.049 A 
ATOM     45  H   UNL A   1      41.070  28.333  30.589  1.00  0.00     0.167 HD
ATOM     46  C   UNL A   1      41.009  30.750  34.225  1.00  0.00     0.034 A 
ATOM     47  C   UNL A   1      42.277  26.624  28.730  1.00  0.00     0.034 A 
ATOM     48  C   UNL A   1      42.142  29.875  34.371  1.00  0.00     0.049 A 
ATOM     49  C   UNL A   1      43.177  26.635  29.935  1.00  0.00     0.074 A 
ATOM     50  C   UNL A   1      43.004  29.757  35.447  1.00  0.00     0.029 A 
ATOM     51  N   UNL A   1      42.582  28.980  33.409  1.00  0.00    -0.354 N 
ATOM     52  N   UNL A   1      43.042  27.294  31.059  1.00  0.00    -0.248 NA
ATOM     53  C   UNL A   1      44.365  25.770  29.884  1.00  0.00     0.031 C 
ATOM     54  C   UNL A   1      43.985  28.814  35.121  1.00  0.00     0.029 A 
ATOM     55  C   UNL A   1      43.713  28.319  33.856  1.00  0.00     0.049 A 
ATOM     56  H   UNL A   1      42.154  28.837  32.534  1.00  0.00     0.167 HD
ATOM     57  C   UNL A   1      44.108  26.903  31.862  1.00  0.00     0.074 A 
ATOM     58  C   UNL A   1      44.864  25.928  31.101  1.00  0.00     0.031 C 
ATOM     59  C   UNL A   1      44.438  27.323  33.108  1.00  0.00     0.034 A 
BRANCH  46  60
ATOM     60  C   UNL A   1      40.723  31.739  35.327  1.00  0.00     0.023 A 
ATOM     61  C   UNL A   1      41.598  32.827  35.535  1.00  0.00     0.012 A 
ATOM     62  C   UNL A   1      39.567  31.624  36.123  1.00  0.00     0.148 A 
ATOM     63  C   UNL A   1      41.348  33.758  36.542  1.00  0.00     0.002 A 
ATOM     64  C   UNL A   1      39.299  32.583  37.093  1.00  0.00     0.091 A 
ATOM     65  F   UNL A   1      38.757  30.573  35.927  1.00  0.00    -0.205 F 
ATOM     66  C   UNL A   1      40.195  33.642  37.313  1.00  0.00     0.022 A 
BRANCH  64  67
ATOM     67  S   UNL A   1      37.801  32.569  38.083  1.00  0.00     0.127 S 
ATOM     68  O   UNL A   1      36.787  32.913  37.087  1.00  0.00    -0.237 OA
ATOM     69  O   UNL A   1      37.752  31.183  38.547  1.00  0.00    -0.237 OA
ATOM     70  O   UNL A   1      38.006  33.555  39.134  1.00  0.00    -0.744 OA
ENDBRANCH  64  67
ENDBRANCH  46  60
BRANCH  47  71
ATOM     71  C   UNL A   1      42.590  25.782  27.542  1.00  0.00     0.023 A 
ATOM     72  C   UNL A   1      43.386  26.307  26.507  1.00  0.00     0.012 A 
ATOM     73  C   UNL A   1      42.138  24.451  27.453  1.00  0.00     0.148 A 
ATOM     74  C   UNL A   1      43.705  25.533  25.390  1.00  0.00     0.002 A 
ATOM     75  C   UNL A   1      42.506  23.666  26.367  1.00  0.00     0.091 A 
ATOM     76  F   UNL A   1      41.373  23.973  28.445  1.00  0.00    -0.205 F 
ATOM     77  C   UNL A   1      43.274  24.211  25.325  1.00  0.00     0.022 A 
BRANCH  75  78
ATOM     78  S   UNL A   1      42.115  21.916  26.267  1.00  0.00     0.127 S 
ATOM     79  O   UNL A   1      42.977  21.478  25.171  1.00  0.00    -0.237 OA
ATOM     80  O   UNL A   1      42.515  21.443  27.593  1.00  0.00    -0.237 OA
ATOM     81  O   UNL A   1      40.684  21.844  26.011  1.00  0.00    -0.744 OA
ENDBRANCH  75  78
ENDBRANCH  47  71
BRANCH  59  82
ATOM     82  C   UNL A   1      45.659  26.712  33.747  1.00  0.00     0.023 A 
ATOM     83  C   UNL A   1      46.906  27.362  33.647  1.00  0.00     0.012 A 
ATOM     84  C   UNL A   1      45.559  25.523  34.497  1.00  0.00     0.148 A 
ATOM     85  C   UNL A   1      48.041  26.817  34.246  1.00  0.00     0.002 A 
ATOM     86  C   UNL A   1      46.684  25.014  35.136  1.00  0.00     0.091 A 
ATOM     87  F   UNL A   1      44.370  24.908  34.567  1.00  0.00    -0.205 F 
ATOM     88  C   UNL A   1      47.928  25.651  34.999  1.00  0.00     0.022 A 
BRANCH  86  89
ATOM     89  S   UNL A   1      46.612  23.573  36.206  1.00  0.00     0.127 S 
ATOM     90  O   UNL A   1      46.026  22.571  35.317  1.00  0.00    -0.237 OA
ATOM     91  O   UNL A   1      48.022  23.354  36.528  1.00  0.00    -0.237 OA
ATOM     92  O   UNL A   1      45.787  23.959  37.343  1.00  0.00    -0.744 OA
ENDBRANCH  86  89
ENDBRANCH  59  82
ENDBRANCH  33  34
ENDBRANCH  25  28
ENDBRANCH  23  24
ENDBRANCH  22  23
ENDBRANCH  21  22
ENDBRANCH   1  21
TORSDOF 20
ENDMDL
MODEL 3
REMARK VINA RESULT:     -10.4      2.641      8.821
REMARK SMILES CC(C)Cc1ccc([C@H](CF)C(=O)NCCCCCCNC(=O)c2ccc(-c3c4nc(c(-c5cccc(S(=O)(=O)[O-])c5F)c5ccc([nH]5)c(-c5cccc(S(=O)(=O)[O-])c5F)c5nc(c(-c6cccc(S(=O)(=O)[O-])c6F)c6ccc3[nH]6)C=C5)C=C4)cc2)cc1
REMARK SMILES IDX 17 1 16 2 15 3 14 4 12 5 13 6 9 8 8 9 5 10 6 11 88 12 7 13
REMARK SMILES IDX 87 14 4 15 2 16 1 17 3 18 10 19 11 20 18 21 19 22 20 23
REMARK SMILES IDX 21 24 22 25 23 27 24 28 25 29 86 30 26 31 85 32 27 33 28 34
REMARK SMILES IDX 29 35 79 36 30 37 84 38 78 39 80 40 31 41 83 42 77 43 76 44
REMARK SMILES IDX 32 46 64 47 44 48 63 49 45 50 48 51 62 52 81 53 46 54 47 55
REMARK SMILES IDX 61 57 82 58 49 59 33 60 34 61 42 62 35 63 37 64 43 65 36 66
REMARK SMILES IDX 38 67 39 68 40 69 41 70 65 71 66 72 74 73 67 74 69 75 75 76
REMARK SMILES IDX 68 77 70 78 71 79 72 80 73 81 50 82 51 83 59 84 52 85 54 86
REMARK SMILES IDX 60 87 53 88 55 89 56 90 57 91 58 92
REMARK H PARENT 14 7 21 26 80 45 48 56
REMARK Flexibility Score: inf
ROOT
ATOM      1  C   UNL A   1      33.603  23.433  23.237  1.00  0.00     0.002 C 
ENDROOT
BRANCH   1   2
ATOM      2  C   UNL A   1      32.404  22.859  23.995  1.00  0.00     0.021 C 
BRANCH   2   3
ATOM      3  C   UNL A   1      31.109  23.643  23.813  1.00  0.00     0.116 C 
BRANCH   3   4
ATOM      4  N   UNL A   1      30.704  24.303  25.040  1.00  0.00    -0.355 N 
ATOM      5  C   UNL A   1      30.551  25.631  25.317  1.00  0.00     0.230 C 
ATOM      6  O   UNL A   1      30.137  25.932  26.440  1.00  0.00    -0.274 OA
ATOM      7  H   UNL A   1      30.511  23.699  25.792  1.00  0.00     0.163 HD
BRANCH   5   8
ATOM      8  C   UNL A   1      30.890  26.718  24.292  1.00  0.00     0.139 C 
BRANCH   8   9
ATOM      9  C   UNL A   1      31.815  27.775  24.886  1.00  0.00    -0.033 A 
ATOM     10  C   UNL A   1      33.542  29.490  26.323  1.00  0.00    -0.048 A 
ATOM     11  C   UNL A   1      34.009  28.269  25.832  1.00  0.00     0.004 A 
ATOM     12  C   UNL A   1      32.236  29.886  26.018  1.00  0.00     0.004 A 
ATOM     13  C   UNL A   1      33.154  27.420  25.127  1.00  0.00     0.005 A 
ATOM     14  C   UNL A   1      31.389  29.049  25.285  1.00  0.00     0.005 A 
BRANCH  10  15
ATOM     15  C   UNL A   1      34.413  30.341  27.218  1.00  0.00     0.038 C 
BRANCH  15  16
ATOM     16  C   UNL A   1      35.615  29.569  27.806  1.00  0.00    -0.013 C 
ATOM     17  C   UNL A   1      36.955  30.063  27.250  1.00  0.00     0.008 C 
ATOM     18  C   UNL A   1      35.617  29.693  29.331  1.00  0.00     0.008 C 
ENDBRANCH  15  16
ENDBRANCH  10  15
ENDBRANCH   8   9
BRANCH   8  19
ATOM     19  C   UNL A   1      29.609  27.155  23.588  1.00  0.00     0.232 C 
ATOM     20  F   UNL A   1      28.587  26.332  23.956  1.00  0.00    -0.250 F 
ENDBRANCH   8  19
ENDBRANCH   5   8
ENDBRANCH   3   4
ENDBRANCH   2   3
ENDBRANCH   1   2
BRANCH   1  21
ATOM     21  C   UNL A   1      34.824  23.763  24.102  1.00  0.00     0.002 C 
BRANCH  21  22
ATOM     22  C   UNL A   1      35.806  22.608  24.322  1.00  0.00     0.021 C 
BRANCH  22  23
ATOM     23  C   UNL A   1      36.336  22.473  25.746  1.00  0.00     0.116 C 
BRANCH  23  24
ATOM     24  N   UNL A   1      37.327  21.416  25.866  1.00  0.00    -0.352 N 
ATOM     25  C   UNL A   1      38.671  21.507  26.112  1.00  0.00     0.251 C 
ATOM     26  H   UNL A   1      36.981  20.500  25.755  1.00  0.00     0.163 HD
ATOM     27  O   UNL A   1      39.381  20.506  25.993  1.00  0.00    -0.269 OA
BRANCH  25  28
ATOM     28  C   UNL A   1      39.276  22.798  26.504  1.00  0.00     0.039 A 
ATOM     29  C   UNL A   1      40.224  22.814  27.530  1.00  0.00     0.014 A 
ATOM     30  C   UNL A   1      38.902  23.990  25.878  1.00  0.00     0.014 A 
ATOM     31  C   UNL A   1      40.829  24.018  27.895  1.00  0.00     0.010 A 
ATOM     32  C   UNL A   1      39.561  25.176  26.191  1.00  0.00     0.010 A 
ATOM     33  C   UNL A   1      40.525  25.206  27.209  1.00  0.00    -0.014 A 
BRANCH  33  34
ATOM     34  C   UNL A   1      41.221  26.477  27.539  1.00  0.00     0.031 A 
ATOM     35  C   UNL A   1      42.632  26.722  27.080  1.00  0.00     0.074 A 
ATOM     36  C   UNL A   1      40.602  27.386  28.319  1.00  0.00     0.049 A 
ATOM     37  N   UNL A   1      43.396  27.765  27.283  1.00  0.00    -0.248 NA
ATOM     38  C   UNL A   1      43.284  25.644  26.317  1.00  0.00     0.031 C 
ATOM     39  C   UNL A   1      39.269  27.227  28.905  1.00  0.00     0.029 A 
ATOM     40  N   UNL A   1      41.021  28.611  28.773  1.00  0.00    -0.354 N 
ATOM     41  C   UNL A   1      44.623  27.459  26.708  1.00  0.00     0.074 A 
ATOM     42  C   UNL A   1      44.515  26.117  26.177  1.00  0.00     0.031 C 
ATOM     43  C   UNL A   1      38.978  28.316  29.634  1.00  0.00     0.029 A 
ATOM     44  C   UNL A   1      40.110  29.236  29.592  1.00  0.00     0.049 A 
ATOM     45  H   UNL A   1      41.891  29.005  28.536  1.00  0.00     0.167 HD
ATOM     46  C   UNL A   1      45.731  28.231  26.605  1.00  0.00     0.034 A 
ATOM     47  C   UNL A   1      40.177  30.415  30.241  1.00  0.00     0.034 A 
ATOM     48  C   UNL A   1      45.822  29.579  27.102  1.00  0.00     0.049 A 
ATOM     49  C   UNL A   1      41.397  31.278  30.066  1.00  0.00     0.074 A 
ATOM     50  C   UNL A   1      46.862  30.480  26.957  1.00  0.00     0.029 A 
ATOM     51  N   UNL A   1      44.845  30.215  27.852  1.00  0.00    -0.354 N 
ATOM     52  N   UNL A   1      42.480  31.043  29.367  1.00  0.00    -0.248 NA
ATOM     53  C   UNL A   1      41.385  32.587  30.736  1.00  0.00     0.031 C 
ATOM     54  C   UNL A   1      46.527  31.649  27.649  1.00  0.00     0.029 A 
ATOM     55  C   UNL A   1      45.263  31.490  28.194  1.00  0.00     0.049 A 
ATOM     56  H   UNL A   1      43.981  29.818  28.106  1.00  0.00     0.167 HD
ATOM     57  C   UNL A   1      43.267  32.183  29.487  1.00  0.00     0.074 A 
ATOM     58  C   UNL A   1      42.520  33.119  30.304  1.00  0.00     0.031 C 
ATOM     59  C   UNL A   1      44.499  32.428  28.977  1.00  0.00     0.034 A 
BRANCH  46  60
ATOM     60  C   UNL A   1      46.926  27.651  25.892  1.00  0.00     0.023 A 
ATOM     61  C   UNL A   1      47.074  27.846  24.502  1.00  0.00     0.012 A 
ATOM     62  C   UNL A   1      47.927  26.957  26.600  1.00  0.00     0.148 A 
ATOM     63  C   UNL A   1      48.176  27.326  23.824  1.00  0.00     0.002 A 
ATOM     64  C   UNL A   1      49.046  26.483  25.926  1.00  0.00     0.091 A 
ATOM     65  F   UNL A   1      47.760  26.761  27.916  1.00  0.00    -0.205 F 
ATOM     66  C   UNL A   1      49.165  26.654  24.537  1.00  0.00     0.022 A 
BRANCH  64  67
ATOM     67  S   UNL A   1      50.414  25.677  26.765  1.00  0.00     0.127 S 
ATOM     68  O   UNL A   1      49.779  24.455  27.256  1.00  0.00    -0.237 OA
ATOM     69  O   UNL A   1      51.367  25.474  25.674  1.00  0.00    -0.237 OA
ATOM     70  O   UNL A   1      50.857  26.608  27.793  1.00  0.00    -0.744 OA
ENDBRANCH  64  67
ENDBRANCH  46  60
BRANCH  47  71
ATOM     71  C   UNL A   1      39.023  30.870  31.065  1.00  0.00     0.023 A 
ATOM     72  C   UNL A   1      38.924  30.462  32.409  1.00  0.00     0.012 A 
ATOM     73  C   UNL A   1      38.048  31.738  30.537  1.00  0.00     0.148 A 
ATOM     74  C   UNL A   1      37.860  30.886  33.205  1.00  0.00     0.002 A 
ATOM     75  C   UNL A   1      37.023  32.204  31.352  1.00  0.00     0.091 A 
ATOM     76  F   UNL A   1      38.156  32.108  29.253  1.00  0.00    -0.205 F 
ATOM     77  C   UNL A   1      36.916  31.765  32.680  1.00  0.00     0.022 A 
BRANCH  75  78
ATOM     78  S   UNL A   1      35.845  33.444  30.803  1.00  0.00     0.127 S 
ATOM     79  O   UNL A   1      34.579  32.721  30.902  1.00  0.00    -0.237 OA
ATOM     80  O   UNL A   1      36.033  34.499  31.800  1.00  0.00    -0.237 OA
ATOM     81  O   UNL A   1      36.257  33.812  29.455  1.00  0.00    -0.744 OA
ENDBRANCH  75  78
ENDBRANCH  47  71
BRANCH  59  82
ATOM     82  C   UNL A   1      45.116  33.773  29.265  1.00  0.00     0.023 A 
ATOM     83  C   UNL A   1      45.939  33.941  30.397  1.00  0.00     0.012 A 
ATOM     84  C   UNL A   1      44.928  34.854  28.381  1.00  0.00     0.148 A 
ATOM     85  C   UNL A   1      46.530  35.176  30.668  1.00  0.00     0.002 A 
ATOM     86  C   UNL A   1      45.563  36.066  28.629  1.00  0.00     0.091 A 
ATOM     87  F   UNL A   1      44.128  34.681  27.319  1.00  0.00    -0.205 F 
ATOM     88  C   UNL A   1      46.351  36.233  29.779  1.00  0.00     0.022 A 
BRANCH  86  89
ATOM     89  S   UNL A   1      45.468  37.450  27.488  1.00  0.00     0.127 S 
ATOM     90  O   UNL A   1      45.917  38.559  28.329  1.00  0.00    -0.237 OA
ATOM     91  O   UNL A   1      46.413  37.056  26.442  1.00  0.00    -0.237 OA
ATOM     92  O   UNL A   1      44.079  37.517  27.052  1.00  0.00    -0.744 OA
ENDBRANCH  86  89
ENDBRANCH  59  82
ENDBRANCH  33  34
ENDBRANCH  25  28
ENDBRANCH  23  24
ENDBRANCH  22  23
ENDBRANCH  21  22
ENDBRANCH   1  21
TORSDOF 20
ENDMDL
