MODEL 1
REMARK VINA RESULT:     -11.1      0.000      0.000
REMARK SMILES O=C(CN1C(=O)c2ccccc2[C@@H]1O)NCCCCCCNC(=O)c1ccc(-c2c3nc(c(-c4cccc(S(=O)(=O)[O-])c4F)c4ccc([nH]4)c(-c4cccc(S(=O)(=O)[O-])c4F)c4nc(c(-c5cccc(S(=O)(=O)[O-])c5F)c5ccc2[nH]5)C=C4)C=C3)cc1
REMARK SMILES IDX 19 1 18 2 17 3 16 4 15 5 1 6 2 7 3 9 4 10 5 11 13 12 6 13
REMARK SMILES IDX 7 14 12 15 8 16 11 17 9 18 10 19 14 20 20 22 21 23 22 24
REMARK SMILES IDX 23 25 24 27 25 28 26 29 87 30 27 31 86 32 28 33 29 34 30 35
REMARK SMILES IDX 80 36 31 37 85 38 79 39 81 40 32 41 84 42 78 43 77 44 33 46
REMARK SMILES IDX 65 47 45 48 64 49 46 50 49 51 63 52 82 53 47 54 48 55 62 57
REMARK SMILES IDX 83 58 50 59 34 60 35 61 43 62 36 63 38 64 44 65 37 66 39 67
REMARK SMILES IDX 40 68 41 69 42 70 66 71 67 72 75 73 68 74 70 75 76 76 69 77
REMARK SMILES IDX 71 78 72 79 73 80 74 81 51 82 52 83 60 84 53 85 55 86 61 87
REMARK SMILES IDX 54 88 56 89 57 90 58 91 59 92
REMARK H PARENT 15 8 14 21 22 26 81 45 49 56
REMARK Flexibility Score: inf
ROOT
ATOM      1  C   UNL A   1      32.068  28.189  27.341  1.00  0.00     0.002 C 
ENDROOT
BRANCH   1   2
ATOM      2  C   UNL A   1      31.137  27.004  27.070  1.00  0.00     0.002 C 
BRANCH   2   3
ATOM      3  C   UNL A   1      30.917  26.657  25.589  1.00  0.00     0.021 C 
BRANCH   3   4
ATOM      4  C   UNL A   1      29.823  25.621  25.328  1.00  0.00     0.116 C 
BRANCH   4   5
ATOM      5  N   UNL A   1      30.388  24.314  25.075  1.00  0.00    -0.355 N 
ATOM      6  O   UNL A   1      30.570  23.614  27.250  1.00  0.00    -0.273 OA
ATOM      7  C   UNL A   1      30.692  23.393  26.049  1.00  0.00     0.239 C 
ATOM      8  H   UNL A   1      30.568  24.067  24.139  1.00  0.00     0.163 HD
BRANCH   7   9
ATOM      9  C   UNL A   1      31.348  22.107  25.521  1.00  0.00     0.222 C 
BRANCH   9  10
ATOM     10  N   UNL A   1      32.793  22.090  25.318  1.00  0.00    -0.299 N 
ATOM     11  C   UNL A   1      33.546  20.934  25.414  1.00  0.00     0.257 C 
ATOM     12  C   UNL A   1      33.598  23.249  25.025  1.00  0.00     0.247 C 
ATOM     13  O   UNL A   1      33.176  19.809  25.693  1.00  0.00    -0.269 OA
ATOM     14  C   UNL A   1      34.935  21.306  25.118  1.00  0.00     0.047 A 
ATOM     15  C   UNL A   1      34.968  22.677  24.871  1.00  0.00     0.014 A 
ATOM     16  C   UNL A   1      36.066  20.515  25.079  1.00  0.00     0.014 A 
ATOM     17  C   UNL A   1      36.161  23.307  24.561  1.00  0.00     0.009 A 
ATOM     18  C   UNL A   1      37.274  21.143  24.768  1.00  0.00     0.001 A 
ATOM     19  C   UNL A   1      37.321  22.526  24.508  1.00  0.00     0.001 A 
BRANCH  12  20
ATOM     20  O   UNL A   1      33.538  24.097  26.154  1.00  0.00    -0.369 OA
ATOM     21  H   UNL A   1      34.435  24.368  26.404  1.00  0.00     0.213 HD
ENDBRANCH  12  20
ENDBRANCH   9  10
ENDBRANCH   7   9
ENDBRANCH   4   5
ENDBRANCH   3   4
ENDBRANCH   2   3
ENDBRANCH   1   2
BRANCH   1  22
ATOM     22  C   UNL A   1      33.505  28.014  26.847  1.00  0.00     0.021 C 
BRANCH  22  23
ATOM     23  C   UNL A   1      34.044  29.166  26.006  1.00  0.00     0.116 C 
BRANCH  23  24
ATOM     24  N   UNL A   1      33.893  30.456  26.663  1.00  0.00    -0.352 N 
ATOM     25  C   UNL A   1      34.641  31.006  27.677  1.00  0.00     0.251 C 
ATOM     26  H   UNL A   1      33.149  31.013  26.337  1.00  0.00     0.163 HD
ATOM     27  O   UNL A   1      34.266  32.039  28.225  1.00  0.00    -0.269 OA
BRANCH  25  28
ATOM     28  C   UNL A   1      35.885  30.340  28.122  1.00  0.00     0.039 A 
ATOM     29  C   UNL A   1      37.018  30.406  27.305  1.00  0.00     0.014 A 
ATOM     30  C   UNL A   1      35.941  29.659  29.341  1.00  0.00     0.014 A 
ATOM     31  C   UNL A   1      38.221  29.844  27.742  1.00  0.00     0.010 A 
ATOM     32  C   UNL A   1      37.158  29.171  29.809  1.00  0.00     0.010 A 
ATOM     33  C   UNL A   1      38.311  29.252  29.012  1.00  0.00    -0.014 A 
BRANCH  33  34
ATOM     34  C   UNL A   1      39.602  28.725  29.529  1.00  0.00     0.031 A 
ATOM     35  C   UNL A   1      40.322  29.435  30.645  1.00  0.00     0.074 A 
ATOM     36  C   UNL A   1      40.169  27.653  28.939  1.00  0.00     0.049 A 
ATOM     37  N   UNL A   1      41.479  29.155  31.187  1.00  0.00    -0.248 NA
ATOM     38  C   UNL A   1      39.669  30.628  31.208  1.00  0.00     0.031 C 
ATOM     39  C   UNL A   1      39.610  26.919  27.801  1.00  0.00     0.029 A 
ATOM     40  N   UNL A   1      41.354  27.009  29.197  1.00  0.00    -0.354 N 
ATOM     41  C   UNL A   1      41.710  30.153  32.128  1.00  0.00     0.074 A 
ATOM     42  C   UNL A   1      40.589  31.065  32.058  1.00  0.00     0.031 C 
ATOM     43  C   UNL A   1      40.447  25.925  27.465  1.00  0.00     0.029 A 
ATOM     44  C   UNL A   1      41.619  25.971  28.333  1.00  0.00     0.049 A 
ATOM     45  H   UNL A   1      41.958  27.266  29.932  1.00  0.00     0.167 HD
ATOM     46  C   UNL A   1      42.746  30.287  32.990  1.00  0.00     0.034 A 
ATOM     47  C   UNL A   1      42.689  25.157  28.241  1.00  0.00     0.034 A 
ATOM     48  C   UNL A   1      43.845  29.363  33.079  1.00  0.00     0.049 A 
ATOM     49  C   UNL A   1      43.817  25.315  29.223  1.00  0.00     0.074 A 
ATOM     50  C   UNL A   1      44.899  29.366  33.975  1.00  0.00     0.029 A 
ATOM     51  N   UNL A   1      44.042  28.283  32.233  1.00  0.00    -0.354 N 
ATOM     52  N   UNL A   1      43.943  26.174  30.205  1.00  0.00    -0.248 NA
ATOM     53  C   UNL A   1      44.937  24.370  29.107  1.00  0.00     0.031 C 
ATOM     54  C   UNL A   1      45.755  28.309  33.646  1.00  0.00     0.029 A 
ATOM     55  C   UNL A   1      45.209  27.621  32.575  1.00  0.00     0.049 A 
ATOM     56  H   UNL A   1      43.441  28.024  31.497  1.00  0.00     0.167 HD
ATOM     57  C   UNL A   1      45.132  25.848  30.847  1.00  0.00     0.074 A 
ATOM     58  C   UNL A   1      45.679  24.701  30.155  1.00  0.00     0.031 C 
ATOM     59  C   UNL A   1      45.721  26.450  31.909  1.00  0.00     0.034 A 
BRANCH  46  60
ATOM     60  C   UNL A   1      42.725  31.461  33.936  1.00  0.00     0.023 A 
ATOM     61  C   UNL A   1      43.267  32.697  33.531  1.00  0.00     0.012 A 
ATOM     62  C   UNL A   1      42.113  31.357  35.201  1.00  0.00     0.148 A 
ATOM     63  C   UNL A   1      43.239  33.801  34.383  1.00  0.00     0.002 A 
ATOM     64  C   UNL A   1      42.044  32.475  36.025  1.00  0.00     0.091 A 
ATOM     65  F   UNL A   1      41.618  30.170  35.577  1.00  0.00    -0.205 F 
ATOM     66  C   UNL A   1      42.619  33.692  35.625  1.00  0.00     0.022 A 
BRANCH  64  67
ATOM     67  S   UNL A   1      41.194  32.463  37.608  1.00  0.00     0.127 S 
ATOM     68  O   UNL A   1      42.046  31.572  38.394  1.00  0.00    -0.237 OA
ATOM     69  O   UNL A   1      41.257  33.871  37.999  1.00  0.00    -0.237 OA
ATOM     70  O   UNL A   1      39.852  31.965  37.340  1.00  0.00    -0.744 OA
ENDBRANCH  64  67
ENDBRANCH  46  60
BRANCH  47  71
ATOM     71  C   UNL A   1      42.724  24.084  27.205  1.00  0.00     0.023 A 
ATOM     72  C   UNL A   1      43.435  24.299  26.008  1.00  0.00     0.012 A 
ATOM     73  C   UNL A   1      42.072  22.853  27.405  1.00  0.00     0.148 A 
ATOM     74  C   UNL A   1      43.463  23.321  25.013  1.00  0.00     0.002 A 
ATOM     75  C   UNL A   1      42.154  21.861  26.436  1.00  0.00     0.091 A 
ATOM     76  F   UNL A   1      41.395  22.672  28.548  1.00  0.00    -0.205 F 
ATOM     77  C   UNL A   1      42.832  22.099  25.230  1.00  0.00     0.022 A 
BRANCH  75  78
ATOM     78  S   UNL A   1      41.484  20.213  26.683  1.00  0.00     0.127 S 
ATOM     79  O   UNL A   1      42.203  19.774  27.877  1.00  0.00    -0.237 OA
ATOM     80  O   UNL A   1      40.063  20.494  26.888  1.00  0.00    -0.237 OA
ATOM     81  O   UNL A   1      41.781  19.477  25.461  1.00  0.00    -0.744 OA
ENDBRANCH  75  78
ENDBRANCH  47  71
BRANCH  59  82
ATOM     82  C   UNL A   1      47.005  25.856  32.430  1.00  0.00     0.023 A 
ATOM     83  C   UNL A   1      46.985  24.987  33.540  1.00  0.00     0.012 A 
ATOM     84  C   UNL A   1      48.225  26.105  31.770  1.00  0.00     0.148 A 
ATOM     85  C   UNL A   1      48.164  24.406  34.006  1.00  0.00     0.002 A 
ATOM     86  C   UNL A   1      49.386  25.479  32.206  1.00  0.00     0.091 A 
ATOM     87  F   UNL A   1      48.227  26.947  30.726  1.00  0.00    -0.205 F 
ATOM     88  C   UNL A   1      49.360  24.642  33.333  1.00  0.00     0.022 A 
BRANCH  86  89
ATOM     89  S   UNL A   1      50.952  25.642  31.343  1.00  0.00     0.127 S 
ATOM     90  O   UNL A   1      51.287  27.043  31.595  1.00  0.00    -0.237 OA
ATOM     91  O   UNL A   1      51.795  24.678  32.049  1.00  0.00    -0.237 OA
ATOM     92  O   UNL A   1      50.683  25.307  29.950  1.00  0.00    -0.744 OA
ENDBRANCH  86  89
ENDBRANCH  59  82
ENDBRANCH  33  34
ENDBRANCH  25  28
ENDBRANCH  23  24
ENDBRANCH  22  23
ENDBRANCH   1  22
TORSDOF 18
ENDMDL
MODEL 2
REMARK VINA RESULT:     -11.1      4.707      7.911
REMARK SMILES O=C(CN1C(=O)c2ccccc2[C@@H]1O)NCCCCCCNC(=O)c1ccc(-c2c3nc(c(-c4cccc(S(=O)(=O)[O-])c4F)c4ccc([nH]4)c(-c4cccc(S(=O)(=O)[O-])c4F)c4nc(c(-c5cccc(S(=O)(=O)[O-])c5F)c5ccc2[nH]5)C=C4)C=C3)cc1
REMARK SMILES IDX 19 1 18 2 17 3 16 4 15 5 1 6 2 7 3 9 4 10 5 11 13 12 6 13
REMARK SMILES IDX 7 14 12 15 8 16 11 17 9 18 10 19 14 20 20 22 21 23 22 24
REMARK SMILES IDX 23 25 24 27 25 28 26 29 87 30 27 31 86 32 28 33 29 34 30 35
REMARK SMILES IDX 80 36 31 37 85 38 79 39 81 40 32 41 84 42 78 43 77 44 33 46
REMARK SMILES IDX 65 47 45 48 64 49 46 50 49 51 63 52 82 53 47 54 48 55 62 57
REMARK SMILES IDX 83 58 50 59 34 60 35 61 43 62 36 63 38 64 44 65 37 66 39 67
REMARK SMILES IDX 40 68 41 69 42 70 66 71 67 72 75 73 68 74 70 75 76 76 69 77
REMARK SMILES IDX 71 78 72 79 73 80 74 81 51 82 52 83 60 84 53 85 55 86 61 87
REMARK SMILES IDX 54 88 56 89 57 90 58 91 59 92
REMARK H PARENT 15 8 14 21 22 26 81 45 49 56
REMARK Flexibility Score: inf
ROOT
ATOM      1  C   UNL A   1      35.779  23.379  23.564  1.00  0.00     0.002 C 
ENDROOT
BRANCH   1   2
ATOM      2  C   UNL A   1      34.378  23.264  24.171  1.00  0.00     0.002 C 
BRANCH   2   3
ATOM      3  C   UNL A   1      33.364  22.449  23.352  1.00  0.00     0.021 C 
BRANCH   3   4
ATOM      4  C   UNL A   1      33.036  23.028  21.976  1.00  0.00     0.116 C 
BRANCH   4   5
ATOM      5  N   UNL A   1      32.213  24.213  22.088  1.00  0.00    -0.355 N 
ATOM      6  O   UNL A   1      33.720  25.732  21.266  1.00  0.00    -0.273 OA
ATOM      7  C   UNL A   1      32.601  25.472  21.696  1.00  0.00     0.239 C 
ATOM      8  H   UNL A   1      31.313  24.110  22.471  1.00  0.00     0.163 HD
BRANCH   7   9
ATOM      9  C   UNL A   1      31.566  26.571  21.987  1.00  0.00     0.222 C 
BRANCH   9  10
ATOM     10  N   UNL A   1      31.626  27.269  23.268  1.00  0.00    -0.299 N 
ATOM     11  C   UNL A   1      31.303  26.659  24.466  1.00  0.00     0.257 C 
ATOM     12  C   UNL A   1      31.997  28.651  23.436  1.00  0.00     0.247 C 
ATOM     13  O   UNL A   1      30.909  25.524  24.657  1.00  0.00    -0.269 OA
ATOM     14  C   UNL A   1      31.513  27.658  25.521  1.00  0.00     0.047 A 
ATOM     15  C   UNL A   1      31.940  28.838  24.915  1.00  0.00     0.014 A 
ATOM     16  C   UNL A   1      31.337  27.544  26.886  1.00  0.00     0.014 A 
ATOM     17  C   UNL A   1      32.219  29.959  25.678  1.00  0.00     0.009 A 
ATOM     18  C   UNL A   1      31.615  28.671  27.663  1.00  0.00     0.001 A 
ATOM     19  C   UNL A   1      32.054  29.866  27.064  1.00  0.00     0.001 A 
BRANCH  12  20
ATOM     20  O   UNL A   1      31.005  29.432  22.798  1.00  0.00    -0.369 OA
ATOM     21  H   UNL A   1      30.726  28.995  21.979  1.00  0.00     0.213 HD
ENDBRANCH  12  20
ENDBRANCH   9  10
ENDBRANCH   7   9
ENDBRANCH   4   5
ENDBRANCH   3   4
ENDBRANCH   2   3
ENDBRANCH   1   2
BRANCH   1  22
ATOM     22  C   UNL A   1      36.737  22.241  23.919  1.00  0.00     0.021 C 
BRANCH  22  23
ATOM     23  C   UNL A   1      37.077  22.121  25.401  1.00  0.00     0.116 C 
BRANCH  23  24
ATOM     24  N   UNL A   1      38.047  21.070  25.668  1.00  0.00    -0.352 N 
ATOM     25  C   UNL A   1      39.327  21.174  26.161  1.00  0.00     0.251 C 
ATOM     26  H   UNL A   1      37.745  20.155  25.466  1.00  0.00     0.163 HD
ATOM     27  O   UNL A   1      40.064  20.192  26.166  1.00  0.00    -0.269 OA
BRANCH  25  28
ATOM     28  C   UNL A   1      39.820  22.475  26.665  1.00  0.00     0.039 A 
ATOM     29  C   UNL A   1      40.758  22.489  27.700  1.00  0.00     0.014 A 
ATOM     30  C   UNL A   1      39.368  23.678  26.115  1.00  0.00     0.014 A 
ATOM     31  C   UNL A   1      41.288  23.705  28.140  1.00  0.00     0.010 A 
ATOM     32  C   UNL A   1      39.956  24.880  26.498  1.00  0.00     0.010 A 
ATOM     33  C   UNL A   1      40.918  24.909  27.519  1.00  0.00    -0.014 A 
BRANCH  33  34
ATOM     34  C   UNL A   1      41.534  26.203  27.914  1.00  0.00     0.031 A 
ATOM     35  C   UNL A   1      40.714  27.256  28.611  1.00  0.00     0.074 A 
ATOM     36  C   UNL A   1      42.813  26.465  27.573  1.00  0.00     0.049 A 
ATOM     37  N   UNL A   1      41.065  28.461  28.983  1.00  0.00    -0.248 NA
ATOM     38  C   UNL A   1      39.312  26.923  28.907  1.00  0.00     0.031 C 
ATOM     39  C   UNL A   1      43.693  25.558  26.832  1.00  0.00     0.029 A 
ATOM     40  N   UNL A   1      43.588  27.580  27.781  1.00  0.00    -0.354 N 
ATOM     41  C   UNL A   1      39.922  29.040  29.523  1.00  0.00     0.074 A 
ATOM     42  C   UNL A   1      38.858  28.068  29.399  1.00  0.00     0.031 C 
ATOM     43  C   UNL A   1      44.885  26.149  26.654  1.00  0.00     0.029 A 
ATOM     44  C   UNL A   1      44.845  27.489  27.231  1.00  0.00     0.049 A 
ATOM     45  H   UNL A   1      43.272  28.369  28.278  1.00  0.00     0.167 HD
ATOM     46  C   UNL A   1      39.775  30.260  30.093  1.00  0.00     0.034 A 
ATOM     47  C   UNL A   1      45.849  28.387  27.183  1.00  0.00     0.034 A 
ATOM     48  C   UNL A   1      40.840  31.214  30.243  1.00  0.00     0.049 A 
ATOM     49  C   UNL A   1      45.665  29.728  27.841  1.00  0.00     0.074 A 
ATOM     50  C   UNL A   1      40.812  32.441  30.881  1.00  0.00     0.029 A 
ATOM     51  N   UNL A   1      42.121  31.057  29.735  1.00  0.00    -0.354 N 
ATOM     52  N   UNL A   1      44.622  30.197  28.482  1.00  0.00    -0.248 NA
ATOM     53  C   UNL A   1      46.809  30.650  27.801  1.00  0.00     0.031 C 
ATOM     54  C   UNL A   1      42.064  33.044  30.725  1.00  0.00     0.029 A 
ATOM     55  C   UNL A   1      42.887  32.172  30.030  1.00  0.00     0.049 A 
ATOM     56  H   UNL A   1      42.439  30.270  29.237  1.00  0.00     0.167 HD
ATOM     57  C   UNL A   1      44.997  31.450  28.954  1.00  0.00     0.074 A 
ATOM     58  C   UNL A   1      46.370  31.657  28.543  1.00  0.00     0.031 C 
ATOM     59  C   UNL A   1      44.267  32.350  29.658  1.00  0.00     0.034 A 
BRANCH  46  60
ATOM     60  C   UNL A   1      38.415  30.622  30.635  1.00  0.00     0.023 A 
ATOM     61  C   UNL A   1      38.066  30.258  31.952  1.00  0.00     0.012 A 
ATOM     62  C   UNL A   1      37.507  31.373  29.863  1.00  0.00     0.148 A 
ATOM     63  C   UNL A   1      36.822  30.600  32.479  1.00  0.00     0.002 A 
ATOM     64  C   UNL A   1      36.288  31.755  30.414  1.00  0.00     0.091 A 
ATOM     65  F   UNL A   1      37.847  31.695  28.608  1.00  0.00    -0.205 F 
ATOM     66  C   UNL A   1      35.938  31.357  31.714  1.00  0.00     0.022 A 
BRANCH  64  67
ATOM     67  S   UNL A   1      35.115  32.800  29.543  1.00  0.00     0.127 S 
ATOM     68  O   UNL A   1      34.574  31.873  28.550  1.00  0.00    -0.237 OA
ATOM     69  O   UNL A   1      34.182  33.166  30.608  1.00  0.00    -0.237 OA
ATOM     70  O   UNL A   1      35.887  33.910  29.003  1.00  0.00    -0.744 OA
ENDBRANCH  64  67
ENDBRANCH  46  60
BRANCH  47  71
ATOM     71  C   UNL A   1      47.140  28.031  26.525  1.00  0.00     0.023 A 
ATOM     72  C   UNL A   1      48.262  27.725  27.319  1.00  0.00     0.012 A 
ATOM     73  C   UNL A   1      47.255  27.980  25.123  1.00  0.00     0.148 A 
ATOM     74  C   UNL A   1      49.487  27.413  26.728  1.00  0.00     0.002 A 
ATOM     75  C   UNL A   1      48.462  27.610  24.541  1.00  0.00     0.091 A 
ATOM     76  F   UNL A   1      46.177  28.282  24.385  1.00  0.00    -0.205 F 
ATOM     77  C   UNL A   1      49.584  27.345  25.340  1.00  0.00     0.022 A 
BRANCH  75  78
ATOM     78  S   UNL A   1      48.646  27.370  22.771  1.00  0.00     0.127 S 
ATOM     79  O   UNL A   1      50.042  27.743  22.562  1.00  0.00    -0.237 OA
ATOM     80  O   UNL A   1      48.361  25.942  22.631  1.00  0.00    -0.237 OA
ATOM     81  O   UNL A   1      47.658  28.242  22.149  1.00  0.00    -0.744 OA
ENDBRANCH  75  78
ENDBRANCH  47  71
BRANCH  59  82
ATOM     82  C   UNL A   1      44.946  33.629  30.078  1.00  0.00     0.023 A 
ATOM     83  C   UNL A   1      45.656  33.687  31.294  1.00  0.00     0.012 A 
ATOM     84  C   UNL A   1      44.938  34.753  29.228  1.00  0.00     0.148 A 
ATOM     85  C   UNL A   1      46.314  34.856  31.674  1.00  0.00     0.002 A 
ATOM     86  C   UNL A   1      45.643  35.894  29.586  1.00  0.00     0.091 A 
ATOM     87  F   UNL A   1      44.243  34.683  28.083  1.00  0.00    -0.205 F 
ATOM     88  C   UNL A   1      46.319  35.954  30.816  1.00  0.00     0.022 A 
BRANCH  86  89
ATOM     89  S   UNL A   1      45.788  37.319  28.502  1.00  0.00     0.127 S 
ATOM     90  O   UNL A   1      47.062  37.893  28.935  1.00  0.00    -0.237 OA
ATOM     91  O   UNL A   1      45.818  36.697  27.179  1.00  0.00    -0.237 OA
ATOM     92  O   UNL A   1      44.614  38.143  28.759  1.00  0.00    -0.744 OA
ENDBRANCH  86  89
ENDBRANCH  59  82
ENDBRANCH  33  34
ENDBRANCH  25  28
ENDBRANCH  23  24
ENDBRANCH  22  23
ENDBRANCH   1  22
TORSDOF 18
ENDMDL
MODEL 3
REMARK VINA RESULT:     -11.1      2.385      2.971
REMARK SMILES O=C(CN1C(=O)c2ccccc2[C@@H]1O)NCCCCCCNC(=O)c1ccc(-c2c3nc(c(-c4cccc(S(=O)(=O)[O-])c4F)c4ccc([nH]4)c(-c4cccc(S(=O)(=O)[O-])c4F)c4nc(c(-c5cccc(S(=O)(=O)[O-])c5F)c5ccc2[nH]5)C=C4)C=C3)cc1
REMARK SMILES IDX 19 1 18 2 17 3 16 4 15 5 1 6 2 7 3 9 4 10 5 11 13 12 6 13
REMARK SMILES IDX 7 14 12 15 8 16 11 17 9 18 10 19 14 20 20 22 21 23 22 24
REMARK SMILES IDX 23 25 24 27 25 28 26 29 87 30 27 31 86 32 28 33 29 34 30 35
REMARK SMILES IDX 80 36 31 37 85 38 79 39 81 40 32 41 84 42 78 43 77 44 33 46
REMARK SMILES IDX 65 47 45 48 64 49 46 50 49 51 63 52 82 53 47 54 48 55 62 57
REMARK SMILES IDX 83 58 50 59 34 60 35 61 43 62 36 63 38 64 44 65 37 66 39 67
REMARK SMILES IDX 40 68 41 69 42 70 66 71 67 72 75 73 68 74 70 75 76 76 69 77
REMARK SMILES IDX 71 78 72 79 73 80 74 81 51 82 52 83 60 84 53 85 55 86 61 87
REMARK SMILES IDX 54 88 56 89 57 90 58 91 59 92
REMARK H PARENT 15 8 14 21 22 26 81 45 49 56
REMARK Flexibility Score: inf
ROOT
ATOM      1  C   UNL A   1      31.589  27.690  26.495  1.00  0.00     0.002 C 
ENDROOT
BRANCH   1   2
ATOM      2  C   UNL A   1      30.954  27.799  25.106  1.00  0.00     0.002 C 
BRANCH   2   3
ATOM      3  C   UNL A   1      30.298  26.516  24.572  1.00  0.00     0.021 C 
BRANCH   3   4
ATOM      4  C   UNL A   1      30.306  25.337  25.546  1.00  0.00     0.116 C 
BRANCH   4   5
ATOM      5  N   UNL A   1      31.486  24.519  25.368  1.00  0.00    -0.355 N 
ATOM      6  O   UNL A   1      31.506  23.527  27.434  1.00  0.00    -0.273 OA
ATOM      7  C   UNL A   1      31.983  23.651  26.310  1.00  0.00     0.239 C 
ATOM      8  H   UNL A   1      31.967  24.590  24.512  1.00  0.00     0.163 HD
BRANCH   7   9
ATOM      9  C   UNL A   1      33.289  22.952  25.899  1.00  0.00     0.222 C 
BRANCH   9  10
ATOM     10  N   UNL A   1      33.211  21.659  25.225  1.00  0.00    -0.299 N 
ATOM     11  C   UNL A   1      32.480  21.464  24.068  1.00  0.00     0.257 C 
ATOM     12  C   UNL A   1      33.851  20.452  25.684  1.00  0.00     0.247 C 
ATOM     13  O   UNL A   1      31.795  22.264  23.461  1.00  0.00    -0.269 OA
ATOM     14  C   UNL A   1      32.670  20.061  23.679  1.00  0.00     0.047 A 
ATOM     15  C   UNL A   1      33.495  19.461  24.627  1.00  0.00     0.014 A 
ATOM     16  C   UNL A   1      32.156  19.374  22.597  1.00  0.00     0.014 A 
ATOM     17  C   UNL A   1      33.845  18.126  24.510  1.00  0.00     0.009 A 
ATOM     18  C   UNL A   1      32.504  18.027  22.472  1.00  0.00     0.001 A 
ATOM     19  C   UNL A   1      33.343  17.410  23.418  1.00  0.00     0.001 A 
BRANCH  12  20
ATOM     20  O   UNL A   1      33.251  20.102  26.916  1.00  0.00    -0.369 OA
ATOM     21  H   UNL A   1      33.098  19.145  26.941  1.00  0.00     0.213 HD
ENDBRANCH  12  20
ENDBRANCH   9  10
ENDBRANCH   7   9
ENDBRANCH   4   5
ENDBRANCH   3   4
ENDBRANCH   2   3
ENDBRANCH   1   2
BRANCH   1  22
ATOM     22  C   UNL A   1      31.921  29.024  27.165  1.00  0.00     0.021 C 
BRANCH  22  23
ATOM     23  C   UNL A   1      33.035  29.824  26.496  1.00  0.00     0.116 C 
BRANCH  23  24
ATOM     24  N   UNL A   1      32.986  31.238  26.834  1.00  0.00    -0.352 N 
ATOM     25  C   UNL A   1      33.831  31.969  27.635  1.00  0.00     0.251 C 
ATOM     26  H   UNL A   1      32.243  31.744  26.432  1.00  0.00     0.163 HD
ATOM     27  O   UNL A   1      33.541  33.122  27.942  1.00  0.00    -0.269 OA
BRANCH  25  28
ATOM     28  C   UNL A   1      35.078  31.357  28.145  1.00  0.00     0.039 A 
ATOM     29  C   UNL A   1      36.276  32.068  28.035  1.00  0.00     0.014 A 
ATOM     30  C   UNL A   1      35.068  30.090  28.736  1.00  0.00     0.014 A 
ATOM     31  C   UNL A   1      37.451  31.535  28.575  1.00  0.00     0.010 A 
ATOM     32  C   UNL A   1      36.221  29.598  29.343  1.00  0.00     0.010 A 
ATOM     33  C   UNL A   1      37.427  30.312  29.264  1.00  0.00    -0.014 A 
BRANCH  33  34
ATOM     34  C   UNL A   1      38.647  29.771  29.919  1.00  0.00     0.031 A 
ATOM     35  C   UNL A   1      39.094  30.303  31.255  1.00  0.00     0.074 A 
ATOM     36  C   UNL A   1      39.401  28.857  29.274  1.00  0.00     0.049 A 
ATOM     37  N   UNL A   1      40.157  29.993  31.951  1.00  0.00    -0.248 NA
ATOM     38  C   UNL A   1      38.251  31.336  31.878  1.00  0.00     0.031 C 
ATOM     39  C   UNL A   1      39.119  28.315  27.944  1.00  0.00     0.029 A 
ATOM     40  N   UNL A   1      40.574  28.242  29.639  1.00  0.00    -0.354 N 
ATOM     41  C   UNL A   1      40.131  30.813  33.074  1.00  0.00     0.074 A 
ATOM     42  C   UNL A   1      38.964  31.660  32.948  1.00  0.00     0.031 C 
ATOM     43  C   UNL A   1      40.085  27.446  27.608  1.00  0.00     0.029 A 
ATOM     44  C   UNL A   1      41.076  27.396  28.678  1.00  0.00     0.049 A 
ATOM     45  H   UNL A   1      41.014  28.394  30.507  1.00  0.00     0.167 HD
ATOM     46  C   UNL A   1      40.982  30.844  34.126  1.00  0.00     0.034 A 
ATOM     47  C   UNL A   1      42.213  26.672  28.652  1.00  0.00     0.034 A 
ATOM     48  C   UNL A   1      42.124  29.981  34.264  1.00  0.00     0.049 A 
ATOM     49  C   UNL A   1      43.132  26.709  29.843  1.00  0.00     0.074 A 
ATOM     50  C   UNL A   1      43.000  29.877  35.330  1.00  0.00     0.029 A 
ATOM     51  N   UNL A   1      42.562  29.085  33.300  1.00  0.00    -0.354 N 
ATOM     52  N   UNL A   1      43.006  27.380  30.962  1.00  0.00    -0.248 NA
ATOM     53  C   UNL A   1      44.333  25.864  29.782  1.00  0.00     0.031 C 
ATOM     54  C   UNL A   1      43.989  28.946  34.995  1.00  0.00     0.029 A 
ATOM     55  C   UNL A   1      43.703  28.436  33.739  1.00  0.00     0.049 A 
ATOM     56  H   UNL A   1      42.125  28.932  32.431  1.00  0.00     0.167 HD
ATOM     57  C   UNL A   1      44.087  27.007  31.753  1.00  0.00     0.074 A 
ATOM     58  C   UNL A   1      44.846  26.037  30.992  1.00  0.00     0.031 C 
ATOM     59  C   UNL A   1      44.425  27.437  32.994  1.00  0.00     0.034 A 
BRANCH  46  60
ATOM     60  C   UNL A   1      40.692  31.822  35.236  1.00  0.00     0.023 A 
ATOM     61  C   UNL A   1      41.389  33.046  35.292  1.00  0.00     0.012 A 
ATOM     62  C   UNL A   1      39.687  31.557  36.188  1.00  0.00     0.148 A 
ATOM     63  C   UNL A   1      41.122  33.973  36.298  1.00  0.00     0.002 A 
ATOM     64  C   UNL A   1      39.391  32.507  37.158  1.00  0.00     0.091 A 
ATOM     65  F   UNL A   1      39.046  30.381  36.131  1.00  0.00    -0.205 F 
ATOM     66  C   UNL A   1      40.116  33.708  37.224  1.00  0.00     0.022 A 
BRANCH  64  67
ATOM     67  S   UNL A   1      38.058  32.300  38.344  1.00  0.00     0.127 S 
ATOM     68  O   UNL A   1      38.791  32.258  39.608  1.00  0.00    -0.237 OA
ATOM     69  O   UNL A   1      37.271  33.515  38.136  1.00  0.00    -0.237 OA
ATOM     70  O   UNL A   1      37.379  31.065  37.976  1.00  0.00    -0.744 OA
ENDBRANCH  64  67
ENDBRANCH  46  60
BRANCH  47  71
ATOM     71  C   UNL A   1      42.524  25.810  27.475  1.00  0.00     0.023 A 
ATOM     72  C   UNL A   1      43.263  26.343  26.401  1.00  0.00     0.012 A 
ATOM     73  C   UNL A   1      42.106  24.468  27.422  1.00  0.00     0.148 A 
ATOM     74  C   UNL A   1      43.546  25.565  25.278  1.00  0.00     0.002 A 
ATOM     75  C   UNL A   1      42.443  23.681  26.327  1.00  0.00     0.091 A 
ATOM     76  F   UNL A   1      41.398  23.982  28.451  1.00  0.00    -0.205 F 
ATOM     77  C   UNL A   1      43.146  24.232  25.245  1.00  0.00     0.022 A 
BRANCH  75  78
ATOM     78  S   UNL A   1      42.084  21.923  26.256  1.00  0.00     0.127 S 
ATOM     79  O   UNL A   1      42.487  21.480  27.588  1.00  0.00    -0.237 OA
ATOM     80  O   UNL A   1      40.640  21.921  26.015  1.00  0.00    -0.237 OA
ATOM     81  O   UNL A   1      42.877  21.401  25.150  1.00  0.00    -0.744 OA
ENDBRANCH  75  78
ENDBRANCH  47  71
BRANCH  59  82
ATOM     82  C   UNL A   1      45.644  26.828  33.640  1.00  0.00     0.023 A 
ATOM     83  C   UNL A   1      46.898  27.460  33.523  1.00  0.00     0.012 A 
ATOM     84  C   UNL A   1      45.528  25.664  34.426  1.00  0.00     0.148 A 
ATOM     85  C   UNL A   1      48.023  26.922  34.146  1.00  0.00     0.002 A 
ATOM     86  C   UNL A   1      46.641  25.166  35.089  1.00  0.00     0.091 A 
ATOM     87  F   UNL A   1      44.329  25.068  34.512  1.00  0.00    -0.205 F 
ATOM     88  C   UNL A   1      47.893  25.783  34.938  1.00  0.00     0.022 A 
BRANCH  86  89
ATOM     89  S   UNL A   1      46.550  23.765  36.210  1.00  0.00     0.127 S 
ATOM     90  O   UNL A   1      45.980  22.730  35.348  1.00  0.00    -0.237 OA
ATOM     91  O   UNL A   1      47.955  23.560  36.562  1.00  0.00    -0.237 OA
ATOM     92  O   UNL A   1      45.703  24.189  37.318  1.00  0.00    -0.744 OA
ENDBRANCH  86  89
ENDBRANCH  59  82
ENDBRANCH  33  34
ENDBRANCH  25  28
ENDBRANCH  23  24
ENDBRANCH  22  23
ENDBRANCH   1  22
TORSDOF 18
ENDMDL
