MODEL 1
REMARK VINA RESULT:     -11.5      0.000      0.000
REMARK SMILES CC(C)[C@H]1CC[C@@H](C)C/C1=C(\F)C(=O)NCCCCCCNC(=O)c1ccc(-c2c3nc(c(-c4cccc(S(=O)(=O)[O-])c4F)c4ccc([nH]4)c(-c4cccc(S(=O)(=O)[O-])c4F)c4nc(c(-c5cccc(S(=O)(=O)[O-])c5F)c5ccc2[nH]5)C=C4)C=C3)cc1
REMARK SMILES IDX 19 1 18 2 17 3 16 4 15 5 13 6 14 7 11 9 4 10 5 11 10 12 6 13
REMARK SMILES IDX 9 14 7 15 12 16 8 17 2 18 1 19 3 20 20 21 21 22 22 23 23 24
REMARK SMILES IDX 24 26 25 27 26 28 87 29 27 30 86 31 28 32 29 33 30 34 80 35
REMARK SMILES IDX 31 36 85 37 79 38 81 39 32 40 84 41 78 42 77 43 33 45 65 46
REMARK SMILES IDX 45 47 64 48 46 49 49 50 63 51 82 52 47 53 48 54 62 56 83 57
REMARK SMILES IDX 50 58 34 59 35 60 43 61 36 62 38 63 44 64 37 65 39 66 40 67
REMARK SMILES IDX 41 68 42 69 66 70 67 71 75 72 68 73 70 74 76 75 69 76 71 77
REMARK SMILES IDX 72 78 73 79 74 80 51 81 52 82 60 83 53 84 55 85 61 86 54 87
REMARK SMILES IDX 56 88 57 89 58 90 59 91
REMARK H PARENT 15 8 22 25 81 44 49 55
REMARK Flexibility Score: inf
ROOT
ATOM      1  C   UNL A   1      32.157  27.187  26.100  1.00  0.00     0.002 C 
ENDROOT
BRANCH   1   2
ATOM      2  C   UNL A   1      33.602  27.003  25.626  1.00  0.00     0.002 C 
BRANCH   2   3
ATOM      3  C   UNL A   1      33.739  26.537  24.167  1.00  0.00     0.021 C 
BRANCH   3   4
ATOM      4  C   UNL A   1      32.421  26.050  23.560  1.00  0.00     0.116 C 
BRANCH   4   5
ATOM      5  N   UNL A   1      32.730  25.199  22.427  1.00  0.00    -0.350 N 
ATOM      6  C   UNL A   1      33.072  23.881  22.444  1.00  0.00     0.279 C 
ATOM      7  O   UNL A   1      33.927  23.476  21.661  1.00  0.00    -0.267 OA
ATOM      8  H   UNL A   1      32.687  25.625  21.540  1.00  0.00     0.163 HD
BRANCH   6   9
ATOM      9  C   UNL A   1      32.320  22.976  23.344  1.00  0.00     0.187 C 
ATOM     10  C   UNL A   1      34.059  22.662  25.288  1.00  0.00     0.021 C 
ATOM     11  C   UNL A   1      33.702  23.593  26.477  1.00  0.00     0.009 C 
ATOM     12  C   UNL A   1      32.737  22.484  24.526  1.00  0.00    -0.025 C 
ATOM     13  C   UNL A   1      32.596  23.003  27.367  1.00  0.00     0.004 C 
ATOM     14  C   UNL A   1      31.720  21.728  25.371  1.00  0.00     0.038 C 
ATOM     15  C   UNL A   1      31.337  22.572  26.597  1.00  0.00    -0.010 C 
ATOM     16  F   UNL A   1      31.057  22.712  22.941  1.00  0.00    -0.201 F 
ATOM     17  C   UNL A   1      30.475  23.781  26.207  1.00  0.00     0.008 C 
BRANCH  10  18
ATOM     18  C   UNL A   1      35.385  23.098  24.581  1.00  0.00    -0.010 C 
ATOM     19  C   UNL A   1      36.210  24.067  25.450  1.00  0.00     0.008 C 
ATOM     20  C   UNL A   1      36.318  21.925  24.247  1.00  0.00     0.008 C 
ENDBRANCH  10  18
ENDBRANCH   6   9
ENDBRANCH   4   5
ENDBRANCH   3   4
ENDBRANCH   2   3
ENDBRANCH   1   2
BRANCH   1  21
ATOM     21  C   UNL A   1      31.719  28.647  26.228  1.00  0.00     0.021 C 
BRANCH  21  22
ATOM     22  C   UNL A   1      32.761  29.652  25.755  1.00  0.00     0.116 C 
BRANCH  22  23
ATOM     23  N   UNL A   1      32.453  31.004  26.195  1.00  0.00    -0.352 N 
ATOM     24  C   UNL A   1      33.081  31.751  27.164  1.00  0.00     0.251 C 
ATOM     25  H   UNL A   1      31.698  31.441  25.739  1.00  0.00     0.163 HD
ATOM     26  O   UNL A   1      32.598  32.800  27.553  1.00  0.00    -0.269 OA
BRANCH  24  27
ATOM     27  C   UNL A   1      34.345  31.242  27.742  1.00  0.00     0.039 A 
ATOM     28  C   UNL A   1      35.386  32.139  27.988  1.00  0.00     0.014 A 
ATOM     29  C   UNL A   1      34.476  29.892  28.076  1.00  0.00     0.014 A 
ATOM     30  C   UNL A   1      36.542  31.689  28.628  1.00  0.00     0.010 A 
ATOM     31  C   UNL A   1      35.596  29.463  28.778  1.00  0.00     0.010 A 
ATOM     32  C   UNL A   1      36.642  30.356  29.058  1.00  0.00    -0.014 A 
BRANCH  32  33
ATOM     33  C   UNL A   1      37.825  29.875  29.818  1.00  0.00     0.031 A 
ATOM     34  C   UNL A   1      38.096  30.399  31.201  1.00  0.00     0.074 A 
ATOM     35  C   UNL A   1      38.704  29.045  29.223  1.00  0.00     0.049 A 
ATOM     36  N   UNL A   1      39.112  30.158  31.988  1.00  0.00    -0.248 NA
ATOM     37  C   UNL A   1      37.111  31.335  31.765  1.00  0.00     0.031 C 
ATOM     38  C   UNL A   1      38.591  28.528  27.857  1.00  0.00     0.029 A 
ATOM     39  N   UNL A   1      39.884  28.513  29.681  1.00  0.00    -0.354 N 
ATOM     40  C   UNL A   1      38.910  30.938  33.120  1.00  0.00     0.074 A 
ATOM     41  C   UNL A   1      37.690  31.685  32.905  1.00  0.00     0.031 C 
ATOM     42  C   UNL A   1      39.656  27.757  27.589  1.00  0.00     0.029 A 
ATOM     43  C   UNL A   1      40.544  27.749  28.746  1.00  0.00     0.049 A 
ATOM     44  H   UNL A   1      40.226  28.665  30.592  1.00  0.00     0.167 HD
ATOM     45  C   UNL A   1      39.656  31.007  34.247  1.00  0.00     0.034 A 
ATOM     46  C   UNL A   1      41.736  27.123  28.810  1.00  0.00     0.034 A 
ATOM     47  C   UNL A   1      40.847  30.232  34.472  1.00  0.00     0.049 A 
ATOM     48  C   UNL A   1      42.532  27.193  30.086  1.00  0.00     0.074 A 
ATOM     49  C   UNL A   1      41.622  30.162  35.616  1.00  0.00     0.029 A 
ATOM     50  N   UNL A   1      41.442  29.404  33.534  1.00  0.00    -0.354 N 
ATOM     51  N   UNL A   1      42.241  27.809  31.206  1.00  0.00    -0.248 NA
ATOM     52  C   UNL A   1      43.802  26.455  30.119  1.00  0.00     0.031 C 
ATOM     53  C   UNL A   1      42.703  29.313  35.358  1.00  0.00     0.029 A 
ATOM     54  C   UNL A   1      42.583  28.828  34.066  1.00  0.00     0.049 A 
ATOM     55  H   UNL A   1      41.103  29.248  32.622  1.00  0.00     0.167 HD
ATOM     56  C   UNL A   1      43.272  27.504  32.088  1.00  0.00     0.074 A 
ATOM     57  C   UNL A   1      44.185  26.633  31.377  1.00  0.00     0.031 C 
ATOM     58  C   UNL A   1      43.454  27.921  33.365  1.00  0.00     0.034 A 
BRANCH  45  59
ATOM     59  C   UNL A   1      39.181  31.918  35.348  1.00  0.00     0.023 A 
ATOM     60  C   UNL A   1      39.373  33.311  35.231  1.00  0.00     0.012 A 
ATOM     61  C   UNL A   1      38.493  31.408  36.466  1.00  0.00     0.148 A 
ATOM     62  C   UNL A   1      38.920  34.178  36.225  1.00  0.00     0.002 A 
ATOM     63  C   UNL A   1      38.002  32.282  37.430  1.00  0.00     0.091 A 
ATOM     64  F   UNL A   1      38.337  30.081  36.571  1.00  0.00    -0.205 F 
ATOM     65  C   UNL A   1      38.226  33.664  37.318  1.00  0.00     0.022 A 
BRANCH  63  66
ATOM     66  S   UNL A   1      37.027  31.730  38.834  1.00  0.00     0.127 S 
ATOM     67  O   UNL A   1      37.977  31.888  39.934  1.00  0.00    -0.237 OA
ATOM     68  O   UNL A   1      35.924  32.691  38.837  1.00  0.00    -0.237 OA
ATOM     69  O   UNL A   1      36.636  30.358  38.537  1.00  0.00    -0.744 OA
ENDBRANCH  63  66
ENDBRANCH  45  59
BRANCH  46  70
ATOM     70  C   UNL A   1      42.224  26.329  27.647  1.00  0.00     0.023 A 
ATOM     71  C   UNL A   1      43.060  26.941  26.694  1.00  0.00     0.012 A 
ATOM     72  C   UNL A   1      41.889  24.969  27.495  1.00  0.00     0.148 A 
ATOM     73  C   UNL A   1      43.526  26.225  25.591  1.00  0.00     0.002 A 
ATOM     74  C   UNL A   1      42.403  24.246  26.424  1.00  0.00     0.091 A 
ATOM     75  F   UNL A   1      41.084  24.408  28.407  1.00  0.00    -0.205 F 
ATOM     76  C   UNL A   1      43.206  24.876  25.462  1.00  0.00     0.022 A 
BRANCH  74  77
ATOM     77  S   UNL A   1      42.152  22.476  26.250  1.00  0.00     0.127 S 
ATOM     78  O   UNL A   1      42.858  22.195  25.003  1.00  0.00    -0.237 OA
ATOM     79  O   UNL A   1      42.802  21.960  27.456  1.00  0.00    -0.237 OA
ATOM     80  O   UNL A   1      40.709  22.284  26.219  1.00  0.00    -0.744 OA
ENDBRANCH  74  77
ENDBRANCH  46  70
BRANCH  58  81
ATOM     81  C   UNL A   1      44.666  27.413  34.102  1.00  0.00     0.023 A 
ATOM     82  C   UNL A   1      45.874  28.138  34.052  1.00  0.00     0.012 A 
ATOM     83  C   UNL A   1      44.583  26.262  34.912  1.00  0.00     0.148 A 
ATOM     84  C   UNL A   1      46.987  27.710  34.773  1.00  0.00     0.002 A 
ATOM     85  C   UNL A   1      45.682  25.870  35.667  1.00  0.00     0.091 A 
ATOM     86  F   UNL A   1      43.431  25.578  34.932  1.00  0.00    -0.205 F 
ATOM     87  C   UNL A   1      46.888  26.585  35.589  1.00  0.00     0.022 A 
BRANCH  85  88
ATOM     88  S   UNL A   1      45.618  24.494  36.820  1.00  0.00     0.127 S 
ATOM     89  O   UNL A   1      46.972  24.505  37.370  1.00  0.00    -0.237 OA
ATOM     90  O   UNL A   1      44.576  24.922  37.753  1.00  0.00    -0.237 OA
ATOM     91  O   UNL A   1      45.276  23.321  36.028  1.00  0.00    -0.744 OA
ENDBRANCH  85  88
ENDBRANCH  58  81
ENDBRANCH  32  33
ENDBRANCH  24  27
ENDBRANCH  22  23
ENDBRANCH  21  22
ENDBRANCH   1  21
TORSDOF 17
ENDMDL
MODEL 2
REMARK VINA RESULT:     -11.5      5.309      7.659
REMARK SMILES CC(C)[C@H]1CC[C@@H](C)C/C1=C(\F)C(=O)NCCCCCCNC(=O)c1ccc(-c2c3nc(c(-c4cccc(S(=O)(=O)[O-])c4F)c4ccc([nH]4)c(-c4cccc(S(=O)(=O)[O-])c4F)c4nc(c(-c5cccc(S(=O)(=O)[O-])c5F)c5ccc2[nH]5)C=C4)C=C3)cc1
REMARK SMILES IDX 19 1 18 2 17 3 16 4 15 5 13 6 14 7 11 9 4 10 5 11 10 12 6 13
REMARK SMILES IDX 9 14 7 15 12 16 8 17 2 18 1 19 3 20 20 21 21 22 22 23 23 24
REMARK SMILES IDX 24 26 25 27 26 28 87 29 27 30 86 31 28 32 29 33 30 34 80 35
REMARK SMILES IDX 31 36 85 37 79 38 81 39 32 40 84 41 78 42 77 43 33 45 65 46
REMARK SMILES IDX 45 47 64 48 46 49 49 50 63 51 82 52 47 53 48 54 62 56 83 57
REMARK SMILES IDX 50 58 34 59 35 60 43 61 36 62 38 63 44 64 37 65 39 66 40 67
REMARK SMILES IDX 41 68 42 69 66 70 67 71 75 72 68 73 70 74 76 75 69 76 71 77
REMARK SMILES IDX 72 78 73 79 74 80 51 81 52 82 60 83 53 84 55 85 61 86 54 87
REMARK SMILES IDX 56 88 57 89 58 90 59 91
REMARK H PARENT 15 8 22 25 81 44 49 55
REMARK Flexibility Score: inf
ROOT
ATOM      1  C   UNL A   1      35.250  22.815  23.397  1.00  0.00     0.002 C 
ENDROOT
BRANCH   1   2
ATOM      2  C   UNL A   1      33.887  23.131  22.771  1.00  0.00     0.002 C 
BRANCH   2   3
ATOM      3  C   UNL A   1      32.702  23.037  23.747  1.00  0.00     0.021 C 
BRANCH   3   4
ATOM      4  C   UNL A   1      31.513  23.911  23.339  1.00  0.00     0.116 C 
BRANCH   4   5
ATOM      5  N   UNL A   1      31.779  24.452  22.020  1.00  0.00    -0.350 N 
ATOM      6  C   UNL A   1      31.974  25.755  21.678  1.00  0.00     0.279 C 
ATOM      7  O   UNL A   1      31.510  26.171  20.620  1.00  0.00    -0.267 OA
ATOM      8  H   UNL A   1      31.825  23.798  21.285  1.00  0.00     0.163 HD
BRANCH   6   9
ATOM      9  C   UNL A   1      32.828  26.588  22.556  1.00  0.00     0.187 C 
ATOM     10  C   UNL A   1      31.018  27.653  24.133  1.00  0.00     0.021 C 
ATOM     11  C   UNL A   1      30.964  26.884  25.479  1.00  0.00     0.009 C 
ATOM     12  C   UNL A   1      32.420  27.364  23.579  1.00  0.00    -0.025 C 
ATOM     13  C   UNL A   1      32.072  27.325  26.448  1.00  0.00     0.004 C 
ATOM     14  C   UNL A   1      33.494  27.979  24.466  1.00  0.00     0.038 C 
ATOM     15  C   UNL A   1      33.484  27.291  25.841  1.00  0.00    -0.010 C 
ATOM     16  F   UNL A   1      34.155  26.456  22.331  1.00  0.00    -0.201 F 
ATOM     17  C   UNL A   1      34.028  25.858  25.763  1.00  0.00     0.008 C 
BRANCH  10  18
ATOM     18  C   UNL A   1      29.719  27.444  23.286  1.00  0.00    -0.010 C 
ATOM     19  C   UNL A   1      28.781  26.396  23.918  1.00  0.00     0.008 C 
ATOM     20  C   UNL A   1      28.881  28.720  23.120  1.00  0.00     0.008 C 
ENDBRANCH  10  18
ENDBRANCH   6   9
ENDBRANCH   4   5
ENDBRANCH   3   4
ENDBRANCH   2   3
ENDBRANCH   1   2
BRANCH   1  21
ATOM     21  C   UNL A   1      35.171  22.114  24.754  1.00  0.00     0.021 C 
BRANCH  21  22
ATOM     22  C   UNL A   1      36.381  22.355  25.648  1.00  0.00     0.116 C 
BRANCH  22  23
ATOM     23  N   UNL A   1      37.281  21.212  25.666  1.00  0.00    -0.352 N 
ATOM     24  C   UNL A   1      38.625  21.188  25.954  1.00  0.00     0.251 C 
ATOM     25  H   UNL A   1      36.874  20.343  25.444  1.00  0.00     0.163 HD
ATOM     26  O   UNL A   1      39.289  20.186  25.750  1.00  0.00    -0.269 OA
BRANCH  24  27
ATOM     27  C   UNL A   1      39.255  22.413  26.494  1.00  0.00     0.039 A 
ATOM     28  C   UNL A   1      40.360  22.289  27.338  1.00  0.00     0.014 A 
ATOM     29  C   UNL A   1      38.778  23.674  26.128  1.00  0.00     0.014 A 
ATOM     30  C   UNL A   1      41.026  23.438  27.770  1.00  0.00     0.010 A 
ATOM     31  C   UNL A   1      39.486  24.811  26.499  1.00  0.00     0.010 A 
ATOM     32  C   UNL A   1      40.614  24.706  27.326  1.00  0.00    -0.014 A 
BRANCH  32  33
ATOM     33  C   UNL A   1      41.359  25.935  27.701  1.00  0.00     0.031 A 
ATOM     34  C   UNL A   1      40.671  27.028  28.473  1.00  0.00     0.074 A 
ATOM     35  C   UNL A   1      42.622  26.108  27.262  1.00  0.00     0.049 A 
ATOM     36  N   UNL A   1      41.129  28.201  28.826  1.00  0.00    -0.248 NA
ATOM     37  C   UNL A   1      39.278  26.782  28.880  1.00  0.00     0.031 C 
ATOM     38  C   UNL A   1      43.370  25.154  26.441  1.00  0.00     0.029 A 
ATOM     39  N   UNL A   1      43.488  27.161  27.419  1.00  0.00    -0.354 N 
ATOM     40  C   UNL A   1      40.075  28.845  29.460  1.00  0.00     0.074 A 
ATOM     41  C   UNL A   1      38.942  27.947  29.416  1.00  0.00     0.031 C 
ATOM     42  C   UNL A   1      44.581  25.665  26.167  1.00  0.00     0.029 A 
ATOM     43  C   UNL A   1      44.684  26.994  26.761  1.00  0.00     0.049 A 
ATOM     44  H   UNL A   1      43.274  27.961  27.953  1.00  0.00     0.167 HD
ATOM     45  C   UNL A   1      40.057  30.064  30.050  1.00  0.00     0.034 A 
ATOM     46  C   UNL A   1      45.741  27.821  26.639  1.00  0.00     0.034 A 
ATOM     47  C   UNL A   1      41.197  30.938  30.125  1.00  0.00     0.049 A 
ATOM     48  C   UNL A   1      45.705  29.159  27.328  1.00  0.00     0.074 A 
ATOM     49  C   UNL A   1      41.306  32.152  30.780  1.00  0.00     0.029 A 
ATOM     50  N   UNL A   1      42.419  30.699  29.517  1.00  0.00    -0.354 N 
ATOM     51  N   UNL A   1      44.753  29.683  28.061  1.00  0.00    -0.248 NA
ATOM     52  C   UNL A   1      46.900  30.005  27.202  1.00  0.00     0.031 C 
ATOM     53  C   UNL A   1      42.587  32.660  30.543  1.00  0.00     0.029 A 
ATOM     54  C   UNL A   1      43.286  31.749  29.769  1.00  0.00     0.049 A 
ATOM     55  H   UNL A   1      42.639  29.900  28.985  1.00  0.00     0.167 HD
ATOM     56  C   UNL A   1      45.248  30.902  28.513  1.00  0.00     0.074 A 
ATOM     57  C   UNL A   1      46.591  31.029  27.987  1.00  0.00     0.031 C 
ATOM     58  C   UNL A   1      44.639  31.838  29.282  1.00  0.00     0.034 A 
BRANCH  45  59
ATOM     59  C   UNL A   1      38.775  30.507  30.705  1.00  0.00     0.023 A 
ATOM     60  C   UNL A   1      38.593  30.303  32.089  1.00  0.00     0.012 A 
ATOM     61  C   UNL A   1      37.778  31.178  29.970  1.00  0.00     0.148 A 
ATOM     62  C   UNL A   1      37.426  30.726  32.723  1.00  0.00     0.002 A 
ATOM     63  C   UNL A   1      36.638  31.639  30.617  1.00  0.00     0.091 A 
ATOM     64  F   UNL A   1      37.959  31.345  28.652  1.00  0.00    -0.205 F 
ATOM     65  C   UNL A   1      36.455  31.403  31.990  1.00  0.00     0.022 A 
BRANCH  63  66
ATOM     66  S   UNL A   1      35.365  32.591  29.782  1.00  0.00     0.127 S 
ATOM     67  O   UNL A   1      34.404  32.812  30.861  1.00  0.00    -0.237 OA
ATOM     68  O   UNL A   1      36.100  33.786  29.366  1.00  0.00    -0.237 OA
ATOM     69  O   UNL A   1      34.893  31.757  28.685  1.00  0.00    -0.744 OA
ENDBRANCH  63  66
ENDBRANCH  45  59
BRANCH  46  70
ATOM     70  C   UNL A   1      46.945  27.386  25.875  1.00  0.00     0.023 A 
ATOM     71  C   UNL A   1      47.908  26.576  26.506  1.00  0.00     0.012 A 
ATOM     72  C   UNL A   1      47.128  27.747  24.526  1.00  0.00     0.148 A 
ATOM     73  C   UNL A   1      49.049  26.161  25.819  1.00  0.00     0.002 A 
ATOM     74  C   UNL A   1      48.238  27.283  23.831  1.00  0.00     0.091 A 
ATOM     75  F   UNL A   1      46.205  28.527  23.947  1.00  0.00    -0.205 F 
ATOM     76  C   UNL A   1      49.209  26.505  24.480  1.00  0.00     0.022 A 
BRANCH  74  77
ATOM     77  S   UNL A   1      48.459  27.567  22.071  1.00  0.00     0.127 S 
ATOM     78  O   UNL A   1      49.654  28.407  22.051  1.00  0.00    -0.237 OA
ATOM     79  O   UNL A   1      48.654  26.205  21.568  1.00  0.00    -0.237 OA
ATOM     80  O   UNL A   1      47.230  28.202  21.616  1.00  0.00    -0.744 OA
ENDBRANCH  74  77
ENDBRANCH  46  70
BRANCH  58  81
ATOM     81  C   UNL A   1      45.425  33.072  29.641  1.00  0.00     0.023 A 
ATOM     82  C   UNL A   1      46.230  33.081  30.797  1.00  0.00     0.012 A 
ATOM     83  C   UNL A   1      45.431  34.192  28.785  1.00  0.00     0.148 A 
ATOM     84  C   UNL A   1      47.006  34.195  31.112  1.00  0.00     0.002 A 
ATOM     85  C   UNL A   1      46.245  35.279  29.078  1.00  0.00     0.091 A 
ATOM     86  F   UNL A   1      44.646  34.169  27.699  1.00  0.00    -0.205 F 
ATOM     87  C   UNL A   1      47.024  35.288  30.247  1.00  0.00     0.022 A 
BRANCH  85  88
ATOM     88  S   UNL A   1      46.408  36.687  27.976  1.00  0.00     0.127 S 
ATOM     89  O   UNL A   1      47.368  37.521  28.697  1.00  0.00    -0.237 OA
ATOM     90  O   UNL A   1      46.932  36.067  26.758  1.00  0.00    -0.237 OA
ATOM     91  O   UNL A   1      45.072  37.250  27.841  1.00  0.00    -0.744 OA
ENDBRANCH  85  88
ENDBRANCH  58  81
ENDBRANCH  32  33
ENDBRANCH  24  27
ENDBRANCH  22  23
ENDBRANCH  21  22
ENDBRANCH   1  21
TORSDOF 17
ENDMDL
MODEL 3
REMARK VINA RESULT:     -11.5      2.914      3.809
REMARK SMILES CC(C)[C@H]1CC[C@@H](C)C/C1=C(\F)C(=O)NCCCCCCNC(=O)c1ccc(-c2c3nc(c(-c4cccc(S(=O)(=O)[O-])c4F)c4ccc([nH]4)c(-c4cccc(S(=O)(=O)[O-])c4F)c4nc(c(-c5cccc(S(=O)(=O)[O-])c5F)c5ccc2[nH]5)C=C4)C=C3)cc1
REMARK SMILES IDX 19 1 18 2 17 3 16 4 15 5 13 6 14 7 11 9 4 10 5 11 10 12 6 13
REMARK SMILES IDX 9 14 7 15 12 16 8 17 2 18 1 19 3 20 20 21 21 22 22 23 23 24
REMARK SMILES IDX 24 26 25 27 26 28 87 29 27 30 86 31 28 32 29 33 30 34 80 35
REMARK SMILES IDX 31 36 85 37 79 38 81 39 32 40 84 41 78 42 77 43 33 45 65 46
REMARK SMILES IDX 45 47 64 48 46 49 49 50 63 51 82 52 47 53 48 54 62 56 83 57
REMARK SMILES IDX 50 58 34 59 35 60 43 61 36 62 38 63 44 64 37 65 39 66 40 67
REMARK SMILES IDX 41 68 42 69 66 70 67 71 75 72 68 73 70 74 76 75 69 76 71 77
REMARK SMILES IDX 72 78 73 79 74 80 51 81 52 82 60 83 53 84 55 85 61 86 54 87
REMARK SMILES IDX 56 88 57 89 58 90 59 91
REMARK H PARENT 15 8 22 25 81 44 49 55
REMARK Flexibility Score: inf
ROOT
ATOM      1  C   UNL A   1      32.926  28.524  24.799  1.00  0.00     0.002 C 
ENDROOT
BRANCH   1   2
ATOM      2  C   UNL A   1      33.095  27.719  23.507  1.00  0.00     0.002 C 
BRANCH   2   3
ATOM      3  C   UNL A   1      31.776  27.260  22.865  1.00  0.00     0.021 C 
BRANCH   3   4
ATOM      4  C   UNL A   1      31.959  26.131  21.846  1.00  0.00     0.116 C 
BRANCH   4   5
ATOM      5  N   UNL A   1      31.515  24.893  22.458  1.00  0.00    -0.350 N 
ATOM      6  C   UNL A   1      32.283  23.856  22.891  1.00  0.00     0.279 C 
ATOM      7  O   UNL A   1      31.885  22.706  22.723  1.00  0.00    -0.267 OA
ATOM      8  H   UNL A   1      30.543  24.791  22.576  1.00  0.00     0.163 HD
BRANCH   6   9
ATOM      9  C   UNL A   1      33.524  24.169  23.638  1.00  0.00     0.187 C 
ATOM     10  C   UNL A   1      32.607  24.246  26.098  1.00  0.00     0.021 C 
ATOM     11  C   UNL A   1      32.909  22.907  26.822  1.00  0.00     0.009 C 
ATOM     12  C   UNL A   1      33.647  24.318  24.970  1.00  0.00    -0.025 C 
ATOM     13  C   UNL A   1      34.349  22.845  27.356  1.00  0.00     0.004 C 
ATOM     14  C   UNL A   1      35.056  24.446  25.537  1.00  0.00     0.038 C 
ATOM     15  C   UNL A   1      35.422  23.165  26.303  1.00  0.00    -0.010 C 
ATOM     16  F   UNL A   1      34.639  24.211  22.874  1.00  0.00    -0.201 F 
ATOM     17  C   UNL A   1      35.649  21.980  25.355  1.00  0.00     0.008 C 
BRANCH  10  18
ATOM     18  C   UNL A   1      31.076  24.443  25.844  1.00  0.00    -0.010 C 
ATOM     19  C   UNL A   1      30.221  23.526  26.741  1.00  0.00     0.008 C 
ATOM     20  C   UNL A   1      30.588  25.874  26.109  1.00  0.00     0.008 C 
ENDBRANCH  10  18
ENDBRANCH   6   9
ENDBRANCH   4   5
ENDBRANCH   3   4
ENDBRANCH   2   3
ENDBRANCH   1   2
BRANCH   1  21
ATOM     21  C   UNL A   1      33.873  28.112  25.926  1.00  0.00     0.021 C 
BRANCH  21  22
ATOM     22  C   UNL A   1      33.458  28.617  27.302  1.00  0.00     0.116 C 
BRANCH  22  23
ATOM     23  N   UNL A   1      33.537  30.066  27.397  1.00  0.00    -0.352 N 
ATOM     24  C   UNL A   1      34.544  30.834  27.934  1.00  0.00     0.251 C 
ATOM     25  H   UNL A   1      32.771  30.562  27.028  1.00  0.00     0.163 HD
ATOM     26  O   UNL A   1      34.389  32.030  28.110  1.00  0.00    -0.269 OA
BRANCH  24  27
ATOM     27  C   UNL A   1      35.811  30.172  28.317  1.00  0.00     0.039 A 
ATOM     28  C   UNL A   1      36.881  30.190  27.420  1.00  0.00     0.014 A 
ATOM     29  C   UNL A   1      35.946  29.577  29.574  1.00  0.00     0.014 A 
ATOM     30  C   UNL A   1      38.112  29.661  27.811  1.00  0.00     0.010 A 
ATOM     31  C   UNL A   1      37.192  29.118  29.986  1.00  0.00     0.010 A 
ATOM     32  C   UNL A   1      38.286  29.151  29.109  1.00  0.00    -0.014 A 
BRANCH  32  33
ATOM     33  C   UNL A   1      39.608  28.663  29.577  1.00  0.00     0.031 A 
ATOM     34  C   UNL A   1      40.344  29.399  30.662  1.00  0.00     0.074 A 
ATOM     35  C   UNL A   1      40.188  27.616  28.956  1.00  0.00     0.049 A 
ATOM     36  N   UNL A   1      41.536  29.171  31.150  1.00  0.00    -0.248 NA
ATOM     37  C   UNL A   1      39.663  30.558  31.262  1.00  0.00     0.031 C 
ATOM     38  C   UNL A   1      39.608  26.867  27.839  1.00  0.00     0.029 A 
ATOM     39  N   UNL A   1      41.408  27.019  29.156  1.00  0.00    -0.354 N 
ATOM     40  C   UNL A   1      41.763  30.176  32.082  1.00  0.00     0.074 A 
ATOM     41  C   UNL A   1      40.599  31.035  32.070  1.00  0.00     0.031 C 
ATOM     42  C   UNL A   1      40.471  25.913  27.453  1.00  0.00     0.029 A 
ATOM     43  C   UNL A   1      41.677  26.002  28.269  1.00  0.00     0.049 A 
ATOM     44  H   UNL A   1      42.032  27.293  29.867  1.00  0.00     0.167 HD
ATOM     45  C   UNL A   1      42.832  30.354  32.894  1.00  0.00     0.034 A 
ATOM     46  C   UNL A   1      42.776  25.237  28.121  1.00  0.00     0.034 A 
ATOM     47  C   UNL A   1      43.970  29.475  32.930  1.00  0.00     0.049 A 
ATOM     48  C   UNL A   1      43.938  25.437  29.056  1.00  0.00     0.074 A 
ATOM     49  C   UNL A   1      45.061  29.517  33.780  1.00  0.00     0.029 A 
ATOM     50  N   UNL A   1      44.171  28.405  32.073  1.00  0.00    -0.354 N 
ATOM     51  N   UNL A   1      44.066  26.293  30.041  1.00  0.00    -0.248 NA
ATOM     52  C   UNL A   1      45.094  24.546  28.883  1.00  0.00     0.031 C 
ATOM     53  C   UNL A   1      45.935  28.488  33.417  1.00  0.00     0.029 A 
ATOM     54  C   UNL A   1      45.375  27.786  32.363  1.00  0.00     0.049 A 
ATOM     55  H   UNL A   1      43.549  28.126  31.362  1.00  0.00     0.167 HD
ATOM     56  C   UNL A   1      45.298  26.020  30.626  1.00  0.00     0.074 A 
ATOM     57  C   UNL A   1      45.868  24.906  29.897  1.00  0.00     0.031 C 
ATOM     58  C   UNL A   1      45.906  26.645  31.664  1.00  0.00     0.034 A 
BRANCH  45  59
ATOM     59  C   UNL A   1      42.801  31.519  33.848  1.00  0.00     0.023 A 
ATOM     60  C   UNL A   1      43.308  32.770  33.436  1.00  0.00     0.012 A 
ATOM     61  C   UNL A   1      42.220  31.397  35.124  1.00  0.00     0.148 A 
ATOM     62  C   UNL A   1      43.269  33.870  34.291  1.00  0.00     0.002 A 
ATOM     63  C   UNL A   1      42.142  32.510  35.955  1.00  0.00     0.091 A 
ATOM     64  F   UNL A   1      41.762  30.197  35.507  1.00  0.00    -0.205 F 
ATOM     65  C   UNL A   1      42.676  33.743  35.545  1.00  0.00     0.022 A 
BRANCH  63  66
ATOM     66  S   UNL A   1      41.328  32.471  37.555  1.00  0.00     0.127 S 
ATOM     67  O   UNL A   1      41.377  33.878  37.946  1.00  0.00    -0.237 OA
ATOM     68  O   UNL A   1      39.993  31.981  37.209  1.00  0.00    -0.237 OA
ATOM     69  O   UNL A   1      42.111  31.564  38.383  1.00  0.00    -0.744 OA
ENDBRANCH  63  66
ENDBRANCH  45  59
BRANCH  46  70
ATOM     70  C   UNL A   1      42.808  24.171  27.079  1.00  0.00     0.023 A 
ATOM     71  C   UNL A   1      43.522  24.392  25.886  1.00  0.00     0.012 A 
ATOM     72  C   UNL A   1      42.160  22.935  27.273  1.00  0.00     0.148 A 
ATOM     73  C   UNL A   1      43.563  23.416  24.890  1.00  0.00     0.002 A 
ATOM     74  C   UNL A   1      42.252  21.946  26.301  1.00  0.00     0.091 A 
ATOM     75  F   UNL A   1      41.478  22.749  28.411  1.00  0.00    -0.205 F 
ATOM     76  C   UNL A   1      42.937  22.191  25.101  1.00  0.00     0.022 A 
BRANCH  74  77
ATOM     77  S   UNL A   1      41.591  20.294  26.544  1.00  0.00     0.127 S 
ATOM     78  O   UNL A   1      40.152  20.542  26.524  1.00  0.00    -0.237 OA
ATOM     79  O   UNL A   1      42.112  19.586  25.373  1.00  0.00    -0.237 OA
ATOM     80  O   UNL A   1      42.137  19.834  27.813  1.00  0.00    -0.744 OA
ENDBRANCH  74  77
ENDBRANCH  46  70
BRANCH  58  81
ATOM     81  C   UNL A   1      47.247  26.121  32.108  1.00  0.00     0.023 A 
ATOM     82  C   UNL A   1      47.330  25.244  33.208  1.00  0.00     0.012 A 
ATOM     83  C   UNL A   1      48.415  26.433  31.383  1.00  0.00     0.148 A 
ATOM     84  C   UNL A   1      48.557  24.709  33.597  1.00  0.00     0.002 A 
ATOM     85  C   UNL A   1      49.626  25.856  31.745  1.00  0.00     0.091 A 
ATOM     86  F   UNL A   1      48.318  27.283  30.351  1.00  0.00    -0.205 F 
ATOM     87  C   UNL A   1      49.702  25.004  32.859  1.00  0.00     0.022 A 
BRANCH  85  88
ATOM     88  S   UNL A   1      51.132  26.100  30.797  1.00  0.00     0.127 S 
ATOM     89  O   UNL A   1      50.743  25.588  29.484  1.00  0.00    -0.237 OA
ATOM     90  O   UNL A   1      51.305  27.552  30.860  1.00  0.00    -0.237 OA
ATOM     91  O   UNL A   1      52.167  25.338  31.482  1.00  0.00    -0.744 OA
ENDBRANCH  85  88
ENDBRANCH  58  81
ENDBRANCH  32  33
ENDBRANCH  24  27
ENDBRANCH  22  23
ENDBRANCH  21  22
ENDBRANCH   1  21
TORSDOF 17
ENDMDL
