MODEL 1
REMARK VINA RESULT:     -10.1      0.000      0.000
REMARK SMILES CC[C@@H](CCC(=O)NCCCCCCNC(=O)c1ccc(-c2c3nc(c(-c4cccc(S(=O)(=O)[O-])c4F)c4ccc([nH]4)c(-c4cccc(S(=O)(=O)[O-])c4F)c4nc(c(-c5cccc(S(=O)(=O)[O-])c5F)c5ccc2[nH]5)C=C4)C=C3)cc1)CC[N@H+]1CCC[C@@H]1C
REMARK SMILES IDX 10 1 9 2 8 3 6 4 7 5 5 7 4 8 3 9 2 10 1 11 81 12 82 13 83 14
REMARK SMILES IDX 84 15 87 16 85 18 86 19 88 20 11 21 12 22 13 23 14 24 15 25
REMARK SMILES IDX 16 26 17 28 18 29 19 30 80 31 20 32 79 33 21 34 22 35 23 36
REMARK SMILES IDX 73 37 24 38 78 39 72 40 74 41 25 42 77 43 71 44 70 45 26 47
REMARK SMILES IDX 58 48 38 49 57 50 39 51 42 52 56 53 75 54 40 55 41 56 55 58
REMARK SMILES IDX 76 59 43 60 27 61 28 62 36 63 29 64 31 65 37 66 30 67 32 68
REMARK SMILES IDX 33 69 34 70 35 71 59 72 60 73 68 74 61 75 63 76 69 77 62 78
REMARK SMILES IDX 64 79 65 80 66 81 67 82 44 83 45 84 53 85 46 86 48 87 54 88
REMARK SMILES IDX 47 89 49 90 50 91 51 92 52 93
REMARK H PARENT 8 6 83 17 15 27 74 46 42 57
REMARK Flexibility Score: inf
ROOT
ATOM      1  C   UNL A   1      33.717  20.798  25.965  1.00  0.00     0.021 C 
ENDROOT
BRANCH   1   2
ATOM      2  C   UNL A   1      32.365  21.207  25.378  1.00  0.00     0.116 C 
BRANCH   2   3
ATOM      3  N   UNL A   1      31.596  22.055  26.271  1.00  0.00    -0.356 N 
ATOM      4  C   UNL A   1      31.683  23.382  26.552  1.00  0.00     0.220 C 
ATOM      5  O   UNL A   1      30.876  23.857  27.357  1.00  0.00    -0.275 OA
ATOM      6  H   UNL A   1      30.883  21.584  26.761  1.00  0.00     0.163 HD
BRANCH   4   7
ATOM      7  C   UNL A   1      32.724  24.260  25.893  1.00  0.00     0.100 C 
BRANCH   7   8
ATOM      8  C   UNL A   1      32.648  25.730  26.327  1.00  0.00     0.013 C 
BRANCH   8   9
ATOM      9  C   UNL A   1      33.644  26.740  25.687  1.00  0.00    -0.005 C 
BRANCH   9  10
ATOM     10  C   UNL A   1      33.303  28.206  26.005  1.00  0.00     0.000 C 
ATOM     11  C   UNL A   1      34.161  28.773  27.132  1.00  0.00     0.004 C 
ENDBRANCH   9  10
BRANCH   9  12
ATOM     12  C   UNL A   1      33.924  26.384  24.201  1.00  0.00     0.065 C 
BRANCH  12  13
ATOM     13  C   UNL A   1      33.137  27.010  23.026  1.00  0.00     0.262 C 
BRANCH  13  14
ATOM     14  N   UNL A   1      31.708  26.868  22.813  1.00  0.00    -0.333 N 
ATOM     15  C   UNL A   1      31.184  25.506  22.833  1.00  0.00     0.262 C 
ATOM     16  C   UNL A   1      30.746  27.797  23.375  1.00  0.00     0.181 C 
ATOM     17  H   UNL A   1      31.775  27.208  21.854  1.00  0.00     0.348 HD
ATOM     18  C   UNL A   1      30.006  25.543  23.782  1.00  0.00     0.067 C 
ATOM     19  C   UNL A   1      29.495  26.964  23.663  1.00  0.00     0.070 C 
ATOM     20  C   UNL A   1      30.477  28.945  22.414  1.00  0.00     0.075 C 
ENDBRANCH  13  14
ENDBRANCH  12  13
ENDBRANCH   9  12
ENDBRANCH   8   9
ENDBRANCH   7   8
ENDBRANCH   4   7
ENDBRANCH   2   3
ENDBRANCH   1   2
BRANCH   1  21
ATOM     21  C   UNL A   1      34.700  20.184  24.956  1.00  0.00     0.002 C 
BRANCH  21  22
ATOM     22  C   UNL A   1      35.890  21.093  24.623  1.00  0.00     0.002 C 
BRANCH  22  23
ATOM     23  C   UNL A   1      35.698  22.585  24.929  1.00  0.00     0.021 C 
BRANCH  23  24
ATOM     24  C   UNL A   1      36.746  23.190  25.862  1.00  0.00     0.116 C 
BRANCH  24  25
ATOM     25  N   UNL A   1      37.883  22.311  26.075  1.00  0.00    -0.352 N 
ATOM     26  C   UNL A   1      39.172  22.597  26.456  1.00  0.00     0.251 C 
ATOM     27  H   UNL A   1      37.700  21.356  25.921  1.00  0.00     0.163 HD
ATOM     28  O   UNL A   1      40.023  21.711  26.404  1.00  0.00    -0.269 OA
BRANCH  26  29
ATOM     29  C   UNL A   1      39.564  23.957  26.900  1.00  0.00     0.039 A 
ATOM     30  C   UNL A   1      39.444  24.272  28.257  1.00  0.00     0.014 A 
ATOM     31  C   UNL A   1      39.985  24.941  26.001  1.00  0.00     0.014 A 
ATOM     32  C   UNL A   1      39.795  25.545  28.718  1.00  0.00     0.010 A 
ATOM     33  C   UNL A   1      40.400  26.192  26.472  1.00  0.00     0.010 A 
ATOM     34  C   UNL A   1      40.304  26.512  27.836  1.00  0.00    -0.014 A 
BRANCH  34  35
ATOM     35  C   UNL A   1      40.746  27.842  28.341  1.00  0.00     0.031 A 
ATOM     36  C   UNL A   1      42.209  28.194  28.427  1.00  0.00     0.074 A 
ATOM     37  C   UNL A   1      39.826  28.732  28.766  1.00  0.00     0.049 A 
ATOM     38  N   UNL A   1      42.766  29.309  28.831  1.00  0.00    -0.248 NA
ATOM     39  C   UNL A   1      43.172  27.159  28.023  1.00  0.00     0.031 C 
ATOM     40  C   UNL A   1      38.381  28.500  28.800  1.00  0.00     0.029 A 
ATOM     41  N   UNL A   1      39.967  30.005  29.264  1.00  0.00    -0.354 N 
ATOM     42  C   UNL A   1      44.139  29.101  28.755  1.00  0.00     0.074 A 
ATOM     43  C   UNL A   1      44.331  27.742  28.297  1.00  0.00     0.031 C 
ATOM     44  C   UNL A   1      37.769  29.592  29.283  1.00  0.00     0.029 A 
ATOM     45  C   UNL A   1      38.777  30.594  29.624  1.00  0.00     0.049 A 
ATOM     46  H   UNL A   1      40.838  30.453  29.356  1.00  0.00     0.167 HD
ATOM     47  C   UNL A   1      45.148  29.966  29.018  1.00  0.00     0.034 A 
ATOM     48  C   UNL A   1      38.519  31.797  30.174  1.00  0.00     0.034 A 
ATOM     49  C   UNL A   1      44.960  31.328  29.447  1.00  0.00     0.049 A 
ATOM     50  C   UNL A   1      39.657  32.744  30.441  1.00  0.00     0.074 A 
ATOM     51  C   UNL A   1      45.921  32.302  29.659  1.00  0.00     0.029 A 
ATOM     52  N   UNL A   1      43.736  31.905  29.746  1.00  0.00    -0.354 N 
ATOM     53  N   UNL A   1      40.938  32.583  30.212  1.00  0.00    -0.248 NA
ATOM     54  C   UNL A   1      39.312  34.057  31.009  1.00  0.00     0.031 C 
ATOM     55  C   UNL A   1      45.281  33.457  30.122  1.00  0.00     0.029 A 
ATOM     56  C   UNL A   1      43.918  33.216  30.158  1.00  0.00     0.049 A 
ATOM     57  H   UNL A   1      42.866  31.450  29.676  1.00  0.00     0.167 HD
ATOM     58  C   UNL A   1      41.545  33.780  30.573  1.00  0.00     0.074 A 
ATOM     59  C   UNL A   1      40.489  34.668  31.015  1.00  0.00     0.031 C 
ATOM     60  C   UNL A   1      42.860  34.110  30.553  1.00  0.00     0.034 A 
BRANCH  47  61
ATOM     61  C   UNL A   1      46.561  29.481  28.810  1.00  0.00     0.023 A 
ATOM     62  C   UNL A   1      47.381  29.220  29.926  1.00  0.00     0.012 A 
ATOM     63  C   UNL A   1      47.054  29.217  27.516  1.00  0.00     0.148 A 
ATOM     64  C   UNL A   1      48.680  28.739  29.760  1.00  0.00     0.002 A 
ATOM     65  C   UNL A   1      48.333  28.694  27.359  1.00  0.00     0.091 A 
ATOM     66  F   UNL A   1      46.267  29.485  26.464  1.00  0.00    -0.205 F 
ATOM     67  C   UNL A   1      49.151  28.468  28.479  1.00  0.00     0.022 A 
BRANCH  65  68
ATOM     68  S   UNL A   1      49.003  28.231  25.759  1.00  0.00     0.127 S 
ATOM     69  O   UNL A   1      47.883  28.538  24.870  1.00  0.00    -0.237 OA
ATOM     70  O   UNL A   1      50.147  29.134  25.630  1.00  0.00    -0.237 OA
ATOM     71  O   UNL A   1      49.351  26.820  25.859  1.00  0.00    -0.744 OA
ENDBRANCH  65  68
ENDBRANCH  47  61
BRANCH  48  72
ATOM     72  C   UNL A   1      37.113  32.197  30.467  1.00  0.00     0.023 A 
ATOM     73  C   UNL A   1      36.591  32.009  31.763  1.00  0.00     0.012 A 
ATOM     74  C   UNL A   1      36.297  32.776  29.477  1.00  0.00     0.148 A 
ATOM     75  C   UNL A   1      35.272  32.359  32.056  1.00  0.00     0.002 A 
ATOM     76  C   UNL A   1      35.004  33.175  29.791  1.00  0.00     0.091 A 
ATOM     77  F   UNL A   1      36.807  32.934  28.247  1.00  0.00    -0.205 F 
ATOM     78  C   UNL A   1      34.482  32.950  31.074  1.00  0.00     0.022 A 
BRANCH  76  79
ATOM     79  S   UNL A   1      33.961  34.064  28.629  1.00  0.00     0.127 S 
ATOM     80  O   UNL A   1      32.915  34.586  29.503  1.00  0.00    -0.237 OA
ATOM     81  O   UNL A   1      34.886  35.070  28.104  1.00  0.00    -0.237 OA
ATOM     82  O   UNL A   1      33.532  33.075  27.648  1.00  0.00    -0.744 OA
ENDBRANCH  76  79
ENDBRANCH  48  72
BRANCH  60  83
ATOM     83  C   UNL A   1      43.242  35.505  30.983  1.00  0.00     0.023 A 
ATOM     84  C   UNL A   1      43.550  35.765  32.332  1.00  0.00     0.012 A 
ATOM     85  C   UNL A   1      43.361  36.541  30.035  1.00  0.00     0.148 A 
ATOM     86  C   UNL A   1      43.936  37.043  32.738  1.00  0.00     0.002 A 
ATOM     87  C   UNL A   1      43.797  37.797  30.438  1.00  0.00     0.091 A 
ATOM     88  F   UNL A   1      43.047  36.278  28.758  1.00  0.00    -0.205 F 
ATOM     89  C   UNL A   1      44.071  38.055  31.791  1.00  0.00     0.022 A 
BRANCH  87  90
ATOM     90  S   UNL A   1      44.093  39.135  29.275  1.00  0.00     0.127 S 
ATOM     91  O   UNL A   1      43.582  40.289  30.013  1.00  0.00    -0.237 OA
ATOM     92  O   UNL A   1      45.549  39.100  29.128  1.00  0.00    -0.237 OA
ATOM     93  O   UNL A   1      43.355  38.790  28.067  1.00  0.00    -0.744 OA
ENDBRANCH  87  90
ENDBRANCH  60  83
ENDBRANCH  34  35
ENDBRANCH  26  29
ENDBRANCH  24  25
ENDBRANCH  23  24
ENDBRANCH  22  23
ENDBRANCH  21  22
ENDBRANCH   1  21
TORSDOF 22
ENDMDL
MODEL 2
REMARK VINA RESULT:      -9.7      2.207      2.572
REMARK SMILES CC[C@@H](CCC(=O)NCCCCCCNC(=O)c1ccc(-c2c3nc(c(-c4cccc(S(=O)(=O)[O-])c4F)c4ccc([nH]4)c(-c4cccc(S(=O)(=O)[O-])c4F)c4nc(c(-c5cccc(S(=O)(=O)[O-])c5F)c5ccc2[nH]5)C=C4)C=C3)cc1)CC[N@H+]1CCC[C@@H]1C
REMARK SMILES IDX 10 1 9 2 8 3 6 4 7 5 5 7 4 8 3 9 2 10 1 11 81 12 82 13 83 14
REMARK SMILES IDX 84 15 87 16 85 18 86 19 88 20 11 21 12 22 13 23 14 24 15 25
REMARK SMILES IDX 16 26 17 28 18 29 19 30 80 31 20 32 79 33 21 34 22 35 23 36
REMARK SMILES IDX 73 37 24 38 78 39 72 40 74 41 25 42 77 43 71 44 70 45 26 47
REMARK SMILES IDX 58 48 38 49 57 50 39 51 42 52 56 53 75 54 40 55 41 56 55 58
REMARK SMILES IDX 76 59 43 60 27 61 28 62 36 63 29 64 31 65 37 66 30 67 32 68
REMARK SMILES IDX 33 69 34 70 35 71 59 72 60 73 68 74 61 75 63 76 69 77 62 78
REMARK SMILES IDX 64 79 65 80 66 81 67 82 44 83 45 84 53 85 46 86 48 87 54 88
REMARK SMILES IDX 47 89 49 90 50 91 51 92 52 93
REMARK H PARENT 8 6 83 17 15 27 74 46 42 57
REMARK Flexibility Score: inf
ROOT
ATOM      1  C   UNL A   1      33.520  21.516  25.848  1.00  0.00     0.021 C 
ENDROOT
BRANCH   1   2
ATOM      2  C   UNL A   1      32.158  21.678  25.173  1.00  0.00     0.116 C 
BRANCH   2   3
ATOM      3  N   UNL A   1      31.144  22.205  26.069  1.00  0.00    -0.356 N 
ATOM      4  C   UNL A   1      31.011  23.419  26.667  1.00  0.00     0.220 C 
ATOM      5  O   UNL A   1      30.024  23.606  27.384  1.00  0.00    -0.275 OA
ATOM      6  H   UNL A   1      30.422  21.570  26.281  1.00  0.00     0.163 HD
BRANCH   4   7
ATOM      7  C   UNL A   1      32.031  24.516  26.456  1.00  0.00     0.100 C 
BRANCH   7   8
ATOM      8  C   UNL A   1      31.432  25.928  26.521  1.00  0.00     0.013 C 
BRANCH   8   9
ATOM      9  C   UNL A   1      32.395  27.126  26.764  1.00  0.00    -0.005 C 
BRANCH   9  10
ATOM     10  C   UNL A   1      31.658  28.465  26.943  1.00  0.00     0.000 C 
ATOM     11  C   UNL A   1      32.613  29.626  27.203  1.00  0.00     0.004 C 
ENDBRANCH   9  10
BRANCH   9  12
ATOM     12  C   UNL A   1      33.584  27.100  25.766  1.00  0.00     0.065 C 
BRANCH  12  13
ATOM     13  C   UNL A   1      33.446  27.528  24.285  1.00  0.00     0.262 C 
BRANCH  13  14
ATOM     14  N   UNL A   1      32.907  26.695  23.227  1.00  0.00    -0.333 N 
ATOM     15  C   UNL A   1      33.734  25.568  22.806  1.00  0.00     0.262 C 
ATOM     16  C   UNL A   1      31.498  26.355  23.150  1.00  0.00     0.181 C 
ATOM     17  H   UNL A   1      32.964  27.451  22.545  1.00  0.00     0.348 HD
ATOM     18  C   UNL A   1      32.814  24.366  22.826  1.00  0.00     0.067 C 
ATOM     19  C   UNL A   1      31.448  24.955  22.536  1.00  0.00     0.070 C 
ATOM     20  C   UNL A   1      30.737  27.383  22.328  1.00  0.00     0.075 C 
ENDBRANCH  13  14
ENDBRANCH  12  13
ENDBRANCH   9  12
ENDBRANCH   8   9
ENDBRANCH   7   8
ENDBRANCH   4   7
ENDBRANCH   2   3
ENDBRANCH   1   2
BRANCH   1  21
ATOM     21  C   UNL A   1      34.543  20.692  25.050  1.00  0.00     0.002 C 
BRANCH  21  22
ATOM     22  C   UNL A   1      35.742  21.511  24.554  1.00  0.00     0.002 C 
BRANCH  22  23
ATOM     23  C   UNL A   1      35.670  23.023  24.805  1.00  0.00     0.021 C 
BRANCH  23  24
ATOM     24  C   UNL A   1      36.666  23.552  25.835  1.00  0.00     0.116 C 
BRANCH  24  25
ATOM     25  N   UNL A   1      37.763  22.630  26.081  1.00  0.00    -0.352 N 
ATOM     26  C   UNL A   1      39.041  22.864  26.525  1.00  0.00     0.251 C 
ATOM     27  H   UNL A   1      37.554  21.685  25.899  1.00  0.00     0.163 HD
ATOM     28  O   UNL A   1      39.863  21.950  26.493  1.00  0.00    -0.269 OA
BRANCH  26  29
ATOM     29  C   UNL A   1      39.459  24.200  27.015  1.00  0.00     0.039 A 
ATOM     30  C   UNL A   1      39.189  24.533  28.346  1.00  0.00     0.014 A 
ATOM     31  C   UNL A   1      40.049  25.150  26.176  1.00  0.00     0.014 A 
ATOM     32  C   UNL A   1      39.558  25.785  28.848  1.00  0.00     0.010 A 
ATOM     33  C   UNL A   1      40.479  26.376  26.695  1.00  0.00     0.010 A 
ATOM     34  C   UNL A   1      40.233  26.712  28.036  1.00  0.00    -0.014 A 
BRANCH  34  35
ATOM     35  C   UNL A   1      40.690  28.016  28.593  1.00  0.00     0.031 A 
ATOM     36  C   UNL A   1      42.113  28.212  29.046  1.00  0.00     0.074 A 
ATOM     37  C   UNL A   1      39.807  29.027  28.730  1.00  0.00     0.049 A 
ATOM     38  N   UNL A   1      42.681  29.283  29.543  1.00  0.00    -0.248 NA
ATOM     39  C   UNL A   1      43.014  27.054  28.945  1.00  0.00     0.031 C 
ATOM     40  C   UNL A   1      38.385  28.957  28.392  1.00  0.00     0.029 A 
ATOM     41  N   UNL A   1      39.971  30.307  29.203  1.00  0.00    -0.354 N 
ATOM     42  C   UNL A   1      43.991  28.922  29.837  1.00  0.00     0.074 A 
ATOM     43  C   UNL A   1      44.126  27.523  29.493  1.00  0.00     0.031 C 
ATOM     44  C   UNL A   1      37.808  30.139  28.660  1.00  0.00     0.029 A 
ATOM     45  C   UNL A   1      38.809  31.045  29.218  1.00  0.00     0.049 A 
ATOM     46  H   UNL A   1      40.838  30.663  29.504  1.00  0.00     0.167 HD
ATOM     47  C   UNL A   1      44.998  29.688  30.325  1.00  0.00     0.034 A 
ATOM     48  C   UNL A   1      38.568  32.303  29.638  1.00  0.00     0.034 A 
ATOM     49  C   UNL A   1      44.873  31.087  30.642  1.00  0.00     0.049 A 
ATOM     50  C   UNL A   1      39.707  33.135  30.161  1.00  0.00     0.074 A 
ATOM     51  C   UNL A   1      45.860  31.962  31.064  1.00  0.00     0.029 A 
ATOM     52  N   UNL A   1      43.694  31.812  30.589  1.00  0.00    -0.354 N 
ATOM     53  N   UNL A   1      40.974  32.821  30.282  1.00  0.00    -0.248 NA
ATOM     54  C   UNL A   1      39.391  34.512  30.573  1.00  0.00     0.031 C 
ATOM     55  C   UNL A   1      45.268  33.208  31.302  1.00  0.00     0.029 A 
ATOM     56  C   UNL A   1      43.923  33.120  30.988  1.00  0.00     0.049 A 
ATOM     57  H   UNL A   1      42.822  31.452  30.309  1.00  0.00     0.167 HD
ATOM     58  C   UNL A   1      41.610  33.966  30.747  1.00  0.00     0.074 A 
ATOM     59  C   UNL A   1      40.593  34.990  30.865  1.00  0.00     0.031 C 
ATOM     60  C   UNL A   1      42.917  34.148  31.060  1.00  0.00     0.034 A 
BRANCH  47  61
ATOM     61  C   UNL A   1      46.346  29.039  30.511  1.00  0.00     0.023 A 
ATOM     62  C   UNL A   1      47.295  29.090  29.470  1.00  0.00     0.012 A 
ATOM     63  C   UNL A   1      46.700  28.441  31.738  1.00  0.00     0.148 A 
ATOM     64  C   UNL A   1      48.560  28.526  29.631  1.00  0.00     0.002 A 
ATOM     65  C   UNL A   1      47.979  27.922  31.907  1.00  0.00     0.091 A 
ATOM     66  F   UNL A   1      45.781  28.388  32.712  1.00  0.00    -0.205 F 
ATOM     67  C   UNL A   1      48.905  27.952  30.850  1.00  0.00     0.022 A 
BRANCH  65  68
ATOM     68  S   UNL A   1      48.550  27.237  33.466  1.00  0.00     0.127 S 
ATOM     69  O   UNL A   1      47.693  26.060  33.601  1.00  0.00    -0.237 OA
ATOM     70  O   UNL A   1      49.953  26.940  33.177  1.00  0.00    -0.237 OA
ATOM     71  O   UNL A   1      48.342  28.277  34.465  1.00  0.00    -0.744 OA
ENDBRANCH  65  68
ENDBRANCH  47  61
BRANCH  48  72
ATOM     72  C   UNL A   1      37.194  32.872  29.539  1.00  0.00     0.023 A 
ATOM     73  C   UNL A   1      36.600  33.040  28.272  1.00  0.00     0.012 A 
ATOM     74  C   UNL A   1      36.468  33.231  30.690  1.00  0.00     0.148 A 
ATOM     75  C   UNL A   1      35.322  33.588  28.153  1.00  0.00     0.002 A 
ATOM     76  C   UNL A   1      35.173  33.721  30.568  1.00  0.00     0.091 A 
ATOM     77  F   UNL A   1      37.055  33.076  31.885  1.00  0.00    -0.205 F 
ATOM     78  C   UNL A   1      34.605  33.919  29.300  1.00  0.00     0.022 A 
BRANCH  76  79
ATOM     79  S   UNL A   1      34.129  34.049  31.991  1.00  0.00     0.127 S 
ATOM     80  O   UNL A   1      33.024  34.790  31.389  1.00  0.00    -0.237 OA
ATOM     81  O   UNL A   1      33.794  32.695  32.436  1.00  0.00    -0.237 OA
ATOM     82  O   UNL A   1      34.959  34.798  32.926  1.00  0.00    -0.744 OA
ENDBRANCH  76  79
ENDBRANCH  48  72
BRANCH  60  83
ATOM     83  C   UNL A   1      43.344  35.518  31.527  1.00  0.00     0.023 A 
ATOM     84  C   UNL A   1      43.403  35.806  32.904  1.00  0.00     0.012 A 
ATOM     85  C   UNL A   1      43.751  36.497  30.599  1.00  0.00     0.148 A 
ATOM     86  C   UNL A   1      43.826  37.058  33.350  1.00  0.00     0.002 A 
ATOM     87  C   UNL A   1      44.222  37.724  31.052  1.00  0.00     0.091 A 
ATOM     88  F   UNL A   1      43.672  36.212  29.291  1.00  0.00    -0.205 F 
ATOM     89  C   UNL A   1      44.247  38.012  32.426  1.00  0.00     0.022 A 
BRANCH  87  90
ATOM     90  S   UNL A   1      44.874  38.977  29.942  1.00  0.00     0.127 S 
ATOM     91  O   UNL A   1      43.649  39.568  29.408  1.00  0.00    -0.237 OA
ATOM     92  O   UNL A   1      45.620  39.842  30.856  1.00  0.00    -0.237 OA
ATOM     93  O   UNL A   1      45.698  38.268  28.973  1.00  0.00    -0.744 OA
ENDBRANCH  87  90
ENDBRANCH  60  83
ENDBRANCH  34  35
ENDBRANCH  26  29
ENDBRANCH  24  25
ENDBRANCH  23  24
ENDBRANCH  22  23
ENDBRANCH  21  22
ENDBRANCH   1  21
TORSDOF 22
ENDMDL
MODEL 3
REMARK VINA RESULT:      -9.7      1.702      2.052
REMARK SMILES CC[C@@H](CCC(=O)NCCCCCCNC(=O)c1ccc(-c2c3nc(c(-c4cccc(S(=O)(=O)[O-])c4F)c4ccc([nH]4)c(-c4cccc(S(=O)(=O)[O-])c4F)c4nc(c(-c5cccc(S(=O)(=O)[O-])c5F)c5ccc2[nH]5)C=C4)C=C3)cc1)CC[N@H+]1CCC[C@@H]1C
REMARK SMILES IDX 10 1 9 2 8 3 6 4 7 5 5 7 4 8 3 9 2 10 1 11 81 12 82 13 83 14
REMARK SMILES IDX 84 15 87 16 85 18 86 19 88 20 11 21 12 22 13 23 14 24 15 25
REMARK SMILES IDX 16 26 17 28 18 29 19 30 80 31 20 32 79 33 21 34 22 35 23 36
REMARK SMILES IDX 73 37 24 38 78 39 72 40 74 41 25 42 77 43 71 44 70 45 26 47
REMARK SMILES IDX 58 48 38 49 57 50 39 51 42 52 56 53 75 54 40 55 41 56 55 58
REMARK SMILES IDX 76 59 43 60 27 61 28 62 36 63 29 64 31 65 37 66 30 67 32 68
REMARK SMILES IDX 33 69 34 70 35 71 59 72 60 73 68 74 61 75 63 76 69 77 62 78
REMARK SMILES IDX 64 79 65 80 66 81 67 82 44 83 45 84 53 85 46 86 48 87 54 88
REMARK SMILES IDX 47 89 49 90 50 91 51 92 52 93
REMARK H PARENT 8 6 83 17 15 27 74 46 42 57
REMARK Flexibility Score: inf
ROOT
ATOM      1  C   UNL A   1      33.851  21.130  25.810  1.00  0.00     0.021 C 
ENDROOT
BRANCH   1   2
ATOM      2  C   UNL A   1      32.400  21.150  25.326  1.00  0.00     0.116 C 
BRANCH   2   3
ATOM      3  N   UNL A   1      31.515  21.867  26.226  1.00  0.00    -0.356 N 
ATOM      4  C   UNL A   1      31.370  23.195  26.481  1.00  0.00     0.220 C 
ATOM      5  O   UNL A   1      30.514  23.536  27.301  1.00  0.00    -0.275 OA
ATOM      6  H   UNL A   1      30.911  21.289  26.745  1.00  0.00     0.163 HD
BRANCH   4   7
ATOM      7  C   UNL A   1      32.220  24.229  25.777  1.00  0.00     0.100 C 
BRANCH   7   8
ATOM      8  C   UNL A   1      32.222  25.597  26.472  1.00  0.00     0.013 C 
BRANCH   8   9
ATOM      9  C   UNL A   1      33.371  26.592  26.138  1.00  0.00    -0.005 C 
BRANCH   9  10
ATOM     10  C   UNL A   1      33.167  27.981  26.769  1.00  0.00     0.000 C 
ATOM     11  C   UNL A   1      34.421  28.847  26.690  1.00  0.00     0.004 C 
ENDBRANCH   9  10
BRANCH   9  12
ATOM     12  C   UNL A   1      33.728  26.547  24.627  1.00  0.00     0.065 C 
BRANCH  12  13
ATOM     13  C   UNL A   1      33.057  27.465  23.578  1.00  0.00     0.262 C 
BRANCH  13  14
ATOM     14  N   UNL A   1      31.702  27.309  23.083  1.00  0.00    -0.333 N 
ATOM     15  C   UNL A   1      31.227  25.938  22.921  1.00  0.00     0.262 C 
ATOM     16  C   UNL A   1      30.621  28.182  23.499  1.00  0.00     0.181 C 
ATOM     17  H   UNL A   1      31.943  27.710  22.177  1.00  0.00     0.348 HD
ATOM     18  C   UNL A   1      29.886  25.893  23.622  1.00  0.00     0.067 C 
ATOM     19  C   UNL A   1      29.364  27.309  23.489  1.00  0.00     0.070 C 
ATOM     20  C   UNL A   1      30.508  29.383  22.573  1.00  0.00     0.075 C 
ENDBRANCH  13  14
ENDBRANCH  12  13
ENDBRANCH   9  12
ENDBRANCH   8   9
ENDBRANCH   7   8
ENDBRANCH   4   7
ENDBRANCH   2   3
ENDBRANCH   1   2
BRANCH   1  21
ATOM     21  C   UNL A   1      34.867  20.604  24.785  1.00  0.00     0.002 C 
BRANCH  21  22
ATOM     22  C   UNL A   1      35.892  21.654  24.337  1.00  0.00     0.002 C 
BRANCH  22  23
ATOM     23  C   UNL A   1      35.619  23.093  24.795  1.00  0.00     0.021 C 
BRANCH  23  24
ATOM     24  C   UNL A   1      36.611  23.642  25.819  1.00  0.00     0.116 C 
BRANCH  24  25
ATOM     25  N   UNL A   1      37.662  22.692  26.147  1.00  0.00    -0.352 N 
ATOM     26  C   UNL A   1      38.939  22.900  26.608  1.00  0.00     0.251 C 
ATOM     27  H   UNL A   1      37.417  21.747  26.018  1.00  0.00     0.163 HD
ATOM     28  O   UNL A   1      39.721  21.952  26.652  1.00  0.00    -0.269 OA
BRANCH  26  29
ATOM     29  C   UNL A   1      39.402  24.246  27.026  1.00  0.00     0.039 A 
ATOM     30  C   UNL A   1      39.180  24.642  28.349  1.00  0.00     0.014 A 
ATOM     31  C   UNL A   1      39.989  25.142  26.129  1.00  0.00     0.014 A 
ATOM     32  C   UNL A   1      39.593  25.906  28.783  1.00  0.00     0.010 A 
ATOM     33  C   UNL A   1      40.463  26.379  26.580  1.00  0.00     0.010 A 
ATOM     34  C   UNL A   1      40.266  26.779  27.912  1.00  0.00    -0.014 A 
BRANCH  34  35
ATOM     35  C   UNL A   1      40.769  28.095  28.397  1.00  0.00     0.031 A 
ATOM     36  C   UNL A   1      42.234  28.311  28.676  1.00  0.00     0.074 A 
ATOM     37  C   UNL A   1      39.897  29.098  28.627  1.00  0.00     0.049 A 
ATOM     38  N   UNL A   1      42.843  29.394  29.091  1.00  0.00    -0.248 NA
ATOM     39  C   UNL A   1      43.130  27.162  28.481  1.00  0.00     0.031 C 
ATOM     40  C   UNL A   1      38.445  29.009  28.461  1.00  0.00     0.029 A 
ATOM     41  N   UNL A   1      40.100  30.385  29.063  1.00  0.00    -0.354 N 
ATOM     42  C   UNL A   1      44.183  29.051  29.232  1.00  0.00     0.074 A 
ATOM     43  C   UNL A   1      44.294  27.650  28.888  1.00  0.00     0.031 C 
ATOM     44  C   UNL A   1      37.890  30.187  28.782  1.00  0.00     0.029 A 
ATOM     45  C   UNL A   1      38.939  31.110  29.208  1.00  0.00     0.049 A 
ATOM     46  H   UNL A   1      40.992  30.754  29.256  1.00  0.00     0.167 HD
ATOM     47  C   UNL A   1      45.231  29.833  29.588  1.00  0.00     0.034 A 
ATOM     48  C   UNL A   1      38.735  32.371  29.641  1.00  0.00     0.034 A 
ATOM     49  C   UNL A   1      45.129  31.235  29.903  1.00  0.00     0.049 A 
ATOM     50  C   UNL A   1      39.918  33.222  30.017  1.00  0.00     0.074 A 
ATOM     51  C   UNL A   1      46.148  32.125  30.196  1.00  0.00     0.029 A 
ATOM     52  N   UNL A   1      43.943  31.946  29.983  1.00  0.00    -0.354 N 
ATOM     53  N   UNL A   1      41.194  32.922  29.989  1.00  0.00    -0.248 NA
ATOM     54  C   UNL A   1      39.636  34.599  30.448  1.00  0.00     0.031 C 
ATOM     55  C   UNL A   1      45.574  33.367  30.489  1.00  0.00     0.029 A 
ATOM     56  C   UNL A   1      44.202  33.261  30.338  1.00  0.00     0.049 A 
ATOM     57  H   UNL A   1      43.048  31.574  29.812  1.00  0.00     0.167 HD
ATOM     58  C   UNL A   1      41.866  34.079  30.364  1.00  0.00     0.074 A 
ATOM     59  C   UNL A   1      40.859  35.094  30.591  1.00  0.00     0.031 C 
ATOM     60  C   UNL A   1      43.198  34.280  30.518  1.00  0.00     0.034 A 
BRANCH  47  61
ATOM     61  C   UNL A   1      46.600  29.201  29.620  1.00  0.00     0.023 A 
ATOM     62  C   UNL A   1      47.083  28.643  30.822  1.00  0.00     0.012 A 
ATOM     63  C   UNL A   1      47.379  29.096  28.450  1.00  0.00     0.148 A 
ATOM     64  C   UNL A   1      48.332  28.024  30.868  1.00  0.00     0.002 A 
ATOM     65  C   UNL A   1      48.602  28.437  28.493  1.00  0.00     0.091 A 
ATOM     66  F   UNL A   1      46.911  29.645  27.320  1.00  0.00    -0.205 F 
ATOM     67  C   UNL A   1      49.086  27.913  29.703  1.00  0.00     0.022 A 
BRANCH  65  68
ATOM     68  S   UNL A   1      49.610  28.166  27.031  1.00  0.00     0.127 S 
ATOM     69  O   UNL A   1      50.881  27.750  27.623  1.00  0.00    -0.237 OA
ATOM     70  O   UNL A   1      48.879  27.100  26.346  1.00  0.00    -0.237 OA
ATOM     71  O   UNL A   1      49.640  29.437  26.320  1.00  0.00    -0.744 OA
ENDBRANCH  65  68
ENDBRANCH  47  61
BRANCH  48  72
ATOM     72  C   UNL A   1      37.352  32.923  29.699  1.00  0.00     0.023 A 
ATOM     73  C   UNL A   1      36.625  33.109  28.506  1.00  0.00     0.012 A 
ATOM     74  C   UNL A   1      36.748  33.251  30.928  1.00  0.00     0.148 A 
ATOM     75  C   UNL A   1      35.336  33.643  28.534  1.00  0.00     0.002 A 
ATOM     76  C   UNL A   1      35.443  33.727  30.954  1.00  0.00     0.091 A 
ATOM     77  F   UNL A   1      37.460  33.081  32.051  1.00  0.00    -0.205 F 
ATOM     78  C   UNL A   1      34.741  33.942  29.757  1.00  0.00     0.022 A 
BRANCH  76  79
ATOM     79  S   UNL A   1      34.551  34.013  32.486  1.00  0.00     0.127 S 
ATOM     80  O   UNL A   1      35.325  35.095  33.087  1.00  0.00    -0.237 OA
ATOM     81  O   UNL A   1      33.227  34.398  31.996  1.00  0.00    -0.237 OA
ATOM     82  O   UNL A   1      34.579  32.743  33.201  1.00  0.00    -0.744 OA
ENDBRANCH  76  79
ENDBRANCH  48  72
BRANCH  60  83
ATOM     83  C   UNL A   1      43.661  35.659  30.916  1.00  0.00     0.023 A 
ATOM     84  C   UNL A   1      43.994  36.603  29.925  1.00  0.00     0.012 A 
ATOM     85  C   UNL A   1      43.702  36.039  32.272  1.00  0.00     0.148 A 
ATOM     86  C   UNL A   1      44.393  37.893  30.278  1.00  0.00     0.002 A 
ATOM     87  C   UNL A   1      44.049  37.340  32.615  1.00  0.00     0.091 A 
ATOM     88  F   UNL A   1      43.399  35.122  33.203  1.00  0.00    -0.205 F 
ATOM     89  C   UNL A   1      44.409  38.264  31.620  1.00  0.00     0.022 A 
BRANCH  87  90
ATOM     90  S   UNL A   1      44.005  37.938  34.309  1.00  0.00     0.127 S 
ATOM     91  O   UNL A   1      42.581  38.218  34.488  1.00  0.00    -0.237 OA
ATOM     92  O   UNL A   1      44.497  36.782  35.058  1.00  0.00    -0.237 OA
ATOM     93  O   UNL A   1      44.879  39.102  34.349  1.00  0.00    -0.744 OA
ENDBRANCH  87  90
ENDBRANCH  60  83
ENDBRANCH  34  35
ENDBRANCH  26  29
ENDBRANCH  24  25
ENDBRANCH  23  24
ENDBRANCH  22  23
ENDBRANCH  21  22
ENDBRANCH   1  21
TORSDOF 22
ENDMDL
