MODEL 1
REMARK VINA RESULT:     -12.8      0.000      0.000
REMARK SMILES O=C(NCCCCCCNC(=O)[C@H]1CCCCN1c1cc(-c2ccccc2)nc(-c2cccc(Cl)c2)n1)c1ccc(-c2c3nc(c(-c4cccc(S(=O)(=O)[O-])c4F)c4ccc([nH]4)c(-c4cccc(S(=O)(=O)[O-])c4F)c4nc(c(-c5cccc(S(=O)(=O)[O-])c5F)c5ccc2[nH]5)C=C4)C=C3)cc1
REMARK SMILES IDX 6 1 5 2 4 3 3 4 1 5 2 6 38 8 39 9 100 10 40 11 99 12 41 13
REMARK SMILES IDX 42 14 43 15 93 16 44 17 98 18 92 19 94 20 45 21 97 22 91 23
REMARK SMILES IDX 90 24 46 26 78 27 58 28 77 29 59 30 62 31 76 32 95 33 60 34
REMARK SMILES IDX 61 35 75 37 96 38 63 39 47 40 48 41 56 42 49 43 51 44 57 45
REMARK SMILES IDX 50 46 52 47 53 48 54 49 55 50 79 51 80 52 88 53 81 54 83 55
REMARK SMILES IDX 89 56 82 57 84 58 85 59 86 60 87 61 64 62 65 63 73 64 66 65
REMARK SMILES IDX 68 66 74 67 67 68 69 69 70 70 71 71 72 72 7 73 8 74 9 75
REMARK SMILES IDX 10 76 11 77 12 79 13 80 14 81 18 82 15 83 17 84 16 85 19 86
REMARK SMILES IDX 20 87 37 88 21 89 29 90 28 91 22 92 23 93 27 94 24 95 26 96
REMARK SMILES IDX 25 97 30 98 31 99 36 100 32 101 34 102 33 103 35 104
REMARK H PARENT 3 7 94 25 62 36 10 78
REMARK Flexibility Score: inf
ROOT
ATOM      1  C   UNL A   1      31.749  30.635  25.804  1.00  0.00     0.002 C 
ENDROOT
BRANCH   1   2
ATOM      2  C   UNL A   1      32.124  31.081  27.217  1.00  0.00     0.021 C 
BRANCH   2   3
ATOM      3  C   UNL A   1      33.272  32.078  27.315  1.00  0.00     0.116 C 
BRANCH   3   4
ATOM      4  N   UNL A   1      32.849  33.398  27.741  1.00  0.00    -0.352 N 
ATOM      5  O   UNL A   1      32.775  35.216  29.068  1.00  0.00    -0.269 OA
ATOM      6  C   UNL A   1      33.336  34.172  28.771  1.00  0.00     0.251 C 
ATOM      7  H   UNL A   1      32.113  33.795  27.224  1.00  0.00     0.163 HD
BRANCH   6   8
ATOM      8  C   UNL A   1      34.519  33.709  29.536  1.00  0.00     0.039 A 
ATOM      9  C   UNL A   1      35.803  34.161  29.218  1.00  0.00     0.014 A 
ATOM     10  C   UNL A   1      34.334  32.801  30.582  1.00  0.00     0.014 A 
ATOM     11  C   UNL A   1      36.909  33.600  29.848  1.00  0.00     0.010 A 
ATOM     12  C   UNL A   1      35.443  32.299  31.269  1.00  0.00     0.010 A 
ATOM     13  C   UNL A   1      36.742  32.667  30.885  1.00  0.00    -0.014 A 
BRANCH  13  14
ATOM     14  C   UNL A   1      37.935  32.140  31.596  1.00  0.00     0.031 A 
ATOM     15  C   UNL A   1      38.327  32.654  32.954  1.00  0.00     0.074 A 
ATOM     16  C   UNL A   1      38.676  31.188  30.995  1.00  0.00     0.049 A 
ATOM     17  N   UNL A   1      39.321  32.279  33.719  1.00  0.00    -0.248 NA
ATOM     18  C   UNL A   1      37.506  33.732  33.527  1.00  0.00     0.031 C 
ATOM     19  C   UNL A   1      38.421  30.645  29.660  1.00  0.00     0.029 A 
ATOM     20  N   UNL A   1      39.790  30.511  31.422  1.00  0.00    -0.354 N 
ATOM     21  C   UNL A   1      39.275  33.100  34.839  1.00  0.00     0.074 A 
ATOM     22  C   UNL A   1      38.155  33.998  34.653  1.00  0.00     0.031 C 
ATOM     23  C   UNL A   1      39.331  29.699  29.387  1.00  0.00     0.029 A 
ATOM     24  C   UNL A   1      40.261  29.600  30.506  1.00  0.00     0.049 A 
ATOM     25  H   UNL A   1      40.210  30.663  32.299  1.00  0.00     0.167 HD
ATOM     26  C   UNL A   1      40.080  33.094  35.929  1.00  0.00     0.034 A 
ATOM     27  C   UNL A   1      41.327  28.780  30.556  1.00  0.00     0.034 A 
ATOM     28  C   UNL A   1      41.168  32.171  36.126  1.00  0.00     0.049 A 
ATOM     29  C   UNL A   1      42.184  28.774  31.789  1.00  0.00     0.074 A 
ATOM     30  C   UNL A   1      41.995  32.036  37.227  1.00  0.00     0.029 A 
ATOM     31  N   UNL A   1      41.588  31.231  35.196  1.00  0.00    -0.354 N 
ATOM     32  N   UNL A   1      42.040  29.461  32.895  1.00  0.00    -0.248 NA
ATOM     33  C   UNL A   1      43.332  27.857  31.793  1.00  0.00     0.031 C 
ATOM     34  C   UNL A   1      42.925  31.026  36.956  1.00  0.00     0.029 A 
ATOM     35  C   UNL A   1      42.667  30.519  35.693  1.00  0.00     0.049 A 
ATOM     36  H   UNL A   1      41.179  31.091  34.311  1.00  0.00     0.167 HD
ATOM     37  C   UNL A   1      43.061  29.044  33.738  1.00  0.00     0.074 A 
ATOM     38  C   UNL A   1      43.803  28.024  33.022  1.00  0.00     0.031 C 
ATOM     39  C   UNL A   1      43.366  29.474  34.988  1.00  0.00     0.034 A 
BRANCH  26  40
ATOM     40  C   UNL A   1      39.791  34.096  37.018  1.00  0.00     0.023 A 
ATOM     41  C   UNL A   1      40.043  35.464  36.790  1.00  0.00     0.012 A 
ATOM     42  C   UNL A   1      39.226  33.694  38.244  1.00  0.00     0.148 A 
ATOM     43  C   UNL A   1      39.770  36.412  37.776  1.00  0.00     0.002 A 
ATOM     44  C   UNL A   1      38.919  34.650  39.208  1.00  0.00     0.091 A 
ATOM     45  F   UNL A   1      39.014  32.388  38.457  1.00  0.00    -0.205 F 
ATOM     46  C   UNL A   1      39.200  36.007  38.980  1.00  0.00     0.022 A 
BRANCH  44  47
ATOM     47  S   UNL A   1      38.115  34.226  40.758  1.00  0.00     0.127 S 
ATOM     48  O   UNL A   1      39.203  33.576  41.487  1.00  0.00    -0.237 OA
ATOM     49  O   UNL A   1      37.732  35.538  41.282  1.00  0.00    -0.237 OA
ATOM     50  O   UNL A   1      36.993  33.370  40.398  1.00  0.00    -0.744 OA
ENDBRANCH  44  47
ENDBRANCH  26  40
BRANCH  27  51
ATOM     51  C   UNL A   1      41.588  27.849  29.423  1.00  0.00     0.023 A 
ATOM     52  C   UNL A   1      41.072  26.541  29.475  1.00  0.00     0.012 A 
ATOM     53  C   UNL A   1      42.276  28.275  28.268  1.00  0.00     0.148 A 
ATOM     54  C   UNL A   1      41.249  25.665  28.404  1.00  0.00     0.002 A 
ATOM     55  C   UNL A   1      42.398  27.416  27.183  1.00  0.00     0.091 A 
ATOM     56  F   UNL A   1      42.768  29.521  28.246  1.00  0.00    -0.205 F 
ATOM     57  C   UNL A   1      41.900  26.106  27.254  1.00  0.00     0.022 A 
BRANCH  55  58
ATOM     58  S   UNL A   1      43.092  27.944  25.612  1.00  0.00     0.127 S 
ATOM     59  O   UNL A   1      44.318  28.616  26.038  1.00  0.00    -0.237 OA
ATOM     60  O   UNL A   1      43.294  26.667  24.927  1.00  0.00    -0.237 OA
ATOM     61  O   UNL A   1      42.081  28.797  25.004  1.00  0.00    -0.744 OA
ENDBRANCH  55  58
ENDBRANCH  27  51
BRANCH  39  62
ATOM     62  C   UNL A   1      44.539  28.829  35.676  1.00  0.00     0.023 A 
ATOM     63  C   UNL A   1      45.842  29.303  35.425  1.00  0.00     0.012 A 
ATOM     64  C   UNL A   1      44.345  27.798  36.615  1.00  0.00     0.148 A 
ATOM     65  C   UNL A   1      46.938  28.738  36.078  1.00  0.00     0.002 A 
ATOM     66  C   UNL A   1      45.437  27.272  37.295  1.00  0.00     0.091 A 
ATOM     67  F   UNL A   1      43.100  27.345  36.822  1.00  0.00    -0.205 F 
ATOM     68  C   UNL A   1      46.734  27.733  37.020  1.00  0.00     0.022 A 
BRANCH  66  69
ATOM     69  S   UNL A   1      45.253  26.040  38.590  1.00  0.00     0.127 S 
ATOM     70  O   UNL A   1      44.325  26.701  39.503  1.00  0.00    -0.237 OA
ATOM     71  O   UNL A   1      44.689  24.901  37.863  1.00  0.00    -0.237 OA
ATOM     72  O   UNL A   1      46.595  25.811  39.112  1.00  0.00    -0.744 OA
ENDBRANCH  66  69
ENDBRANCH  39  62
ENDBRANCH  13  14
ENDBRANCH   6   8
ENDBRANCH   3   4
ENDBRANCH   2   3
ENDBRANCH   1   2
BRANCH   1  73
ATOM     73  C   UNL A   1      32.172  29.218  25.413  1.00  0.00     0.002 C 
BRANCH  73  74
ATOM     74  C   UNL A   1      32.643  29.016  23.967  1.00  0.00     0.021 C 
BRANCH  74  75
ATOM     75  C   UNL A   1      33.932  28.224  23.775  1.00  0.00     0.116 C 
BRANCH  75  76
ATOM     76  N   UNL A   1      33.819  27.239  22.728  1.00  0.00    -0.354 N 
ATOM     77  C   UNL A   1      33.585  25.902  22.770  1.00  0.00     0.242 C 
ATOM     78  H   UNL A   1      33.932  27.600  21.819  1.00  0.00     0.163 HD
ATOM     79  O   UNL A   1      33.625  25.339  21.667  1.00  0.00    -0.273 OA
BRANCH  77  80
ATOM     80  C   UNL A   1      33.344  25.099  24.097  1.00  0.00     0.173 C 
ATOM     81  C   UNL A   1      32.195  25.533  25.016  1.00  0.00     0.035 C 
ATOM     82  N   UNL A   1      33.062  23.696  23.722  1.00  0.00    -0.344 N 
ATOM     83  C   UNL A   1      30.837  25.367  24.339  1.00  0.00     0.004 C 
ATOM     84  C   UNL A   1      31.807  23.414  23.034  1.00  0.00     0.119 C 
ATOM     85  C   UNL A   1      30.635  23.923  23.877  1.00  0.00     0.022 C 
BRANCH  82  86
ATOM     86  C   UNL A   1      33.860  22.692  24.208  1.00  0.00     0.133 A 
ATOM     87  C   UNL A   1      33.414  21.387  24.214  1.00  0.00     0.076 A 
ATOM     88  N   UNL A   1      35.086  23.007  24.649  1.00  0.00    -0.211 NA
ATOM     89  C   UNL A   1      34.282  20.415  24.674  1.00  0.00     0.076 A 
ATOM     90  C   UNL A   1      35.854  22.005  25.110  1.00  0.00     0.162 A 
ATOM     91  N   UNL A   1      35.510  20.708  25.140  1.00  0.00    -0.228 NA
BRANCH  89  92
ATOM     92  C   UNL A   1      33.915  18.995  24.666  1.00  0.00     0.000 A 
ATOM     93  C   UNL A   1      34.858  18.012  24.323  1.00  0.00     0.010 A 
ATOM     94  C   UNL A   1      32.619  18.578  25.011  1.00  0.00     0.010 A 
ATOM     95  C   UNL A   1      34.520  16.655  24.343  1.00  0.00     0.001 A 
ATOM     96  C   UNL A   1      32.276  17.224  25.020  1.00  0.00     0.001 A 
ATOM     97  C   UNL A   1      33.229  16.263  24.692  1.00  0.00     0.000 A 
ENDBRANCH  89  92
BRANCH  90  98
ATOM     98  C   UNL A   1      37.179  22.368  25.618  1.00  0.00     0.021 A 
ATOM     99  C   UNL A   1      37.467  23.691  26.004  1.00  0.00     0.012 A 
ATOM    100  C   UNL A   1      38.202  21.410  25.719  1.00  0.00     0.032 A 
ATOM    101  C   UNL A   1      38.731  24.046  26.478  1.00  0.00     0.002 A 
ATOM    102  C   UNL A   1      39.469  21.772  26.173  1.00  0.00     0.041 A 
ATOM    103  C   UNL A   1      39.737  23.085  26.557  1.00  0.00     0.020 A 
ATOM    104  Cl  UNL A   1      40.718  20.591  26.251  1.00  0.00    -0.084 Cl
ENDBRANCH  90  98
ENDBRANCH  82  86
ENDBRANCH  77  80
ENDBRANCH  75  76
ENDBRANCH  74  75
ENDBRANCH  73  74
ENDBRANCH   1  73
TORSDOF 19
ENDMDL
MODEL 2
REMARK VINA RESULT:     -12.6      5.700     11.523
REMARK SMILES O=C(NCCCCCCNC(=O)[C@H]1CCCCN1c1cc(-c2ccccc2)nc(-c2cccc(Cl)c2)n1)c1ccc(-c2c3nc(c(-c4cccc(S(=O)(=O)[O-])c4F)c4ccc([nH]4)c(-c4cccc(S(=O)(=O)[O-])c4F)c4nc(c(-c5cccc(S(=O)(=O)[O-])c5F)c5ccc2[nH]5)C=C4)C=C3)cc1
REMARK SMILES IDX 6 1 5 2 4 3 3 4 1 5 2 6 38 8 39 9 100 10 40 11 99 12 41 13
REMARK SMILES IDX 42 14 43 15 93 16 44 17 98 18 92 19 94 20 45 21 97 22 91 23
REMARK SMILES IDX 90 24 46 26 78 27 58 28 77 29 59 30 62 31 76 32 95 33 60 34
REMARK SMILES IDX 61 35 75 37 96 38 63 39 47 40 48 41 56 42 49 43 51 44 57 45
REMARK SMILES IDX 50 46 52 47 53 48 54 49 55 50 79 51 80 52 88 53 81 54 83 55
REMARK SMILES IDX 89 56 82 57 84 58 85 59 86 60 87 61 64 62 65 63 73 64 66 65
REMARK SMILES IDX 68 66 74 67 67 68 69 69 70 70 71 71 72 72 7 73 8 74 9 75
REMARK SMILES IDX 10 76 11 77 12 79 13 80 14 81 18 82 15 83 17 84 16 85 19 86
REMARK SMILES IDX 20 87 37 88 21 89 29 90 28 91 22 92 23 93 27 94 24 95 26 96
REMARK SMILES IDX 25 97 30 98 31 99 36 100 32 101 34 102 33 103 35 104
REMARK H PARENT 3 7 94 25 62 36 10 78
REMARK Flexibility Score: inf
ROOT
ATOM      1  C   UNL A   1      35.603  23.349  26.049  1.00  0.00     0.002 C 
ENDROOT
BRANCH   1   2
ATOM      2  C   UNL A   1      35.958  22.227  25.074  1.00  0.00     0.021 C 
BRANCH   2   3
ATOM      3  C   UNL A   1      37.434  22.101  24.718  1.00  0.00     0.116 C 
BRANCH   3   4
ATOM      4  N   UNL A   1      38.091  20.995  25.388  1.00  0.00    -0.352 N 
ATOM      5  O   UNL A   1      39.689  19.964  26.594  1.00  0.00    -0.269 OA
ATOM      6  C   UNL A   1      39.193  21.014  26.214  1.00  0.00     0.251 C 
ATOM      7  H   UNL A   1      37.695  20.108  25.230  1.00  0.00     0.163 HD
BRANCH   6   8
ATOM      8  C   UNL A   1      39.791  22.314  26.602  1.00  0.00     0.039 A 
ATOM      9  C   UNL A   1      39.220  23.520  26.187  1.00  0.00     0.014 A 
ATOM     10  C   UNL A   1      40.946  22.318  27.388  1.00  0.00     0.014 A 
ATOM     11  C   UNL A   1      39.880  24.720  26.436  1.00  0.00     0.010 A 
ATOM     12  C   UNL A   1      41.564  23.532  27.706  1.00  0.00     0.010 A 
ATOM     13  C   UNL A   1      41.056  24.740  27.204  1.00  0.00    -0.014 A 
BRANCH  13  14
ATOM     14  C   UNL A   1      41.701  26.040  27.523  1.00  0.00     0.031 A 
ATOM     15  C   UNL A   1      43.069  26.384  26.999  1.00  0.00     0.074 A 
ATOM     16  C   UNL A   1      41.040  26.913  28.306  1.00  0.00     0.049 A 
ATOM     17  N   UNL A   1      43.757  27.485  27.161  1.00  0.00    -0.248 NA
ATOM     18  C   UNL A   1      43.757  25.362  26.196  1.00  0.00     0.031 C 
ATOM     19  C   UNL A   1      39.729  26.671  28.911  1.00  0.00     0.029 A 
ATOM     20  N   UNL A   1      41.373  28.174  28.730  1.00  0.00    -0.354 N 
ATOM     21  C   UNL A   1      44.973  27.275  26.523  1.00  0.00     0.074 A 
ATOM     22  C   UNL A   1      44.932  25.937  25.972  1.00  0.00     0.031 C 
ATOM     23  C   UNL A   1      39.355  27.757  29.603  1.00  0.00     0.029 A 
ATOM     24  C   UNL A   1      40.417  28.753  29.530  1.00  0.00     0.049 A 
ATOM     25  H   UNL A   1      42.216  28.620  28.484  1.00  0.00     0.167 HD
ATOM     26  C   UNL A   1      46.021  28.125  26.393  1.00  0.00     0.034 A 
ATOM     27  C   UNL A   1      40.398  29.951  30.145  1.00  0.00     0.034 A 
ATOM     28  C   UNL A   1      46.041  29.469  26.909  1.00  0.00     0.049 A 
ATOM     29  C   UNL A   1      41.559  30.884  29.958  1.00  0.00     0.074 A 
ATOM     30  C   UNL A   1      47.024  30.433  26.767  1.00  0.00     0.029 A 
ATOM     31  N   UNL A   1      45.035  30.038  27.677  1.00  0.00    -0.354 N 
ATOM     32  N   UNL A   1      42.640  30.719  29.235  1.00  0.00    -0.248 NA
ATOM     33  C   UNL A   1      41.485  32.179  30.647  1.00  0.00     0.031 C 
ATOM     34  C   UNL A   1      46.620  31.578  27.462  1.00  0.00     0.029 A 
ATOM     35  C   UNL A   1      45.377  31.336  28.023  1.00  0.00     0.049 A 
ATOM     36  H   UNL A   1      44.200  29.587  27.938  1.00  0.00     0.167 HD
ATOM     37  C   UNL A   1      43.364  31.897  29.360  1.00  0.00     0.074 A 
ATOM     38  C   UNL A   1      42.585  32.778  30.209  1.00  0.00     0.031 C 
ATOM     39  C   UNL A   1      44.571  32.217  28.829  1.00  0.00     0.034 A 
BRANCH  26  40
ATOM     40  C   UNL A   1      47.226  27.640  25.627  1.00  0.00     0.023 A 
ATOM     41  C   UNL A   1      48.205  26.868  26.286  1.00  0.00     0.012 A 
ATOM     42  C   UNL A   1      47.366  27.901  24.250  1.00  0.00     0.148 A 
ATOM     43  C   UNL A   1      49.321  26.394  25.596  1.00  0.00     0.002 A 
ATOM     44  C   UNL A   1      48.461  27.392  23.559  1.00  0.00     0.091 A 
ATOM     45  F   UNL A   1      46.441  28.656  23.642  1.00  0.00    -0.205 F 
ATOM     46  C   UNL A   1      49.444  26.647  24.232  1.00  0.00     0.022 A 
BRANCH  44  47
ATOM     47  S   UNL A   1      48.663  27.606  21.787  1.00  0.00     0.127 S 
ATOM     48  O   UNL A   1      49.566  28.755  21.729  1.00  0.00    -0.237 OA
ATOM     49  O   UNL A   1      49.269  26.337  21.383  1.00  0.00    -0.237 OA
ATOM     50  O   UNL A   1      47.322  27.827  21.262  1.00  0.00    -0.744 OA
ENDBRANCH  44  47
ENDBRANCH  26  40
BRANCH  27  51
ATOM     51  C   UNL A   1      39.197  30.351  30.931  1.00  0.00     0.023 A 
ATOM     52  C   UNL A   1      38.991  29.790  32.205  1.00  0.00     0.012 A 
ATOM     53  C   UNL A   1      38.305  31.334  30.456  1.00  0.00     0.148 A 
ATOM     54  C   UNL A   1      37.908  30.189  32.988  1.00  0.00     0.002 A 
ATOM     55  C   UNL A   1      37.262  31.767  31.266  1.00  0.00     0.091 A 
ATOM     56  F   UNL A   1      38.515  31.845  29.235  1.00  0.00    -0.205 F 
ATOM     57  C   UNL A   1      37.053  31.186  32.525  1.00  0.00     0.022 A 
BRANCH  55  58
ATOM     58  S   UNL A   1      36.201  33.143  30.812  1.00  0.00     0.127 S 
ATOM     59  O   UNL A   1      36.639  33.421  29.446  1.00  0.00    -0.237 OA
ATOM     60  O   UNL A   1      34.870  32.546  30.922  1.00  0.00    -0.237 OA
ATOM     61  O   UNL A   1      36.472  34.188  31.789  1.00  0.00    -0.744 OA
ENDBRANCH  55  58
ENDBRANCH  27  51
BRANCH  39  62
ATOM     62  C   UNL A   1      45.117  33.587  29.129  1.00  0.00     0.023 A 
ATOM     63  C   UNL A   1      45.886  33.792  30.293  1.00  0.00     0.012 A 
ATOM     64  C   UNL A   1      44.924  34.653  28.229  1.00  0.00     0.148 A 
ATOM     65  C   UNL A   1      46.428  35.047  30.570  1.00  0.00     0.002 A 
ATOM     66  C   UNL A   1      45.506  35.888  28.491  1.00  0.00     0.091 A 
ATOM     67  F   UNL A   1      44.170  34.444  27.141  1.00  0.00    -0.205 F 
ATOM     68  C   UNL A   1      46.248  36.090  29.665  1.00  0.00     0.022 A 
BRANCH  66  69
ATOM     69  S   UNL A   1      45.400  37.258  27.332  1.00  0.00     0.127 S 
ATOM     70  O   UNL A   1      46.267  36.800  26.249  1.00  0.00    -0.237 OA
ATOM     71  O   UNL A   1      43.974  37.283  27.004  1.00  0.00    -0.237 OA
ATOM     72  O   UNL A   1      45.868  38.430  28.061  1.00  0.00    -0.744 OA
ENDBRANCH  66  69
ENDBRANCH  39  62
ENDBRANCH  13  14
ENDBRANCH   6   8
ENDBRANCH   3   4
ENDBRANCH   2   3
ENDBRANCH   1   2
BRANCH   1  73
ATOM     73  C   UNL A   1      34.803  22.936  27.285  1.00  0.00     0.002 C 
BRANCH  73  74
ATOM     74  C   UNL A   1      34.042  21.607  27.199  1.00  0.00     0.021 C 
BRANCH  74  75
ATOM     75  C   UNL A   1      32.807  21.586  26.305  1.00  0.00     0.116 C 
BRANCH  75  76
ATOM     76  N   UNL A   1      31.739  22.403  26.825  1.00  0.00    -0.354 N 
ATOM     77  C   UNL A   1      31.345  23.668  26.525  1.00  0.00     0.242 C 
ATOM     78  H   UNL A   1      31.197  21.967  27.521  1.00  0.00     0.163 HD
ATOM     79  O   UNL A   1      30.417  24.096  27.227  1.00  0.00    -0.273 OA
BRANCH  77  80
ATOM     80  C   UNL A   1      32.030  24.560  25.430  1.00  0.00     0.173 C 
ATOM     81  C   UNL A   1      32.675  23.869  24.223  1.00  0.00     0.035 C 
ATOM     82  N   UNL A   1      30.995  25.463  24.882  1.00  0.00    -0.344 N 
ATOM     83  C   UNL A   1      31.641  23.133  23.374  1.00  0.00     0.004 C 
ATOM     84  C   UNL A   1      29.929  24.871  24.082  1.00  0.00     0.119 C 
ATOM     85  C   UNL A   1      30.537  24.087  22.918  1.00  0.00     0.022 C 
BRANCH  82  86
ATOM     86  C   UNL A   1      31.176  26.821  24.952  1.00  0.00     0.133 A 
ATOM     87  C   UNL A   1      32.161  27.354  25.757  1.00  0.00     0.076 A 
ATOM     88  N   UNL A   1      30.394  27.609  24.201  1.00  0.00    -0.211 NA
ATOM     89  C   UNL A   1      32.323  28.726  25.749  1.00  0.00     0.076 A 
ATOM     90  C   UNL A   1      30.597  28.936  24.276  1.00  0.00     0.162 A 
ATOM     91  N   UNL A   1      31.538  29.540  25.019  1.00  0.00    -0.228 NA
BRANCH  89  92
ATOM     92  C   UNL A   1      33.380  29.377  26.531  1.00  0.00     0.000 A 
ATOM     93  C   UNL A   1      33.241  30.708  26.957  1.00  0.00     0.010 A 
ATOM     94  C   UNL A   1      34.552  28.687  26.883  1.00  0.00     0.010 A 
ATOM     95  C   UNL A   1      34.233  31.323  27.727  1.00  0.00     0.001 A 
ATOM     96  C   UNL A   1      35.549  29.304  27.642  1.00  0.00     0.001 A 
ATOM     97  C   UNL A   1      35.386  30.619  28.069  1.00  0.00     0.000 A 
ENDBRANCH  89  92
BRANCH  90  98
ATOM     98  C   UNL A   1      29.714  29.787  23.476  1.00  0.00     0.021 A 
ATOM     99  C   UNL A   1      28.908  29.237  22.461  1.00  0.00     0.012 A 
ATOM    100  C   UNL A   1      29.662  31.174  23.687  1.00  0.00     0.032 A 
ATOM    101  C   UNL A   1      28.074  30.045  21.685  1.00  0.00     0.002 A 
ATOM    102  C   UNL A   1      28.842  31.980  22.897  1.00  0.00     0.041 A 
ATOM    103  C   UNL A   1      28.045  31.421  21.900  1.00  0.00     0.020 A 
ATOM    104  Cl  UNL A   1      28.823  33.682  23.148  1.00  0.00    -0.084 Cl
ENDBRANCH  90  98
ENDBRANCH  82  86
ENDBRANCH  77  80
ENDBRANCH  75  76
ENDBRANCH  74  75
ENDBRANCH  73  74
ENDBRANCH   1  73
TORSDOF 19
ENDMDL
MODEL 3
REMARK VINA RESULT:     -12.5      1.013      7.269
REMARK SMILES O=C(NCCCCCCNC(=O)[C@H]1CCCCN1c1cc(-c2ccccc2)nc(-c2cccc(Cl)c2)n1)c1ccc(-c2c3nc(c(-c4cccc(S(=O)(=O)[O-])c4F)c4ccc([nH]4)c(-c4cccc(S(=O)(=O)[O-])c4F)c4nc(c(-c5cccc(S(=O)(=O)[O-])c5F)c5ccc2[nH]5)C=C4)C=C3)cc1
REMARK SMILES IDX 6 1 5 2 4 3 3 4 1 5 2 6 38 8 39 9 100 10 40 11 99 12 41 13
REMARK SMILES IDX 42 14 43 15 93 16 44 17 98 18 92 19 94 20 45 21 97 22 91 23
REMARK SMILES IDX 90 24 46 26 78 27 58 28 77 29 59 30 62 31 76 32 95 33 60 34
REMARK SMILES IDX 61 35 75 37 96 38 63 39 47 40 48 41 56 42 49 43 51 44 57 45
REMARK SMILES IDX 50 46 52 47 53 48 54 49 55 50 79 51 80 52 88 53 81 54 83 55
REMARK SMILES IDX 89 56 82 57 84 58 85 59 86 60 87 61 64 62 65 63 73 64 66 65
REMARK SMILES IDX 68 66 74 67 67 68 69 69 70 70 71 71 72 72 7 73 8 74 9 75
REMARK SMILES IDX 10 76 11 77 12 79 13 80 14 81 18 82 15 83 17 84 16 85 19 86
REMARK SMILES IDX 20 87 37 88 21 89 29 90 28 91 22 92 23 93 27 94 24 95 26 96
REMARK SMILES IDX 25 97 30 98 31 99 36 100 32 101 34 102 33 103 35 104
REMARK H PARENT 3 7 94 25 62 36 10 78
REMARK Flexibility Score: inf
ROOT
ATOM      1  C   UNL A   1      31.565  30.517  25.988  1.00  0.00     0.002 C 
ENDROOT
BRANCH   1   2
ATOM      2  C   UNL A   1      31.707  31.540  27.115  1.00  0.00     0.021 C 
BRANCH   2   3
ATOM      3  C   UNL A   1      33.023  32.305  27.153  1.00  0.00     0.116 C 
BRANCH   3   4
ATOM      4  N   UNL A   1      32.872  33.682  27.583  1.00  0.00    -0.352 N 
ATOM      5  O   UNL A   1      33.212  35.491  28.881  1.00  0.00    -0.269 OA
ATOM      6  C   UNL A   1      33.557  34.362  28.566  1.00  0.00     0.251 C 
ATOM      7  H   UNL A   1      32.186  34.202  27.107  1.00  0.00     0.163 HD
BRANCH   6   8
ATOM      8  C   UNL A   1      34.686  33.698  29.262  1.00  0.00     0.039 A 
ATOM      9  C   UNL A   1      34.471  32.584  30.079  1.00  0.00     0.014 A 
ATOM     10  C   UNL A   1      35.976  34.207  29.095  1.00  0.00     0.014 A 
ATOM     11  C   UNL A   1      35.519  32.071  30.837  1.00  0.00     0.010 A 
ATOM     12  C   UNL A   1      37.043  33.638  29.797  1.00  0.00     0.010 A 
ATOM     13  C   UNL A   1      36.818  32.588  30.700  1.00  0.00    -0.014 A 
BRANCH  13  14
ATOM     14  C   UNL A   1      37.936  31.974  31.462  1.00  0.00     0.031 A 
ATOM     15  C   UNL A   1      38.818  30.924  30.845  1.00  0.00     0.074 A 
ATOM     16  C   UNL A   1      38.144  32.369  32.733  1.00  0.00     0.049 A 
ATOM     17  N   UNL A   1      39.851  30.311  31.365  1.00  0.00    -0.248 NA
ATOM     18  C   UNL A   1      38.500  30.499  29.474  1.00  0.00     0.031 C 
ATOM     19  C   UNL A   1      37.325  33.346  33.453  1.00  0.00     0.029 A 
ATOM     20  N   UNL A   1      39.101  32.002  33.644  1.00  0.00    -0.354 N 
ATOM     21  C   UNL A   1      40.279  29.399  30.407  1.00  0.00     0.074 A 
ATOM     22  C   UNL A   1      39.390  29.535  29.274  1.00  0.00     0.031 C 
ATOM     23  C   UNL A   1      37.829  33.523  34.682  1.00  0.00     0.029 A 
ATOM     24  C   UNL A   1      38.978  32.642  34.855  1.00  0.00     0.049 A 
ATOM     25  H   UNL A   1      39.808  31.345  33.449  1.00  0.00     0.167 HD
ATOM     26  C   UNL A   1      41.326  28.540  30.461  1.00  0.00     0.034 A 
ATOM     27  C   UNL A   1      39.703  32.528  35.983  1.00  0.00     0.034 A 
ATOM     28  C   UNL A   1      42.231  28.438  31.576  1.00  0.00     0.049 A 
ATOM     29  C   UNL A   1      40.876  31.591  36.004  1.00  0.00     0.074 A 
ATOM     30  C   UNL A   1      43.365  27.652  31.697  1.00  0.00     0.029 A 
ATOM     31  N   UNL A   1      42.102  29.135  32.769  1.00  0.00    -0.354 N 
ATOM     32  N   UNL A   1      41.346  30.840  35.038  1.00  0.00    -0.248 NA
ATOM     33  C   UNL A   1      41.636  31.508  37.259  1.00  0.00     0.031 C 
ATOM     34  C   UNL A   1      43.910  27.862  32.969  1.00  0.00     0.029 A 
ATOM     35  C   UNL A   1      43.128  28.791  33.635  1.00  0.00     0.049 A 
ATOM     36  H   UNL A   1      41.386  29.779  32.971  1.00  0.00     0.167 HD
ATOM     37  C   UNL A   1      42.472  30.214  35.558  1.00  0.00     0.074 A 
ATOM     38  C   UNL A   1      42.626  30.694  36.917  1.00  0.00     0.031 C 
ATOM     39  C   UNL A   1      43.296  29.313  34.967  1.00  0.00     0.034 A 
BRANCH  26  40
ATOM     40  C   UNL A   1      41.577  27.665  29.259  1.00  0.00     0.023 A 
ATOM     41  C   UNL A   1      41.163  26.318  29.281  1.00  0.00     0.012 A 
ATOM     42  C   UNL A   1      42.173  28.184  28.093  1.00  0.00     0.148 A 
ATOM     43  C   UNL A   1      41.368  25.491  28.176  1.00  0.00     0.002 A 
ATOM     44  C   UNL A   1      42.339  27.364  26.981  1.00  0.00     0.091 A 
ATOM     45  F   UNL A   1      42.583  29.459  28.094  1.00  0.00    -0.205 F 
ATOM     46  C   UNL A   1      41.947  26.016  27.024  1.00  0.00     0.022 A 
BRANCH  44  47
ATOM     47  S   UNL A   1      43.007  27.977  25.429  1.00  0.00     0.127 S 
ATOM     48  O   UNL A   1      44.336  28.430  25.839  1.00  0.00    -0.237 OA
ATOM     49  O   UNL A   1      43.007  26.777  24.592  1.00  0.00    -0.237 OA
ATOM     50  O   UNL A   1      42.090  29.019  24.989  1.00  0.00    -0.744 OA
ENDBRANCH  44  47
ENDBRANCH  26  40
BRANCH  27  51
ATOM     51  C   UNL A   1      39.372  33.386  37.155  1.00  0.00     0.023 A 
ATOM     52  C   UNL A   1      38.447  32.921  38.109  1.00  0.00     0.012 A 
ATOM     53  C   UNL A   1      40.022  34.619  37.368  1.00  0.00     0.148 A 
ATOM     54  C   UNL A   1      38.162  33.675  39.246  1.00  0.00     0.002 A 
ATOM     55  C   UNL A   1      39.775  35.337  38.531  1.00  0.00     0.091 A 
ATOM     56  F   UNL A   1      40.890  35.047  36.441  1.00  0.00    -0.205 F 
ATOM     57  C   UNL A   1      38.835  34.875  39.465  1.00  0.00     0.022 A 
BRANCH  55  58
ATOM     58  S   UNL A   1      40.699  36.816  38.963  1.00  0.00     0.127 S 
ATOM     59  O   UNL A   1      39.666  37.846  38.886  1.00  0.00    -0.237 OA
ATOM     60  O   UNL A   1      41.156  36.501  40.316  1.00  0.00    -0.237 OA
ATOM     61  O   UNL A   1      41.766  36.914  37.977  1.00  0.00    -0.744 OA
ENDBRANCH  55  58
ENDBRANCH  27  51
BRANCH  39  62
ATOM     62  C   UNL A   1      44.457  28.802  35.777  1.00  0.00     0.023 A 
ATOM     63  C   UNL A   1      45.715  29.429  35.667  1.00  0.00     0.012 A 
ATOM     64  C   UNL A   1      44.288  27.745  36.692  1.00  0.00     0.148 A 
ATOM     65  C   UNL A   1      46.794  28.990  36.433  1.00  0.00     0.002 A 
ATOM     66  C   UNL A   1      45.357  27.343  37.485  1.00  0.00     0.091 A 
ATOM     67  F   UNL A   1      43.091  27.146  36.765  1.00  0.00    -0.205 F 
ATOM     68  C   UNL A   1      46.612  27.957  37.350  1.00  0.00     0.022 A 
BRANCH  66  69
ATOM     69  S   UNL A   1      45.184  26.084  38.755  1.00  0.00     0.127 S 
ATOM     70  O   UNL A   1      46.570  25.888  39.173  1.00  0.00    -0.237 OA
ATOM     71  O   UNL A   1      44.335  26.749  39.745  1.00  0.00    -0.237 OA
ATOM     72  O   UNL A   1      44.557  24.943  38.098  1.00  0.00    -0.744 OA
ENDBRANCH  66  69
ENDBRANCH  39  62
ENDBRANCH  13  14
ENDBRANCH   6   8
ENDBRANCH   3   4
ENDBRANCH   2   3
ENDBRANCH   1   2
BRANCH   1  73
ATOM     73  C   UNL A   1      32.814  29.693  25.667  1.00  0.00     0.002 C 
BRANCH  73  74
ATOM     74  C   UNL A   1      32.812  28.932  24.336  1.00  0.00     0.021 C 
BRANCH  74  75
ATOM     75  C   UNL A   1      34.060  28.116  24.016  1.00  0.00     0.116 C 
BRANCH  75  76
ATOM     76  N   UNL A   1      33.857  27.215  22.908  1.00  0.00    -0.354 N 
ATOM     77  C   UNL A   1      33.511  25.903  22.867  1.00  0.00     0.242 C 
ATOM     78  H   UNL A   1      33.993  27.625  22.024  1.00  0.00     0.163 HD
ATOM     79  O   UNL A   1      33.495  25.412  21.729  1.00  0.00    -0.273 OA
BRANCH  77  80
ATOM     80  C   UNL A   1      33.213  25.037  24.142  1.00  0.00     0.173 C 
ATOM     81  C   UNL A   1      31.990  25.392  24.997  1.00  0.00     0.035 C 
ATOM     82  N   UNL A   1      33.010  23.642  23.694  1.00  0.00    -0.344 N 
ATOM     83  C   UNL A   1      30.687  25.206  24.224  1.00  0.00     0.004 C 
ATOM     84  C   UNL A   1      31.815  23.345  22.912  1.00  0.00     0.119 C 
ATOM     85  C   UNL A   1      30.572  23.777  23.693  1.00  0.00     0.022 C 
BRANCH  82  86
ATOM     86  C   UNL A   1      33.812  22.647  24.194  1.00  0.00     0.133 A 
ATOM     87  C   UNL A   1      33.373  21.340  24.210  1.00  0.00     0.076 A 
ATOM     88  N   UNL A   1      35.033  22.974  24.637  1.00  0.00    -0.211 NA
ATOM     89  C   UNL A   1      34.244  20.377  24.683  1.00  0.00     0.076 A 
ATOM     90  C   UNL A   1      35.805  21.981  25.111  1.00  0.00     0.162 A 
ATOM     91  N   UNL A   1      35.468  20.682  25.153  1.00  0.00    -0.228 NA
BRANCH  89  92
ATOM     92  C   UNL A   1      33.886  18.955  24.688  1.00  0.00     0.000 A 
ATOM     93  C   UNL A   1      32.634  18.531  25.164  1.00  0.00     0.010 A 
ATOM     94  C   UNL A   1      34.778  17.981  24.208  1.00  0.00     0.010 A 
ATOM     95  C   UNL A   1      32.278  17.179  25.142  1.00  0.00     0.001 A 
ATOM     96  C   UNL A   1      34.428  16.628  24.197  1.00  0.00     0.001 A 
ATOM     97  C   UNL A   1      33.176  16.229  24.659  1.00  0.00     0.000 A 
ENDBRANCH  89  92
BRANCH  90  98
ATOM     98  C   UNL A   1      37.125  22.356  25.623  1.00  0.00     0.021 A 
ATOM     99  C   UNL A   1      37.393  23.676  26.030  1.00  0.00     0.012 A 
ATOM    100  C   UNL A   1      38.163  21.414  25.704  1.00  0.00     0.032 A 
ATOM    101  C   UNL A   1      38.653  24.044  26.507  1.00  0.00     0.002 A 
ATOM    102  C   UNL A   1      39.426  21.788  26.162  1.00  0.00     0.041 A 
ATOM    103  C   UNL A   1      39.674  23.098  26.567  1.00  0.00     0.020 A 
ATOM    104  Cl  UNL A   1      40.694  20.626  26.217  1.00  0.00    -0.084 Cl
ENDBRANCH  90  98
ENDBRANCH  82  86
ENDBRANCH  77  80
ENDBRANCH  75  76
ENDBRANCH  74  75
ENDBRANCH  73  74
ENDBRANCH   1  73
TORSDOF 19
ENDMDL
