MODEL 1
REMARK VINA RESULT:     -12.4      0.000      0.000
REMARK SMILES O=C(NCCCCCCNC(=O)[C@H]1CCCCN1C(=O)c1cn2ccccc2n1)c1ccc(-c2c3nc(c(-c4cccc(S(=O)(=O)[O-])c4F)c4ccc([nH]4)c(-c4cccc(S(=O)(=O)[O-])c4F)c4nc(c(-c5cccc(S(=O)(=O)[O-])c5F)c5ccc2[nH]5)C=C4)C=C3)cc1
REMARK SMILES IDX 6 1 5 2 4 3 3 4 1 5 2 6 30 8 31 9 92 10 32 11 91 12 33 13
REMARK SMILES IDX 34 14 35 15 85 16 36 17 90 18 84 19 86 20 37 21 89 22 83 23
REMARK SMILES IDX 82 24 38 26 70 27 50 28 69 29 51 30 54 31 68 32 87 33 52 34
REMARK SMILES IDX 53 35 67 37 88 38 55 39 39 40 40 41 48 42 41 43 43 44 49 45
REMARK SMILES IDX 42 46 44 47 45 48 46 49 47 50 71 51 72 52 80 53 73 54 75 55
REMARK SMILES IDX 81 56 74 57 76 58 77 59 78 60 79 61 56 62 57 63 65 64 58 65
REMARK SMILES IDX 60 66 66 67 59 68 61 69 62 70 63 71 64 72 7 73 8 74 9 75
REMARK SMILES IDX 10 76 11 77 12 79 13 80 14 81 18 82 15 83 17 84 16 85 19 86
REMARK SMILES IDX 20 87 21 88 22 89 29 90 23 91 28 92 24 93 27 94 25 95 26 96
REMARK H PARENT 3 7 86 25 54 36 10 78
REMARK Flexibility Score: inf
ROOT
ATOM      1  C   UNL A   1      34.375  22.168  24.024  1.00  0.00     0.002 C 
ENDROOT
BRANCH   1   2
ATOM      2  C   UNL A   1      34.921  21.574  25.321  1.00  0.00     0.021 C 
BRANCH   2   3
ATOM      3  C   UNL A   1      36.309  22.039  25.741  1.00  0.00     0.116 C 
BRANCH   3   4
ATOM      4  N   UNL A   1      37.320  21.003  25.644  1.00  0.00    -0.352 N 
ATOM      5  O   UNL A   1      39.387  20.109  25.653  1.00  0.00    -0.269 OA
ATOM      6  C   UNL A   1      38.670  21.074  25.898  1.00  0.00     0.251 C 
ATOM      7  H   UNL A   1      36.993  20.121  25.354  1.00  0.00     0.163 HD
BRANCH   6   8
ATOM      8  C   UNL A   1      39.257  22.328  26.425  1.00  0.00     0.039 A 
ATOM      9  C   UNL A   1      38.765  23.573  26.029  1.00  0.00     0.014 A 
ATOM     10  C   UNL A   1      40.335  22.254  27.312  1.00  0.00     0.014 A 
ATOM     11  C   UNL A   1      39.454  24.730  26.375  1.00  0.00     0.010 A 
ATOM     12  C   UNL A   1      40.965  23.427  27.739  1.00  0.00     0.010 A 
ATOM     13  C   UNL A   1      40.561  24.674  27.239  1.00  0.00    -0.014 A 
BRANCH  13  14
ATOM     14  C   UNL A   1      41.243  25.936  27.631  1.00  0.00     0.031 A 
ATOM     15  C   UNL A   1      42.654  26.233  27.201  1.00  0.00     0.074 A 
ATOM     16  C   UNL A   1      40.563  26.831  28.375  1.00  0.00     0.049 A 
ATOM     17  N   UNL A   1      43.367  27.312  27.410  1.00  0.00    -0.248 NA
ATOM     18  C   UNL A   1      43.366  25.188  26.449  1.00  0.00     0.031 C 
ATOM     19  C   UNL A   1      39.206  26.638  28.894  1.00  0.00     0.029 A 
ATOM     20  N   UNL A   1      40.911  28.082  28.819  1.00  0.00    -0.354 N 
ATOM     21  C   UNL A   1      44.620  27.059  26.863  1.00  0.00     0.074 A 
ATOM     22  C   UNL A   1      44.574  25.721  26.313  1.00  0.00     0.031 C 
ATOM     23  C   UNL A   1      38.822  27.742  29.548  1.00  0.00     0.029 A 
ATOM     24  C   UNL A   1      39.919  28.703  29.543  1.00  0.00     0.049 A 
ATOM     25  H   UNL A   1      41.785  28.497  28.636  1.00  0.00     0.167 HD
ATOM     26  C   UNL A   1      45.704  27.871  26.811  1.00  0.00     0.034 A 
ATOM     27  C   UNL A   1      39.895  29.907  30.144  1.00  0.00     0.034 A 
ATOM     28  C   UNL A   1      45.730  29.218  27.321  1.00  0.00     0.049 A 
ATOM     29  C   UNL A   1      41.097  30.799  30.034  1.00  0.00     0.074 A 
ATOM     30  C   UNL A   1      46.754  30.146  27.245  1.00  0.00     0.029 A 
ATOM     31  N   UNL A   1      44.692  29.826  28.010  1.00  0.00    -0.354 N 
ATOM     32  N   UNL A   1      42.220  30.592  29.391  1.00  0.00    -0.248 NA
ATOM     33  C   UNL A   1      41.018  32.103  30.707  1.00  0.00     0.031 C 
ATOM     34  C   UNL A   1      46.344  31.306  27.911  1.00  0.00     0.029 A 
ATOM     35  C   UNL A   1      45.054  31.112  28.375  1.00  0.00     0.049 A 
ATOM     36  H   UNL A   1      43.824  29.405  28.209  1.00  0.00     0.167 HD
ATOM     37  C   UNL A   1      42.968  31.752  29.553  1.00  0.00     0.074 A 
ATOM     38  C   UNL A   1      42.158  32.666  30.334  1.00  0.00     0.031 C 
ATOM     39  C   UNL A   1      44.218  32.029  29.108  1.00  0.00     0.034 A 
BRANCH  26  40
ATOM     40  C   UNL A   1      46.953  27.341  26.151  1.00  0.00     0.023 A 
ATOM     41  C   UNL A   1      47.146  27.525  24.767  1.00  0.00     0.012 A 
ATOM     42  C   UNL A   1      47.966  26.726  26.913  1.00  0.00     0.148 A 
ATOM     43  C   UNL A   1      48.313  27.077  24.146  1.00  0.00     0.002 A 
ATOM     44  C   UNL A   1      49.144  26.320  26.294  1.00  0.00     0.091 A 
ATOM     45  F   UNL A   1      47.759  26.542  28.225  1.00  0.00    -0.205 F 
ATOM     46  C   UNL A   1      49.313  26.485  24.910  1.00  0.00     0.022 A 
BRANCH  44  47
ATOM     47  S   UNL A   1      50.525  25.620  27.207  1.00  0.00     0.127 S 
ATOM     48  O   UNL A   1      50.697  26.600  28.278  1.00  0.00    -0.237 OA
ATOM     49  O   UNL A   1      49.986  24.331  27.642  1.00  0.00    -0.237 OA
ATOM     50  O   UNL A   1      51.625  25.526  26.258  1.00  0.00    -0.744 OA
ENDBRANCH  44  47
ENDBRANCH  26  40
BRANCH  27  51
ATOM     51  C   UNL A   1      38.663  30.356  30.851  1.00  0.00     0.023 A 
ATOM     52  C   UNL A   1      38.534  30.124  32.234  1.00  0.00     0.012 A 
ATOM     53  C   UNL A   1      37.640  31.047  30.173  1.00  0.00     0.148 A 
ATOM     54  C   UNL A   1      37.399  30.548  32.924  1.00  0.00     0.002 A 
ATOM     55  C   UNL A   1      36.540  31.520  30.876  1.00  0.00     0.091 A 
ATOM     56  F   UNL A   1      37.775  31.246  28.853  1.00  0.00    -0.205 F 
ATOM     57  C   UNL A   1      36.407  31.256  32.248  1.00  0.00     0.022 A 
BRANCH  55  58
ATOM     58  S   UNL A   1      35.290  32.560  30.115  1.00  0.00     0.127 S 
ATOM     59  O   UNL A   1      34.340  32.737  31.210  1.00  0.00    -0.237 OA
ATOM     60  O   UNL A   1      36.061  33.755  29.768  1.00  0.00    -0.237 OA
ATOM     61  O   UNL A   1      34.803  31.809  28.966  1.00  0.00    -0.744 OA
ENDBRANCH  55  58
ENDBRANCH  27  51
BRANCH  39  62
ATOM     62  C   UNL A   1      44.777  33.394  29.418  1.00  0.00     0.023 A 
ATOM     63  C   UNL A   1      45.426  33.625  30.648  1.00  0.00     0.012 A 
ATOM     64  C   UNL A   1      44.703  34.432  28.469  1.00  0.00     0.148 A 
ATOM     65  C   UNL A   1      45.958  34.880  30.943  1.00  0.00     0.002 A 
ATOM     66  C   UNL A   1      45.280  35.665  28.750  1.00  0.00     0.091 A 
ATOM     67  F   UNL A   1      44.062  34.200  27.315  1.00  0.00    -0.205 F 
ATOM     68  C   UNL A   1      45.895  35.895  29.990  1.00  0.00     0.022 A 
BRANCH  66  69
ATOM     69  S   UNL A   1      45.330  36.993  27.542  1.00  0.00     0.127 S 
ATOM     70  O   UNL A   1      45.983  38.060  28.298  1.00  0.00    -0.237 OA
ATOM     71  O   UNL A   1      46.147  36.414  26.475  1.00  0.00    -0.237 OA
ATOM     72  O   UNL A   1      43.945  37.243  27.167  1.00  0.00    -0.744 OA
ENDBRANCH  66  69
ENDBRANCH  39  62
ENDBRANCH  13  14
ENDBRANCH   6   8
ENDBRANCH   3   4
ENDBRANCH   2   3
ENDBRANCH   1   2
BRANCH   1  73
ATOM     73  C   UNL A   1      32.940  21.793  23.642  1.00  0.00     0.002 C 
BRANCH  73  74
ATOM     74  C   UNL A   1      32.095  22.880  22.972  1.00  0.00     0.021 C 
BRANCH  74  75
ATOM     75  C   UNL A   1      30.994  23.495  23.828  1.00  0.00     0.116 C 
BRANCH  75  76
ATOM     76  N   UNL A   1      31.331  23.589  25.227  1.00  0.00    -0.354 N 
ATOM     77  C   UNL A   1      31.344  24.636  26.091  1.00  0.00     0.242 C 
ATOM     78  H   UNL A   1      31.604  22.733  25.631  1.00  0.00     0.163 HD
ATOM     79  O   UNL A   1      31.459  24.315  27.284  1.00  0.00    -0.273 OA
BRANCH  77  80
ATOM     80  C   UNL A   1      31.253  26.145  25.708  1.00  0.00     0.174 C 
ATOM     81  C   UNL A   1      31.241  27.302  26.713  1.00  0.00     0.035 C 
ATOM     82  N   UNL A   1      32.311  26.442  24.721  1.00  0.00    -0.325 N 
ATOM     83  C   UNL A   1      32.616  27.632  27.307  1.00  0.00     0.004 C 
ATOM     84  C   UNL A   1      33.655  26.542  25.288  1.00  0.00     0.121 C 
ATOM     85  C   UNL A   1      33.706  27.732  26.241  1.00  0.00     0.022 C 
BRANCH  82  86
ATOM     86  C   UNL A   1      31.929  26.899  23.454  1.00  0.00     0.274 C 
ATOM     87  O   UNL A   1      32.382  26.416  22.419  1.00  0.00    -0.267 OA
BRANCH  86  88
ATOM     88  C   UNL A   1      30.913  27.952  23.395  1.00  0.00     0.147 A 
ATOM     89  C   UNL A   1      31.066  29.281  23.751  1.00  0.00     0.127 A 
ATOM     90  N   UNL A   1      29.624  27.727  22.938  1.00  0.00    -0.223 NA
ATOM     91  N   UNL A   1      29.841  29.862  23.559  1.00  0.00    -0.306 N 
ATOM     92  C   UNL A   1      29.002  28.880  23.049  1.00  0.00     0.137 A 
ATOM     93  C   UNL A   1      29.432  31.169  23.814  1.00  0.00     0.093 A 
ATOM     94  C   UNL A   1      27.660  29.259  22.755  1.00  0.00     0.048 A 
ATOM     95  C   UNL A   1      28.162  31.520  23.549  1.00  0.00     0.018 A 
ATOM     96  C   UNL A   1      27.257  30.522  22.995  1.00  0.00     0.005 A 
ENDBRANCH  86  88
ENDBRANCH  82  86
ENDBRANCH  77  80
ENDBRANCH  75  76
ENDBRANCH  74  75
ENDBRANCH  73  74
ENDBRANCH   1  73
TORSDOF 18
ENDMDL
MODEL 2
REMARK VINA RESULT:     -12.1      4.721     10.357
REMARK SMILES O=C(NCCCCCCNC(=O)[C@H]1CCCCN1C(=O)c1cn2ccccc2n1)c1ccc(-c2c3nc(c(-c4cccc(S(=O)(=O)[O-])c4F)c4ccc([nH]4)c(-c4cccc(S(=O)(=O)[O-])c4F)c4nc(c(-c5cccc(S(=O)(=O)[O-])c5F)c5ccc2[nH]5)C=C4)C=C3)cc1
REMARK SMILES IDX 6 1 5 2 4 3 3 4 1 5 2 6 30 8 31 9 92 10 32 11 91 12 33 13
REMARK SMILES IDX 34 14 35 15 85 16 36 17 90 18 84 19 86 20 37 21 89 22 83 23
REMARK SMILES IDX 82 24 38 26 70 27 50 28 69 29 51 30 54 31 68 32 87 33 52 34
REMARK SMILES IDX 53 35 67 37 88 38 55 39 39 40 40 41 48 42 41 43 43 44 49 45
REMARK SMILES IDX 42 46 44 47 45 48 46 49 47 50 71 51 72 52 80 53 73 54 75 55
REMARK SMILES IDX 81 56 74 57 76 58 77 59 78 60 79 61 56 62 57 63 65 64 58 65
REMARK SMILES IDX 60 66 66 67 59 68 61 69 62 70 63 71 64 72 7 73 8 74 9 75
REMARK SMILES IDX 10 76 11 77 12 79 13 80 14 81 18 82 15 83 17 84 16 85 19 86
REMARK SMILES IDX 20 87 21 88 22 89 29 90 23 91 28 92 24 93 27 94 25 95 26 96
REMARK H PARENT 3 7 86 25 54 36 10 78
REMARK Flexibility Score: inf
ROOT
ATOM      1  C   UNL A   1      31.937  28.896  23.549  1.00  0.00     0.002 C 
ENDROOT
BRANCH   1   2
ATOM      2  C   UNL A   1      32.994  29.155  24.621  1.00  0.00     0.021 C 
BRANCH   2   3
ATOM      3  C   UNL A   1      32.474  29.398  26.032  1.00  0.00     0.116 C 
BRANCH   3   4
ATOM      4  N   UNL A   1      32.196  30.794  26.314  1.00  0.00    -0.352 N 
ATOM      5  O   UNL A   1      32.459  32.812  27.278  1.00  0.00    -0.269 OA
ATOM      6  C   UNL A   1      32.916  31.693  27.066  1.00  0.00     0.251 C 
ATOM      7  H   UNL A   1      31.373  31.150  25.907  1.00  0.00     0.163 HD
BRANCH   6   8
ATOM      8  C   UNL A   1      34.216  31.292  27.652  1.00  0.00     0.039 A 
ATOM      9  C   UNL A   1      34.479  29.959  27.972  1.00  0.00     0.014 A 
ATOM     10  C   UNL A   1      35.178  32.273  27.906  1.00  0.00     0.014 A 
ATOM     11  C   UNL A   1      35.618  29.635  28.700  1.00  0.00     0.010 A 
ATOM     12  C   UNL A   1      36.371  31.927  28.550  1.00  0.00     0.010 A 
ATOM     13  C   UNL A   1      36.582  30.614  28.996  1.00  0.00    -0.014 A 
BRANCH  13  14
ATOM     14  C   UNL A   1      37.814  30.223  29.730  1.00  0.00     0.031 A 
ATOM     15  C   UNL A   1      38.071  30.691  31.138  1.00  0.00     0.074 A 
ATOM     16  C   UNL A   1      38.704  29.418  29.116  1.00  0.00     0.049 A 
ATOM     17  N   UNL A   1      39.067  30.390  31.934  1.00  0.00    -0.248 NA
ATOM     18  C   UNL A   1      37.098  31.621  31.730  1.00  0.00     0.031 C 
ATOM     19  C   UNL A   1      38.590  28.937  27.736  1.00  0.00     0.029 A 
ATOM     20  N   UNL A   1      39.872  28.856  29.566  1.00  0.00    -0.354 N 
ATOM     21  C   UNL A   1      38.868  31.128  33.096  1.00  0.00     0.074 A 
ATOM     22  C   UNL A   1      37.657  31.895  32.902  1.00  0.00     0.031 C 
ATOM     23  C   UNL A   1      39.619  28.122  27.466  1.00  0.00     0.029 A 
ATOM     24  C   UNL A   1      40.495  28.063  28.630  1.00  0.00     0.049 A 
ATOM     25  H   UNL A   1      40.229  29.005  30.471  1.00  0.00     0.167 HD
ATOM     26  C   UNL A   1      39.618  31.153  34.226  1.00  0.00     0.034 A 
ATOM     27  C   UNL A   1      41.647  27.370  28.696  1.00  0.00     0.034 A 
ATOM     28  C   UNL A   1      40.798  30.353  34.430  1.00  0.00     0.049 A 
ATOM     29  C   UNL A   1      42.434  27.386  29.975  1.00  0.00     0.074 A 
ATOM     30  C   UNL A   1      41.581  30.250  35.567  1.00  0.00     0.029 A 
ATOM     31  N   UNL A   1      41.375  29.530  33.475  1.00  0.00    -0.354 N 
ATOM     32  N   UNL A   1      42.151  27.980  31.109  1.00  0.00    -0.248 NA
ATOM     33  C   UNL A   1      43.682  26.611  29.994  1.00  0.00     0.031 C 
ATOM     34  C   UNL A   1      42.644  29.384  35.291  1.00  0.00     0.029 A 
ATOM     35  C   UNL A   1      42.507  28.923  33.992  1.00  0.00     0.049 A 
ATOM     36  H   UNL A   1      41.028  29.395  32.563  1.00  0.00     0.167 HD
ATOM     37  C   UNL A   1      43.168  27.625  31.985  1.00  0.00     0.074 A 
ATOM     38  C   UNL A   1      44.059  26.744  31.258  1.00  0.00     0.031 C 
ATOM     39  C   UNL A   1      43.356  28.007  33.273  1.00  0.00     0.034 A 
BRANCH  26  40
ATOM     40  C   UNL A   1      39.171  32.053  35.350  1.00  0.00     0.023 A 
ATOM     41  C   UNL A   1      38.239  31.581  36.297  1.00  0.00     0.012 A 
ATOM     42  C   UNL A   1      39.726  33.338  35.511  1.00  0.00     0.148 A 
ATOM     43  C   UNL A   1      37.844  32.385  37.367  1.00  0.00     0.002 A 
ATOM     44  C   UNL A   1      39.359  34.117  36.603  1.00  0.00     0.091 A 
ATOM     45  F   UNL A   1      40.597  33.779  34.591  1.00  0.00    -0.205 F 
ATOM     46  C   UNL A   1      38.410  33.646  37.525  1.00  0.00     0.022 A 
BRANCH  44  47
ATOM     47  S   UNL A   1      40.093  35.723  36.937  1.00  0.00     0.127 S 
ATOM     48  O   UNL A   1      39.635  36.501  35.787  1.00  0.00    -0.237 OA
ATOM     49  O   UNL A   1      39.467  36.091  38.208  1.00  0.00    -0.237 OA
ATOM     50  O   UNL A   1      41.529  35.499  37.013  1.00  0.00    -0.744 OA
ENDBRANCH  44  47
ENDBRANCH  26  40
BRANCH  27  51
ATOM     51  C   UNL A   1      42.088  26.554  27.530  1.00  0.00     0.023 A 
ATOM     52  C   UNL A   1      42.846  27.159  26.509  1.00  0.00     0.012 A 
ATOM     53  C   UNL A   1      41.797  25.179  27.446  1.00  0.00     0.148 A 
ATOM     54  C   UNL A   1      43.285  26.416  25.414  1.00  0.00     0.002 A 
ATOM     55  C   UNL A   1      42.288  24.431  26.384  1.00  0.00     0.091 A 
ATOM     56  F   UNL A   1      41.062  24.624  28.421  1.00  0.00    -0.205 F 
ATOM     57  C   UNL A   1      43.016  25.050  25.357  1.00  0.00     0.022 A 
BRANCH  55  58
ATOM     58  S   UNL A   1      42.111  22.646  26.305  1.00  0.00     0.127 S 
ATOM     59  O   UNL A   1      40.660  22.491  26.248  1.00  0.00    -0.237 OA
ATOM     60  O   UNL A   1      42.815  22.327  25.062  1.00  0.00    -0.237 OA
ATOM     61  O   UNL A   1      42.758  22.135  27.506  1.00  0.00    -0.744 OA
ENDBRANCH  55  58
ENDBRANCH  27  51
BRANCH  39  62
ATOM     62  C   UNL A   1      44.550  27.441  33.996  1.00  0.00     0.023 A 
ATOM     63  C   UNL A   1      45.782  28.124  33.962  1.00  0.00     0.012 A 
ATOM     64  C   UNL A   1      44.436  26.258  34.752  1.00  0.00     0.148 A 
ATOM     65  C   UNL A   1      46.893  27.617  34.636  1.00  0.00     0.002 A 
ATOM     66  C   UNL A   1      45.533  25.786  35.463  1.00  0.00     0.091 A 
ATOM     67  F   UNL A   1      43.262  25.609  34.754  1.00  0.00    -0.205 F 
ATOM     68  C   UNL A   1      46.765  26.456  35.395  1.00  0.00     0.022 A 
BRANCH  66  69
ATOM     69  S   UNL A   1      45.427  24.355  36.543  1.00  0.00     0.127 S 
ATOM     70  O   UNL A   1      44.571  24.854  37.617  1.00  0.00    -0.237 OA
ATOM     71  O   UNL A   1      44.800  23.356  35.676  1.00  0.00    -0.237 OA
ATOM     72  O   UNL A   1      46.798  24.042  36.924  1.00  0.00    -0.744 OA
ENDBRANCH  66  69
ENDBRANCH  39  62
ENDBRANCH  13  14
ENDBRANCH   6   8
ENDBRANCH   3   4
ENDBRANCH   2   3
ENDBRANCH   1   2
BRANCH   1  73
ATOM     73  C   UNL A   1      30.725  28.056  23.962  1.00  0.00     0.002 C 
BRANCH  73  74
ATOM     74  C   UNL A   1      30.780  26.559  23.647  1.00  0.00     0.021 C 
BRANCH  74  75
ATOM     75  C   UNL A   1      31.186  25.646  24.797  1.00  0.00     0.116 C 
BRANCH  75  76
ATOM     76  N   UNL A   1      32.580  25.749  25.155  1.00  0.00    -0.354 N 
ATOM     77  C   UNL A   1      33.657  24.984  24.845  1.00  0.00     0.242 C 
ATOM     78  H   UNL A   1      32.789  26.519  25.733  1.00  0.00     0.163 HD
ATOM     79  O   UNL A   1      34.751  25.498  25.130  1.00  0.00    -0.273 OA
BRANCH  77  80
ATOM     80  C   UNL A   1      33.622  23.561  24.208  1.00  0.00     0.174 C 
ATOM     81  C   UNL A   1      34.602  23.056  23.143  1.00  0.00     0.035 C 
ATOM     82  N   UNL A   1      33.614  22.562  25.295  1.00  0.00    -0.325 N 
ATOM     83  C   UNL A   1      35.983  22.675  23.691  1.00  0.00     0.004 C 
ATOM     84  C   UNL A   1      34.907  22.369  25.948  1.00  0.00     0.121 C 
ATOM     85  C   UNL A   1      35.895  21.795  24.938  1.00  0.00     0.022 C 
BRANCH  82  86
ATOM     86  C   UNL A   1      32.518  21.694  25.393  1.00  0.00     0.274 C 
ATOM     87  O   UNL A   1      31.385  22.096  25.644  1.00  0.00    -0.267 OA
BRANCH  86  88
ATOM     88  C   UNL A   1      32.757  20.274  25.128  1.00  0.00     0.147 A 
ATOM     89  C   UNL A   1      32.688  19.232  26.036  1.00  0.00     0.127 A 
ATOM     90  N   UNL A   1      33.079  19.789  23.870  1.00  0.00    -0.223 NA
ATOM     91  N   UNL A   1      33.025  18.104  25.337  1.00  0.00    -0.306 N 
ATOM     92  C   UNL A   1      33.237  18.492  24.020  1.00  0.00     0.137 A 
ATOM     93  C   UNL A   1      33.161  16.793  25.785  1.00  0.00     0.093 A 
ATOM     94  C   UNL A   1      33.592  17.473  23.091  1.00  0.00     0.048 A 
ATOM     95  C   UNL A   1      33.509  15.835  24.908  1.00  0.00     0.018 A 
ATOM     96  C   UNL A   1      33.723  16.200  23.514  1.00  0.00     0.005 A 
ENDBRANCH  86  88
ENDBRANCH  82  86
ENDBRANCH  77  80
ENDBRANCH  75  76
ENDBRANCH  74  75
ENDBRANCH  73  74
ENDBRANCH   1  73
TORSDOF 18
ENDMDL
MODEL 3
REMARK VINA RESULT:     -12.0      1.743      2.953
REMARK SMILES O=C(NCCCCCCNC(=O)[C@H]1CCCCN1C(=O)c1cn2ccccc2n1)c1ccc(-c2c3nc(c(-c4cccc(S(=O)(=O)[O-])c4F)c4ccc([nH]4)c(-c4cccc(S(=O)(=O)[O-])c4F)c4nc(c(-c5cccc(S(=O)(=O)[O-])c5F)c5ccc2[nH]5)C=C4)C=C3)cc1
REMARK SMILES IDX 6 1 5 2 4 3 3 4 1 5 2 6 30 8 31 9 92 10 32 11 91 12 33 13
REMARK SMILES IDX 34 14 35 15 85 16 36 17 90 18 84 19 86 20 37 21 89 22 83 23
REMARK SMILES IDX 82 24 38 26 70 27 50 28 69 29 51 30 54 31 68 32 87 33 52 34
REMARK SMILES IDX 53 35 67 37 88 38 55 39 39 40 40 41 48 42 41 43 43 44 49 45
REMARK SMILES IDX 42 46 44 47 45 48 46 49 47 50 71 51 72 52 80 53 73 54 75 55
REMARK SMILES IDX 81 56 74 57 76 58 77 59 78 60 79 61 56 62 57 63 65 64 58 65
REMARK SMILES IDX 60 66 66 67 59 68 61 69 62 70 63 71 64 72 7 73 8 74 9 75
REMARK SMILES IDX 10 76 11 77 12 79 13 80 14 81 18 82 15 83 17 84 16 85 19 86
REMARK SMILES IDX 20 87 21 88 22 89 29 90 23 91 28 92 24 93 27 94 25 95 26 96
REMARK H PARENT 3 7 86 25 54 36 10 78
REMARK Flexibility Score: inf
ROOT
ATOM      1  C   UNL A   1      35.095  22.956  23.355  1.00  0.00     0.002 C 
ENDROOT
BRANCH   1   2
ATOM      2  C   UNL A   1      36.495  22.959  23.966  1.00  0.00     0.021 C 
BRANCH   2   3
ATOM      3  C   UNL A   1      36.606  22.443  25.395  1.00  0.00     0.116 C 
BRANCH   3   4
ATOM      4  N   UNL A   1      37.543  21.345  25.542  1.00  0.00    -0.352 N 
ATOM      5  O   UNL A   1      39.513  20.336  25.960  1.00  0.00    -0.269 OA
ATOM      6  C   UNL A   1      38.836  21.359  26.012  1.00  0.00     0.251 C 
ATOM      7  H   UNL A   1      37.205  20.463  25.267  1.00  0.00     0.163 HD
BRANCH   6   8
ATOM      8  C   UNL A   1      39.418  22.615  26.537  1.00  0.00     0.039 A 
ATOM      9  C   UNL A   1      38.989  23.857  26.065  1.00  0.00     0.014 A 
ATOM     10  C   UNL A   1      40.428  22.546  27.500  1.00  0.00     0.014 A 
ATOM     11  C   UNL A   1      39.683  25.009  26.421  1.00  0.00     0.010 A 
ATOM     12  C   UNL A   1      41.058  23.718  27.933  1.00  0.00     0.010 A 
ATOM     13  C   UNL A   1      40.725  24.955  27.363  1.00  0.00    -0.014 A 
BRANCH  13  14
ATOM     14  C   UNL A   1      41.410  26.213  27.760  1.00  0.00     0.031 A 
ATOM     15  C   UNL A   1      42.802  26.534  27.283  1.00  0.00     0.074 A 
ATOM     16  C   UNL A   1      40.754  27.084  28.553  1.00  0.00     0.049 A 
ATOM     17  N   UNL A   1      43.513  27.614  27.492  1.00  0.00    -0.248 NA
ATOM     18  C   UNL A   1      43.492  25.515  26.478  1.00  0.00     0.031 C 
ATOM     19  C   UNL A   1      39.420  26.865  29.119  1.00  0.00     0.029 A 
ATOM     20  N   UNL A   1      41.108  28.326  29.014  1.00  0.00    -0.354 N 
ATOM     21  C   UNL A   1      44.746  27.386  26.891  1.00  0.00     0.074 A 
ATOM     22  C   UNL A   1      44.689  26.062  26.309  1.00  0.00     0.031 C 
ATOM     23  C   UNL A   1      39.052  27.949  29.815  1.00  0.00     0.029 A 
ATOM     24  C   UNL A   1      40.140  28.919  29.792  1.00  0.00     0.049 A 
ATOM     25  H   UNL A   1      41.971  28.753  28.808  1.00  0.00     0.167 HD
ATOM     26  C   UNL A   1      45.821  28.209  26.817  1.00  0.00     0.034 A 
ATOM     27  C   UNL A   1      40.129  30.107  30.424  1.00  0.00     0.034 A 
ATOM     28  C   UNL A   1      45.855  29.543  27.360  1.00  0.00     0.049 A 
ATOM     29  C   UNL A   1      41.319  31.013  30.290  1.00  0.00     0.074 A 
ATOM     30  C   UNL A   1      46.868  30.482  27.268  1.00  0.00     0.029 A 
ATOM     31  N   UNL A   1      44.840  30.124  28.104  1.00  0.00    -0.354 N 
ATOM     32  N   UNL A   1      42.418  30.833  29.599  1.00  0.00    -0.248 NA
ATOM     33  C   UNL A   1      41.255  32.299  30.998  1.00  0.00     0.031 C 
ATOM     34  C   UNL A   1      46.475  31.621  27.979  1.00  0.00     0.029 A 
ATOM     35  C   UNL A   1      45.205  31.404  28.487  1.00  0.00     0.049 A 
ATOM     36  H   UNL A   1      43.985  29.691  28.326  1.00  0.00     0.167 HD
ATOM     37  C   UNL A   1      43.162  31.995  29.761  1.00  0.00     0.074 A 
ATOM     38  C   UNL A   1      42.376  32.881  30.596  1.00  0.00     0.031 C 
ATOM     39  C   UNL A   1      44.392  32.295  29.275  1.00  0.00     0.034 A 
BRANCH  26  40
ATOM     40  C   UNL A   1      47.047  27.708  26.097  1.00  0.00     0.023 A 
ATOM     41  C   UNL A   1      48.012  26.956  26.797  1.00  0.00     0.012 A 
ATOM     42  C   UNL A   1      47.209  27.918  24.713  1.00  0.00     0.148 A 
ATOM     43  C   UNL A   1      49.134  26.450  26.139  1.00  0.00     0.002 A 
ATOM     44  C   UNL A   1      48.308  27.375  24.056  1.00  0.00     0.091 A 
ATOM     45  F   UNL A   1      46.292  28.652  24.066  1.00  0.00    -0.205 F 
ATOM     46  C   UNL A   1      49.276  26.650  24.769  1.00  0.00     0.022 A 
BRANCH  44  47
ATOM     47  S   UNL A   1      48.537  27.511  22.278  1.00  0.00     0.127 S 
ATOM     48  O   UNL A   1      49.721  28.365  22.199  1.00  0.00    -0.237 OA
ATOM     49  O   UNL A   1      48.763  26.118  21.889  1.00  0.00    -0.237 OA
ATOM     50  O   UNL A   1      47.307  28.091  21.760  1.00  0.00    -0.744 OA
ENDBRANCH  44  47
ENDBRANCH  26  40
BRANCH  27  51
ATOM     51  C   UNL A   1      38.922  30.528  31.190  1.00  0.00     0.023 A 
ATOM     52  C   UNL A   1      38.728  30.043  32.497  1.00  0.00     0.012 A 
ATOM     53  C   UNL A   1      37.991  31.434  30.648  1.00  0.00     0.148 A 
ATOM     54  C   UNL A   1      37.615  30.433  33.242  1.00  0.00     0.002 A 
ATOM     55  C   UNL A   1      36.917  31.865  31.416  1.00  0.00     0.091 A 
ATOM     56  F   UNL A   1      38.186  31.874  29.396  1.00  0.00    -0.205 F 
ATOM     57  C   UNL A   1      36.716  31.352  32.706  1.00  0.00     0.022 A 
BRANCH  55  58
ATOM     58  S   UNL A   1      35.795  33.151  30.859  1.00  0.00     0.127 S 
ATOM     59  O   UNL A   1      34.503  32.474  30.931  1.00  0.00    -0.237 OA
ATOM     60  O   UNL A   1      36.003  34.192  31.868  1.00  0.00    -0.237 OA
ATOM     61  O   UNL A   1      36.248  33.514  29.524  1.00  0.00    -0.744 OA
ENDBRANCH  55  58
ENDBRANCH  27  51
BRANCH  39  62
ATOM     62  C   UNL A   1      44.951  33.656  29.598  1.00  0.00     0.023 A 
ATOM     63  C   UNL A   1      45.698  33.848  30.777  1.00  0.00     0.012 A 
ATOM     64  C   UNL A   1      44.778  34.732  28.706  1.00  0.00     0.148 A 
ATOM     65  C   UNL A   1      46.231  35.100  31.083  1.00  0.00     0.002 A 
ATOM     66  C   UNL A   1      45.355  35.964  28.992  1.00  0.00     0.091 A 
ATOM     67  F   UNL A   1      44.045  34.538  27.601  1.00  0.00    -0.205 F 
ATOM     68  C   UNL A   1      46.070  36.154  30.186  1.00  0.00     0.022 A 
BRANCH  66  69
ATOM     69  S   UNL A   1      45.279  37.344  27.846  1.00  0.00     0.127 S 
ATOM     70  O   UNL A   1      43.838  37.564  27.738  1.00  0.00    -0.237 OA
ATOM     71  O   UNL A   1      46.004  38.391  28.568  1.00  0.00    -0.237 OA
ATOM     72  O   UNL A   1      45.939  36.888  26.629  1.00  0.00    -0.744 OA
ENDBRANCH  66  69
ENDBRANCH  39  62
ENDBRANCH  13  14
ENDBRANCH   6   8
ENDBRANCH   3   4
ENDBRANCH   2   3
ENDBRANCH   1   2
BRANCH   1  73
ATOM     73  C   UNL A   1      34.032  22.115  24.068  1.00  0.00     0.002 C 
BRANCH  73  74
ATOM     74  C   UNL A   1      32.574  22.367  23.677  1.00  0.00     0.021 C 
BRANCH  74  75
ATOM     75  C   UNL A   1      32.058  23.785  23.892  1.00  0.00     0.116 C 
BRANCH  75  76
ATOM     76  N   UNL A   1      31.669  24.451  22.673  1.00  0.00    -0.354 N 
ATOM     77  C   UNL A   1      31.701  25.756  22.300  1.00  0.00     0.242 C 
ATOM     78  H   UNL A   1      31.314  23.846  21.982  1.00  0.00     0.163 HD
ATOM     79  O   UNL A   1      31.510  25.948  21.089  1.00  0.00    -0.273 OA
BRANCH  77  80
ATOM     80  C   UNL A   1      31.927  26.977  23.244  1.00  0.00     0.174 C 
ATOM     81  C   UNL A   1      32.137  28.420  22.771  1.00  0.00     0.035 C 
ATOM     82  N   UNL A   1      30.838  27.004  24.242  1.00  0.00    -0.325 N 
ATOM     83  C   UNL A   1      30.852  29.125  22.319  1.00  0.00     0.004 C 
ATOM     84  C   UNL A   1      29.558  27.485  23.726  1.00  0.00     0.121 C 
ATOM     85  C   UNL A   1      29.704  28.946  23.312  1.00  0.00     0.022 C 
BRANCH  82  86
ATOM     86  C   UNL A   1      31.174  26.886  25.596  1.00  0.00     0.274 C 
ATOM     87  O   UNL A   1      30.766  25.961  26.294  1.00  0.00    -0.267 OA
BRANCH  86  88
ATOM     88  C   UNL A   1      32.088  27.885  26.154  1.00  0.00     0.147 A 
ATOM     89  C   UNL A   1      31.807  29.212  26.432  1.00  0.00     0.127 A 
ATOM     90  N   UNL A   1      33.399  27.594  26.497  1.00  0.00    -0.223 NA
ATOM     91  N   UNL A   1      32.974  29.751  26.900  1.00  0.00    -0.306 N 
ATOM     92  C   UNL A   1      33.909  28.724  26.937  1.00  0.00     0.137 A 
ATOM     93  C   UNL A   1      33.256  31.062  27.275  1.00  0.00     0.093 A 
ATOM     94  C   UNL A   1      35.214  29.048  27.408  1.00  0.00     0.048 A 
ATOM     95  C   UNL A   1      34.492  31.368  27.707  1.00  0.00     0.018 A 
ATOM     96  C   UNL A   1      35.494  30.314  27.776  1.00  0.00     0.005 A 
ENDBRANCH  86  88
ENDBRANCH  82  86
ENDBRANCH  77  80
ENDBRANCH  75  76
ENDBRANCH  74  75
ENDBRANCH  73  74
ENDBRANCH   1  73
TORSDOF 18
ENDMDL
