MODEL 1
REMARK VINA RESULT:     -11.9      0.000      0.000
REMARK SMILES Cc1ccc(S(=O)(=O)Nc2ccc(C(=O)CCC(=O)NCCCCCCNC(=O)c3ccc(-c4c5nc(c(-c6cccc(S(=O)(=O)[O-])c6F)c6ccc([nH]6)c(-c6cccc(S(=O)(=O)[O-])c6F)c6nc(c(-c7cccc(S(=O)(=O)[O-])c7F)c7ccc4[nH]7)C=C6)C=C5)cc3)cc2)c(C)c1
REMARK SMILES IDX 22 1 21 2 20 3 18 4 19 5 17 7 16 8 14 9 15 10 13 11 10 12
REMARK SMILES IDX 11 13 94 14 12 15 93 16 9 17 6 19 7 20 8 21 5 22 1 23 2 24
REMARK SMILES IDX 3 25 97 26 4 27 95 28 96 29 23 30 24 31 25 32 26 33 27 34
REMARK SMILES IDX 28 35 29 37 30 38 31 39 92 40 32 41 91 42 33 43 34 44 35 45
REMARK SMILES IDX 85 46 36 47 90 48 84 49 86 50 37 51 89 52 83 53 82 54 38 56
REMARK SMILES IDX 70 57 50 58 69 59 51 60 54 61 68 62 87 63 52 64 53 65 67 67
REMARK SMILES IDX 88 68 55 69 39 70 40 71 48 72 41 73 43 74 49 75 42 76 44 77
REMARK SMILES IDX 45 78 46 79 47 80 71 81 72 82 80 83 73 84 75 85 81 86 74 87
REMARK SMILES IDX 76 88 77 89 78 90 79 91 56 92 57 93 65 94 58 95 60 96 66 97
REMARK SMILES IDX 59 98 61 99 62 100 63 101 64 102
REMARK H PARENT 20 6 9 18 27 36 86 55 54 66
REMARK Flexibility Score: inf
ROOT
ATOM      1  C   UNL A   1      39.178  22.601  26.448  1.00  0.00     0.021 C 
ENDROOT
BRANCH   1   2
ATOM      2  C   UNL A   1      37.914  21.862  25.701  1.00  0.00     0.116 C 
BRANCH   2   3
ATOM      3  N   UNL A   1      36.694  22.336  26.396  1.00  0.00    -0.356 N 
ATOM      4  C   UNL A   1      35.401  22.313  25.917  1.00  0.00     0.220 C 
ATOM      5  O   UNL A   1      34.592  23.120  26.384  1.00  0.00    -0.275 OA
ATOM      6  H   UNL A   1      36.820  22.709  27.299  1.00  0.00     0.163 HD
BRANCH   4   7
ATOM      7  C   UNL A   1      34.983  21.318  24.817  1.00  0.00     0.108 C 
BRANCH   7   8
ATOM      8  C   UNL A   1      34.683  19.870  25.293  1.00  0.00     0.091 C 
BRANCH   8   9
ATOM      9  C   UNL A   1      33.187  19.450  25.388  1.00  0.00     0.163 C 
ATOM     10  O   UNL A   1      32.828  18.361  25.818  1.00  0.00    -0.294 OA
BRANCH   9  11
ATOM     11  C   UNL A   1      32.154  20.367  24.781  1.00  0.00     0.018 A 
ATOM     12  C   UNL A   1      31.728  23.625  23.194  1.00  0.00     0.049 A 
ATOM     13  C   UNL A   1      32.132  22.156  22.186  1.00  0.00     0.027 A 
ATOM     14  C   UNL A   1      31.497  23.444  24.958  1.00  0.00     0.027 A 
ATOM     15  C   UNL A   1      32.327  20.529  22.970  1.00  0.00     0.014 A 
ATOM     16  C   UNL A   1      31.710  21.815  25.745  1.00  0.00     0.014 A 
BRANCH  12  17
ATOM     17  N   UNL A   1      31.252  24.777  22.472  1.00  0.00    -0.280 N 
ATOM     18  H   UNL A   1      30.286  24.812  22.286  1.00  0.00     0.180 HD
BRANCH  17  19
ATOM     19  S   UNL A   1      32.166  26.056  21.915  1.00  0.00     0.262 S 
ATOM     20  O   UNL A   1      31.442  26.707  20.843  1.00  0.00    -0.201 OA
ATOM     21  O   UNL A   1      33.487  25.506  21.697  1.00  0.00    -0.201 OA
BRANCH  19  22
ATOM     22  C   UNL A   1      32.294  27.174  23.274  1.00  0.00     0.090 A 
ATOM     23  C   UNL A   1      32.505  28.165  27.401  1.00  0.00     0.044 C 
ATOM     24  C   UNL A   1      32.433  27.965  25.919  1.00  0.00    -0.051 A 
ATOM     25  C   UNL A   1      33.607  27.765  25.195  1.00  0.00     0.005 A 
ATOM     26  C   UNL A   1      31.207  27.996  25.241  1.00  0.00     0.008 A 
ATOM     27  C   UNL A   1      33.538  27.395  23.858  1.00  0.00     0.023 A 
ATOM     28  C   UNL A   1      31.123  27.613  23.898  1.00  0.00    -0.030 A 
ATOM     29  C   UNL A   1      29.846  27.810  23.130  1.00  0.00     0.046 C 
ENDBRANCH  19  22
ENDBRANCH  17  19
ENDBRANCH  12  17
ENDBRANCH   9  11
ENDBRANCH   8   9
ENDBRANCH   7   8
ENDBRANCH   4   7
ENDBRANCH   2   3
ENDBRANCH   1   2
BRANCH   1  30
ATOM     30  C   UNL A   1      40.845  22.193  27.775  1.00  0.00     0.002 C 
BRANCH  30  31
ATOM     31  C   UNL A   1      42.295  21.285  27.675  1.00  0.00     0.002 C 
BRANCH  31  32
ATOM     32  C   UNL A   1      42.268  19.846  27.174  1.00  0.00     0.021 C 
BRANCH  32  33
ATOM     33  C   UNL A   1      42.266  19.814  25.667  1.00  0.00     0.116 C 
BRANCH  33  34
ATOM     34  N   UNL A   1      43.403  19.048  25.140  1.00  0.00    -0.352 N 
ATOM     35  C   UNL A   1      44.574  19.529  24.605  1.00  0.00     0.251 C 
ATOM     36  H   UNL A   1      43.316  18.069  25.176  1.00  0.00     0.163 HD
ATOM     37  O   UNL A   1      45.346  18.801  23.992  1.00  0.00    -0.269 OA
BRANCH  35  38
ATOM     38  C   UNL A   1      44.851  20.961  24.785  1.00  0.00     0.039 A 
ATOM     39  C   UNL A   1      44.266  21.900  23.938  1.00  0.00     0.014 A 
ATOM     40  C   UNL A   1      45.568  21.349  25.920  1.00  0.00     0.014 A 
ATOM     41  C   UNL A   1      44.341  23.249  24.280  1.00  0.00     0.010 A 
ATOM     42  C   UNL A   1      45.501  22.662  26.333  1.00  0.00     0.010 A 
ATOM     43  C   UNL A   1      44.924  23.629  25.499  1.00  0.00    -0.014 A 
BRANCH  43  44
ATOM     44  C   UNL A   1      45.008  25.041  25.928  1.00  0.00     0.031 A 
ATOM     45  C   UNL A   1      46.336  25.741  25.845  1.00  0.00     0.074 A 
ATOM     46  C   UNL A   1      43.945  25.632  26.504  1.00  0.00     0.049 A 
ATOM     47  N   UNL A   1      46.671  26.926  26.274  1.00  0.00    -0.248 NA
ATOM     48  C   UNL A   1      47.454  24.983  25.249  1.00  0.00     0.031 C 
ATOM     49  C   UNL A   1      42.643  25.002  26.733  1.00  0.00     0.029 A 
ATOM     50  N   UNL A   1      43.807  26.886  27.041  1.00  0.00    -0.354 N 
ATOM     51  C   UNL A   1      48.039  27.030  26.054  1.00  0.00     0.074 A 
ATOM     52  C   UNL A   1      48.484  25.771  25.506  1.00  0.00     0.031 C 
ATOM     53  C   UNL A   1      41.839  25.872  27.364  1.00  0.00     0.029 A 
ATOM     54  C   UNL A   1      42.579  27.104  27.618  1.00  0.00     0.049 A 
ATOM     55  H   UNL A   1      44.520  27.565  27.017  1.00  0.00     0.167 HD
ATOM     56  C   UNL A   1      48.846  28.093  26.259  1.00  0.00     0.034 A 
ATOM     57  C   UNL A   1      42.113  28.172  28.292  1.00  0.00     0.034 A 
ATOM     58  C   UNL A   1      48.375  29.355  26.749  1.00  0.00     0.049 A 
ATOM     59  C   UNL A   1      43.009  29.370  28.452  1.00  0.00     0.074 A 
ATOM     60  C   UNL A   1      49.064  30.546  26.864  1.00  0.00     0.029 A 
ATOM     61  N   UNL A   1      47.091  29.580  27.226  1.00  0.00    -0.354 N 
ATOM     62  N   UNL A   1      44.249  29.528  28.053  1.00  0.00    -0.248 NA
ATOM     63  C   UNL A   1      42.439  30.544  29.125  1.00  0.00     0.031 C 
ATOM     64  C   UNL A   1      48.210  31.482  27.455  1.00  0.00     0.029 A 
ATOM     65  C   UNL A   1      46.978  30.884  27.672  1.00  0.00     0.049 A 
ATOM     66  H   UNL A   1      46.370  28.911  27.244  1.00  0.00     0.167 HD
ATOM     67  C   UNL A   1      44.605  30.821  28.414  1.00  0.00     0.074 A 
ATOM     68  C   UNL A   1      43.437  31.413  29.036  1.00  0.00     0.031 C 
ATOM     69  C   UNL A   1      45.794  31.456  28.264  1.00  0.00     0.034 A 
BRANCH  56  70
ATOM     70  C   UNL A   1      50.304  27.937  25.918  1.00  0.00     0.023 A 
ATOM     71  C   UNL A   1      51.252  27.729  26.942  1.00  0.00     0.012 A 
ATOM     72  C   UNL A   1      50.734  27.977  24.579  1.00  0.00     0.148 A 
ATOM     73  C   UNL A   1      52.609  27.616  26.642  1.00  0.00     0.002 A 
ATOM     74  C   UNL A   1      52.081  27.809  24.283  1.00  0.00     0.091 A 
ATOM     75  F   UNL A   1      49.824  28.206  23.621  1.00  0.00    -0.205 F 
ATOM     76  C   UNL A   1      53.021  27.644  25.314  1.00  0.00     0.022 A 
BRANCH  74  77
ATOM     77  S   UNL A   1      52.701  27.747  22.599  1.00  0.00     0.127 S 
ATOM     78  O   UNL A   1      54.137  27.582  22.820  1.00  0.00    -0.237 OA
ATOM     79  O   UNL A   1      52.025  26.563  22.069  1.00  0.00    -0.237 OA
ATOM     80  O   UNL A   1      52.303  29.002  21.979  1.00  0.00    -0.744 OA
ENDBRANCH  74  77
ENDBRANCH  56  70
BRANCH  57  81
ATOM     81  C   UNL A   1      40.721  28.156  28.825  1.00  0.00     0.023 A 
ATOM     82  C   UNL A   1      40.433  27.446  30.006  1.00  0.00     0.012 A 
ATOM     83  C   UNL A   1      39.699  28.902  28.203  1.00  0.00     0.148 A 
ATOM     84  C   UNL A   1      39.146  27.463  30.548  1.00  0.00     0.002 A 
ATOM     85  C   UNL A   1      38.435  28.961  28.780  1.00  0.00     0.091 A 
ATOM     86  F   UNL A   1      39.993  29.564  27.075  1.00  0.00    -0.205 F 
ATOM     87  C   UNL A   1      38.153  28.229  29.943  1.00  0.00     0.022 A 
BRANCH  85  88
ATOM     88  S   UNL A   1      37.140  30.037  28.154  1.00  0.00     0.127 S 
ATOM     89  O   UNL A   1      37.675  31.361  28.464  1.00  0.00    -0.237 OA
ATOM     90  O   UNL A   1      37.127  29.694  26.732  1.00  0.00    -0.237 OA
ATOM     91  O   UNL A   1      35.930  29.663  28.872  1.00  0.00    -0.744 OA
ENDBRANCH  85  88
ENDBRANCH  57  81
BRANCH  69  92
ATOM     92  C   UNL A   1      45.901  32.864  28.782  1.00  0.00     0.023 A 
ATOM     93  C   UNL A   1      46.392  33.092  30.082  1.00  0.00     0.012 A 
ATOM     94  C   UNL A   1      45.610  33.960  27.945  1.00  0.00     0.148 A 
ATOM     95  C   UNL A   1      46.570  34.392  30.552  1.00  0.00     0.002 A 
ATOM     96  C   UNL A   1      45.838  35.251  28.402  1.00  0.00     0.091 A 
ATOM     97  F   UNL A   1      45.134  33.716  26.716  1.00  0.00    -0.205 F 
ATOM     98  C   UNL A   1      46.306  35.469  29.709  1.00  0.00     0.022 A 
BRANCH  96  99
ATOM     99  S   UNL A   1      45.625  36.697  27.358  1.00  0.00     0.127 S 
ATOM    100  O   UNL A   1      44.191  36.652  27.080  1.00  0.00    -0.237 OA
ATOM    101  O   UNL A   1      46.042  37.781  28.247  1.00  0.00    -0.237 OA
ATOM    102  O   UNL A   1      46.488  36.492  26.203  1.00  0.00    -0.744 OA
ENDBRANCH  96  99
ENDBRANCH  69  92
ENDBRANCH  43  44
ENDBRANCH  35  38
ENDBRANCH  33  34
ENDBRANCH  32  33
ENDBRANCH  31  32
ENDBRANCH  30  31
ENDBRANCH   1  30
TORSDOF 22
ENDMDL
MODEL 2
REMARK VINA RESULT:     -11.7      1.624      2.120
REMARK SMILES Cc1ccc(S(=O)(=O)Nc2ccc(C(=O)CCC(=O)NCCCCCCNC(=O)c3ccc(-c4c5nc(c(-c6cccc(S(=O)(=O)[O-])c6F)c6ccc([nH]6)c(-c6cccc(S(=O)(=O)[O-])c6F)c6nc(c(-c7cccc(S(=O)(=O)[O-])c7F)c7ccc4[nH]7)C=C6)C=C5)cc3)cc2)c(C)c1
REMARK SMILES IDX 22 1 21 2 20 3 18 4 19 5 17 7 16 8 14 9 15 10 13 11 10 12
REMARK SMILES IDX 11 13 94 14 12 15 93 16 9 17 6 19 7 20 8 21 5 22 1 23 2 24
REMARK SMILES IDX 3 25 97 26 4 27 95 28 96 29 23 30 24 31 25 32 26 33 27 34
REMARK SMILES IDX 28 35 29 37 30 38 31 39 92 40 32 41 91 42 33 43 34 44 35 45
REMARK SMILES IDX 85 46 36 47 90 48 84 49 86 50 37 51 89 52 83 53 82 54 38 56
REMARK SMILES IDX 70 57 50 58 69 59 51 60 54 61 68 62 87 63 52 64 53 65 67 67
REMARK SMILES IDX 88 68 55 69 39 70 40 71 48 72 41 73 43 74 49 75 42 76 44 77
REMARK SMILES IDX 45 78 46 79 47 80 71 81 72 82 80 83 73 84 75 85 81 86 74 87
REMARK SMILES IDX 76 88 77 89 78 90 79 91 56 92 57 93 65 94 58 95 60 96 66 97
REMARK SMILES IDX 59 98 61 99 62 100 63 101 64 102
REMARK H PARENT 20 6 9 18 27 36 86 55 54 66
REMARK Flexibility Score: inf
ROOT
ATOM      1  C   UNL A   1      38.332  23.889  26.227  1.00  0.00     0.021 C 
ENDROOT
BRANCH   1   2
ATOM      2  C   UNL A   1      37.045  23.291  25.401  1.00  0.00     0.116 C 
BRANCH   2   3
ATOM      3  N   UNL A   1      36.285  22.463  26.368  1.00  0.00    -0.356 N 
ATOM      4  C   UNL A   1      35.160  21.708  26.115  1.00  0.00     0.220 C 
ATOM      5  O   UNL A   1      34.403  21.457  27.057  1.00  0.00    -0.275 OA
ATOM      6  H   UNL A   1      36.622  22.451  27.294  1.00  0.00     0.163 HD
BRANCH   4   7
ATOM      7  C   UNL A   1      34.847  21.209  24.691  1.00  0.00     0.108 C 
BRANCH   7   8
ATOM      8  C   UNL A   1      33.373  20.790  24.430  1.00  0.00     0.091 C 
BRANCH   8   9
ATOM      9  C   UNL A   1      32.548  21.673  23.449  1.00  0.00     0.163 C 
ATOM     10  O   UNL A   1      32.013  21.226  22.442  1.00  0.00    -0.294 OA
BRANCH   9  11
ATOM     11  C   UNL A   1      32.541  23.165  23.674  1.00  0.00     0.018 A 
ATOM     12  C   UNL A   1      30.658  26.206  22.956  1.00  0.00     0.049 A 
ATOM     13  C   UNL A   1      30.268  25.210  24.436  1.00  0.00     0.027 A 
ATOM     14  C   UNL A   1      32.001  25.704  21.887  1.00  0.00     0.027 A 
ATOM     15  C   UNL A   1      31.215  23.705  24.807  1.00  0.00     0.014 A 
ATOM     16  C   UNL A   1      32.939  24.185  22.251  1.00  0.00     0.014 A 
BRANCH  12  17
ATOM     17  N   UNL A   1      30.112  27.539  22.928  1.00  0.00    -0.280 N 
ATOM     18  H   UNL A   1      29.178  27.627  22.628  1.00  0.00     0.180 HD
BRANCH  17  19
ATOM     19  S   UNL A   1      30.895  28.950  23.349  1.00  0.00     0.262 S 
ATOM     20  O   UNL A   1      29.918  29.880  23.875  1.00  0.00    -0.201 OA
ATOM     21  O   UNL A   1      31.702  29.288  22.196  1.00  0.00    -0.201 OA
BRANCH  19  22
ATOM     22  C   UNL A   1      32.010  28.505  24.643  1.00  0.00     0.090 A 
ATOM     23  C   UNL A   1      34.548  29.324  27.951  1.00  0.00     0.044 C 
ATOM     24  C   UNL A   1      33.697  28.891  26.798  1.00  0.00    -0.051 A 
ATOM     25  C   UNL A   1      32.361  28.557  27.017  1.00  0.00     0.005 A 
ATOM     26  C   UNL A   1      34.224  28.794  25.503  1.00  0.00     0.008 A 
ATOM     27  C   UNL A   1      31.520  28.336  25.934  1.00  0.00     0.023 A 
ATOM     28  C   UNL A   1      33.385  28.584  24.404  1.00  0.00    -0.030 A 
ATOM     29  C   UNL A   1      33.966  28.310  23.045  1.00  0.00     0.046 C 
ENDBRANCH  19  22
ENDBRANCH  17  19
ENDBRANCH  12  17
ENDBRANCH   9  11
ENDBRANCH   8   9
ENDBRANCH   7   8
ENDBRANCH   4   7
ENDBRANCH   2   3
ENDBRANCH   1   2
BRANCH   1  30
ATOM     30  C   UNL A   1      39.870  23.303  27.640  1.00  0.00     0.002 C 
BRANCH  30  31
ATOM     31  C   UNL A   1      41.256  22.295  27.594  1.00  0.00     0.002 C 
BRANCH  31  32
ATOM     32  C   UNL A   1      41.115  20.809  27.291  1.00  0.00     0.021 C 
BRANCH  32  33
ATOM     33  C   UNL A   1      41.303  20.552  25.817  1.00  0.00     0.116 C 
BRANCH  33  34
ATOM     34  N   UNL A   1      42.384  19.589  25.569  1.00  0.00    -0.352 N 
ATOM     35  C   UNL A   1      43.690  19.849  25.231  1.00  0.00     0.251 C 
ATOM     36  H   UNL A   1      42.142  18.639  25.656  1.00  0.00     0.163 HD
ATOM     37  O   UNL A   1      44.437  18.966  24.827  1.00  0.00    -0.269 OA
BRANCH  35  38
ATOM     38  C   UNL A   1      44.148  21.240  25.359  1.00  0.00     0.039 A 
ATOM     39  C   UNL A   1      43.846  22.171  24.367  1.00  0.00     0.014 A 
ATOM     40  C   UNL A   1      44.732  21.626  26.568  1.00  0.00     0.014 A 
ATOM     41  C   UNL A   1      44.070  23.522  24.626  1.00  0.00     0.010 A 
ATOM     42  C   UNL A   1      44.801  22.967  26.876  1.00  0.00     0.010 A 
ATOM     43  C   UNL A   1      44.510  23.925  25.896  1.00  0.00    -0.014 A 
BRANCH  43  44
ATOM     44  C   UNL A   1      44.738  25.346  26.239  1.00  0.00     0.031 A 
ATOM     45  C   UNL A   1      46.143  25.879  26.197  1.00  0.00     0.074 A 
ATOM     46  C   UNL A   1      43.723  26.095  26.706  1.00  0.00     0.049 A 
ATOM     47  N   UNL A   1      46.592  27.045  26.570  1.00  0.00    -0.248 NA
ATOM     48  C   UNL A   1      47.194  24.957  25.725  1.00  0.00     0.031 C 
ATOM     49  C   UNL A   1      42.343  25.637  26.890  1.00  0.00     0.029 A 
ATOM     50  N   UNL A   1      43.705  27.391  27.151  1.00  0.00    -0.354 N 
ATOM     51  C   UNL A   1      47.973  26.974  26.433  1.00  0.00     0.074 A 
ATOM     52  C   UNL A   1      48.295  25.637  25.997  1.00  0.00     0.031 C 
ATOM     53  C   UNL A   1      41.615  26.637  27.410  1.00  0.00     0.029 A 
ATOM     54  C   UNL A   1      42.481  27.791  27.632  1.00  0.00     0.049 A 
ATOM     55  H   UNL A   1      44.494  27.979  27.130  1.00  0.00     0.167 HD
ATOM     56  C   UNL A   1      48.889  27.948  26.622  1.00  0.00     0.034 A 
ATOM     57  C   UNL A   1      42.109  28.951  28.205  1.00  0.00     0.034 A 
ATOM     58  C   UNL A   1      48.545  29.288  26.999  1.00  0.00     0.049 A 
ATOM     59  C   UNL A   1      43.131  30.045  28.346  1.00  0.00     0.074 A 
ATOM     60  C   UNL A   1      49.364  30.397  27.082  1.00  0.00     0.029 A 
ATOM     61  N   UNL A   1      47.273  29.694  27.376  1.00  0.00    -0.354 N 
ATOM     62  N   UNL A   1      44.402  30.029  28.019  1.00  0.00    -0.248 NA
ATOM     63  C   UNL A   1      42.669  31.322  28.904  1.00  0.00     0.031 C 
ATOM     64  C   UNL A   1      48.596  31.465  27.555  1.00  0.00     0.029 A 
ATOM     65  C   UNL A   1      47.291  31.030  27.730  1.00  0.00     0.049 A 
ATOM     66  H   UNL A   1      46.476  29.116  27.390  1.00  0.00     0.167 HD
ATOM     67  C   UNL A   1      44.890  31.295  28.319  1.00  0.00     0.074 A 
ATOM     68  C   UNL A   1      43.768  32.061  28.825  1.00  0.00     0.031 C 
ATOM     69  C   UNL A   1      46.153  31.776  28.206  1.00  0.00     0.034 A 
BRANCH  56  70
ATOM     70  C   UNL A   1      50.335  27.600  26.387  1.00  0.00     0.023 A 
ATOM     71  C   UNL A   1      51.131  27.128  27.451  1.00  0.00     0.012 A 
ATOM     72  C   UNL A   1      50.901  27.725  25.105  1.00  0.00     0.148 A 
ATOM     73  C   UNL A   1      52.480  26.834  27.254  1.00  0.00     0.002 A 
ATOM     74  C   UNL A   1      52.231  27.378  24.904  1.00  0.00     0.091 A 
ATOM     75  F   UNL A   1      50.139  28.204  24.111  1.00  0.00    -0.205 F 
ATOM     76  C   UNL A   1      53.026  26.948  25.980  1.00  0.00     0.022 A 
BRANCH  74  77
ATOM     77  S   UNL A   1      53.005  27.411  23.284  1.00  0.00     0.127 S 
ATOM     78  O   UNL A   1      54.326  26.857  23.577  1.00  0.00    -0.237 OA
ATOM     79  O   UNL A   1      52.131  26.528  22.511  1.00  0.00    -0.237 OA
ATOM     80  O   UNL A   1      52.989  28.804  22.860  1.00  0.00    -0.744 OA
ENDBRANCH  74  77
ENDBRANCH  56  70
BRANCH  57  81
ATOM     81  C   UNL A   1      40.697  29.134  28.646  1.00  0.00     0.023 A 
ATOM     82  C   UNL A   1      39.685  29.328  27.687  1.00  0.00     0.012 A 
ATOM     83  C   UNL A   1      40.346  29.043  30.008  1.00  0.00     0.148 A 
ATOM     84  C   UNL A   1      38.351  29.449  28.078  1.00  0.00     0.002 A 
ATOM     85  C   UNL A   1      39.009  29.107  30.385  1.00  0.00     0.091 A 
ATOM     86  F   UNL A   1      41.326  28.866  30.905  1.00  0.00    -0.205 F 
ATOM     87  C   UNL A   1      38.012  29.326  29.424  1.00  0.00     0.022 A 
BRANCH  85  88
ATOM     88  S   UNL A   1      38.469  28.810  32.073  1.00  0.00     0.127 S 
ATOM     89  O   UNL A   1      38.958  27.453  32.310  1.00  0.00    -0.237 OA
ATOM     90  O   UNL A   1      39.182  29.859  32.804  1.00  0.00    -0.237 OA
ATOM     91  O   UNL A   1      37.022  28.967  32.061  1.00  0.00    -0.744 OA
ENDBRANCH  85  88
ENDBRANCH  57  81
BRANCH  69  92
ATOM     92  C   UNL A   1      46.398  33.196  28.638  1.00  0.00     0.023 A 
ATOM     93  C   UNL A   1      46.924  33.452  29.919  1.00  0.00     0.012 A 
ATOM     94  C   UNL A   1      46.202  34.263  27.740  1.00  0.00     0.148 A 
ATOM     95  C   UNL A   1      47.229  34.755  30.310  1.00  0.00     0.002 A 
ATOM     96  C   UNL A   1      46.556  35.551  28.118  1.00  0.00     0.091 A 
ATOM     97  F   UNL A   1      45.690  33.994  26.530  1.00  0.00    -0.205 F 
ATOM     98  C   UNL A   1      47.058  35.801  29.406  1.00  0.00     0.022 A 
BRANCH  96  99
ATOM     99  S   UNL A   1      46.468  36.947  26.991  1.00  0.00     0.127 S 
ATOM    100  O   UNL A   1      45.023  37.132  26.861  1.00  0.00    -0.237 OA
ATOM    101  O   UNL A   1      47.153  37.996  27.747  1.00  0.00    -0.237 OA
ATOM    102  O   UNL A   1      47.152  36.529  25.775  1.00  0.00    -0.744 OA
ENDBRANCH  96  99
ENDBRANCH  69  92
ENDBRANCH  43  44
ENDBRANCH  35  38
ENDBRANCH  33  34
ENDBRANCH  32  33
ENDBRANCH  31  32
ENDBRANCH  30  31
ENDBRANCH   1  30
TORSDOF 22
ENDMDL
MODEL 3
REMARK VINA RESULT:     -11.6      1.797      2.372
REMARK SMILES Cc1ccc(S(=O)(=O)Nc2ccc(C(=O)CCC(=O)NCCCCCCNC(=O)c3ccc(-c4c5nc(c(-c6cccc(S(=O)(=O)[O-])c6F)c6ccc([nH]6)c(-c6cccc(S(=O)(=O)[O-])c6F)c6nc(c(-c7cccc(S(=O)(=O)[O-])c7F)c7ccc4[nH]7)C=C6)C=C5)cc3)cc2)c(C)c1
REMARK SMILES IDX 22 1 21 2 20 3 18 4 19 5 17 7 16 8 14 9 15 10 13 11 10 12
REMARK SMILES IDX 11 13 94 14 12 15 93 16 9 17 6 19 7 20 8 21 5 22 1 23 2 24
REMARK SMILES IDX 3 25 97 26 4 27 95 28 96 29 23 30 24 31 25 32 26 33 27 34
REMARK SMILES IDX 28 35 29 37 30 38 31 39 92 40 32 41 91 42 33 43 34 44 35 45
REMARK SMILES IDX 85 46 36 47 90 48 84 49 86 50 37 51 89 52 83 53 82 54 38 56
REMARK SMILES IDX 70 57 50 58 69 59 51 60 54 61 68 62 87 63 52 64 53 65 67 67
REMARK SMILES IDX 88 68 55 69 39 70 40 71 48 72 41 73 43 74 49 75 42 76 44 77
REMARK SMILES IDX 45 78 46 79 47 80 71 81 72 82 80 83 73 84 75 85 81 86 74 87
REMARK SMILES IDX 76 88 77 89 78 90 79 91 56 92 57 93 65 94 58 95 60 96 66 97
REMARK SMILES IDX 59 98 61 99 62 100 63 101 64 102
REMARK H PARENT 20 6 9 18 27 36 86 55 54 66
REMARK Flexibility Score: inf
ROOT
ATOM      1  C   UNL A   1      38.549  23.025  26.128  1.00  0.00     0.021 C 
ENDROOT
BRANCH   1   2
ATOM      2  C   UNL A   1      37.182  22.570  25.339  1.00  0.00     0.116 C 
BRANCH   2   3
ATOM      3  N   UNL A   1      36.211  22.181  26.390  1.00  0.00    -0.356 N 
ATOM      4  C   UNL A   1      35.052  21.454  26.224  1.00  0.00     0.220 C 
ATOM      5  O   UNL A   1      34.153  21.594  27.058  1.00  0.00    -0.275 OA
ATOM      6  H   UNL A   1      36.418  22.474  27.307  1.00  0.00     0.163 HD
BRANCH   4   7
ATOM      7  C   UNL A   1      34.878  20.506  25.022  1.00  0.00     0.108 C 
BRANCH   7   8
ATOM      8  C   UNL A   1      33.452  19.921  24.823  1.00  0.00     0.091 C 
BRANCH   8   9
ATOM      9  C   UNL A   1      32.559  20.583  23.734  1.00  0.00     0.163 C 
ATOM     10  O   UNL A   1      32.153  19.977  22.749  1.00  0.00    -0.294 OA
BRANCH   9  11
ATOM     11  C   UNL A   1      32.316  22.068  23.824  1.00  0.00     0.018 A 
ATOM     12  C   UNL A   1      33.272  25.068  25.669  1.00  0.00     0.049 A 
ATOM     13  C   UNL A   1      34.235  24.538  24.210  1.00  0.00     0.027 A 
ATOM     14  C   UNL A   1      31.829  24.130  26.157  1.00  0.00     0.027 A 
ATOM     15  C   UNL A   1      33.751  23.056  23.278  1.00  0.00     0.014 A 
ATOM     16  C   UNL A   1      31.355  22.634  25.232  1.00  0.00     0.014 A 
BRANCH  12  17
ATOM     17  N   UNL A   1      33.503  26.414  26.126  1.00  0.00    -0.280 N 
ATOM     18  H   UNL A   1      34.183  26.531  26.828  1.00  0.00     0.180 HD
BRANCH  17  19
ATOM     19  S   UNL A   1      32.737  27.797  25.592  1.00  0.00     0.262 S 
ATOM     20  O   UNL A   1      33.650  28.911  25.732  1.00  0.00    -0.201 OA
ATOM     21  O   UNL A   1      31.453  27.795  26.259  1.00  0.00    -0.201 OA
BRANCH  19  22
ATOM     22  C   UNL A   1      32.424  27.532  23.875  1.00  0.00     0.090 A 
ATOM     23  C   UNL A   1      32.527  25.279  20.274  1.00  0.00     0.044 C 
ATOM     24  C   UNL A   1      32.429  26.185  21.462  1.00  0.00    -0.051 A 
ATOM     25  C   UNL A   1      31.313  26.108  22.294  1.00  0.00     0.005 A 
ATOM     26  C   UNL A   1      33.429  27.126  21.742  1.00  0.00     0.008 A 
ATOM     27  C   UNL A   1      31.299  26.808  23.494  1.00  0.00     0.023 A 
ATOM     28  C   UNL A   1      33.432  27.826  22.953  1.00  0.00    -0.030 A 
ATOM     29  C   UNL A   1      34.402  28.952  23.178  1.00  0.00     0.046 C 
ENDBRANCH  19  22
ENDBRANCH  17  19
ENDBRANCH  12  17
ENDBRANCH   9  11
ENDBRANCH   8   9
ENDBRANCH   7   8
ENDBRANCH   4   7
ENDBRANCH   2   3
ENDBRANCH   1   2
BRANCH   1  30
ATOM     30  C   UNL A   1      40.457  22.252  26.812  1.00  0.00     0.002 C 
BRANCH  30  31
ATOM     31  C   UNL A   1      40.965  21.069  27.944  1.00  0.00     0.002 C 
BRANCH  31  32
ATOM     32  C   UNL A   1      41.712  19.827  27.474  1.00  0.00     0.021 C 
BRANCH  32  33
ATOM     33  C   UNL A   1      41.582  19.667  25.980  1.00  0.00     0.116 C 
BRANCH  33  34
ATOM     34  N   UNL A   1      42.864  19.307  25.360  1.00  0.00    -0.352 N 
ATOM     35  C   UNL A   1      43.905  20.138  25.023  1.00  0.00     0.251 C 
ATOM     36  H   UNL A   1      42.993  18.352  25.163  1.00  0.00     0.163 HD
ATOM     37  O   UNL A   1      44.824  19.757  24.306  1.00  0.00    -0.269 OA
BRANCH  35  38
ATOM     38  C   UNL A   1      43.861  21.510  25.547  1.00  0.00     0.039 A 
ATOM     39  C   UNL A   1      44.372  21.794  26.811  1.00  0.00     0.014 A 
ATOM     40  C   UNL A   1      43.454  22.527  24.679  1.00  0.00     0.014 A 
ATOM     41  C   UNL A   1      44.546  23.127  27.179  1.00  0.00     0.010 A 
ATOM     42  C   UNL A   1      43.776  23.831  24.985  1.00  0.00     0.010 A 
ATOM     43  C   UNL A   1      44.286  24.147  26.251  1.00  0.00    -0.014 A 
BRANCH  43  44
ATOM     44  C   UNL A   1      44.478  25.577  26.574  1.00  0.00     0.031 A 
ATOM     45  C   UNL A   1      45.866  26.150  26.503  1.00  0.00     0.074 A 
ATOM     46  C   UNL A   1      43.450  26.301  27.052  1.00  0.00     0.049 A 
ATOM     47  N   UNL A   1      46.288  27.333  26.857  1.00  0.00    -0.248 NA
ATOM     48  C   UNL A   1      46.936  25.253  26.022  1.00  0.00     0.031 C 
ATOM     49  C   UNL A   1      42.088  25.806  27.264  1.00  0.00     0.029 A 
ATOM     50  N   UNL A   1      43.402  27.602  27.484  1.00  0.00    -0.354 N 
ATOM     51  C   UNL A   1      47.667  27.300  26.697  1.00  0.00     0.074 A 
ATOM     52  C   UNL A   1      48.020  25.968  26.269  1.00  0.00     0.031 C 
ATOM     53  C   UNL A   1      41.339  26.790  27.787  1.00  0.00     0.029 A 
ATOM     54  C   UNL A   1      42.176  27.971  27.981  1.00  0.00     0.049 A 
ATOM     55  H   UNL A   1      44.174  28.212  27.443  1.00  0.00     0.167 HD
ATOM     56  C   UNL A   1      48.558  28.302  26.859  1.00  0.00     0.034 A 
ATOM     57  C   UNL A   1      41.780  29.126  28.549  1.00  0.00     0.034 A 
ATOM     58  C   UNL A   1      48.182  29.636  27.228  1.00  0.00     0.049 A 
ATOM     59  C   UNL A   1      42.772  30.250  28.661  1.00  0.00     0.074 A 
ATOM     60  C   UNL A   1      48.970  30.768  27.286  1.00  0.00     0.029 A 
ATOM     61  N   UNL A   1      46.905  30.009  27.624  1.00  0.00    -0.354 N 
ATOM     62  N   UNL A   1      44.037  30.268  28.312  1.00  0.00    -0.248 NA
ATOM     63  C   UNL A   1      42.282  31.519  29.214  1.00  0.00     0.031 C 
ATOM     64  C   UNL A   1      48.180  31.819  27.762  1.00  0.00     0.029 A 
ATOM     65  C   UNL A   1      46.890  31.348  27.963  1.00  0.00     0.049 A 
ATOM     66  H   UNL A   1      46.126  29.408  27.658  1.00  0.00     0.167 HD
ATOM     67  C   UNL A   1      44.493  31.550  28.591  1.00  0.00     0.074 A 
ATOM     68  C   UNL A   1      43.358  32.289  29.108  1.00  0.00     0.031 C 
ATOM     69  C   UNL A   1      45.740  32.066  28.451  1.00  0.00     0.034 A 
BRANCH  56  70
ATOM     70  C   UNL A   1      50.009  27.994  26.603  1.00  0.00     0.023 A 
ATOM     71  C   UNL A   1      50.860  27.652  27.675  1.00  0.00     0.012 A 
ATOM     72  C   UNL A   1      50.527  28.025  25.295  1.00  0.00     0.148 A 
ATOM     73  C   UNL A   1      52.213  27.397  27.455  1.00  0.00     0.002 A 
ATOM     74  C   UNL A   1      51.863  27.716  25.077  1.00  0.00     0.091 A 
ATOM     75  F   UNL A   1      49.712  28.381  24.292  1.00  0.00    -0.205 F 
ATOM     76  C   UNL A   1      52.711  27.417  26.157  1.00  0.00     0.022 A 
BRANCH  74  77
ATOM     77  S   UNL A   1      52.580  27.633  23.433  1.00  0.00     0.127 S 
ATOM     78  O   UNL A   1      53.911  27.097  23.718  1.00  0.00    -0.237 OA
ATOM     79  O   UNL A   1      51.680  26.702  22.753  1.00  0.00    -0.237 OA
ATOM     80  O   UNL A   1      52.553  28.994  22.914  1.00  0.00    -0.744 OA
ENDBRANCH  74  77
ENDBRANCH  56  70
BRANCH  57  81
ATOM     81  C   UNL A   1      40.371  29.273  29.013  1.00  0.00     0.023 A 
ATOM     82  C   UNL A   1      39.341  29.456  28.071  1.00  0.00     0.012 A 
ATOM     83  C   UNL A   1      40.042  29.159  30.378  1.00  0.00     0.148 A 
ATOM     84  C   UNL A   1      38.010  29.543  28.483  1.00  0.00     0.002 A 
ATOM     85  C   UNL A   1      38.710  29.188  30.775  1.00  0.00     0.091 A 
ATOM     86  F   UNL A   1      41.039  28.992  31.259  1.00  0.00    -0.205 F 
ATOM     87  C   UNL A   1      37.694  29.397  29.831  1.00  0.00     0.022 A 
BRANCH  85  88
ATOM     88  S   UNL A   1      38.201  28.861  32.467  1.00  0.00     0.127 S 
ATOM     89  O   UNL A   1      39.026  29.807  33.216  1.00  0.00    -0.237 OA
ATOM     90  O   UNL A   1      36.776  29.188  32.420  1.00  0.00    -0.237 OA
ATOM     91  O   UNL A   1      38.485  27.452  32.703  1.00  0.00    -0.744 OA
ENDBRANCH  85  88
ENDBRANCH  57  81
BRANCH  69  92
ATOM     92  C   UNL A   1      45.950  33.497  28.864  1.00  0.00     0.023 A 
ATOM     93  C   UNL A   1      46.421  33.784  30.160  1.00  0.00     0.012 A 
ATOM     94  C   UNL A   1      45.778  34.544  27.938  1.00  0.00     0.148 A 
ATOM     95  C   UNL A   1      46.695  35.098  30.537  1.00  0.00     0.002 A 
ATOM     96  C   UNL A   1      46.102  35.844  28.305  1.00  0.00     0.091 A 
ATOM     97  F   UNL A   1      45.319  34.246  26.715  1.00  0.00    -0.205 F 
ATOM     98  C   UNL A   1      46.549  36.124  29.607  1.00  0.00     0.022 A 
BRANCH  96  99
ATOM     99  S   UNL A   1      46.044  37.216  27.148  1.00  0.00     0.127 S 
ATOM    100  O   UNL A   1      44.610  37.316  26.879  1.00  0.00    -0.237 OA
ATOM    101  O   UNL A   1      46.594  38.313  27.944  1.00  0.00    -0.237 OA
ATOM    102  O   UNL A   1      46.862  36.821  26.010  1.00  0.00    -0.744 OA
ENDBRANCH  96  99
ENDBRANCH  69  92
ENDBRANCH  43  44
ENDBRANCH  35  38
ENDBRANCH  33  34
ENDBRANCH  32  33
ENDBRANCH  31  32
ENDBRANCH  30  31
ENDBRANCH   1  30
TORSDOF 22
ENDMDL
