MODEL 1
REMARK VINA RESULT:     -12.7      0.000      0.000
REMARK SMILES C[NH+]1CCC2(CC1)OC[C@@H](C(=O)NCCCCCCNC(=O)c1ccc(-c3c4nc(c(-c5cccc(S(=O)(=O)[O-])c5F)c5ccc([nH]5)c(-c5cccc(S(=O)(=O)[O-])c5F)c5nc(c(-c6cccc(S(=O)(=O)[O-])c6F)c6ccc3[nH]6)C=C5)C=C4)cc1)N2C(=O)c1ccc2ccccc2c1
REMARK SMILES IDX 17 1 16 2 15 3 14 4 13 5 11 6 12 7 10 9 1 10 2 11 3 12 7 13
REMARK SMILES IDX 4 15 6 16 5 17 8 18 86 19 9 20 87 21 88 22 89 23 90 24 98 25
REMARK SMILES IDX 91 26 97 27 92 28 96 29 93 30 95 31 94 32 18 33 19 34 20 35
REMARK SMILES IDX 21 36 22 38 23 39 24 40 85 41 25 42 84 43 26 44 27 45 28 46
REMARK SMILES IDX 78 47 29 48 83 49 77 50 79 51 30 52 82 53 76 54 75 55 31 57
REMARK SMILES IDX 63 58 43 59 62 60 44 61 47 62 61 63 80 64 45 65 46 66 60 68
REMARK SMILES IDX 81 69 48 70 32 71 33 72 41 73 34 74 36 75 42 76 35 77 37 78
REMARK SMILES IDX 38 79 39 80 40 81 64 82 65 83 73 84 66 85 68 86 74 87 67 88
REMARK SMILES IDX 69 89 70 90 71 91 72 92 49 93 50 94 58 95 51 96 53 97 59 98
REMARK SMILES IDX 52 99 54 100 55 101 56 102 57 103
REMARK H PARENT 13 8 2 14 20 37 79 56 47 67
REMARK Flexibility Score: inf
ROOT
ATOM      1  C   UNL A   1      35.203  23.095  26.183  1.00  0.00     0.002 C 
ENDROOT
BRANCH   1   2
ATOM      2  C   UNL A   1      35.330  24.438  25.463  1.00  0.00     0.002 C 
BRANCH   2   3
ATOM      3  C   UNL A   1      34.005  25.130  25.151  1.00  0.00     0.021 C 
BRANCH   3   4
ATOM      4  C   UNL A   1      33.917  26.587  25.582  1.00  0.00     0.116 C 
BRANCH   4   5
ATOM      5  N   UNL A   1      32.761  26.789  26.423  1.00  0.00    -0.354 N 
ATOM      6  C   UNL A   1      31.699  27.624  26.265  1.00  0.00     0.245 C 
ATOM      7  O   UNL A   1      30.793  27.530  27.103  1.00  0.00    -0.273 OA
ATOM      8  H   UNL A   1      32.737  26.234  27.237  1.00  0.00     0.163 HD
BRANCH   6   9
ATOM      9  C   UNL A   1      31.477  28.441  24.977  1.00  0.00     0.203 C 
ATOM     10  C   UNL A   1      28.113  31.620  20.731  1.00  0.00     0.332 C 
ATOM     11  N   UNL A   1      28.289  30.349  21.415  1.00  0.00    -0.337 N 
ATOM     12  C   UNL A   1      29.639  29.811  21.322  1.00  0.00     0.267 C 
ATOM     13  C   UNL A   1      27.672  30.345  22.739  1.00  0.00     0.267 C 
ATOM     14  H   UNL A   1      27.755  29.652  20.896  1.00  0.00     0.347 HD
ATOM     15  C   UNL A   1      30.563  30.194  22.459  1.00  0.00     0.120 C 
ATOM     16  C   UNL A   1      28.579  30.530  23.948  1.00  0.00     0.120 C 
ATOM     17  C   UNL A   1      29.963  29.896  23.842  1.00  0.00     0.155 C 
ATOM     18  O   UNL A   1      30.771  30.691  24.758  1.00  0.00    -0.352 OA
ATOM     19  N   UNL A   1      30.175  28.512  24.313  1.00  0.00    -0.295 N 
ATOM     20  C   UNL A   1      31.800  29.882  25.324  1.00  0.00     0.198 C 
BRANCH  19  21
ATOM     21  C   UNL A   1      29.653  27.299  23.853  1.00  0.00     0.256 C 
ATOM     22  O   UNL A   1      28.440  27.113  23.750  1.00  0.00    -0.269 OA
BRANCH  21  23
ATOM     23  C   UNL A   1      30.514  26.201  23.360  1.00  0.00     0.040 A 
ATOM     24  C   UNL A   1      31.358  26.417  22.270  1.00  0.00     0.014 A 
ATOM     25  C   UNL A   1      30.420  24.915  23.904  1.00  0.00     0.022 A 
ATOM     26  C   UNL A   1      32.206  25.406  21.815  1.00  0.00     0.009 A 
ATOM     27  C   UNL A   1      31.322  23.904  23.508  1.00  0.00    -0.018 A 
ATOM     28  C   UNL A   1      32.243  24.168  22.467  1.00  0.00    -0.018 A 
ATOM     29  C   UNL A   1      31.372  22.655  24.152  1.00  0.00     0.009 A 
ATOM     30  C   UNL A   1      33.205  23.206  22.125  1.00  0.00     0.009 A 
ATOM     31  C   UNL A   1      32.337  21.706  23.802  1.00  0.00     0.001 A 
ATOM     32  C   UNL A   1      33.260  21.987  22.799  1.00  0.00     0.001 A 
ENDBRANCH  21  23
ENDBRANCH  19  21
ENDBRANCH   6   9
ENDBRANCH   4   5
ENDBRANCH   3   4
ENDBRANCH   2   3
ENDBRANCH   1   2
BRANCH   1  33
ATOM     33  C   UNL A   1      35.667  21.880  25.376  1.00  0.00     0.021 C 
BRANCH  33  34
ATOM     34  C   UNL A   1      37.103  21.959  24.867  1.00  0.00     0.116 C 
BRANCH  34  35
ATOM     35  N   UNL A   1      37.934  20.894  25.407  1.00  0.00    -0.352 N 
ATOM     36  C   UNL A   1      39.138  20.980  26.056  1.00  0.00     0.251 C 
ATOM     37  H   UNL A   1      37.582  19.982  25.288  1.00  0.00     0.163 HD
ATOM     38  O   UNL A   1      39.800  19.963  26.262  1.00  0.00    -0.269 OA
BRANCH  36  39
ATOM     39  C   UNL A   1      39.643  22.296  26.494  1.00  0.00     0.039 A 
ATOM     40  C   UNL A   1      40.766  22.349  27.324  1.00  0.00     0.014 A 
ATOM     41  C   UNL A   1      39.013  23.475  26.087  1.00  0.00     0.014 A 
ATOM     42  C   UNL A   1      41.289  23.587  27.700  1.00  0.00     0.010 A 
ATOM     43  C   UNL A   1      39.583  24.706  26.396  1.00  0.00     0.010 A 
ATOM     44  C   UNL A   1      40.722  24.777  27.213  1.00  0.00    -0.014 A 
BRANCH  44  45
ATOM     45  C   UNL A   1      41.311  26.100  27.541  1.00  0.00     0.031 A 
ATOM     46  C   UNL A   1      42.720  26.429  27.128  1.00  0.00     0.074 A 
ATOM     47  C   UNL A   1      40.604  26.977  28.281  1.00  0.00     0.049 A 
ATOM     48  N   UNL A   1      43.416  27.511  27.363  1.00  0.00    -0.248 NA
ATOM     49  C   UNL A   1      43.454  25.397  26.376  1.00  0.00     0.031 C 
ATOM     50  C   UNL A   1      39.257  26.746  28.808  1.00  0.00     0.029 A 
ATOM     51  N   UNL A   1      40.928  28.230  28.738  1.00  0.00    -0.354 N 
ATOM     52  C   UNL A   1      44.674  27.279  26.820  1.00  0.00     0.074 A 
ATOM     53  C   UNL A   1      44.659  25.938  26.278  1.00  0.00     0.031 C 
ATOM     54  C   UNL A   1      38.868  27.823  29.508  1.00  0.00     0.029 A 
ATOM     55  C   UNL A   1      39.948  28.805  29.513  1.00  0.00     0.049 A 
ATOM     56  H   UNL A   1      41.782  28.675  28.531  1.00  0.00     0.167 HD
ATOM     57  C   UNL A   1      45.739  28.115  26.756  1.00  0.00     0.034 A 
ATOM     58  C   UNL A   1      39.924  29.983  30.165  1.00  0.00     0.034 A 
ATOM     59  C   UNL A   1      45.739  29.458  27.269  1.00  0.00     0.049 A 
ATOM     60  C   UNL A   1      41.108  30.904  30.056  1.00  0.00     0.074 A 
ATOM     61  C   UNL A   1      46.736  30.413  27.176  1.00  0.00     0.029 A 
ATOM     62  N   UNL A   1      44.701  30.033  27.986  1.00  0.00    -0.354 N 
ATOM     63  N   UNL A   1      42.232  30.728  29.405  1.00  0.00    -0.248 NA
ATOM     64  C   UNL A   1      41.009  32.200  30.742  1.00  0.00     0.031 C 
ATOM     65  C   UNL A   1      46.316  31.553  27.870  1.00  0.00     0.029 A 
ATOM     66  C   UNL A   1      45.039  31.323  28.358  1.00  0.00     0.049 A 
ATOM     67  H   UNL A   1      43.849  29.588  28.200  1.00  0.00     0.167 HD
ATOM     68  C   UNL A   1      42.959  31.902  29.572  1.00  0.00     0.074 A 
ATOM     69  C   UNL A   1      42.136  32.789  30.369  1.00  0.00     0.031 C 
ATOM     70  C   UNL A   1      44.197  32.213  29.115  1.00  0.00     0.034 A 
BRANCH  57  71
ATOM     71  C   UNL A   1      46.983  27.610  26.072  1.00  0.00     0.023 A 
ATOM     72  C   UNL A   1      47.900  26.810  26.785  1.00  0.00     0.012 A 
ATOM     73  C   UNL A   1      47.221  27.883  24.710  1.00  0.00     0.148 A 
ATOM     74  C   UNL A   1      49.054  26.326  26.169  1.00  0.00     0.002 A 
ATOM     75  C   UNL A   1      48.347  27.356  24.088  1.00  0.00     0.091 A 
ATOM     76  F   UNL A   1      46.350  28.662  24.052  1.00  0.00    -0.205 F 
ATOM     77  C   UNL A   1      49.271  26.590  24.819  1.00  0.00     0.022 A 
BRANCH  75  78
ATOM     78  S   UNL A   1      48.675  27.568  22.336  1.00  0.00     0.127 S 
ATOM     79  O   UNL A   1      48.746  26.181  21.879  1.00  0.00    -0.237 OA
ATOM     80  O   UNL A   1      47.489  28.297  21.887  1.00  0.00    -0.237 OA
ATOM     81  O   UNL A   1      49.920  28.318  22.247  1.00  0.00    -0.744 OA
ENDBRANCH  75  78
ENDBRANCH  57  71
BRANCH  58  82
ATOM     82  C   UNL A   1      38.713  30.381  30.936  1.00  0.00     0.023 A 
ATOM     83  C   UNL A   1      38.628  30.068  32.307  1.00  0.00     0.012 A 
ATOM     84  C   UNL A   1      37.660  31.090  30.328  1.00  0.00     0.148 A 
ATOM     85  C   UNL A   1      37.502  30.426  33.050  1.00  0.00     0.002 A 
ATOM     86  C   UNL A   1      36.567  31.494  31.085  1.00  0.00     0.091 A 
ATOM     87  F   UNL A   1      37.758  31.371  29.021  1.00  0.00    -0.205 F 
ATOM     88  C   UNL A   1      36.477  31.146  32.442  1.00  0.00     0.022 A 
BRANCH  86  89
ATOM     89  S   UNL A   1      35.264  32.536  30.421  1.00  0.00     0.127 S 
ATOM     90  O   UNL A   1      34.326  32.591  31.537  1.00  0.00    -0.237 OA
ATOM     91  O   UNL A   1      35.984  33.783  30.157  1.00  0.00    -0.237 OA
ATOM     92  O   UNL A   1      34.785  31.856  29.225  1.00  0.00    -0.744 OA
ENDBRANCH  86  89
ENDBRANCH  58  82
BRANCH  70  93
ATOM     93  C   UNL A   1      44.733  33.586  29.429  1.00  0.00     0.023 A 
ATOM     94  C   UNL A   1      45.484  33.801  30.601  1.00  0.00     0.012 A 
ATOM     95  C   UNL A   1      44.550  34.648  28.521  1.00  0.00     0.148 A 
ATOM     96  C   UNL A   1      46.013  35.060  30.883  1.00  0.00     0.002 A 
ATOM     97  C   UNL A   1      45.125  35.886  28.781  1.00  0.00     0.091 A 
ATOM     98  F   UNL A   1      43.818  34.429  27.419  1.00  0.00    -0.205 F 
ATOM     99  C   UNL A   1      45.845  36.098  29.969  1.00  0.00     0.022 A 
BRANCH  97 100
ATOM    100  S   UNL A   1      45.047  37.251  27.616  1.00  0.00     0.127 S 
ATOM    101  O   UNL A   1      43.647  37.204  27.197  1.00  0.00    -0.237 OA
ATOM    102  O   UNL A   1      45.393  38.396  28.459  1.00  0.00    -0.237 OA
ATOM    103  O   UNL A   1      46.020  36.949  26.575  1.00  0.00    -0.744 OA
ENDBRANCH  97 100
ENDBRANCH  70  93
ENDBRANCH  44  45
ENDBRANCH  36  39
ENDBRANCH  34  35
ENDBRANCH  33  34
ENDBRANCH   1  33
TORSDOF 18
ENDMDL
MODEL 2
REMARK VINA RESULT:     -12.6      4.966     10.364
REMARK SMILES C[NH+]1CCC2(CC1)OC[C@@H](C(=O)NCCCCCCNC(=O)c1ccc(-c3c4nc(c(-c5cccc(S(=O)(=O)[O-])c5F)c5ccc([nH]5)c(-c5cccc(S(=O)(=O)[O-])c5F)c5nc(c(-c6cccc(S(=O)(=O)[O-])c6F)c6ccc3[nH]6)C=C5)C=C4)cc1)N2C(=O)c1ccc2ccccc2c1
REMARK SMILES IDX 17 1 16 2 15 3 14 4 13 5 11 6 12 7 10 9 1 10 2 11 3 12 7 13
REMARK SMILES IDX 4 15 6 16 5 17 8 18 86 19 9 20 87 21 88 22 89 23 90 24 98 25
REMARK SMILES IDX 91 26 97 27 92 28 96 29 93 30 95 31 94 32 18 33 19 34 20 35
REMARK SMILES IDX 21 36 22 38 23 39 24 40 85 41 25 42 84 43 26 44 27 45 28 46
REMARK SMILES IDX 78 47 29 48 83 49 77 50 79 51 30 52 82 53 76 54 75 55 31 57
REMARK SMILES IDX 63 58 43 59 62 60 44 61 47 62 61 63 80 64 45 65 46 66 60 68
REMARK SMILES IDX 81 69 48 70 32 71 33 72 41 73 34 74 36 75 42 76 35 77 37 78
REMARK SMILES IDX 38 79 39 80 40 81 64 82 65 83 73 84 66 85 68 86 74 87 67 88
REMARK SMILES IDX 69 89 70 90 71 91 72 92 49 93 50 94 58 95 51 96 53 97 59 98
REMARK SMILES IDX 52 99 54 100 55 101 56 102 57 103
REMARK H PARENT 13 8 2 14 20 37 79 56 47 67
REMARK Flexibility Score: inf
ROOT
ATOM      1  C   UNL A   1      31.331  30.263  25.599  1.00  0.00     0.002 C 
ENDROOT
BRANCH   1   2
ATOM      2  C   UNL A   1      32.226  29.170  26.183  1.00  0.00     0.002 C 
BRANCH   2   3
ATOM      3  C   UNL A   1      31.512  28.163  27.082  1.00  0.00     0.021 C 
BRANCH   3   4
ATOM      4  C   UNL A   1      31.773  26.700  26.751  1.00  0.00     0.116 C 
BRANCH   4   5
ATOM      5  N   UNL A   1      30.557  25.933  26.891  1.00  0.00    -0.354 N 
ATOM      6  C   UNL A   1      30.303  24.632  26.587  1.00  0.00     0.245 C 
ATOM      7  O   UNL A   1      29.185  24.201  26.896  1.00  0.00    -0.273 OA
ATOM      8  H   UNL A   1      29.794  26.429  27.266  1.00  0.00     0.163 HD
BRANCH   6   9
ATOM      9  C   UNL A   1      31.413  23.656  26.151  1.00  0.00     0.203 C 
ATOM     10  C   UNL A   1      37.014  22.040  23.812  1.00  0.00     0.332 C 
ATOM     11  N   UNL A   1      35.763  22.736  23.558  1.00  0.00    -0.337 N 
ATOM     12  C   UNL A   1      34.578  21.922  23.787  1.00  0.00     0.267 C 
ATOM     13  C   UNL A   1      35.754  24.081  24.129  1.00  0.00     0.267 C 
ATOM     14  H   UNL A   1      35.709  22.899  22.552  1.00  0.00     0.347 HD
ATOM     15  C   UNL A   1      33.988  22.021  25.177  1.00  0.00     0.120 C 
ATOM     16  C   UNL A   1      35.006  24.293  25.438  1.00  0.00     0.120 C 
ATOM     17  C   UNL A   1      33.732  23.472  25.615  1.00  0.00     0.155 C 
ATOM     18  O   UNL A   1      33.583  23.385  27.062  1.00  0.00    -0.352 OA
ATOM     19  N   UNL A   1      32.435  24.023  25.171  1.00  0.00    -0.295 N 
ATOM     20  C   UNL A   1      32.200  23.317  27.404  1.00  0.00     0.198 C 
BRANCH  19  21
ATOM     21  C   UNL A   1      31.971  24.352  23.893  1.00  0.00     0.256 C 
ATOM     22  O   UNL A   1      31.691  23.487  23.063  1.00  0.00    -0.269 OA
BRANCH  21  23
ATOM     23  C   UNL A   1      31.682  25.746  23.489  1.00  0.00     0.040 A 
ATOM     24  C   UNL A   1      32.726  26.585  23.097  1.00  0.00     0.014 A 
ATOM     25  C   UNL A   1      30.389  26.271  23.592  1.00  0.00     0.022 A 
ATOM     26  C   UNL A   1      32.469  27.891  22.674  1.00  0.00     0.009 A 
ATOM     27  C   UNL A   1      30.100  27.561  23.099  1.00  0.00    -0.018 A 
ATOM     28  C   UNL A   1      31.155  28.367  22.609  1.00  0.00    -0.018 A 
ATOM     29  C   UNL A   1      28.785  28.055  23.027  1.00  0.00     0.009 A 
ATOM     30  C   UNL A   1      30.871  29.613  22.032  1.00  0.00     0.009 A 
ATOM     31  C   UNL A   1      28.517  29.298  22.447  1.00  0.00     0.001 A 
ATOM     32  C   UNL A   1      29.557  30.071  21.938  1.00  0.00     0.001 A 
ENDBRANCH  21  23
ENDBRANCH  19  21
ENDBRANCH   6   9
ENDBRANCH   4   5
ENDBRANCH   3   4
ENDBRANCH   2   3
ENDBRANCH   1   2
BRANCH   1  33
ATOM     33  C   UNL A   1      31.387  31.606  26.330  1.00  0.00     0.021 C 
BRANCH  33  34
ATOM     34  C   UNL A   1      32.676  31.862  27.104  1.00  0.00     0.116 C 
BRANCH  34  35
ATOM     35  N   UNL A   1      32.896  33.279  27.350  1.00  0.00    -0.352 N 
ATOM     36  C   UNL A   1      33.853  33.886  28.119  1.00  0.00     0.251 C 
ATOM     37  H   UNL A   1      32.266  33.888  26.899  1.00  0.00     0.163 HD
ATOM     38  O   UNL A   1      33.765  35.086  28.378  1.00  0.00    -0.269 OA
BRANCH  36  39
ATOM     39  C   UNL A   1      34.982  33.094  28.646  1.00  0.00     0.039 A 
ATOM     40  C   UNL A   1      36.286  33.474  28.322  1.00  0.00     0.014 A 
ATOM     41  C   UNL A   1      34.755  31.980  29.460  1.00  0.00     0.014 A 
ATOM     42  C   UNL A   1      37.364  32.769  28.859  1.00  0.00     0.010 A 
ATOM     43  C   UNL A   1      35.830  31.330  30.058  1.00  0.00     0.010 A 
ATOM     44  C   UNL A   1      37.147  31.711  29.757  1.00  0.00    -0.014 A 
BRANCH  44  45
ATOM     45  C   UNL A   1      38.282  31.000  30.397  1.00  0.00     0.031 A 
ATOM     46  C   UNL A   1      38.717  31.360  31.793  1.00  0.00     0.074 A 
ATOM     47  C   UNL A   1      38.974  30.082  29.693  1.00  0.00     0.049 A 
ATOM     48  N   UNL A   1      39.711  30.881  32.495  1.00  0.00    -0.248 NA
ATOM     49  C   UNL A   1      37.953  32.416  32.478  1.00  0.00     0.031 C 
ATOM     50  C   UNL A   1      38.700  29.699  28.305  1.00  0.00     0.029 A 
ATOM     51  N   UNL A   1      40.063  29.322  30.037  1.00  0.00    -0.354 N 
ATOM     52  C   UNL A   1      39.713  31.596  33.687  1.00  0.00     0.074 A 
ATOM     53  C   UNL A   1      38.646  32.568  33.597  1.00  0.00     0.031 C 
ATOM     54  C   UNL A   1      39.591  28.773  27.921  1.00  0.00     0.029 A 
ATOM     55  C   UNL A   1      40.521  28.521  29.017  1.00  0.00     0.049 A 
ATOM     56  H   UNL A   1      40.478  29.348  30.930  1.00  0.00     0.167 HD
ATOM     57  C   UNL A   1      40.513  31.441  34.769  1.00  0.00     0.034 A 
ATOM     58  C   UNL A   1      41.578  27.688  28.963  1.00  0.00     0.034 A 
ATOM     59  C   UNL A   1      41.553  30.452  34.866  1.00  0.00     0.049 A 
ATOM     60  C   UNL A   1      42.436  27.515  30.187  1.00  0.00     0.074 A 
ATOM     61  C   UNL A   1      42.360  30.157  35.950  1.00  0.00     0.029 A 
ATOM     62  N   UNL A   1      41.942  29.608  33.836  1.00  0.00    -0.354 N 
ATOM     63  N   UNL A   1      42.325  28.089  31.360  1.00  0.00    -0.248 NA
ATOM     64  C   UNL A   1      43.544  26.553  30.092  1.00  0.00     0.031 C 
ATOM     65  C   UNL A   1      43.264  29.161  35.564  1.00  0.00     0.029 A 
ATOM     66  C   UNL A   1      42.990  28.805  34.253  1.00  0.00     0.049 A 
ATOM     67  H   UNL A   1      41.534  29.585  32.941  1.00  0.00     0.167 HD
ATOM     68  C   UNL A   1      43.323  27.534  32.153  1.00  0.00     0.074 A 
ATOM     69  C   UNL A   1      44.015  26.562  31.331  1.00  0.00     0.031 C 
ATOM     70  C   UNL A   1      43.644  27.811  33.441  1.00  0.00     0.034 A 
BRANCH  57  71
ATOM     71  C   UNL A   1      40.270  32.341  35.953  1.00  0.00     0.023 A 
ATOM     72  C   UNL A   1      41.057  33.499  36.127  1.00  0.00     0.012 A 
ATOM     73  C   UNL A   1      39.232  32.071  36.866  1.00  0.00     0.148 A 
ATOM     74  C   UNL A   1      40.843  34.350  37.211  1.00  0.00     0.002 A 
ATOM     75  C   UNL A   1      38.991  32.950  37.915  1.00  0.00     0.091 A 
ATOM     76  F   UNL A   1      38.506  30.956  36.697  1.00  0.00    -0.205 F 
ATOM     77  C   UNL A   1      39.804  34.081  38.098  1.00  0.00     0.022 A 
BRANCH  75  78
ATOM     78  S   UNL A   1      37.627  32.738  39.063  1.00  0.00     0.127 S 
ATOM     79  O   UNL A   1      37.838  33.857  39.981  1.00  0.00    -0.237 OA
ATOM     80  O   UNL A   1      36.463  32.879  38.188  1.00  0.00    -0.237 OA
ATOM     81  O   UNL A   1      37.793  31.414  39.646  1.00  0.00    -0.744 OA
ENDBRANCH  75  78
ENDBRANCH  57  71
BRANCH  58  82
ATOM     82  C   UNL A   1      41.852  26.913  27.720  1.00  0.00     0.023 A 
ATOM     83  C   UNL A   1      42.408  27.566  26.603  1.00  0.00     0.012 A 
ATOM     84  C   UNL A   1      41.590  25.532  27.648  1.00  0.00     0.148 A 
ATOM     85  C   UNL A   1      42.669  26.863  25.426  1.00  0.00     0.002 A 
ATOM     86  C   UNL A   1      41.904  24.826  26.494  1.00  0.00     0.091 A 
ATOM     87  F   UNL A   1      41.053  24.932  28.721  1.00  0.00    -0.205 F 
ATOM     88  C   UNL A   1      42.426  25.493  25.375  1.00  0.00     0.022 A 
BRANCH  86  89
ATOM     89  S   UNL A   1      41.750  23.040  26.382  1.00  0.00     0.127 S 
ATOM     90  O   UNL A   1      42.483  22.601  27.566  1.00  0.00    -0.237 OA
ATOM     91  O   UNL A   1      40.300  22.860  26.451  1.00  0.00    -0.237 OA
ATOM     92  O   UNL A   1      42.340  22.671  25.102  1.00  0.00    -0.744 OA
ENDBRANCH  86  89
ENDBRANCH  58  82
BRANCH  70  93
ATOM     93  C   UNL A   1      44.770  27.028  34.065  1.00  0.00     0.023 A 
ATOM     94  C   UNL A   1      46.101  27.466  33.920  1.00  0.00     0.012 A 
ATOM     95  C   UNL A   1      44.498  25.893  34.856  1.00  0.00     0.148 A 
ATOM     96  C   UNL A   1      47.147  26.767  34.523  1.00  0.00     0.002 A 
ATOM     97  C   UNL A   1      45.539  25.233  35.497  1.00  0.00     0.091 A 
ATOM     98  F   UNL A   1      43.227  25.481  34.968  1.00  0.00    -0.205 F 
ATOM     99  C   UNL A   1      46.866  25.660  35.320  1.00  0.00     0.022 A 
BRANCH  97 100
ATOM    100  S   UNL A   1      45.263  23.860  36.622  1.00  0.00     0.127 S 
ATOM    101  O   UNL A   1      46.629  23.526  37.025  1.00  0.00    -0.237 OA
ATOM    102  O   UNL A   1      44.453  24.479  37.671  1.00  0.00    -0.237 OA
ATOM    103  O   UNL A   1      44.574  22.837  35.848  1.00  0.00    -0.744 OA
ENDBRANCH  97 100
ENDBRANCH  70  93
ENDBRANCH  44  45
ENDBRANCH  36  39
ENDBRANCH  34  35
ENDBRANCH  33  34
ENDBRANCH   1  33
TORSDOF 18
ENDMDL
MODEL 3
REMARK VINA RESULT:     -12.5      2.628      4.339
REMARK SMILES C[NH+]1CCC2(CC1)OC[C@@H](C(=O)NCCCCCCNC(=O)c1ccc(-c3c4nc(c(-c5cccc(S(=O)(=O)[O-])c5F)c5ccc([nH]5)c(-c5cccc(S(=O)(=O)[O-])c5F)c5nc(c(-c6cccc(S(=O)(=O)[O-])c6F)c6ccc3[nH]6)C=C5)C=C4)cc1)N2C(=O)c1ccc2ccccc2c1
REMARK SMILES IDX 17 1 16 2 15 3 14 4 13 5 11 6 12 7 10 9 1 10 2 11 3 12 7 13
REMARK SMILES IDX 4 15 6 16 5 17 8 18 86 19 9 20 87 21 88 22 89 23 90 24 98 25
REMARK SMILES IDX 91 26 97 27 92 28 96 29 93 30 95 31 94 32 18 33 19 34 20 35
REMARK SMILES IDX 21 36 22 38 23 39 24 40 85 41 25 42 84 43 26 44 27 45 28 46
REMARK SMILES IDX 78 47 29 48 83 49 77 50 79 51 30 52 82 53 76 54 75 55 31 57
REMARK SMILES IDX 63 58 43 59 62 60 44 61 47 62 61 63 80 64 45 65 46 66 60 68
REMARK SMILES IDX 81 69 48 70 32 71 33 72 41 73 34 74 36 75 42 76 35 77 37 78
REMARK SMILES IDX 38 79 39 80 40 81 64 82 65 83 73 84 66 85 68 86 74 87 67 88
REMARK SMILES IDX 69 89 70 90 71 91 72 92 49 93 50 94 58 95 51 96 53 97 59 98
REMARK SMILES IDX 52 99 54 100 55 101 56 102 57 103
REMARK H PARENT 13 8 2 14 20 37 79 56 47 67
REMARK Flexibility Score: inf
ROOT
ATOM      1  C   UNL A   1      35.508  21.008  24.912  1.00  0.00     0.002 C 
ENDROOT
BRANCH   1   2
ATOM      2  C   UNL A   1      34.353  20.030  25.130  1.00  0.00     0.002 C 
BRANCH   2   3
ATOM      3  C   UNL A   1      33.034  20.434  24.474  1.00  0.00     0.021 C 
BRANCH   3   4
ATOM      4  C   UNL A   1      33.140  21.540  23.434  1.00  0.00     0.116 C 
BRANCH   4   5
ATOM      5  N   UNL A   1      31.853  22.164  23.238  1.00  0.00    -0.354 N 
ATOM      6  C   UNL A   1      31.403  23.384  23.637  1.00  0.00     0.245 C 
ATOM      7  O   UNL A   1      30.271  23.707  23.252  1.00  0.00    -0.273 OA
ATOM      8  H   UNL A   1      31.200  21.623  22.737  1.00  0.00     0.163 HD
BRANCH   6   9
ATOM      9  C   UNL A   1      32.328  24.435  24.280  1.00  0.00     0.203 C 
ATOM     10  C   UNL A   1      33.699  29.811  27.227  1.00  0.00     0.332 C 
ATOM     11  N   UNL A   1      33.083  29.207  26.056  1.00  0.00    -0.337 N 
ATOM     12  C   UNL A   1      33.955  28.289  25.337  1.00  0.00     0.267 C 
ATOM     13  C   UNL A   1      31.723  28.744  26.325  1.00  0.00     0.267 C 
ATOM     14  H   UNL A   1      32.955  29.949  25.368  1.00  0.00     0.347 HD
ATOM     15  C   UNL A   1      33.845  26.838  25.755  1.00  0.00     0.120 C 
ATOM     16  C   UNL A   1      31.512  27.255  26.562  1.00  0.00     0.120 C 
ATOM     17  C   UNL A   1      32.398  26.321  25.743  1.00  0.00     0.155 C 
ATOM     18  O   UNL A   1      32.448  25.108  26.548  1.00  0.00    -0.352 OA
ATOM     19  N   UNL A   1      31.935  25.837  24.425  1.00  0.00    -0.295 N 
ATOM     20  C   UNL A   1      32.582  23.968  25.701  1.00  0.00     0.198 C 
BRANCH  19  21
ATOM     21  C   UNL A   1      31.673  26.527  23.238  1.00  0.00     0.256 C 
ATOM     22  O   UNL A   1      32.338  26.339  22.219  1.00  0.00    -0.269 OA
BRANCH  21  23
ATOM     23  C   UNL A   1      30.521  27.444  23.091  1.00  0.00     0.040 A 
ATOM     24  C   UNL A   1      29.263  27.058  23.553  1.00  0.00     0.014 A 
ATOM     25  C   UNL A   1      30.650  28.655  22.400  1.00  0.00     0.022 A 
ATOM     26  C   UNL A   1      28.172  27.924  23.459  1.00  0.00     0.009 A 
ATOM     27  C   UNL A   1      29.580  29.574  22.362  1.00  0.00    -0.018 A 
ATOM     28  C   UNL A   1      28.334  29.208  22.925  1.00  0.00    -0.018 A 
ATOM     29  C   UNL A   1      29.725  30.867  21.830  1.00  0.00     0.009 A 
ATOM     30  C   UNL A   1      27.290  30.143  22.978  1.00  0.00     0.009 A 
ATOM     31  C   UNL A   1      28.676  31.789  21.890  1.00  0.00     0.001 A 
ATOM     32  C   UNL A   1      27.465  31.432  22.475  1.00  0.00     0.001 A 
ENDBRANCH  21  23
ENDBRANCH  19  21
ENDBRANCH   6   9
ENDBRANCH   4   5
ENDBRANCH   3   4
ENDBRANCH   2   3
ENDBRANCH   1   2
BRANCH   1  33
ATOM     33  C   UNL A   1      35.628  22.116  25.961  1.00  0.00     0.021 C 
BRANCH  33  34
ATOM     34  C   UNL A   1      36.924  22.918  25.900  1.00  0.00     0.116 C 
BRANCH  34  35
ATOM     35  N   UNL A   1      38.098  22.073  26.055  1.00  0.00    -0.352 N 
ATOM     36  C   UNL A   1      39.386  22.428  26.360  1.00  0.00     0.251 C 
ATOM     37  H   UNL A   1      37.946  21.109  25.921  1.00  0.00     0.163 HD
ATOM     38  O   UNL A   1      40.294  21.605  26.249  1.00  0.00    -0.269 OA
BRANCH  36  39
ATOM     39  C   UNL A   1      39.681  23.803  26.809  1.00  0.00     0.039 A 
ATOM     40  C   UNL A   1      39.791  24.060  28.178  1.00  0.00     0.014 A 
ATOM     41  C   UNL A   1      39.852  24.836  25.883  1.00  0.00     0.014 A 
ATOM     42  C   UNL A   1      40.126  25.343  28.614  1.00  0.00     0.010 A 
ATOM     43  C   UNL A   1      40.265  26.092  26.317  1.00  0.00     0.010 A 
ATOM     44  C   UNL A   1      40.397  26.362  27.687  1.00  0.00    -0.014 A 
BRANCH  44  45
ATOM     45  C   UNL A   1      40.829  27.711  28.132  1.00  0.00     0.031 A 
ATOM     46  C   UNL A   1      42.289  28.076  28.150  1.00  0.00     0.074 A 
ATOM     47  C   UNL A   1      39.912  28.583  28.596  1.00  0.00     0.049 A 
ATOM     48  N   UNL A   1      42.857  29.185  28.548  1.00  0.00    -0.248 NA
ATOM     49  C   UNL A   1      43.239  27.050  27.688  1.00  0.00     0.031 C 
ATOM     50  C   UNL A   1      38.474  28.322  28.702  1.00  0.00     0.029 A 
ATOM     51  N   UNL A   1      40.053  29.857  29.087  1.00  0.00    -0.354 N 
ATOM     52  C   UNL A   1      44.225  28.981  28.416  1.00  0.00     0.074 A 
ATOM     53  C   UNL A   1      44.405  27.628  27.938  1.00  0.00     0.031 C 
ATOM     54  C   UNL A   1      37.868  29.402  29.217  1.00  0.00     0.029 A 
ATOM     55  C   UNL A   1      38.872  30.419  29.512  1.00  0.00     0.049 A 
ATOM     56  H   UNL A   1      40.919  30.324  29.132  1.00  0.00     0.167 HD
ATOM     57  C   UNL A   1      45.239  29.850  28.645  1.00  0.00     0.034 A 
ATOM     58  C   UNL A   1      38.625  31.612  30.088  1.00  0.00     0.034 A 
ATOM     59  C   UNL A   1      45.053  31.205  29.090  1.00  0.00     0.049 A 
ATOM     60  C   UNL A   1      39.766  32.567  30.309  1.00  0.00     0.074 A 
ATOM     61  C   UNL A   1      46.009  32.189  29.269  1.00  0.00     0.029 A 
ATOM     62  N   UNL A   1      43.834  31.762  29.443  1.00  0.00    -0.354 N 
ATOM     63  N   UNL A   1      41.037  32.412  30.031  1.00  0.00    -0.248 NA
ATOM     64  C   UNL A   1      39.433  33.876  30.890  1.00  0.00     0.031 C 
ATOM     65  C   UNL A   1      45.372  33.331  29.766  1.00  0.00     0.029 A 
ATOM     66  C   UNL A   1      44.014  33.072  29.856  1.00  0.00     0.049 A 
ATOM     67  H   UNL A   1      42.968  31.296  29.406  1.00  0.00     0.167 HD
ATOM     68  C   UNL A   1      41.652  33.613  30.369  1.00  0.00     0.074 A 
ATOM     69  C   UNL A   1      40.606  34.492  30.852  1.00  0.00     0.031 C 
ATOM     70  C   UNL A   1      42.962  33.953  30.295  1.00  0.00     0.034 A 
BRANCH  57  71
ATOM     71  C   UNL A   1      46.643  29.369  28.384  1.00  0.00     0.023 A 
ATOM     72  C   UNL A   1      47.231  29.576  27.118  1.00  0.00     0.012 A 
ATOM     73  C   UNL A   1      47.400  28.759  29.403  1.00  0.00     0.148 A 
ATOM     74  C   UNL A   1      48.532  29.146  26.858  1.00  0.00     0.002 A 
ATOM     75  C   UNL A   1      48.714  28.379  29.152  1.00  0.00     0.091 A 
ATOM     76  F   UNL A   1      46.820  28.552  30.594  1.00  0.00    -0.205 F 
ATOM     77  C   UNL A   1      49.276  28.558  27.877  1.00  0.00     0.022 A 
BRANCH  75  78
ATOM     78  S   UNL A   1      49.782  27.689  30.420  1.00  0.00     0.127 S 
ATOM     79  O   UNL A   1      51.043  27.542  29.694  1.00  0.00    -0.237 OA
ATOM     80  O   UNL A   1      49.781  28.746  31.431  1.00  0.00    -0.237 OA
ATOM     81  O   UNL A   1      49.156  26.444  30.840  1.00  0.00    -0.744 OA
ENDBRANCH  75  78
ENDBRANCH  57  71
BRANCH  58  82
ATOM     82  C   UNL A   1      37.229  31.989  30.446  1.00  0.00     0.023 A 
ATOM     83  C   UNL A   1      36.725  31.659  31.720  1.00  0.00     0.012 A 
ATOM     84  C   UNL A   1      36.409  32.694  29.545  1.00  0.00     0.148 A 
ATOM     85  C   UNL A   1      35.420  31.997  32.077  1.00  0.00     0.002 A 
ATOM     86  C   UNL A   1      35.130  33.079  29.928  1.00  0.00     0.091 A 
ATOM     87  F   UNL A   1      36.906  32.991  28.336  1.00  0.00    -0.205 F 
ATOM     88  C   UNL A   1      34.626  32.715  31.186  1.00  0.00     0.022 A 
BRANCH  86  89
ATOM     89  S   UNL A   1      34.086  34.116  28.898  1.00  0.00     0.127 S 
ATOM     90  O   UNL A   1      35.039  35.106  28.405  1.00  0.00    -0.237 OA
ATOM     91  O   UNL A   1      33.611  33.162  27.896  1.00  0.00    -0.237 OA
ATOM     92  O   UNL A   1      33.045  34.628  29.780  1.00  0.00    -0.744 OA
ENDBRANCH  86  89
ENDBRANCH  58  82
BRANCH  70  93
ATOM     93  C   UNL A   1      43.346  35.349  30.709  1.00  0.00     0.023 A 
ATOM     94  C   UNL A   1      43.749  35.609  32.034  1.00  0.00     0.012 A 
ATOM     95  C   UNL A   1      43.376  36.393  29.762  1.00  0.00     0.148 A 
ATOM     96  C   UNL A   1      44.139  36.892  32.418  1.00  0.00     0.002 A 
ATOM     97  C   UNL A   1      43.816  37.655  30.138  1.00  0.00     0.091 A 
ATOM     98  F   UNL A   1      42.972  36.131  28.510  1.00  0.00    -0.205 F 
ATOM     99  C   UNL A   1      44.185  37.910  31.469  1.00  0.00     0.022 A 
BRANCH  97 100
ATOM    100  S   UNL A   1      44.003  39.001  28.964  1.00  0.00     0.127 S 
ATOM    101  O   UNL A   1      42.843  38.804  28.097  1.00  0.00    -0.237 OA
ATOM    102  O   UNL A   1      43.924  40.179  29.829  1.00  0.00    -0.237 OA
ATOM    103  O   UNL A   1      45.299  38.804  28.327  1.00  0.00    -0.744 OA
ENDBRANCH  97 100
ENDBRANCH  70  93
ENDBRANCH  44  45
ENDBRANCH  36  39
ENDBRANCH  34  35
ENDBRANCH  33  34
ENDBRANCH   1  33
TORSDOF 18
ENDMDL
