MODEL 1
REMARK VINA RESULT:     -10.1      0.000      0.000
REMARK SMILES C=CCCCOc1ccc(C(=O)NCCCCCCNC(=O)c2ccc(-c3c4nc(c(-c5cccc(S(=O)(=O)[O-])c5F)c5ccc([nH]5)c(-c5cccc(S(=O)(=O)[O-])c5F)c5nc(c(-c6cccc(S(=O)(=O)[O-])c6F)c6ccc3[nH]6)C=C5)C=C4)cc2)cc1[N+](=O)[O-]
REMARK SMILES IDX 15 1 14 2 13 3 11 4 12 5 10 7 7 8 8 9 87 10 9 11 86 12 6 13
REMARK SMILES IDX 5 14 4 15 3 16 2 17 1 18 88 19 89 20 90 21 16 22 17 23 18 24
REMARK SMILES IDX 19 25 20 26 21 27 22 29 23 30 24 31 85 32 25 33 84 34 26 35
REMARK SMILES IDX 27 36 28 37 78 38 29 39 83 40 77 41 79 42 30 43 82 44 76 45
REMARK SMILES IDX 75 46 31 48 63 49 43 50 62 51 44 52 47 53 61 54 80 55 45 56
REMARK SMILES IDX 46 57 60 59 81 60 48 61 32 62 33 63 41 64 34 65 36 66 42 67
REMARK SMILES IDX 35 68 37 69 38 70 39 71 40 72 64 73 65 74 73 75 66 76 68 77
REMARK SMILES IDX 74 78 67 79 69 80 70 81 71 82 72 83 49 84 50 85 58 86 51 87
REMARK SMILES IDX 53 88 59 89 52 90 54 91 55 92 56 93 57 94
REMARK H PARENT 13 6 20 28 79 47 47 58
REMARK Flexibility Score: inf
ROOT
ATOM      1  C   UNL A   1      31.875  28.864  23.376  1.00  0.00     0.021 C 
ENDROOT
BRANCH   1   2
ATOM      2  C   UNL A   1      31.274  27.703  22.585  1.00  0.00     0.116 C 
BRANCH   2   3
ATOM      3  N   UNL A   1      29.899  27.448  22.991  1.00  0.00    -0.352 N 
ATOM      4  C   UNL A   1      29.362  26.413  23.717  1.00  0.00     0.251 C 
ATOM      5  O   UNL A   1      28.187  26.440  24.056  1.00  0.00    -0.269 OA
ATOM      6  H   UNL A   1      29.249  28.128  22.699  1.00  0.00     0.163 HD
BRANCH   4   7
ATOM      7  C   UNL A   1      30.217  25.288  24.158  1.00  0.00     0.046 A 
ATOM      8  C   UNL A   1      32.041  23.371  25.078  1.00  0.00     0.197 A 
ATOM      9  C   UNL A   1      31.367  24.188  25.989  1.00  0.00     0.055 A 
ATOM     10  C   UNL A   1      31.679  23.426  23.728  1.00  0.00     0.311 A 
ATOM     11  C   UNL A   1      30.465  25.151  25.530  1.00  0.00     0.018 A 
ATOM     12  C   UNL A   1      30.769  24.379  23.257  1.00  0.00     0.103 A 
BRANCH   8  13
ATOM     13  O   UNL A   1      33.026  22.524  25.495  1.00  0.00    -0.487 OA
BRANCH  13  14
ATOM     14  C   UNL A   1      33.594  22.855  26.773  1.00  0.00     0.230 C 
BRANCH  14  15
ATOM     15  C   UNL A   1      35.103  23.111  26.675  1.00  0.00     0.046 C 
BRANCH  15  16
ATOM     16  C   UNL A   1      35.569  23.801  25.385  1.00  0.00     0.030 C 
BRANCH  16  17
ATOM     17  C   UNL A   1      37.049  23.715  25.131  1.00  0.00    -0.035 C 
ATOM     18  C   UNL A   1      37.958  23.747  26.113  1.00  0.00     0.004 C 
ENDBRANCH  16  17
ENDBRANCH  15  16
ENDBRANCH  14  15
ENDBRANCH  13  14
ENDBRANCH   8  13
BRANCH  10  19
ATOM     19  N   UNL A   1      32.327  22.564  22.753  1.00  0.00     0.066 N 
ATOM     20  O   UNL A   1      31.825  21.442  22.588  1.00  0.00    -0.258 OA
ATOM     21  O   UNL A   1      33.348  22.983  22.194  1.00  0.00    -0.258 OA
ENDBRANCH  10  19
ENDBRANCH   4   7
ENDBRANCH   2   3
ENDBRANCH   1   2
BRANCH   1  22
ATOM     22  C   UNL A   1      31.027  29.304  24.576  1.00  0.00     0.002 C 
BRANCH  22  23
ATOM     23  C   UNL A   1      31.604  28.944  25.949  1.00  0.00     0.002 C 
BRANCH  23  24
ATOM     24  C   UNL A   1      32.838  28.035  25.928  1.00  0.00     0.021 C 
BRANCH  24  25
ATOM     25  C   UNL A   1      34.164  28.739  26.203  1.00  0.00     0.116 C 
BRANCH  25  26
ATOM     26  N   UNL A   1      33.972  30.115  26.629  1.00  0.00    -0.352 N 
ATOM     27  C   UNL A   1      34.658  30.843  27.568  1.00  0.00     0.251 C 
ATOM     28  H   UNL A   1      33.242  30.595  26.176  1.00  0.00     0.163 HD
ATOM     29  O   UNL A   1      34.217  31.934  27.925  1.00  0.00    -0.269 OA
BRANCH  27  30
ATOM     30  C   UNL A   1      35.916  30.328  28.157  1.00  0.00     0.039 A 
ATOM     31  C   UNL A   1      37.104  30.471  27.432  1.00  0.00     0.014 A 
ATOM     32  C   UNL A   1      35.925  29.649  29.379  1.00  0.00     0.014 A 
ATOM     33  C   UNL A   1      38.300  29.955  27.940  1.00  0.00     0.010 A 
ATOM     34  C   UNL A   1      37.128  29.189  29.913  1.00  0.00     0.010 A 
ATOM     35  C   UNL A   1      38.322  29.312  29.188  1.00  0.00    -0.014 A 
BRANCH  35  36
ATOM     36  C   UNL A   1      39.573  28.717  29.723  1.00  0.00     0.031 A 
ATOM     37  C   UNL A   1      40.217  29.302  30.953  1.00  0.00     0.074 A 
ATOM     38  C   UNL A   1      40.165  27.695  29.074  1.00  0.00     0.049 A 
ATOM     39  N   UNL A   1      41.326  28.950  31.552  1.00  0.00    -0.248 NA
ATOM     40  C   UNL A   1      39.541  30.451  31.577  1.00  0.00     0.031 C 
ATOM     41  C   UNL A   1      39.681  27.089  27.832  1.00  0.00     0.029 A 
ATOM     42  N   UNL A   1      41.315  27.001  29.356  1.00  0.00    -0.354 N 
ATOM     43  C   UNL A   1      41.500  29.854  32.593  1.00  0.00     0.074 A 
ATOM     44  C   UNL A   1      40.400  30.792  32.526  1.00  0.00     0.031 C 
ATOM     45  C   UNL A   1      40.527  26.114  27.461  1.00  0.00     0.029 A 
ATOM     46  C   UNL A   1      41.619  26.034  28.427  1.00  0.00     0.049 A 
ATOM     47  H   UNL A   1      41.870  27.180  30.149  1.00  0.00     0.167 HD
ATOM     48  C   UNL A   1      42.466  29.883  33.541  1.00  0.00     0.034 A 
ATOM     49  C   UNL A   1      42.657  25.176  28.367  1.00  0.00     0.034 A 
ATOM     50  C   UNL A   1      43.521  28.913  33.644  1.00  0.00     0.049 A 
ATOM     51  C   UNL A   1      43.673  25.179  29.478  1.00  0.00     0.074 A 
ATOM     52  C   UNL A   1      44.502  28.806  34.613  1.00  0.00     0.029 A 
ATOM     53  N   UNL A   1      43.727  27.873  32.750  1.00  0.00    -0.354 N 
ATOM     54  N   UNL A   1      43.732  25.944  30.541  1.00  0.00    -0.248 NA
ATOM     55  C   UNL A   1      44.740  24.168  29.407  1.00  0.00     0.031 C 
ATOM     56  C   UNL A   1      45.303  27.701  34.305  1.00  0.00     0.029 A 
ATOM     57  C   UNL A   1      44.813  27.115  33.149  1.00  0.00     0.049 A 
ATOM     58  H   UNL A   1      43.180  27.700  31.950  1.00  0.00     0.167 HD
ATOM     59  C   UNL A   1      44.812  25.482  31.285  1.00  0.00     0.074 A 
ATOM     60  C   UNL A   1      45.369  24.359  30.559  1.00  0.00     0.031 C 
ATOM     61  C   UNL A   1      45.309  25.955  32.454  1.00  0.00     0.034 A 
BRANCH  48  62
ATOM     62  C   UNL A   1      42.383  30.962  34.590  1.00  0.00     0.023 A 
ATOM     63  C   UNL A   1      41.743  30.683  35.815  1.00  0.00     0.012 A 
ATOM     64  C   UNL A   1      42.975  32.224  34.392  1.00  0.00     0.148 A 
ATOM     65  C   UNL A   1      41.664  31.653  36.813  1.00  0.00     0.002 A 
ATOM     66  C   UNL A   1      42.927  33.173  35.408  1.00  0.00     0.091 A 
ATOM     67  F   UNL A   1      43.559  32.480  33.212  1.00  0.00    -0.205 F 
ATOM     68  C   UNL A   1      42.264  32.893  36.614  1.00  0.00     0.022 A 
BRANCH  66  69
ATOM     69  S   UNL A   1      43.735  34.772  35.276  1.00  0.00     0.127 S 
ATOM     70  O   UNL A   1      43.325  35.414  36.523  1.00  0.00    -0.237 OA
ATOM     71  O   UNL A   1      45.150  34.402  35.217  1.00  0.00    -0.237 OA
ATOM     72  O   UNL A   1      43.220  35.380  34.056  1.00  0.00    -0.744 OA
ENDBRANCH  66  69
ENDBRANCH  48  62
BRANCH  49  73
ATOM     73  C   UNL A   1      42.728  24.174  27.266  1.00  0.00     0.023 A 
ATOM     74  C   UNL A   1      43.502  24.462  26.125  1.00  0.00     0.012 A 
ATOM     75  C   UNL A   1      42.069  22.933  27.352  1.00  0.00     0.148 A 
ATOM     76  C   UNL A   1      43.592  23.548  25.076  1.00  0.00     0.002 A 
ATOM     77  C   UNL A   1      42.205  22.005  26.325  1.00  0.00     0.091 A 
ATOM     78  F   UNL A   1      41.325  22.681  28.439  1.00  0.00    -0.205 F 
ATOM     79  C   UNL A   1      42.953  22.316  25.179  1.00  0.00     0.022 A 
BRANCH  77  80
ATOM     80  S   UNL A   1      41.521  20.347  26.437  1.00  0.00     0.127 S 
ATOM     81  O   UNL A   1      40.094  20.597  26.262  1.00  0.00    -0.237 OA
ATOM     82  O   UNL A   1      42.171  19.670  25.313  1.00  0.00    -0.237 OA
ATOM     83  O   UNL A   1      41.927  19.849  27.745  1.00  0.00    -0.744 OA
ENDBRANCH  77  80
ENDBRANCH  49  73
BRANCH  61  84
ATOM     84  C   UNL A   1      46.488  25.239  33.056  1.00  0.00     0.023 A 
ATOM     85  C   UNL A   1      47.789  25.735  32.842  1.00  0.00     0.012 A 
ATOM     86  C   UNL A   1      46.301  24.127  33.899  1.00  0.00     0.148 A 
ATOM     87  C   UNL A   1      48.889  25.118  33.437  1.00  0.00     0.002 A 
ATOM     88  C   UNL A   1      47.398  23.543  34.524  1.00  0.00     0.091 A 
ATOM     89  F   UNL A   1      45.058  23.654  34.073  1.00  0.00    -0.205 F 
ATOM     90  C   UNL A   1      48.692  24.032  34.287  1.00  0.00     0.022 A 
BRANCH  88  91
ATOM     91  S   UNL A   1      47.219  22.200  35.705  1.00  0.00     0.127 S 
ATOM     92  O   UNL A   1      46.279  22.771  36.667  1.00  0.00    -0.237 OA
ATOM     93  O   UNL A   1      46.668  21.126  34.879  1.00  0.00    -0.237 OA
ATOM     94  O   UNL A   1      48.560  21.940  36.211  1.00  0.00    -0.744 OA
ENDBRANCH  88  91
ENDBRANCH  61  84
ENDBRANCH  35  36
ENDBRANCH  27  30
ENDBRANCH  25  26
ENDBRANCH  24  25
ENDBRANCH  23  24
ENDBRANCH  22  23
ENDBRANCH   1  22
TORSDOF 22
ENDMDL
MODEL 2
REMARK VINA RESULT:      -9.7      4.945     11.393
REMARK SMILES C=CCCCOc1ccc(C(=O)NCCCCCCNC(=O)c2ccc(-c3c4nc(c(-c5cccc(S(=O)(=O)[O-])c5F)c5ccc([nH]5)c(-c5cccc(S(=O)(=O)[O-])c5F)c5nc(c(-c6cccc(S(=O)(=O)[O-])c6F)c6ccc3[nH]6)C=C5)C=C4)cc2)cc1[N+](=O)[O-]
REMARK SMILES IDX 15 1 14 2 13 3 11 4 12 5 10 7 7 8 8 9 87 10 9 11 86 12 6 13
REMARK SMILES IDX 5 14 4 15 3 16 2 17 1 18 88 19 89 20 90 21 16 22 17 23 18 24
REMARK SMILES IDX 19 25 20 26 21 27 22 29 23 30 24 31 85 32 25 33 84 34 26 35
REMARK SMILES IDX 27 36 28 37 78 38 29 39 83 40 77 41 79 42 30 43 82 44 76 45
REMARK SMILES IDX 75 46 31 48 63 49 43 50 62 51 44 52 47 53 61 54 80 55 45 56
REMARK SMILES IDX 46 57 60 59 81 60 48 61 32 62 33 63 41 64 34 65 36 66 42 67
REMARK SMILES IDX 35 68 37 69 38 70 39 71 40 72 64 73 65 74 73 75 66 76 68 77
REMARK SMILES IDX 74 78 67 79 69 80 70 81 71 82 72 83 49 84 50 85 58 86 51 87
REMARK SMILES IDX 53 88 59 89 52 90 54 91 55 92 56 93 57 94
REMARK H PARENT 13 6 20 28 79 47 47 58
REMARK Flexibility Score: inf
ROOT
ATOM      1  C   UNL A   1      44.705  22.973  27.937  1.00  0.00     0.021 C 
ENDROOT
BRANCH   1   2
ATOM      2  C   UNL A   1      45.820  23.965  27.607  1.00  0.00     0.116 C 
BRANCH   2   3
ATOM      3  N   UNL A   1      46.296  23.782  26.243  1.00  0.00    -0.352 N 
ATOM      4  C   UNL A   1      46.473  24.695  25.232  1.00  0.00     0.251 C 
ATOM      5  O   UNL A   1      46.998  24.357  24.180  1.00  0.00    -0.269 OA
ATOM      6  H   UNL A   1      46.529  22.855  26.007  1.00  0.00     0.163 HD
BRANCH   4   7
ATOM      7  C   UNL A   1      46.095  26.112  25.430  1.00  0.00     0.046 A 
ATOM      8  C   UNL A   1      45.419  28.745  26.106  1.00  0.00     0.197 A 
ATOM      9  C   UNL A   1      46.741  28.309  26.231  1.00  0.00     0.055 A 
ATOM     10  C   UNL A   1      44.484  27.898  25.503  1.00  0.00     0.311 A 
ATOM     11  C   UNL A   1      47.076  26.993  25.903  1.00  0.00     0.018 A 
ATOM     12  C   UNL A   1      44.810  26.580  25.160  1.00  0.00     0.103 A 
BRANCH   8  13
ATOM     13  O   UNL A   1      45.046  29.979  26.552  1.00  0.00    -0.487 OA
BRANCH  13  14
ATOM     14  C   UNL A   1      46.070  30.983  26.451  1.00  0.00     0.230 C 
BRANCH  14  15
ATOM     15  C   UNL A   1      45.783  32.181  27.364  1.00  0.00     0.046 C 
BRANCH  15  16
ATOM     16  C   UNL A   1      44.340  32.706  27.324  1.00  0.00     0.030 C 
BRANCH  16  17
ATOM     17  C   UNL A   1      44.148  33.944  26.492  1.00  0.00    -0.035 C 
ATOM     18  C   UNL A   1      44.378  35.177  26.961  1.00  0.00     0.004 C 
ENDBRANCH  16  17
ENDBRANCH  15  16
ENDBRANCH  14  15
ENDBRANCH  13  14
ENDBRANCH   8  13
BRANCH  10  19
ATOM     19  N   UNL A   1      43.108  28.329  25.317  1.00  0.00     0.066 N 
ATOM     20  O   UNL A   1      42.457  27.735  24.445  1.00  0.00    -0.258 OA
ATOM     21  O   UNL A   1      42.698  29.275  26.000  1.00  0.00    -0.258 OA
ENDBRANCH  10  19
ENDBRANCH   4   7
ENDBRANCH   2   3
ENDBRANCH   1   2
BRANCH   1  22
ATOM     22  C   UNL A   1      43.299  23.585  27.911  1.00  0.00     0.002 C 
BRANCH  22  23
ATOM     23  C   UNL A   1      42.211  22.751  28.596  1.00  0.00     0.002 C 
BRANCH  23  24
ATOM     24  C   UNL A   1      41.636  21.603  27.759  1.00  0.00     0.021 C 
BRANCH  24  25
ATOM     25  C   UNL A   1      41.364  21.944  26.296  1.00  0.00     0.116 C 
BRANCH  25  26
ATOM     26  N   UNL A   1      39.943  21.947  25.992  1.00  0.00    -0.352 N 
ATOM     27  C   UNL A   1      38.982  22.872  26.312  1.00  0.00     0.251 C 
ATOM     28  H   UNL A   1      39.623  21.168  25.481  1.00  0.00     0.163 HD
ATOM     29  O   UNL A   1      37.797  22.597  26.133  1.00  0.00    -0.269 OA
BRANCH  27  30
ATOM     30  C   UNL A   1      39.356  24.191  26.873  1.00  0.00     0.039 A 
ATOM     31  C   UNL A   1      40.041  25.097  26.056  1.00  0.00     0.014 A 
ATOM     32  C   UNL A   1      39.099  24.516  28.208  1.00  0.00     0.014 A 
ATOM     33  C   UNL A   1      40.449  26.332  26.570  1.00  0.00     0.010 A 
ATOM     34  C   UNL A   1      39.450  25.771  28.702  1.00  0.00     0.010 A 
ATOM     35  C   UNL A   1      40.152  26.681  27.897  1.00  0.00    -0.014 A 
BRANCH  35  36
ATOM     36  C   UNL A   1      40.616  27.968  28.475  1.00  0.00     0.031 A 
ATOM     37  C   UNL A   1      42.044  28.118  28.928  1.00  0.00     0.074 A 
ATOM     38  C   UNL A   1      39.744  28.980  28.652  1.00  0.00     0.049 A 
ATOM     39  N   UNL A   1      42.630  29.143  29.490  1.00  0.00    -0.248 NA
ATOM     40  C   UNL A   1      42.925  26.951  28.752  1.00  0.00     0.031 C 
ATOM     41  C   UNL A   1      38.318  28.934  28.323  1.00  0.00     0.029 A 
ATOM     42  N   UNL A   1      39.924  30.237  29.174  1.00  0.00    -0.354 N 
ATOM     43  C   UNL A   1      43.929  28.735  29.769  1.00  0.00     0.074 A 
ATOM     44  C   UNL A   1      44.038  27.356  29.345  1.00  0.00     0.031 C 
ATOM     45  C   UNL A   1      37.754  30.109  28.650  1.00  0.00     0.029 A 
ATOM     46  C   UNL A   1      38.772  30.986  29.223  1.00  0.00     0.049 A 
ATOM     47  H   UNL A   1      40.797  30.570  29.484  1.00  0.00     0.167 HD
ATOM     48  C   UNL A   1      44.950  29.450  30.297  1.00  0.00     0.034 A 
ATOM     49  C   UNL A   1      38.563  32.239  29.673  1.00  0.00     0.034 A 
ATOM     50  C   UNL A   1      44.858  30.838  30.658  1.00  0.00     0.049 A 
ATOM     51  C   UNL A   1      39.734  33.038  30.181  1.00  0.00     0.074 A 
ATOM     52  C   UNL A   1      45.855  31.675  31.127  1.00  0.00     0.029 A 
ATOM     53  N   UNL A   1      43.701  31.598  30.581  1.00  0.00    -0.354 N 
ATOM     54  N   UNL A   1      40.991  32.682  30.291  1.00  0.00    -0.248 NA
ATOM     55  C   UNL A   1      39.467  34.428  30.584  1.00  0.00     0.031 C 
ATOM     56  C   UNL A   1      45.300  32.943  31.334  1.00  0.00     0.029 A 
ATOM     57  C   UNL A   1      43.960  32.896  30.985  1.00  0.00     0.049 A 
ATOM     58  H   UNL A   1      42.825  31.263  30.284  1.00  0.00     0.167 HD
ATOM     59  C   UNL A   1      41.671  33.811  30.734  1.00  0.00     0.074 A 
ATOM     60  C   UNL A   1      40.688  34.869  30.854  1.00  0.00     0.031 C 
ATOM     61  C   UNL A   1      42.985  33.956  31.028  1.00  0.00     0.034 A 
BRANCH  48  62
ATOM     62  C   UNL A   1      46.282  28.760  30.448  1.00  0.00     0.023 A 
ATOM     63  C   UNL A   1      47.267  28.942  29.457  1.00  0.00     0.012 A 
ATOM     64  C   UNL A   1      46.579  27.981  31.583  1.00  0.00     0.148 A 
ATOM     65  C   UNL A   1      48.515  28.331  29.574  1.00  0.00     0.002 A 
ATOM     66  C   UNL A   1      47.839  27.408  31.712  1.00  0.00     0.091 A 
ATOM     67  F   UNL A   1      45.621  27.799  32.505  1.00  0.00    -0.205 F 
ATOM     68  C   UNL A   1      48.804  27.573  30.705  1.00  0.00     0.022 A 
BRANCH  66  69
ATOM     69  S   UNL A   1      48.333  26.477  33.168  1.00  0.00     0.127 S 
ATOM     70  O   UNL A   1      47.534  25.262  33.027  1.00  0.00    -0.237 OA
ATOM     71  O   UNL A   1      49.768  26.291  32.946  1.00  0.00    -0.237 OA
ATOM     72  O   UNL A   1      48.004  27.319  34.310  1.00  0.00    -0.744 OA
ENDBRANCH  66  69
ENDBRANCH  48  62
BRANCH  49  73
ATOM     73  C   UNL A   1      37.208  32.850  29.565  1.00  0.00     0.023 A 
ATOM     74  C   UNL A   1      36.641  33.039  28.289  1.00  0.00     0.012 A 
ATOM     75  C   UNL A   1      36.468  33.214  30.706  1.00  0.00     0.148 A 
ATOM     76  C   UNL A   1      35.375  33.609  28.150  1.00  0.00     0.002 A 
ATOM     77  C   UNL A   1      35.186  33.734  30.561  1.00  0.00     0.091 A 
ATOM     78  F   UNL A   1      37.029  33.041  31.911  1.00  0.00    -0.205 F 
ATOM     79  C   UNL A   1      34.643  33.946  29.284  1.00  0.00     0.022 A 
BRANCH  77  80
ATOM     80  S   UNL A   1      34.127  34.074  31.973  1.00  0.00     0.127 S 
ATOM     81  O   UNL A   1      34.976  34.943  32.783  1.00  0.00    -0.237 OA
ATOM     82  O   UNL A   1      32.984  34.740  31.347  1.00  0.00    -0.237 OA
ATOM     83  O   UNL A   1      33.816  32.771  32.546  1.00  0.00    -0.744 OA
ENDBRANCH  77  80
ENDBRANCH  49  73
BRANCH  61  84
ATOM     84  C   UNL A   1      43.461  35.314  31.469  1.00  0.00     0.023 A 
ATOM     85  C   UNL A   1      44.001  36.205  30.522  1.00  0.00     0.012 A 
ATOM     86  C   UNL A   1      43.297  35.736  32.802  1.00  0.00     0.148 A 
ATOM     87  C   UNL A   1      44.395  37.489  30.901  1.00  0.00     0.002 A 
ATOM     88  C   UNL A   1      43.652  37.032  33.164  1.00  0.00     0.091 A 
ATOM     89  F   UNL A   1      42.803  34.866  33.695  1.00  0.00    -0.205 F 
ATOM     90  C   UNL A   1      44.210  37.905  32.217  1.00  0.00     0.022 A 
BRANCH  88  91
ATOM     91  S   UNL A   1      43.358  37.674  34.816  1.00  0.00     0.127 S 
ATOM     92  O   UNL A   1      41.919  37.469  34.965  1.00  0.00    -0.237 OA
ATOM     93  O   UNL A   1      44.187  36.800  35.647  1.00  0.00    -0.237 OA
ATOM     94  O   UNL A   1      43.798  39.062  34.783  1.00  0.00    -0.744 OA
ENDBRANCH  88  91
ENDBRANCH  61  84
ENDBRANCH  35  36
ENDBRANCH  27  30
ENDBRANCH  25  26
ENDBRANCH  24  25
ENDBRANCH  23  24
ENDBRANCH  22  23
ENDBRANCH   1  22
TORSDOF 22
ENDMDL
MODEL 3
REMARK VINA RESULT:      -9.4      2.065      2.417
REMARK SMILES C=CCCCOc1ccc(C(=O)NCCCCCCNC(=O)c2ccc(-c3c4nc(c(-c5cccc(S(=O)(=O)[O-])c5F)c5ccc([nH]5)c(-c5cccc(S(=O)(=O)[O-])c5F)c5nc(c(-c6cccc(S(=O)(=O)[O-])c6F)c6ccc3[nH]6)C=C5)C=C4)cc2)cc1[N+](=O)[O-]
REMARK SMILES IDX 15 1 14 2 13 3 11 4 12 5 10 7 7 8 8 9 87 10 9 11 86 12 6 13
REMARK SMILES IDX 5 14 4 15 3 16 2 17 1 18 88 19 89 20 90 21 16 22 17 23 18 24
REMARK SMILES IDX 19 25 20 26 21 27 22 29 23 30 24 31 85 32 25 33 84 34 26 35
REMARK SMILES IDX 27 36 28 37 78 38 29 39 83 40 77 41 79 42 30 43 82 44 76 45
REMARK SMILES IDX 75 46 31 48 63 49 43 50 62 51 44 52 47 53 61 54 80 55 45 56
REMARK SMILES IDX 46 57 60 59 81 60 48 61 32 62 33 63 41 64 34 65 36 66 42 67
REMARK SMILES IDX 35 68 37 69 38 70 39 71 40 72 64 73 65 74 73 75 66 76 68 77
REMARK SMILES IDX 74 78 67 79 69 80 70 81 71 82 72 83 49 84 50 85 58 86 51 87
REMARK SMILES IDX 53 88 59 89 52 90 54 91 55 92 56 93 57 94
REMARK H PARENT 13 6 20 28 79 47 47 58
REMARK Flexibility Score: inf
ROOT
ATOM      1  C   UNL A   1      32.678  28.537  23.951  1.00  0.00     0.021 C 
ENDROOT
BRANCH   1   2
ATOM      2  C   UNL A   1      31.963  28.221  22.637  1.00  0.00     0.116 C 
BRANCH   2   3
ATOM      3  N   UNL A   1      30.542  27.994  22.857  1.00  0.00    -0.352 N 
ATOM      4  C   UNL A   1      29.890  26.953  23.472  1.00  0.00     0.251 C 
ATOM      5  O   UNL A   1      28.683  27.003  23.659  1.00  0.00    -0.269 OA
ATOM      6  H   UNL A   1      29.951  28.702  22.509  1.00  0.00     0.163 HD
BRANCH   4   7
ATOM      7  C   UNL A   1      30.653  25.789  23.978  1.00  0.00     0.046 A 
ATOM      8  C   UNL A   1      32.291  23.791  25.060  1.00  0.00     0.197 A 
ATOM      9  C   UNL A   1      31.500  24.578  25.901  1.00  0.00     0.055 A 
ATOM     10  C   UNL A   1      32.136  23.918  23.676  1.00  0.00     0.311 A 
ATOM     11  C   UNL A   1      30.691  25.581  25.362  1.00  0.00     0.018 A 
ATOM     12  C   UNL A   1      31.321  24.913  23.123  1.00  0.00     0.103 A 
BRANCH   8  13
ATOM     13  O   UNL A   1      33.190  22.904  25.575  1.00  0.00    -0.487 OA
BRANCH  13  14
ATOM     14  C   UNL A   1      34.237  23.504  26.357  1.00  0.00     0.230 C 
BRANCH  14  15
ATOM     15  C   UNL A   1      35.127  24.419  25.508  1.00  0.00     0.046 C 
BRANCH  15  16
ATOM     16  C   UNL A   1      36.356  23.743  24.883  1.00  0.00     0.030 C 
BRANCH  16  17
ATOM     17  C   UNL A   1      37.386  23.279  25.875  1.00  0.00    -0.035 C 
ATOM     18  C   UNL A   1      38.474  23.997  26.184  1.00  0.00     0.004 C 
ENDBRANCH  16  17
ENDBRANCH  15  16
ENDBRANCH  14  15
ENDBRANCH  13  14
ENDBRANCH   8  13
BRANCH  10  19
ATOM     19  N   UNL A   1      32.910  23.090  22.766  1.00  0.00     0.066 N 
ATOM     20  O   UNL A   1      33.067  21.905  23.096  1.00  0.00    -0.258 OA
ATOM     21  O   UNL A   1      33.391  23.625  21.760  1.00  0.00    -0.258 OA
ENDBRANCH  10  19
ENDBRANCH   4   7
ENDBRANCH   2   3
ENDBRANCH   1   2
BRANCH   1  22
ATOM     22  C   UNL A   1      32.010  29.646  24.773  1.00  0.00     0.002 C 
BRANCH  22  23
ATOM     23  C   UNL A   1      31.476  29.212  26.142  1.00  0.00     0.002 C 
BRANCH  23  24
ATOM     24  C   UNL A   1      32.538  28.756  27.149  1.00  0.00     0.021 C 
BRANCH  24  25
ATOM     25  C   UNL A   1      33.850  29.535  27.101  1.00  0.00     0.116 C 
BRANCH  25  26
ATOM     26  N   UNL A   1      33.744  30.823  27.765  1.00  0.00    -0.352 N 
ATOM     27  C   UNL A   1      34.575  31.401  28.691  1.00  0.00     0.251 C 
ATOM     28  H   UNL A   1      32.958  31.361  27.513  1.00  0.00     0.163 HD
ATOM     29  O   UNL A   1      34.208  32.415  29.281  1.00  0.00    -0.269 OA
BRANCH  27  30
ATOM     30  C   UNL A   1      35.903  30.814  28.989  1.00  0.00     0.039 A 
ATOM     31  C   UNL A   1      35.988  29.800  29.949  1.00  0.00     0.014 A 
ATOM     32  C   UNL A   1      37.066  31.297  28.383  1.00  0.00     0.014 A 
ATOM     33  C   UNL A   1      37.232  29.258  30.285  1.00  0.00     0.010 A 
ATOM     34  C   UNL A   1      38.298  30.714  28.673  1.00  0.00     0.010 A 
ATOM     35  C   UNL A   1      38.398  29.708  29.646  1.00  0.00    -0.014 A 
BRANCH  35  36
ATOM     36  C   UNL A   1      39.734  29.178  30.022  1.00  0.00     0.031 A 
ATOM     37  C   UNL A   1      40.521  29.836  31.125  1.00  0.00     0.074 A 
ATOM     38  C   UNL A   1      40.268  28.149  29.334  1.00  0.00     0.049 A 
ATOM     39  N   UNL A   1      41.715  29.547  31.574  1.00  0.00    -0.248 NA
ATOM     40  C   UNL A   1      39.894  30.988  31.794  1.00  0.00     0.031 C 
ATOM     41  C   UNL A   1      39.638  27.475  28.197  1.00  0.00     0.029 A 
ATOM     42  N   UNL A   1      41.472  27.507  29.476  1.00  0.00    -0.354 N 
ATOM     43  C   UNL A   1      41.998  30.499  32.545  1.00  0.00     0.074 A 
ATOM     44  C   UNL A   1      40.864  31.397  32.599  1.00  0.00     0.031 C 
ATOM     45  C   UNL A   1      40.461  26.513  27.746  1.00  0.00     0.029 A 
ATOM     46  C   UNL A   1      41.680  26.511  28.551  1.00  0.00     0.049 A 
ATOM     47  H   UNL A   1      42.126  27.738  30.176  1.00  0.00     0.167 HD
ATOM     48  C   UNL A   1      43.085  30.601  33.345  1.00  0.00     0.034 A 
ATOM     49  C   UNL A   1      42.732  25.686  28.377  1.00  0.00     0.034 A 
ATOM     50  C   UNL A   1      44.181  29.671  33.335  1.00  0.00     0.049 A 
ATOM     51  C   UNL A   1      43.893  25.770  29.332  1.00  0.00     0.074 A 
ATOM     52  C   UNL A   1      45.292  29.639  34.158  1.00  0.00     0.029 A 
ATOM     53  N   UNL A   1      44.300  28.602  32.460  1.00  0.00    -0.354 N 
ATOM     54  N   UNL A   1      44.071  26.581  30.347  1.00  0.00    -0.248 NA
ATOM     55  C   UNL A   1      44.978  24.793  29.149  1.00  0.00     0.031 C 
ATOM     56  C   UNL A   1      46.084  28.548  33.782  1.00  0.00     0.029 A 
ATOM     57  C   UNL A   1      45.460  27.897  32.730  1.00  0.00     0.049 A 
ATOM     58  H   UNL A   1      43.654  28.377  31.753  1.00  0.00     0.167 HD
ATOM     59  C   UNL A   1      45.261  26.188  30.947  1.00  0.00     0.074 A 
ATOM     60  C   UNL A   1      45.754  25.053  30.192  1.00  0.00     0.031 C 
ATOM     61  C   UNL A   1      45.898  26.726  32.015  1.00  0.00     0.034 A 
BRANCH  48  62
ATOM     62  C   UNL A   1      43.108  31.720  34.355  1.00  0.00     0.023 A 
ATOM     63  C   UNL A   1      43.694  32.953  34.003  1.00  0.00     0.012 A 
ATOM     64  C   UNL A   1      42.513  31.575  35.623  1.00  0.00     0.148 A 
ATOM     65  C   UNL A   1      43.718  34.013  34.908  1.00  0.00     0.002 A 
ATOM     66  C   UNL A   1      42.505  32.650  36.504  1.00  0.00     0.091 A 
ATOM     67  F   UNL A   1      41.981  30.388  35.949  1.00  0.00    -0.205 F 
ATOM     68  C   UNL A   1      43.115  33.865  36.153  1.00  0.00     0.022 A 
BRANCH  66  69
ATOM     69  S   UNL A   1      41.687  32.583  38.103  1.00  0.00     0.127 S 
ATOM     70  O   UNL A   1      42.411  31.496  38.759  1.00  0.00    -0.237 OA
ATOM     71  O   UNL A   1      41.960  33.913  38.649  1.00  0.00    -0.237 OA
ATOM     72  O   UNL A   1      40.281  32.323  37.821  1.00  0.00    -0.744 OA
ENDBRANCH  66  69
ENDBRANCH  48  62
BRANCH  49  73
ATOM     73  C   UNL A   1      42.687  24.641  27.316  1.00  0.00     0.023 A 
ATOM     74  C   UNL A   1      43.305  24.896  26.075  1.00  0.00     0.012 A 
ATOM     75  C   UNL A   1      42.073  23.393  27.532  1.00  0.00     0.148 A 
ATOM     76  C   UNL A   1      43.283  23.941  25.059  1.00  0.00     0.002 A 
ATOM     77  C   UNL A   1      42.100  22.426  26.533  1.00  0.00     0.091 A 
ATOM     78  F   UNL A   1      41.478  23.172  28.713  1.00  0.00    -0.205 F 
ATOM     79  C   UNL A   1      42.691  22.703  25.290  1.00  0.00     0.022 A 
BRANCH  77  80
ATOM     80  S   UNL A   1      41.474  20.762  26.795  1.00  0.00     0.127 S 
ATOM     81  O   UNL A   1      41.815  20.111  25.533  1.00  0.00    -0.237 OA
ATOM     82  O   UNL A   1      42.257  20.317  27.949  1.00  0.00    -0.237 OA
ATOM     83  O   UNL A   1      40.051  20.922  27.067  1.00  0.00    -0.744 OA
ENDBRANCH  77  80
ENDBRANCH  49  73
BRANCH  61  84
ATOM     84  C   UNL A   1      47.177  26.076  32.471  1.00  0.00     0.023 A 
ATOM     85  C   UNL A   1      47.144  25.123  33.508  1.00  0.00     0.012 A 
ATOM     86  C   UNL A   1      48.395  26.348  31.819  1.00  0.00     0.148 A 
ATOM     87  C   UNL A   1      48.310  24.469  33.906  1.00  0.00     0.002 A 
ATOM     88  C   UNL A   1      49.545  25.661  32.192  1.00  0.00     0.091 A 
ATOM     89  F   UNL A   1      48.411  27.275  30.850  1.00  0.00    -0.205 F 
ATOM     90  C   UNL A   1      49.506  24.729  33.241  1.00  0.00     0.022 A 
BRANCH  88  91
ATOM     91  S   UNL A   1      51.104  25.871  31.323  1.00  0.00     0.127 S 
ATOM     92  O   UNL A   1      50.843  25.170  30.067  1.00  0.00    -0.237 OA
ATOM     93  O   UNL A   1      51.203  27.325  31.199  1.00  0.00    -0.237 OA
ATOM     94  O   UNL A   1      52.117  25.272  32.182  1.00  0.00    -0.744 OA
ENDBRANCH  88  91
ENDBRANCH  61  84
ENDBRANCH  35  36
ENDBRANCH  27  30
ENDBRANCH  25  26
ENDBRANCH  24  25
ENDBRANCH  23  24
ENDBRANCH  22  23
ENDBRANCH   1  22
TORSDOF 22
ENDMDL
