MODEL 1
REMARK VINA RESULT:     -11.0      0.000      0.000
REMARK SMILES COc1ncccc1C[N@@H+](CC(=O)NCCCCCCNC(=O)c1ccc(-c2c3nc(c(-c4cccc(S(=O)(=O)[O-])c4F)c4ccc([nH]4)c(-c4cccc(S(=O)(=O)[O-])c4F)c4nc(c(-c5cccc(S(=O)(=O)[O-])c5F)c5ccc2[nH]5)C=C4)C=C3)cc1)C1CCCC1
REMARK SMILES IDX 17 1 16 2 15 3 14 4 12 5 13 6 11 8 10 9 9 11 8 12 3 13 4 14
REMARK SMILES IDX 5 15 7 16 6 17 2 18 1 19 87 20 88 21 91 22 89 23 90 24 18 25
REMARK SMILES IDX 19 26 20 27 21 28 22 29 23 31 24 32 25 33 86 34 26 35 85 36
REMARK SMILES IDX 27 37 28 38 29 39 79 40 30 41 84 42 78 43 80 44 31 45 83 46
REMARK SMILES IDX 77 47 76 48 32 50 64 51 44 52 63 53 45 54 48 55 62 56 81 57
REMARK SMILES IDX 46 58 47 59 61 61 82 62 49 63 33 64 34 65 42 66 35 67 37 68
REMARK SMILES IDX 43 69 36 70 38 71 39 72 40 73 41 74 65 75 66 76 74 77 67 78
REMARK SMILES IDX 69 79 75 80 68 81 70 82 71 83 72 84 73 85 50 86 51 87 59 88
REMARK SMILES IDX 52 89 54 90 60 91 53 92 55 93 56 94 57 95 58 96
REMARK H PARENT 14 7 10 10 21 30 80 49 48 60
REMARK Flexibility Score: inf
ROOT
ATOM      1  C   UNL A   1      32.842  22.536  24.792  1.00  0.00     0.002 C 
ENDROOT
BRANCH   1   2
ATOM      2  C   UNL A   1      31.396  23.018  24.759  1.00  0.00     0.021 C 
BRANCH   2   3
ATOM      3  C   UNL A   1      31.015  23.874  23.543  1.00  0.00     0.116 C 
BRANCH   3   4
ATOM      4  N   UNL A   1      32.166  24.612  23.059  1.00  0.00    -0.351 N 
ATOM      5  C   UNL A   1      32.253  25.757  22.322  1.00  0.00     0.275 C 
ATOM      6  O   UNL A   1      33.388  26.116  21.984  1.00  0.00    -0.269 OA
ATOM      7  H   UNL A   1      33.034  24.219  23.303  1.00  0.00     0.163 HD
BRANCH   5   8
ATOM      8  C   UNL A   1      31.025  26.606  21.956  1.00  0.00     0.364 C 
BRANCH   8   9
ATOM      9  N   UNL A   1      30.697  27.751  22.858  1.00  0.00    -0.321 N 
ATOM     10  H   UNL A   1      31.441  28.448  22.848  1.00  0.00     0.349 HD
BRANCH   9  11
ATOM     11  C   UNL A   1      30.691  27.309  24.259  1.00  0.00     0.305 C 
BRANCH  11  12
ATOM     12  C   UNL A   1      31.498  28.040  25.293  1.00  0.00     0.068 A 
ATOM     13  C   UNL A   1      32.449  29.018  25.004  1.00  0.00     0.221 A 
ATOM     14  N   UNL A   1      33.218  29.598  25.955  1.00  0.00    -0.222 NA
ATOM     15  C   UNL A   1      33.073  29.180  27.231  1.00  0.00     0.115 A 
ATOM     16  C   UNL A   1      31.395  27.625  26.635  1.00  0.00     0.017 A 
ATOM     17  C   UNL A   1      32.188  28.196  27.619  1.00  0.00     0.021 A 
BRANCH  13  18
ATOM     18  O   UNL A   1      32.855  29.327  23.737  1.00  0.00    -0.481 OA
ATOM     19  C   UNL A   1      34.171  28.910  23.410  1.00  0.00     0.280 C 
ENDBRANCH  13  18
ENDBRANCH  11  12
ENDBRANCH   9  11
BRANCH   9  20
ATOM     20  C   UNL A   1      29.602  28.594  22.353  1.00  0.00     0.184 C 
ATOM     21  C   UNL A   1      28.331  28.756  23.197  1.00  0.00     0.065 C 
ATOM     22  C   UNL A   1      30.007  30.037  21.983  1.00  0.00     0.065 C 
ATOM     23  C   UNL A   1      27.653  29.982  22.606  1.00  0.00     0.006 C 
ATOM     24  C   UNL A   1      28.801  30.924  22.289  1.00  0.00     0.006 C 
ENDBRANCH   9  20
ENDBRANCH   8   9
ENDBRANCH   5   8
ENDBRANCH   3   4
ENDBRANCH   2   3
ENDBRANCH   1   2
BRANCH   1  25
ATOM     25  C   UNL A   1      33.563  22.778  26.117  1.00  0.00     0.002 C 
BRANCH  25  26
ATOM     26  C   UNL A   1      34.729  21.828  26.408  1.00  0.00     0.021 C 
BRANCH  26  27
ATOM     27  C   UNL A   1      36.065  22.250  25.803  1.00  0.00     0.116 C 
BRANCH  27  28
ATOM     28  N   UNL A   1      36.983  21.125  25.690  1.00  0.00    -0.352 N 
ATOM     29  C   UNL A   1      38.353  21.125  25.752  1.00  0.00     0.251 C 
ATOM     30  H   UNL A   1      36.563  20.245  25.548  1.00  0.00     0.163 HD
ATOM     31  O   UNL A   1      38.992  20.142  25.375  1.00  0.00    -0.269 OA
BRANCH  29  32
ATOM     32  C   UNL A   1      39.053  22.315  26.271  1.00  0.00     0.039 A 
ATOM     33  C   UNL A   1      40.147  22.154  27.125  1.00  0.00     0.014 A 
ATOM     34  C   UNL A   1      38.625  23.593  25.899  1.00  0.00     0.014 A 
ATOM     35  C   UNL A   1      40.851  23.279  27.561  1.00  0.00     0.010 A 
ATOM     36  C   UNL A   1      39.373  24.704  26.272  1.00  0.00     0.010 A 
ATOM     37  C   UNL A   1      40.487  24.560  27.113  1.00  0.00    -0.014 A 
BRANCH  37  38
ATOM     38  C   UNL A   1      41.244  25.773  27.513  1.00  0.00     0.031 A 
ATOM     39  C   UNL A   1      40.555  26.860  28.293  1.00  0.00     0.074 A 
ATOM     40  C   UNL A   1      42.513  25.941  27.092  1.00  0.00     0.049 A 
ATOM     41  N   UNL A   1      41.000  28.040  28.637  1.00  0.00    -0.248 NA
ATOM     42  C   UNL A   1      39.170  26.595  28.722  1.00  0.00     0.031 C 
ATOM     43  C   UNL A   1      43.270  24.985  26.279  1.00  0.00     0.029 A 
ATOM     44  N   UNL A   1      43.381  26.992  27.259  1.00  0.00    -0.354 N 
ATOM     45  C   UNL A   1      39.945  28.670  29.285  1.00  0.00     0.074 A 
ATOM     46  C   UNL A   1      38.824  27.757  29.255  1.00  0.00     0.031 C 
ATOM     47  C   UNL A   1      44.485  25.494  26.018  1.00  0.00     0.029 A 
ATOM     48  C   UNL A   1      44.581  26.825  26.606  1.00  0.00     0.049 A 
ATOM     49  H   UNL A   1      43.164  27.789  27.795  1.00  0.00     0.167 HD
ATOM     50  C   UNL A   1      39.919  29.886  29.880  1.00  0.00     0.034 A 
ATOM     51  C   UNL A   1      45.631  27.660  26.483  1.00  0.00     0.034 A 
ATOM     52  C   UNL A   1      41.046  30.776  29.936  1.00  0.00     0.049 A 
ATOM     53  C   UNL A   1      45.577  29.006  27.157  1.00  0.00     0.074 A 
ATOM     54  C   UNL A   1      41.143  32.002  30.569  1.00  0.00     0.029 A 
ATOM     55  N   UNL A   1      42.270  30.538  29.330  1.00  0.00    -0.354 N 
ATOM     56  N   UNL A   1      44.618  29.529  27.881  1.00  0.00    -0.248 NA
ATOM     57  C   UNL A   1      46.764  29.865  27.026  1.00  0.00     0.031 C 
ATOM     58  C   UNL A   1      42.419  32.519  30.323  1.00  0.00     0.029 A 
ATOM     59  C   UNL A   1      43.129  31.597  29.570  1.00  0.00     0.049 A 
ATOM     60  H   UNL A   1      42.496  29.736  28.808  1.00  0.00     0.167 HD
ATOM     61  C   UNL A   1      45.102  30.752  28.330  1.00  0.00     0.074 A 
ATOM     62  C   UNL A   1      46.445  30.887  27.807  1.00  0.00     0.031 C 
ATOM     63  C   UNL A   1      44.486  31.686  29.097  1.00  0.00     0.034 A 
BRANCH  50  64
ATOM     64  C   UNL A   1      38.642  30.304  30.563  1.00  0.00     0.023 A 
ATOM     65  C   UNL A   1      38.436  29.970  31.917  1.00  0.00     0.012 A 
ATOM     66  C   UNL A   1      37.674  31.073  29.887  1.00  0.00     0.148 A 
ATOM     67  C   UNL A   1      37.273  30.359  32.578  1.00  0.00     0.002 A 
ATOM     68  C   UNL A   1      36.538  31.499  30.567  1.00  0.00     0.091 A 
ATOM     69  F   UNL A   1      37.877  31.367  28.596  1.00  0.00    -0.205 F 
ATOM     70  C   UNL A   1      36.329  31.131  31.906  1.00  0.00     0.022 A 
BRANCH  68  71
ATOM     71  S   UNL A   1      35.300  32.564  29.818  1.00  0.00     0.127 S 
ATOM     72  O   UNL A   1      34.399  32.805  30.944  1.00  0.00    -0.237 OA
ATOM     73  O   UNL A   1      36.097  33.723  29.416  1.00  0.00    -0.237 OA
ATOM     74  O   UNL A   1      34.729  31.804  28.715  1.00  0.00    -0.744 OA
ENDBRANCH  68  71
ENDBRANCH  50  64
BRANCH  51  75
ATOM     75  C   UNL A   1      46.848  27.234  25.732  1.00  0.00     0.023 A 
ATOM     76  C   UNL A   1      47.806  26.424  26.374  1.00  0.00     0.012 A 
ATOM     77  C   UNL A   1      47.060  27.618  24.395  1.00  0.00     0.148 A 
ATOM     78  C   UNL A   1      48.974  26.042  25.712  1.00  0.00     0.002 A 
ATOM     79  C   UNL A   1      48.198  27.185  23.722  1.00  0.00     0.091 A 
ATOM     80  F   UNL A   1      46.142  28.394  23.802  1.00  0.00    -0.205 F 
ATOM     81  C   UNL A   1      49.166  26.415  24.385  1.00  0.00     0.022 A 
BRANCH  79  82
ATOM     82  S   UNL A   1      48.466  27.507  21.975  1.00  0.00     0.127 S 
ATOM     83  O   UNL A   1      47.237  28.204  21.608  1.00  0.00    -0.237 OA
ATOM     84  O   UNL A   1      49.666  28.345  22.003  1.00  0.00    -0.237 OA
ATOM     85  O   UNL A   1      48.662  26.201  21.360  1.00  0.00    -0.744 OA
ENDBRANCH  79  82
ENDBRANCH  51  75
BRANCH  63  86
ATOM     86  C   UNL A   1      45.273  32.911  29.481  1.00  0.00     0.023 A 
ATOM     87  C   UNL A   1      46.083  32.900  30.633  1.00  0.00     0.012 A 
ATOM     88  C   UNL A   1      45.278  34.042  28.641  1.00  0.00     0.148 A 
ATOM     89  C   UNL A   1      46.866  34.009  30.957  1.00  0.00     0.002 A 
ATOM     90  C   UNL A   1      46.100  35.121  28.940  1.00  0.00     0.091 A 
ATOM     91  F   UNL A   1      44.486  34.037  27.558  1.00  0.00    -0.205 F 
ATOM     92  C   UNL A   1      46.885  35.112  30.105  1.00  0.00     0.022 A 
BRANCH  90  93
ATOM     93  S   UNL A   1      46.268  36.539  27.851  1.00  0.00     0.127 S 
ATOM     94  O   UNL A   1      44.943  37.148  27.949  1.00  0.00    -0.237 OA
ATOM     95  O   UNL A   1      47.339  37.299  28.498  1.00  0.00    -0.237 OA
ATOM     96  O   UNL A   1      46.611  36.005  26.541  1.00  0.00    -0.744 OA
ENDBRANCH  90  93
ENDBRANCH  63  86
ENDBRANCH  37  38
ENDBRANCH  29  32
ENDBRANCH  27  28
ENDBRANCH  26  27
ENDBRANCH  25  26
ENDBRANCH   1  25
TORSDOF 21
ENDMDL
MODEL 2
REMARK VINA RESULT:     -10.9      0.847      2.167
REMARK SMILES COc1ncccc1C[N@@H+](CC(=O)NCCCCCCNC(=O)c1ccc(-c2c3nc(c(-c4cccc(S(=O)(=O)[O-])c4F)c4ccc([nH]4)c(-c4cccc(S(=O)(=O)[O-])c4F)c4nc(c(-c5cccc(S(=O)(=O)[O-])c5F)c5ccc2[nH]5)C=C4)C=C3)cc1)C1CCCC1
REMARK SMILES IDX 17 1 16 2 15 3 14 4 12 5 13 6 11 8 10 9 9 11 8 12 3 13 4 14
REMARK SMILES IDX 5 15 7 16 6 17 2 18 1 19 87 20 88 21 91 22 89 23 90 24 18 25
REMARK SMILES IDX 19 26 20 27 21 28 22 29 23 31 24 32 25 33 86 34 26 35 85 36
REMARK SMILES IDX 27 37 28 38 29 39 79 40 30 41 84 42 78 43 80 44 31 45 83 46
REMARK SMILES IDX 77 47 76 48 32 50 64 51 44 52 63 53 45 54 48 55 62 56 81 57
REMARK SMILES IDX 46 58 47 59 61 61 82 62 49 63 33 64 34 65 42 66 35 67 37 68
REMARK SMILES IDX 43 69 36 70 38 71 39 72 40 73 41 74 65 75 66 76 74 77 67 78
REMARK SMILES IDX 69 79 75 80 68 81 70 82 71 83 72 84 73 85 50 86 51 87 59 88
REMARK SMILES IDX 52 89 54 90 60 91 53 92 55 93 56 94 57 95 58 96
REMARK H PARENT 14 7 10 10 21 30 80 49 48 60
REMARK Flexibility Score: inf
ROOT
ATOM      1  C   UNL A   1      32.755  22.456  24.631  1.00  0.00     0.002 C 
ENDROOT
BRANCH   1   2
ATOM      2  C   UNL A   1      31.328  22.971  24.488  1.00  0.00     0.021 C 
BRANCH   2   3
ATOM      3  C   UNL A   1      31.000  23.638  23.144  1.00  0.00     0.116 C 
BRANCH   3   4
ATOM      4  N   UNL A   1      32.195  24.214  22.556  1.00  0.00    -0.351 N 
ATOM      5  C   UNL A   1      32.401  25.408  21.929  1.00  0.00     0.275 C 
ATOM      6  O   UNL A   1      33.527  25.598  21.451  1.00  0.00    -0.269 OA
ATOM      7  H   UNL A   1      32.995  23.644  22.620  1.00  0.00     0.163 HD
BRANCH   5   8
ATOM      8  C   UNL A   1      31.324  26.501  21.848  1.00  0.00     0.364 C 
BRANCH   8   9
ATOM      9  N   UNL A   1      31.224  27.444  23.003  1.00  0.00    -0.321 N 
ATOM     10  H   UNL A   1      30.311  27.376  23.451  1.00  0.00     0.349 HD
BRANCH   9  11
ATOM     11  C   UNL A   1      31.244  28.834  22.528  1.00  0.00     0.305 C 
BRANCH  11  12
ATOM     12  C   UNL A   1      30.123  29.772  22.866  1.00  0.00     0.068 A 
ATOM     13  C   UNL A   1      30.077  30.565  24.012  1.00  0.00     0.221 A 
ATOM     14  N   UNL A   1      29.012  31.338  24.328  1.00  0.00    -0.222 NA
ATOM     15  C   UNL A   1      27.940  31.309  23.508  1.00  0.00     0.115 A 
ATOM     16  C   UNL A   1      28.974  29.763  22.050  1.00  0.00     0.017 A 
ATOM     17  C   UNL A   1      27.868  30.536  22.368  1.00  0.00     0.021 A 
BRANCH  13  18
ATOM     18  O   UNL A   1      30.984  30.475  25.030  1.00  0.00    -0.481 OA
ATOM     19  C   UNL A   1      31.000  31.581  25.918  1.00  0.00     0.280 C 
ENDBRANCH  13  18
ENDBRANCH  11  12
ENDBRANCH   9  11
BRANCH   9  20
ATOM     20  C   UNL A   1      32.059  27.051  24.149  1.00  0.00     0.184 C 
ATOM     21  C   UNL A   1      33.341  27.840  24.447  1.00  0.00     0.065 C 
ATOM     22  C   UNL A   1      31.320  26.986  25.502  1.00  0.00     0.065 C 
ATOM     23  C   UNL A   1      33.679  27.459  25.879  1.00  0.00     0.006 C 
ATOM     24  C   UNL A   1      32.331  27.391  26.575  1.00  0.00     0.006 C 
ENDBRANCH   9  20
ENDBRANCH   8   9
ENDBRANCH   5   8
ENDBRANCH   3   4
ENDBRANCH   2   3
ENDBRANCH   1   2
BRANCH   1  25
ATOM     25  C   UNL A   1      33.479  22.929  25.890  1.00  0.00     0.002 C 
BRANCH  25  26
ATOM     26  C   UNL A   1      34.660  22.057  26.330  1.00  0.00     0.021 C 
BRANCH  26  27
ATOM     27  C   UNL A   1      35.990  22.397  25.663  1.00  0.00     0.116 C 
BRANCH  27  28
ATOM     28  N   UNL A   1      36.863  21.234  25.581  1.00  0.00    -0.352 N 
ATOM     29  C   UNL A   1      38.227  21.175  25.701  1.00  0.00     0.251 C 
ATOM     30  H   UNL A   1      36.412  20.375  25.416  1.00  0.00     0.163 HD
ATOM     31  O   UNL A   1      38.839  20.168  25.346  1.00  0.00    -0.269 OA
BRANCH  29  32
ATOM     32  C   UNL A   1      38.955  22.332  26.258  1.00  0.00     0.039 A 
ATOM     33  C   UNL A   1      40.053  22.118  27.095  1.00  0.00     0.014 A 
ATOM     34  C   UNL A   1      38.550  23.630  25.937  1.00  0.00     0.014 A 
ATOM     35  C   UNL A   1      40.782  23.212  27.566  1.00  0.00     0.010 A 
ATOM     36  C   UNL A   1      39.321  24.712  26.344  1.00  0.00     0.010 A 
ATOM     37  C   UNL A   1      40.440  24.516  27.169  1.00  0.00    -0.014 A 
BRANCH  37  38
ATOM     38  C   UNL A   1      41.224  25.698  27.607  1.00  0.00     0.031 A 
ATOM     39  C   UNL A   1      40.560  26.774  28.424  1.00  0.00     0.074 A 
ATOM     40  C   UNL A   1      42.496  25.852  27.188  1.00  0.00     0.049 A 
ATOM     41  N   UNL A   1      41.031  27.932  28.805  1.00  0.00    -0.248 NA
ATOM     42  C   UNL A   1      39.170  26.524  28.847  1.00  0.00     0.031 C 
ATOM     43  C   UNL A   1      43.230  24.908  26.343  1.00  0.00     0.029 A 
ATOM     44  N   UNL A   1      43.386  26.879  27.387  1.00  0.00    -0.354 N 
ATOM     45  C   UNL A   1      39.992  28.562  29.477  1.00  0.00     0.074 A 
ATOM     46  C   UNL A   1      38.851  27.676  29.419  1.00  0.00     0.031 C 
ATOM     47  C   UNL A   1      44.455  25.398  26.095  1.00  0.00     0.029 A 
ATOM     48  C   UNL A   1      44.582  26.707  26.727  1.00  0.00     0.049 A 
ATOM     49  H   UNL A   1      43.188  27.661  27.949  1.00  0.00     0.167 HD
ATOM     50  C   UNL A   1      39.993  29.759  30.111  1.00  0.00     0.034 A 
ATOM     51  C   UNL A   1      45.649  27.522  26.628  1.00  0.00     0.034 A 
ATOM     52  C   UNL A   1      41.139  30.622  30.193  1.00  0.00     0.049 A 
ATOM     53  C   UNL A   1      45.626  28.846  27.346  1.00  0.00     0.074 A 
ATOM     54  C   UNL A   1      41.264  31.824  30.866  1.00  0.00     0.029 A 
ATOM     55  N   UNL A   1      42.357  30.378  29.577  1.00  0.00    -0.354 N 
ATOM     56  N   UNL A   1      44.679  29.366  28.089  1.00  0.00    -0.248 NA
ATOM     57  C   UNL A   1      46.831  29.683  27.240  1.00  0.00     0.031 C 
ATOM     58  C   UNL A   1      42.551  32.321  30.634  1.00  0.00     0.029 A 
ATOM     59  C   UNL A   1      43.239  31.409  29.849  1.00  0.00     0.049 A 
ATOM     60  H   UNL A   1      42.564  29.588  29.028  1.00  0.00     0.167 HD
ATOM     61  C   UNL A   1      45.191  30.563  28.577  1.00  0.00     0.074 A 
ATOM     62  C   UNL A   1      46.535  30.686  28.055  1.00  0.00     0.031 C 
ATOM     63  C   UNL A   1      44.597  31.484  29.376  1.00  0.00     0.034 A 
BRANCH  50  64
ATOM     64  C   UNL A   1      38.727  30.182  30.810  1.00  0.00     0.023 A 
ATOM     65  C   UNL A   1      38.551  29.876  32.175  1.00  0.00     0.012 A 
ATOM     66  C   UNL A   1      37.739  30.928  30.138  1.00  0.00     0.148 A 
ATOM     67  C   UNL A   1      37.398  30.270  32.851  1.00  0.00     0.002 A 
ATOM     68  C   UNL A   1      36.613  31.361  30.831  1.00  0.00     0.091 A 
ATOM     69  F   UNL A   1      37.914  31.196  28.837  1.00  0.00    -0.205 F 
ATOM     70  C   UNL A   1      36.435  31.020  32.182  1.00  0.00     0.022 A 
BRANCH  68  71
ATOM     71  S   UNL A   1      35.352  32.400  30.085  1.00  0.00     0.127 S 
ATOM     72  O   UNL A   1      36.131  33.575  29.699  1.00  0.00    -0.237 OA
ATOM     73  O   UNL A   1      34.898  31.574  28.966  1.00  0.00    -0.237 OA
ATOM     74  O   UNL A   1      34.354  32.627  31.120  1.00  0.00    -0.744 OA
ENDBRANCH  68  71
ENDBRANCH  50  64
BRANCH  51  75
ATOM     75  C   UNL A   1      46.855  27.095  25.861  1.00  0.00     0.023 A 
ATOM     76  C   UNL A   1      47.775  26.209  26.458  1.00  0.00     0.012 A 
ATOM     77  C   UNL A   1      47.094  27.551  24.551  1.00  0.00     0.148 A 
ATOM     78  C   UNL A   1      48.933  25.823  25.782  1.00  0.00     0.002 A 
ATOM     79  C   UNL A   1      48.220  27.115  23.860  1.00  0.00     0.091 A 
ATOM     80  F   UNL A   1      46.212  28.398  24.001  1.00  0.00    -0.205 F 
ATOM     81  C   UNL A   1      49.151  26.268  24.481  1.00  0.00     0.022 A 
BRANCH  79  82
ATOM     82  S   UNL A   1      48.516  27.532  22.138  1.00  0.00     0.127 S 
ATOM     83  O   UNL A   1      48.690  26.212  21.537  1.00  0.00    -0.237 OA
ATOM     84  O   UNL A   1      47.274  28.216  21.776  1.00  0.00    -0.237 OA
ATOM     85  O   UNL A   1      49.694  28.389  22.138  1.00  0.00    -0.744 OA
ENDBRANCH  79  82
ENDBRANCH  51  75
BRANCH  63  86
ATOM     86  C   UNL A   1      45.410  32.679  29.798  1.00  0.00     0.023 A 
ATOM     87  C   UNL A   1      46.266  32.595  30.913  1.00  0.00     0.012 A 
ATOM     88  C   UNL A   1      45.394  33.857  29.024  1.00  0.00     0.148 A 
ATOM     89  C   UNL A   1      47.072  33.676  31.269  1.00  0.00     0.002 A 
ATOM     90  C   UNL A   1      46.238  34.909  29.352  1.00  0.00     0.091 A 
ATOM     91  F   UNL A   1      44.559  33.920  27.976  1.00  0.00    -0.205 F 
ATOM     92  C   UNL A   1      47.069  34.826  30.482  1.00  0.00     0.022 A 
BRANCH  90  93
ATOM     93  S   UNL A   1      46.377  36.387  28.341  1.00  0.00     0.127 S 
ATOM     94  O   UNL A   1      47.403  37.142  29.058  1.00  0.00    -0.237 OA
ATOM     95  O   UNL A   1      46.808  35.840  27.054  1.00  0.00    -0.237 OA
ATOM     96  O   UNL A   1      45.054  36.995  28.329  1.00  0.00    -0.744 OA
ENDBRANCH  90  93
ENDBRANCH  63  86
ENDBRANCH  37  38
ENDBRANCH  29  32
ENDBRANCH  27  28
ENDBRANCH  26  27
ENDBRANCH  25  26
ENDBRANCH   1  25
TORSDOF 21
ENDMDL
MODEL 3
REMARK VINA RESULT:     -10.8      1.824      8.022
REMARK SMILES COc1ncccc1C[N@@H+](CC(=O)NCCCCCCNC(=O)c1ccc(-c2c3nc(c(-c4cccc(S(=O)(=O)[O-])c4F)c4ccc([nH]4)c(-c4cccc(S(=O)(=O)[O-])c4F)c4nc(c(-c5cccc(S(=O)(=O)[O-])c5F)c5ccc2[nH]5)C=C4)C=C3)cc1)C1CCCC1
REMARK SMILES IDX 17 1 16 2 15 3 14 4 12 5 13 6 11 8 10 9 9 11 8 12 3 13 4 14
REMARK SMILES IDX 5 15 7 16 6 17 2 18 1 19 87 20 88 21 91 22 89 23 90 24 18 25
REMARK SMILES IDX 19 26 20 27 21 28 22 29 23 31 24 32 25 33 86 34 26 35 85 36
REMARK SMILES IDX 27 37 28 38 29 39 79 40 30 41 84 42 78 43 80 44 31 45 83 46
REMARK SMILES IDX 77 47 76 48 32 50 64 51 44 52 63 53 45 54 48 55 62 56 81 57
REMARK SMILES IDX 46 58 47 59 61 61 82 62 49 63 33 64 34 65 42 66 35 67 37 68
REMARK SMILES IDX 43 69 36 70 38 71 39 72 40 73 41 74 65 75 66 76 74 77 67 78
REMARK SMILES IDX 69 79 75 80 68 81 70 82 71 83 72 84 73 85 50 86 51 87 59 88
REMARK SMILES IDX 52 89 54 90 60 91 53 92 55 93 56 94 57 95 58 96
REMARK H PARENT 14 7 10 10 21 30 80 49 48 60
REMARK Flexibility Score: inf
ROOT
ATOM      1  C   UNL A   1      36.069  21.200  25.551  1.00  0.00     0.002 C 
ENDROOT
BRANCH   1   2
ATOM      2  C   UNL A   1      36.116  22.720  25.660  1.00  0.00     0.021 C 
BRANCH   2   3
ATOM      3  C   UNL A   1      35.012  23.469  24.901  1.00  0.00     0.116 C 
BRANCH   3   4
ATOM      4  N   UNL A   1      34.679  24.708  25.579  1.00  0.00    -0.351 N 
ATOM      5  C   UNL A   1      33.911  25.766  25.190  1.00  0.00     0.275 C 
ATOM      6  O   UNL A   1      33.871  26.736  25.957  1.00  0.00    -0.269 OA
ATOM      7  H   UNL A   1      35.078  24.802  26.474  1.00  0.00     0.163 HD
BRANCH   5   8
ATOM      8  C   UNL A   1      33.085  25.762  23.893  1.00  0.00     0.364 C 
BRANCH   8   9
ATOM      9  N   UNL A   1      31.609  25.579  24.028  1.00  0.00    -0.321 N 
ATOM     10  H   UNL A   1      31.352  25.383  24.995  1.00  0.00     0.349 HD
BRANCH   9  11
ATOM     11  C   UNL A   1      31.183  24.358  23.331  1.00  0.00     0.305 C 
BRANCH  11  12
ATOM     12  C   UNL A   1      31.574  23.006  23.851  1.00  0.00     0.068 A 
ATOM     13  C   UNL A   1      31.530  22.635  25.195  1.00  0.00     0.221 A 
ATOM     14  N   UNL A   1      31.969  21.435  25.640  1.00  0.00    -0.222 NA
ATOM     15  C   UNL A   1      32.501  20.579  24.741  1.00  0.00     0.115 A 
ATOM     16  C   UNL A   1      32.152  22.087  22.954  1.00  0.00     0.017 A 
ATOM     17  C   UNL A   1      32.623  20.860  23.397  1.00  0.00     0.021 A 
BRANCH  13  18
ATOM     18  O   UNL A   1      31.256  23.507  26.210  1.00  0.00    -0.481 OA
ATOM     19  C   UNL A   1      29.960  23.383  26.774  1.00  0.00     0.280 C 
ENDBRANCH  13  18
ENDBRANCH  11  12
ENDBRANCH   9  11
BRANCH   9  20
ATOM     20  C   UNL A   1      30.849  26.826  23.848  1.00  0.00     0.184 C 
ATOM     21  C   UNL A   1      31.206  28.050  24.701  1.00  0.00     0.065 C 
ATOM     22  C   UNL A   1      30.805  27.360  22.401  1.00  0.00     0.065 C 
ATOM     23  C   UNL A   1      30.554  29.210  23.966  1.00  0.00     0.006 C 
ATOM     24  C   UNL A   1      30.765  28.885  22.497  1.00  0.00     0.006 C 
ENDBRANCH   9  20
ENDBRANCH   8   9
ENDBRANCH   5   8
ENDBRANCH   3   4
ENDBRANCH   2   3
ENDBRANCH   1   2
BRANCH   1  25
ATOM     25  C   UNL A   1      36.997  20.609  24.491  1.00  0.00     0.002 C 
BRANCH  25  26
ATOM     26  C   UNL A   1      38.054  19.635  25.022  1.00  0.00     0.021 C 
BRANCH  26  27
ATOM     27  C   UNL A   1      39.157  20.280  25.858  1.00  0.00     0.116 C 
BRANCH  27  28
ATOM     28  N   UNL A   1      40.244  19.348  26.124  1.00  0.00    -0.352 N 
ATOM     29  C   UNL A   1      41.579  19.611  26.291  1.00  0.00     0.251 C 
ATOM     30  H   UNL A   1      39.985  18.400  26.193  1.00  0.00     0.163 HD
ATOM     31  O   UNL A   1      42.403  18.698  26.245  1.00  0.00    -0.269 OA
BRANCH  29  32
ATOM     32  C   UNL A   1      42.019  21.001  26.523  1.00  0.00     0.039 A 
ATOM     33  C   UNL A   1      42.218  21.852  25.434  1.00  0.00     0.014 A 
ATOM     34  C   UNL A   1      42.222  21.458  27.828  1.00  0.00     0.014 A 
ATOM     35  C   UNL A   1      42.569  23.185  25.659  1.00  0.00     0.010 A 
ATOM     36  C   UNL A   1      42.495  22.803  28.051  1.00  0.00     0.010 A 
ATOM     37  C   UNL A   1      42.679  23.678  26.970  1.00  0.00    -0.014 A 
BRANCH  37  38
ATOM     38  C   UNL A   1      42.998  25.102  27.246  1.00  0.00     0.031 A 
ATOM     39  C   UNL A   1      44.393  25.614  27.011  1.00  0.00     0.074 A 
ATOM     40  C   UNL A   1      42.065  25.902  27.799  1.00  0.00     0.049 A 
ATOM     41  N   UNL A   1      44.903  26.783  27.296  1.00  0.00    -0.248 NA
ATOM     42  C   UNL A   1      45.350  24.677  26.396  1.00  0.00     0.031 C 
ATOM     43  C   UNL A   1      40.695  25.504  28.130  1.00  0.00     0.029 A 
ATOM     44  N   UNL A   1      42.139  27.209  28.215  1.00  0.00    -0.354 N 
ATOM     45  C   UNL A   1      46.242  26.712  26.933  1.00  0.00     0.074 A 
ATOM     46  C   UNL A   1      46.477  25.373  26.442  1.00  0.00     0.031 C 
ATOM     47  C   UNL A   1      40.059  26.542  28.697  1.00  0.00     0.029 A 
ATOM     48  C   UNL A   1      40.984  27.665  28.809  1.00  0.00     0.049 A 
ATOM     49  H   UNL A   1      42.941  27.766  28.097  1.00  0.00     0.167 HD
ATOM     50  C   UNL A   1      47.186  27.683  26.976  1.00  0.00     0.034 A 
ATOM     51  C   UNL A   1      40.711  28.847  29.394  1.00  0.00     0.034 A 
ATOM     52  C   UNL A   1      46.939  29.022  27.435  1.00  0.00     0.049 A 
ATOM     53  C   UNL A   1      41.778  29.910  29.425  1.00  0.00     0.074 A 
ATOM     54  C   UNL A   1      47.809  30.097  27.459  1.00  0.00     0.029 A 
ATOM     55  N   UNL A   1      45.735  29.468  27.957  1.00  0.00    -0.354 N 
ATOM     56  N   UNL A   1      43.000  29.867  28.953  1.00  0.00    -0.248 NA
ATOM     57  C   UNL A   1      41.417  31.197  30.039  1.00  0.00     0.031 C 
ATOM     58  C   UNL A   1      47.138  31.188  28.020  1.00  0.00     0.029 A 
ATOM     59  C   UNL A   1      45.839  30.802  28.311  1.00  0.00     0.049 A 
ATOM     60  H   UNL A   1      44.925  28.919  28.061  1.00  0.00     0.167 HD
ATOM     61  C   UNL A   1      43.537  31.131  29.170  1.00  0.00     0.074 A 
ATOM     62  C   UNL A   1      42.503  31.921  29.803  1.00  0.00     0.031 C 
ATOM     63  C   UNL A   1      44.778  31.593  28.880  1.00  0.00     0.034 A 
BRANCH  50  64
ATOM     64  C   UNL A   1      48.563  27.343  26.466  1.00  0.00     0.023 A 
ATOM     65  C   UNL A   1      49.492  26.727  27.329  1.00  0.00     0.012 A 
ATOM     66  C   UNL A   1      48.920  27.579  25.124  1.00  0.00     0.148 A 
ATOM     67  C   UNL A   1      50.766  26.387  26.879  1.00  0.00     0.002 A 
ATOM     68  C   UNL A   1      50.176  27.193  24.669  1.00  0.00     0.091 A 
ATOM     69  F   UNL A   1      48.031  28.181  24.321  1.00  0.00    -0.205 F 
ATOM     70  C   UNL A   1      51.104  26.610  25.548  1.00  0.00     0.022 A 
BRANCH  68  71
ATOM     71  S   UNL A   1      50.682  27.362  22.953  1.00  0.00     0.127 S 
ATOM     72  O   UNL A   1      52.043  26.830  22.995  1.00  0.00    -0.237 OA
ATOM     73  O   UNL A   1      49.715  26.509  22.263  1.00  0.00    -0.237 OA
ATOM     74  O   UNL A   1      50.577  28.780  22.641  1.00  0.00    -0.744 OA
ENDBRANCH  68  71
ENDBRANCH  50  64
BRANCH  51  75
ATOM     75  C   UNL A   1      39.354  29.114  29.955  1.00  0.00     0.023 A 
ATOM     76  C   UNL A   1      39.040  28.655  31.250  1.00  0.00     0.012 A 
ATOM     77  C   UNL A   1      38.382  29.821  29.223  1.00  0.00     0.148 A 
ATOM     78  C   UNL A   1      37.768  28.854  31.787  1.00  0.00     0.002 A 
ATOM     79  C   UNL A   1      37.134  30.067  29.788  1.00  0.00     0.091 A 
ATOM     80  F   UNL A   1      38.695  30.245  27.991  1.00  0.00    -0.205 F 
ATOM     81  C   UNL A   1      36.818  29.567  31.060  1.00  0.00     0.022 A 
BRANCH  79  82
ATOM     82  S   UNL A   1      35.896  31.087  28.980  1.00  0.00     0.127 S 
ATOM     83  O   UNL A   1      35.062  31.495  30.108  1.00  0.00    -0.237 OA
ATOM     84  O   UNL A   1      36.714  32.153  28.401  1.00  0.00    -0.237 OA
ATOM     85  O   UNL A   1      35.255  30.224  27.998  1.00  0.00    -0.744 OA
ENDBRANCH  79  82
ENDBRANCH  51  75
BRANCH  63  86
ATOM     86  C   UNL A   1      45.079  33.038  29.179  1.00  0.00     0.023 A 
ATOM     87  C   UNL A   1      45.659  33.401  30.409  1.00  0.00     0.012 A 
ATOM     88  C   UNL A   1      44.871  34.024  28.194  1.00  0.00     0.148 A 
ATOM     89  C   UNL A   1      46.001  34.728  30.666  1.00  0.00     0.002 A 
ATOM     90  C   UNL A   1      45.263  35.334  28.435  1.00  0.00     0.091 A 
ATOM     91  F   UNL A   1      44.302  33.659  27.035  1.00  0.00    -0.205 F 
ATOM     92  C   UNL A   1      45.816  35.691  29.676  1.00  0.00     0.022 A 
BRANCH  90  93
ATOM     93  S   UNL A   1      45.159  36.620  27.185  1.00  0.00     0.127 S 
ATOM     94  O   UNL A   1      45.977  36.059  26.112  1.00  0.00    -0.237 OA
ATOM     95  O   UNL A   1      43.723  36.659  26.902  1.00  0.00    -0.237 OA
ATOM     96  O   UNL A   1      45.688  37.828  27.803  1.00  0.00    -0.744 OA
ENDBRANCH  90  93
ENDBRANCH  63  86
ENDBRANCH  37  38
ENDBRANCH  29  32
ENDBRANCH  27  28
ENDBRANCH  26  27
ENDBRANCH  25  26
ENDBRANCH   1  25
TORSDOF 21
ENDMDL
