MODEL 1
REMARK VINA RESULT:     -12.6      0.000      0.000
REMARK SMILES Cc1ncccc1C(=O)Nc1ccccc1C(=O)NCCCCCCNC(=O)c1ccc(-c2c3nc(c(-c4cccc(S(=O)(=O)[O-])c4F)c4ccc([nH]4)c(-c4cccc(S(=O)(=O)[O-])c4F)c4nc(c(-c5cccc(S(=O)(=O)[O-])c5F)c5ccc2[nH]5)C=C4)C=C3)cc1
REMARK SMILES IDX 23 1 22 2 21 3 20 4 19 5 17 6 18 7 16 9 11 10 12 11 13 12
REMARK SMILES IDX 15 13 14 14 10 15 8 16 9 17 7 19 1 20 2 21 3 22 4 23 6 24
REMARK SMILES IDX 5 25 24 26 25 27 26 28 27 29 28 31 29 32 30 33 91 34 31 35
REMARK SMILES IDX 90 36 32 37 33 38 34 39 84 40 35 41 89 42 83 43 85 44 36 45
REMARK SMILES IDX 88 46 82 47 81 48 37 50 69 51 49 52 68 53 50 54 53 55 67 56
REMARK SMILES IDX 86 57 51 58 52 59 66 61 87 62 54 63 38 64 39 65 47 66 40 67
REMARK SMILES IDX 42 68 48 69 41 70 43 71 44 72 45 73 46 74 70 75 71 76 79 77
REMARK SMILES IDX 72 78 74 79 80 80 73 81 75 82 76 83 77 84 78 85 55 86 56 87
REMARK SMILES IDX 64 88 57 89 59 90 65 91 58 92 60 93 61 94 62 95 63 96
REMARK H PARENT 19 8 10 18 26 30 85 49 53 60
REMARK Flexibility Score: inf
ROOT
ATOM      1  C   UNL A   1      31.718  27.798  27.146  1.00  0.00     0.002 C 
ENDROOT
BRANCH   1   2
ATOM      2  C   UNL A   1      31.944  26.908  25.919  1.00  0.00     0.002 C 
BRANCH   2   3
ATOM      3  C   UNL A   1      33.034  25.833  26.018  1.00  0.00     0.021 C 
BRANCH   3   4
ATOM      4  C   UNL A   1      34.197  25.964  25.042  1.00  0.00     0.116 C 
BRANCH   4   5
ATOM      5  N   UNL A   1      33.927  25.449  23.717  1.00  0.00    -0.352 N 
ATOM      6  C   UNL A   1      34.171  24.210  23.174  1.00  0.00     0.253 C 
ATOM      7  O   UNL A   1      33.844  24.035  21.998  1.00  0.00    -0.269 OA
ATOM      8  H   UNL A   1      33.499  26.090  23.105  1.00  0.00     0.163 HD
BRANCH   6   9
ATOM      9  C   UNL A   1      34.907  23.119  23.888  1.00  0.00     0.063 A 
ATOM     10  C   UNL A   1      34.485  22.357  24.990  1.00  0.00     0.054 A 
ATOM     11  C   UNL A   1      35.425  21.552  25.667  1.00  0.00     0.027 A 
ATOM     12  C   UNL A   1      36.704  21.339  25.157  1.00  0.00     0.002 A 
ATOM     13  C   UNL A   1      36.203  22.874  23.375  1.00  0.00     0.016 A 
ATOM     14  C   UNL A   1      37.079  21.970  23.982  1.00  0.00     0.001 A 
BRANCH  10  15
ATOM     15  N   UNL A   1      33.182  22.196  25.493  1.00  0.00    -0.321 N 
ATOM     16  C   UNL A   1      32.194  21.269  25.279  1.00  0.00     0.257 C 
ATOM     17  O   UNL A   1      31.088  21.498  25.772  1.00  0.00    -0.269 OA
ATOM     18  H   UNL A   1      32.925  22.896  26.135  1.00  0.00     0.170 HD
BRANCH  16  19
ATOM     19  C   UNL A   1      32.356  20.030  24.495  1.00  0.00     0.061 A 
ATOM     20  C   UNL A   1      31.996  21.034  22.166  1.00  0.00     0.067 C 
ATOM     21  C   UNL A   1      32.246  19.898  23.110  1.00  0.00     0.050 A 
ATOM     22  N   UNL A   1      32.422  18.699  22.483  1.00  0.00    -0.261 NA
ATOM     23  C   UNL A   1      32.778  17.632  23.234  1.00  0.00     0.111 A 
ATOM     24  C   UNL A   1      32.790  18.911  25.225  1.00  0.00     0.017 A 
ATOM     25  C   UNL A   1      32.999  17.694  24.593  1.00  0.00     0.021 A 
ENDBRANCH  16  19
ENDBRANCH  10  15
ENDBRANCH   6   9
ENDBRANCH   4   5
ENDBRANCH   3   4
ENDBRANCH   2   3
ENDBRANCH   1   2
BRANCH   1  26
ATOM     26  C   UNL A   1      31.392  29.271  26.890  1.00  0.00     0.021 C 
BRANCH  26  27
ATOM     27  C   UNL A   1      32.537  30.125  26.352  1.00  0.00     0.116 C 
BRANCH  27  28
ATOM     28  N   UNL A   1      32.388  31.538  26.660  1.00  0.00    -0.352 N 
ATOM     29  C   UNL A   1      33.206  32.370  27.388  1.00  0.00     0.251 C 
ATOM     30  H   UNL A   1      31.579  31.962  26.293  1.00  0.00     0.163 HD
ATOM     31  O   UNL A   1      32.846  33.511  27.646  1.00  0.00    -0.269 OA
BRANCH  29  32
ATOM     32  C   UNL A   1      34.509  31.871  27.879  1.00  0.00     0.039 A 
ATOM     33  C   UNL A   1      35.575  32.769  27.986  1.00  0.00     0.014 A 
ATOM     34  C   UNL A   1      34.672  30.535  28.252  1.00  0.00     0.014 A 
ATOM     35  C   UNL A   1      36.780  32.346  28.551  1.00  0.00     0.010 A 
ATOM     36  C   UNL A   1      35.847  30.133  28.876  1.00  0.00     0.010 A 
ATOM     37  C   UNL A   1      36.908  31.037  29.044  1.00  0.00    -0.014 A 
BRANCH  37  38
ATOM     38  C   UNL A   1      38.113  30.609  29.798  1.00  0.00     0.031 A 
ATOM     39  C   UNL A   1      39.079  29.627  29.201  1.00  0.00     0.074 A 
ATOM     40  C   UNL A   1      38.270  31.021  31.073  1.00  0.00     0.049 A 
ATOM     41  N   UNL A   1      40.138  29.080  29.739  1.00  0.00    -0.248 NA
ATOM     42  C   UNL A   1      38.806  29.184  27.825  1.00  0.00     0.031 C 
ATOM     43  C   UNL A   1      37.364  31.925  31.785  1.00  0.00     0.029 A 
ATOM     44  N   UNL A   1      39.228  30.711  32.003  1.00  0.00    -0.354 N 
ATOM     45  C   UNL A   1      40.636  28.200  28.787  1.00  0.00     0.074 A 
ATOM     46  C   UNL A   1      39.746  28.266  27.647  1.00  0.00     0.031 C 
ATOM     47  C   UNL A   1      37.816  32.106  33.035  1.00  0.00     0.029 A 
ATOM     48  C   UNL A   1      39.017  31.300  33.229  1.00  0.00     0.049 A 
ATOM     49  H   UNL A   1      39.996  30.125  31.814  1.00  0.00     0.167 HD
ATOM     50  C   UNL A   1      41.745  27.422  28.848  1.00  0.00     0.034 A 
ATOM     51  C   UNL A   1      39.701  31.191  34.383  1.00  0.00     0.034 A 
ATOM     52  C   UNL A   1      42.634  27.377  29.978  1.00  0.00     0.049 A 
ATOM     53  C   UNL A   1      40.918  30.309  34.431  1.00  0.00     0.074 A 
ATOM     54  C   UNL A   1      43.833  26.699  30.103  1.00  0.00     0.029 A 
ATOM     55  N   UNL A   1      42.407  28.013  31.190  1.00  0.00    -0.354 N 
ATOM     56  N   UNL A   1      41.471  29.612  33.468  1.00  0.00    -0.248 NA
ATOM     57  C   UNL A   1      41.619  30.215  35.720  1.00  0.00     0.031 C 
ATOM     58  C   UNL A   1      44.308  26.889  31.407  1.00  0.00     0.029 A 
ATOM     59  C   UNL A   1      43.424  27.716  32.081  1.00  0.00     0.049 A 
ATOM     60  H   UNL A   1      41.635  28.592  31.388  1.00  0.00     0.167 HD
ATOM     61  C   UNL A   1      42.598  29.019  34.024  1.00  0.00     0.074 A 
ATOM     62  C   UNL A   1      42.661  29.456  35.404  1.00  0.00     0.031 C 
ATOM     63  C   UNL A   1      43.494  28.180  33.445  1.00  0.00     0.034 A 
BRANCH  50  64
ATOM     64  C   UNL A   1      42.063  26.572  27.644  1.00  0.00     0.023 A 
ATOM     65  C   UNL A   1      42.718  27.145  26.533  1.00  0.00     0.012 A 
ATOM     66  C   UNL A   1      41.734  25.202  27.617  1.00  0.00     0.148 A 
ATOM     67  C   UNL A   1      42.991  26.385  25.397  1.00  0.00     0.002 A 
ATOM     68  C   UNL A   1      42.054  24.439  26.499  1.00  0.00     0.091 A 
ATOM     69  F   UNL A   1      41.094  24.676  28.670  1.00  0.00    -0.205 F 
ATOM     70  C   UNL A   1      42.666  25.032  25.383  1.00  0.00     0.022 A 
BRANCH  68  71
ATOM     71  S   UNL A   1      41.748  22.671  26.420  1.00  0.00     0.127 S 
ATOM     72  O   UNL A   1      42.369  22.321  25.143  1.00  0.00    -0.237 OA
ATOM     73  O   UNL A   1      42.463  22.181  27.599  1.00  0.00    -0.237 OA
ATOM     74  O   UNL A   1      40.302  22.513  26.480  1.00  0.00    -0.744 OA
ENDBRANCH  68  71
ENDBRANCH  50  64
BRANCH  51  75
ATOM     75  C   UNL A   1      39.286  31.993  35.568  1.00  0.00     0.023 A 
ATOM     76  C   UNL A   1      39.612  33.363  35.613  1.00  0.00     0.012 A 
ATOM     77  C   UNL A   1      38.535  31.430  36.618  1.00  0.00     0.148 A 
ATOM     78  C   UNL A   1      39.214  34.154  36.690  1.00  0.00     0.002 A 
ATOM     79  C   UNL A   1      38.099  32.234  37.664  1.00  0.00     0.091 A 
ATOM     80  F   UNL A   1      38.241  30.124  36.556  1.00  0.00    -0.205 F 
ATOM     81  C   UNL A   1      38.449  33.593  37.710  1.00  0.00     0.022 A 
BRANCH  79  82
ATOM     82  S   UNL A   1      37.014  31.634  38.964  1.00  0.00     0.127 S 
ATOM     83  O   UNL A   1      37.855  31.783  40.149  1.00  0.00    -0.237 OA
ATOM     84  O   UNL A   1      35.897  32.575  38.877  1.00  0.00    -0.237 OA
ATOM     85  O   UNL A   1      36.682  30.263  38.602  1.00  0.00    -0.744 OA
ENDBRANCH  79  82
ENDBRANCH  51  75
BRANCH  63  86
ATOM     86  C   UNL A   1      44.634  27.682  34.295  1.00  0.00     0.023 A 
ATOM     87  C   UNL A   1      45.789  28.473  34.451  1.00  0.00     0.012 A 
ATOM     88  C   UNL A   1      44.527  26.469  35.006  1.00  0.00     0.148 A 
ATOM     89  C   UNL A   1      46.829  28.055  35.281  1.00  0.00     0.002 A 
ATOM     90  C   UNL A   1      45.543  26.084  35.870  1.00  0.00     0.091 A 
ATOM     91  F   UNL A   1      43.426  25.723  34.831  1.00  0.00    -0.205 F 
ATOM     92  C   UNL A   1      46.701  26.869  35.999  1.00  0.00     0.022 A 
BRANCH  90  93
ATOM     93  S   UNL A   1      45.431  24.624  36.910  1.00  0.00     0.127 S 
ATOM     94  O   UNL A   1      46.834  24.391  37.251  1.00  0.00    -0.237 OA
ATOM     95  O   UNL A   1      44.604  25.100  38.020  1.00  0.00    -0.237 OA
ATOM     96  O   UNL A   1      44.812  23.590  36.091  1.00  0.00    -0.744 OA
ENDBRANCH  90  93
ENDBRANCH  63  86
ENDBRANCH  37  38
ENDBRANCH  29  32
ENDBRANCH  27  28
ENDBRANCH  26  27
ENDBRANCH   1  26
TORSDOF 18
ENDMDL
MODEL 2
REMARK VINA RESULT:     -12.4      5.149      8.434
REMARK SMILES Cc1ncccc1C(=O)Nc1ccccc1C(=O)NCCCCCCNC(=O)c1ccc(-c2c3nc(c(-c4cccc(S(=O)(=O)[O-])c4F)c4ccc([nH]4)c(-c4cccc(S(=O)(=O)[O-])c4F)c4nc(c(-c5cccc(S(=O)(=O)[O-])c5F)c5ccc2[nH]5)C=C4)C=C3)cc1
REMARK SMILES IDX 23 1 22 2 21 3 20 4 19 5 17 6 18 7 16 9 11 10 12 11 13 12
REMARK SMILES IDX 15 13 14 14 10 15 8 16 9 17 7 19 1 20 2 21 3 22 4 23 6 24
REMARK SMILES IDX 5 25 24 26 25 27 26 28 27 29 28 31 29 32 30 33 91 34 31 35
REMARK SMILES IDX 90 36 32 37 33 38 34 39 84 40 35 41 89 42 83 43 85 44 36 45
REMARK SMILES IDX 88 46 82 47 81 48 37 50 69 51 49 52 68 53 50 54 53 55 67 56
REMARK SMILES IDX 86 57 51 58 52 59 66 61 87 62 54 63 38 64 39 65 47 66 40 67
REMARK SMILES IDX 42 68 48 69 41 70 43 71 44 72 45 73 46 74 70 75 71 76 79 77
REMARK SMILES IDX 72 78 74 79 80 80 73 81 75 82 76 83 77 84 78 85 55 86 56 87
REMARK SMILES IDX 64 88 57 89 59 90 65 91 58 92 60 93 61 94 62 95 63 96
REMARK H PARENT 19 8 10 18 26 30 85 49 53 60
REMARK Flexibility Score: inf
ROOT
ATOM      1  C   UNL A   1      35.854  20.881  25.478  1.00  0.00     0.002 C 
ENDROOT
BRANCH   1   2
ATOM      2  C   UNL A   1      34.522  20.380  24.909  1.00  0.00     0.002 C 
BRANCH   2   3
ATOM      3  C   UNL A   1      33.290  20.459  25.821  1.00  0.00     0.021 C 
BRANCH   3   4
ATOM      4  C   UNL A   1      33.479  21.195  27.142  1.00  0.00     0.116 C 
BRANCH   4   5
ATOM      5  N   UNL A   1      32.405  22.105  27.477  1.00  0.00    -0.352 N 
ATOM      6  C   UNL A   1      32.072  23.328  26.944  1.00  0.00     0.253 C 
ATOM      7  O   UNL A   1      31.097  23.908  27.429  1.00  0.00    -0.269 OA
ATOM      8  H   UNL A   1      31.817  21.800  28.205  1.00  0.00     0.163 HD
BRANCH   6   9
ATOM      9  C   UNL A   1      32.887  24.032  25.904  1.00  0.00     0.063 A 
ATOM     10  C   UNL A   1      32.443  24.685  24.742  1.00  0.00     0.054 A 
ATOM     11  C   UNL A   1      33.390  25.067  23.767  1.00  0.00     0.027 A 
ATOM     12  C   UNL A   1      34.759  24.994  24.013  1.00  0.00     0.002 A 
ATOM     13  C   UNL A   1      34.281  23.985  26.141  1.00  0.00     0.016 A 
ATOM     14  C   UNL A   1      35.205  24.489  25.223  1.00  0.00     0.001 A 
BRANCH  10  15
ATOM     15  N   UNL A   1      31.144  25.120  24.426  1.00  0.00    -0.321 N 
ATOM     16  C   UNL A   1      30.438  26.263  24.700  1.00  0.00     0.257 C 
ATOM     17  O   UNL A   1      29.242  26.273  24.400  1.00  0.00    -0.269 OA
ATOM     18  H   UNL A   1      30.635  24.466  23.896  1.00  0.00     0.170 HD
BRANCH  16  19
ATOM     19  C   UNL A   1      30.999  27.471  25.335  1.00  0.00     0.061 A 
ATOM     20  C   UNL A   1      30.805  29.049  23.327  1.00  0.00     0.067 C 
ATOM     21  C   UNL A   1      31.196  28.715  24.733  1.00  0.00     0.050 A 
ATOM     22  N   UNL A   1      31.720  29.772  25.419  1.00  0.00    -0.261 NA
ATOM     23  C   UNL A   1      31.989  29.611  26.733  1.00  0.00     0.111 A 
ATOM     24  C   UNL A   1      31.232  27.369  26.717  1.00  0.00     0.017 A 
ATOM     25  C   UNL A   1      31.739  28.446  27.428  1.00  0.00     0.021 A 
ENDBRANCH  16  19
ENDBRANCH  10  15
ENDBRANCH   6   9
ENDBRANCH   4   5
ENDBRANCH   3   4
ENDBRANCH   2   3
ENDBRANCH   1   2
BRANCH   1  26
ATOM     26  C   UNL A   1      37.129  20.199  24.975  1.00  0.00     0.021 C 
BRANCH  26  27
ATOM     27  C   UNL A   1      38.437  20.923  25.278  1.00  0.00     0.116 C 
BRANCH  27  28
ATOM     28  N   UNL A   1      39.415  20.079  25.945  1.00  0.00    -0.352 N 
ATOM     29  C   UNL A   1      40.491  20.428  26.726  1.00  0.00     0.251 C 
ATOM     30  H   UNL A   1      39.287  19.110  25.816  1.00  0.00     0.163 HD
ATOM     31  O   UNL A   1      41.282  19.571  27.100  1.00  0.00    -0.269 OA
BRANCH  29  32
ATOM     32  C   UNL A   1      40.704  21.846  27.089  1.00  0.00     0.039 A 
ATOM     33  C   UNL A   1      41.540  22.145  28.168  1.00  0.00     0.014 A 
ATOM     34  C   UNL A   1      40.103  22.872  26.357  1.00  0.00     0.014 A 
ATOM     35  C   UNL A   1      41.842  23.476  28.459  1.00  0.00     0.010 A 
ATOM     36  C   UNL A   1      40.459  24.193  26.604  1.00  0.00     0.010 A 
ATOM     37  C   UNL A   1      41.342  24.509  27.649  1.00  0.00    -0.014 A 
BRANCH  37  38
ATOM     38  C   UNL A   1      41.780  25.915  27.829  1.00  0.00     0.031 A 
ATOM     39  C   UNL A   1      43.165  26.341  27.435  1.00  0.00     0.074 A 
ATOM     40  C   UNL A   1      40.960  26.782  28.457  1.00  0.00     0.049 A 
ATOM     41  N   UNL A   1      43.747  27.502  27.590  1.00  0.00    -0.248 NA
ATOM     42  C   UNL A   1      44.017  25.321  26.805  1.00  0.00     0.031 C 
ATOM     43  C   UNL A   1      39.614  26.469  28.944  1.00  0.00     0.029 A 
ATOM     44  N   UNL A   1      41.148  28.091  28.822  1.00  0.00    -0.354 N 
ATOM     45  C   UNL A   1      45.042  27.345  27.115  1.00  0.00     0.074 A 
ATOM     46  C   UNL A   1      45.169  25.966  26.692  1.00  0.00     0.031 C 
ATOM     47  C   UNL A   1      39.094  27.557  29.531  1.00  0.00     0.029 A 
ATOM     48  C   UNL A   1      40.082  28.631  29.503  1.00  0.00     0.049 A 
ATOM     49  H   UNL A   1      41.967  28.597  28.615  1.00  0.00     0.167 HD
ATOM     50  C   UNL A   1      46.030  28.268  27.022  1.00  0.00     0.034 A 
ATOM     51  C   UNL A   1      39.922  29.848  30.057  1.00  0.00     0.034 A 
ATOM     52  C   UNL A   1      45.888  29.640  27.428  1.00  0.00     0.049 A 
ATOM     53  C   UNL A   1      41.038  30.850  29.954  1.00  0.00     0.074 A 
ATOM     54  C   UNL A   1      46.792  30.678  27.286  1.00  0.00     0.029 A 
ATOM     55  N   UNL A   1      44.782  30.162  28.082  1.00  0.00    -0.354 N 
ATOM     56  N   UNL A   1      42.198  30.736  29.353  1.00  0.00    -0.248 NA
ATOM     57  C   UNL A   1      40.817  32.157  30.590  1.00  0.00     0.031 C 
ATOM     58  C   UNL A   1      46.250  31.816  27.896  1.00  0.00     0.029 A 
ATOM     59  C   UNL A   1      44.993  31.497  28.383  1.00  0.00     0.049 A 
ATOM     60  H   UNL A   1      43.965  29.657  28.301  1.00  0.00     0.167 HD
ATOM     61  C   UNL A   1      42.833  31.962  29.511  1.00  0.00     0.074 A 
ATOM     62  C   UNL A   1      41.920  32.812  30.249  1.00  0.00     0.031 C 
ATOM     63  C   UNL A   1      44.065  32.344  29.092  1.00  0.00     0.034 A 
BRANCH  50  64
ATOM     64  C   UNL A   1      47.345  27.819  26.437  1.00  0.00     0.023 A 
ATOM     65  C   UNL A   1      48.391  27.410  27.293  1.00  0.00     0.012 A 
ATOM     66  C   UNL A   1      47.544  27.782  25.043  1.00  0.00     0.148 A 
ATOM     67  C   UNL A   1      49.626  27.024  26.775  1.00  0.00     0.002 A 
ATOM     68  C   UNL A   1      48.763  27.349  24.533  1.00  0.00     0.091 A 
ATOM     69  F   UNL A   1      46.551  28.193  24.243  1.00  0.00    -0.205 F 
ATOM     70  C   UNL A   1      49.810  26.987  25.396  1.00  0.00     0.022 A 
BRANCH  68  71
ATOM     71  S   UNL A   1      49.067  27.189  22.769  1.00  0.00     0.127 S 
ATOM     72  O   UNL A   1      50.524  27.076  22.730  1.00  0.00    -0.237 OA
ATOM     73  O   UNL A   1      48.351  25.955  22.443  1.00  0.00    -0.237 OA
ATOM     74  O   UNL A   1      48.513  28.389  22.159  1.00  0.00    -0.744 OA
ENDBRANCH  68  71
ENDBRANCH  50  64
BRANCH  51  75
ATOM     75  C   UNL A   1      38.625  30.205  30.698  1.00  0.00     0.023 A 
ATOM     76  C   UNL A   1      38.406  29.844  32.042  1.00  0.00     0.012 A 
ATOM     77  C   UNL A   1      37.635  30.936  30.012  1.00  0.00     0.148 A 
ATOM     78  C   UNL A   1      37.218  30.187  32.686  1.00  0.00     0.002 A 
ATOM     79  C   UNL A   1      36.476  31.318  30.675  1.00  0.00     0.091 A 
ATOM     80  F   UNL A   1      37.864  31.264  28.733  1.00  0.00    -0.205 F 
ATOM     81  C   UNL A   1      36.258  30.933  32.006  1.00  0.00     0.022 A 
BRANCH  79  82
ATOM     82  S   UNL A   1      35.232  32.376  29.924  1.00  0.00     0.127 S 
ATOM     83  O   UNL A   1      36.028  33.529  29.512  1.00  0.00    -0.237 OA
ATOM     84  O   UNL A   1      34.750  31.536  28.828  1.00  0.00    -0.237 OA
ATOM     85  O   UNL A   1      34.250  32.635  30.968  1.00  0.00    -0.744 OA
ENDBRANCH  79  82
ENDBRANCH  51  75
BRANCH  63  86
ATOM     86  C   UNL A   1      44.505  33.751  29.407  1.00  0.00     0.023 A 
ATOM     87  C   UNL A   1      45.236  34.010  30.583  1.00  0.00     0.012 A 
ATOM     88  C   UNL A   1      44.267  34.801  28.496  1.00  0.00     0.148 A 
ATOM     89  C   UNL A   1      45.702  35.295  30.860  1.00  0.00     0.002 A 
ATOM     90  C   UNL A   1      44.778  36.066  28.754  1.00  0.00     0.091 A 
ATOM     91  F   UNL A   1      43.556  34.537  27.390  1.00  0.00    -0.205 F 
ATOM     92  C   UNL A   1      45.485  36.318  29.942  1.00  0.00     0.022 A 
BRANCH  90  93
ATOM     93  S   UNL A   1      44.635  37.426  27.589  1.00  0.00     0.127 S 
ATOM     94  O   UNL A   1      43.305  37.197  27.024  1.00  0.00    -0.237 OA
ATOM     95  O   UNL A   1      44.733  38.594  28.466  1.00  0.00    -0.237 OA
ATOM     96  O   UNL A   1      45.740  37.275  26.652  1.00  0.00    -0.744 OA
ENDBRANCH  90  93
ENDBRANCH  63  86
ENDBRANCH  37  38
ENDBRANCH  29  32
ENDBRANCH  27  28
ENDBRANCH  26  27
ENDBRANCH   1  26
TORSDOF 18
ENDMDL
MODEL 3
REMARK VINA RESULT:     -12.3      5.178     10.509
REMARK SMILES Cc1ncccc1C(=O)Nc1ccccc1C(=O)NCCCCCCNC(=O)c1ccc(-c2c3nc(c(-c4cccc(S(=O)(=O)[O-])c4F)c4ccc([nH]4)c(-c4cccc(S(=O)(=O)[O-])c4F)c4nc(c(-c5cccc(S(=O)(=O)[O-])c5F)c5ccc2[nH]5)C=C4)C=C3)cc1
REMARK SMILES IDX 23 1 22 2 21 3 20 4 19 5 17 6 18 7 16 9 11 10 12 11 13 12
REMARK SMILES IDX 15 13 14 14 10 15 8 16 9 17 7 19 1 20 2 21 3 22 4 23 6 24
REMARK SMILES IDX 5 25 24 26 25 27 26 28 27 29 28 31 29 32 30 33 91 34 31 35
REMARK SMILES IDX 90 36 32 37 33 38 34 39 84 40 35 41 89 42 83 43 85 44 36 45
REMARK SMILES IDX 88 46 82 47 81 48 37 50 69 51 49 52 68 53 50 54 53 55 67 56
REMARK SMILES IDX 86 57 51 58 52 59 66 61 87 62 54 63 38 64 39 65 47 66 40 67
REMARK SMILES IDX 42 68 48 69 41 70 43 71 44 72 45 73 46 74 70 75 71 76 79 77
REMARK SMILES IDX 72 78 74 79 80 80 73 81 75 82 76 83 77 84 78 85 55 86 56 87
REMARK SMILES IDX 64 88 57 89 59 90 65 91 58 92 60 93 61 94 62 95 63 96
REMARK H PARENT 19 8 10 18 26 30 85 49 53 60
REMARK Flexibility Score: inf
ROOT
ATOM      1  C   UNL A   1      35.553  20.238  25.043  1.00  0.00     0.002 C 
ENDROOT
BRANCH   1   2
ATOM      2  C   UNL A   1      34.105  19.979  24.610  1.00  0.00     0.002 C 
BRANCH   2   3
ATOM      3  C   UNL A   1      32.994  20.370  25.593  1.00  0.00     0.021 C 
BRANCH   3   4
ATOM      4  C   UNL A   1      33.436  21.121  26.843  1.00  0.00     0.116 C 
BRANCH   4   5
ATOM      5  N   UNL A   1      32.470  22.079  27.338  1.00  0.00    -0.352 N 
ATOM      6  C   UNL A   1      32.151  23.338  26.887  1.00  0.00     0.253 C 
ATOM      7  O   UNL A   1      31.281  23.955  27.508  1.00  0.00    -0.269 OA
ATOM      8  H   UNL A   1      31.960  21.780  28.124  1.00  0.00     0.163 HD
BRANCH   6   9
ATOM      9  C   UNL A   1      32.872  24.032  25.775  1.00  0.00     0.063 A 
ATOM     10  C   UNL A   1      32.330  24.679  24.651  1.00  0.00     0.054 A 
ATOM     11  C   UNL A   1      33.188  25.051  23.595  1.00  0.00     0.027 A 
ATOM     12  C   UNL A   1      34.574  24.975  23.719  1.00  0.00     0.002 A 
ATOM     13  C   UNL A   1      34.282  23.982  25.889  1.00  0.00     0.016 A 
ATOM     14  C   UNL A   1      35.123  24.477  24.889  1.00  0.00     0.001 A 
BRANCH  10  15
ATOM     15  N   UNL A   1      31.010  25.115  24.448  1.00  0.00    -0.321 N 
ATOM     16  C   UNL A   1      30.329  26.257  24.785  1.00  0.00     0.257 C 
ATOM     17  O   UNL A   1      29.113  26.270  24.587  1.00  0.00    -0.269 OA
ATOM     18  H   UNL A   1      30.457  24.464  23.960  1.00  0.00     0.170 HD
BRANCH  16  19
ATOM     19  C   UNL A   1      30.944  27.462  25.376  1.00  0.00     0.061 A 
ATOM     20  C   UNL A   1      30.834  28.966  23.305  1.00  0.00     0.067 C 
ATOM     21  C   UNL A   1      31.201  28.670  24.726  1.00  0.00     0.050 A 
ATOM     22  N   UNL A   1      31.771  29.729  25.373  1.00  0.00    -0.261 NA
ATOM     23  C   UNL A   1      32.025  29.608  26.695  1.00  0.00     0.111 A 
ATOM     24  C   UNL A   1      31.164  27.405  26.762  1.00  0.00     0.017 A 
ATOM     25  C   UNL A   1      31.717  28.485  27.434  1.00  0.00     0.021 A 
ENDBRANCH  16  19
ENDBRANCH  10  15
ENDBRANCH   6   9
ENDBRANCH   4   5
ENDBRANCH   3   4
ENDBRANCH   2   3
ENDBRANCH   1   2
BRANCH   1  26
ATOM     26  C   UNL A   1      36.328  21.314  24.279  1.00  0.00     0.021 C 
BRANCH  26  27
ATOM     27  C   UNL A   1      37.593  21.834  24.956  1.00  0.00     0.116 C 
BRANCH  27  28
ATOM     28  N   UNL A   1      38.436  20.772  25.482  1.00  0.00    -0.352 N 
ATOM     29  C   UNL A   1      39.561  20.851  26.268  1.00  0.00     0.251 C 
ATOM     30  H   UNL A   1      38.159  19.859  25.238  1.00  0.00     0.163 HD
ATOM     31  O   UNL A   1      40.214  19.843  26.508  1.00  0.00    -0.269 OA
BRANCH  29  32
ATOM     32  C   UNL A   1      39.995  22.162  26.798  1.00  0.00     0.039 A 
ATOM     33  C   UNL A   1      40.960  22.192  27.808  1.00  0.00     0.014 A 
ATOM     34  C   UNL A   1      39.471  23.351  26.288  1.00  0.00     0.014 A 
ATOM     35  C   UNL A   1      41.464  23.418  28.246  1.00  0.00     0.010 A 
ATOM     36  C   UNL A   1      40.022  24.568  26.675  1.00  0.00     0.010 A 
ATOM     37  C   UNL A   1      41.033  24.614  27.648  1.00  0.00    -0.014 A 
BRANCH  37  38
ATOM     38  C   UNL A   1      41.669  25.915  27.971  1.00  0.00     0.031 A 
ATOM     39  C   UNL A   1      40.903  26.978  28.706  1.00  0.00     0.074 A 
ATOM     40  C   UNL A   1      42.903  26.178  27.497  1.00  0.00     0.049 A 
ATOM     41  N   UNL A   1      41.266  28.198  29.004  1.00  0.00    -0.248 NA
ATOM     42  C   UNL A   1      39.542  26.631  29.141  1.00  0.00     0.031 C 
ATOM     43  C   UNL A   1      43.723  25.248  26.717  1.00  0.00     0.029 A 
ATOM     44  N   UNL A   1      43.672  27.311  27.576  1.00  0.00    -0.354 N 
ATOM     45  C   UNL A   1      40.168  28.780  29.626  1.00  0.00     0.074 A 
ATOM     46  C   UNL A   1      39.116  27.785  29.636  1.00  0.00     0.031 C 
ATOM     47  C   UNL A   1      44.882  25.844  26.399  1.00  0.00     0.029 A 
ATOM     48  C   UNL A   1      44.873  27.209  26.914  1.00  0.00     0.049 A 
ATOM     49  H   UNL A   1      43.392  28.121  28.061  1.00  0.00     0.167 HD
ATOM     50  C   UNL A   1      40.053  30.021  30.158  1.00  0.00     0.034 A 
ATOM     51  C   UNL A   1      45.851  28.116  26.727  1.00  0.00     0.034 A 
ATOM     52  C   UNL A   1      41.110  30.996  30.160  1.00  0.00     0.049 A 
ATOM     53  C   UNL A   1      45.693  29.492  27.313  1.00  0.00     0.074 A 
ATOM     54  C   UNL A   1      41.129  32.244  30.756  1.00  0.00     0.029 A 
ATOM     55  N   UNL A   1      42.327  30.846  29.510  1.00  0.00    -0.354 N 
ATOM     56  N   UNL A   1      44.715  29.971  28.043  1.00  0.00    -0.248 NA
ATOM     57  C   UNL A   1      46.782  30.447  27.066  1.00  0.00     0.031 C 
ATOM     58  C   UNL A   1      42.340  32.866  30.428  1.00  0.00     0.029 A 
ATOM     59  C   UNL A   1      43.091  31.991  29.660  1.00  0.00     0.049 A 
ATOM     60  H   UNL A   1      42.607  30.042  29.014  1.00  0.00     0.167 HD
ATOM     61  C   UNL A   1      45.082  31.272  28.367  1.00  0.00     0.074 A 
ATOM     62  C   UNL A   1      46.382  31.499  27.770  1.00  0.00     0.031 C 
ATOM     63  C   UNL A   1      44.398  32.197  29.086  1.00  0.00     0.034 A 
BRANCH  50  64
ATOM     64  C   UNL A   1      38.737  30.381  30.800  1.00  0.00     0.023 A 
ATOM     65  C   UNL A   1      38.483  30.010  32.138  1.00  0.00     0.012 A 
ATOM     66  C   UNL A   1      37.758  31.103  30.089  1.00  0.00     0.148 A 
ATOM     67  C   UNL A   1      37.260  30.304  32.739  1.00  0.00     0.002 A 
ATOM     68  C   UNL A   1      36.559  31.435  30.712  1.00  0.00     0.091 A 
ATOM     69  F   UNL A   1      38.003  31.431  28.813  1.00  0.00    -0.205 F 
ATOM     70  C   UNL A   1      36.302  31.022  32.029  1.00  0.00     0.022 A 
BRANCH  68  71
ATOM     71  S   UNL A   1      35.297  32.428  29.906  1.00  0.00     0.127 S 
ATOM     72  O   UNL A   1      34.325  32.600  30.984  1.00  0.00    -0.237 OA
ATOM     73  O   UNL A   1      36.037  33.640  29.553  1.00  0.00    -0.237 OA
ATOM     74  O   UNL A   1      34.841  31.645  28.767  1.00  0.00    -0.744 OA
ENDBRANCH  68  71
ENDBRANCH  50  64
BRANCH  51  75
ATOM     75  C   UNL A   1      47.096  27.725  26.008  1.00  0.00     0.023 A 
ATOM     76  C   UNL A   1      48.132  27.098  26.728  1.00  0.00     0.012 A 
ATOM     77  C   UNL A   1      47.243  27.921  24.621  1.00  0.00     0.148 A 
ATOM     78  C   UNL A   1      49.299  26.689  26.084  1.00  0.00     0.002 A 
ATOM     79  C   UNL A   1      48.387  27.466  23.977  1.00  0.00     0.091 A 
ATOM     80  F   UNL A   1      46.246  28.524  23.958  1.00  0.00    -0.205 F 
ATOM     81  C   UNL A   1      49.422  26.864  24.708  1.00  0.00     0.022 A 
BRANCH  79  82
ATOM     82  S   UNL A   1      48.592  27.539  22.193  1.00  0.00     0.127 S 
ATOM     83  O   UNL A   1      48.705  26.124  21.846  1.00  0.00    -0.237 OA
ATOM     84  O   UNL A   1      47.343  28.178  21.777  1.00  0.00    -0.237 OA
ATOM     85  O   UNL A   1      49.788  28.336  21.964  1.00  0.00    -0.744 OA
ENDBRANCH  79  82
ENDBRANCH  51  75
BRANCH  63  86
ATOM     86  C   UNL A   1      45.043  33.545  29.284  1.00  0.00     0.023 A 
ATOM     87  C   UNL A   1      45.947  33.739  30.345  1.00  0.00     0.012 A 
ATOM     88  C   UNL A   1      44.817  34.592  28.368  1.00  0.00     0.148 A 
ATOM     89  C   UNL A   1      46.599  34.961  30.508  1.00  0.00     0.002 A 
ATOM     90  C   UNL A   1      45.508  35.790  28.505  1.00  0.00     0.091 A 
ATOM     91  F   UNL A   1      43.941  34.392  27.373  1.00  0.00    -0.205 F 
ATOM     92  C   UNL A   1      46.389  35.980  29.583  1.00  0.00     0.022 A 
BRANCH  90  93
ATOM     93  S   UNL A   1      45.380  37.126  27.313  1.00  0.00     0.127 S 
ATOM     94  O   UNL A   1      45.922  38.255  28.070  1.00  0.00    -0.237 OA
ATOM     95  O   UNL A   1      46.236  36.652  26.226  1.00  0.00    -0.237 OA
ATOM     96  O   UNL A   1      43.967  37.231  26.973  1.00  0.00    -0.744 OA
ENDBRANCH  90  93
ENDBRANCH  63  86
ENDBRANCH  37  38
ENDBRANCH  29  32
ENDBRANCH  27  28
ENDBRANCH  26  27
ENDBRANCH   1  26
TORSDOF 18
ENDMDL
