MODEL 1
REMARK VINA RESULT:     -11.0      0.000      0.000
REMARK SMILES C[C@H]1[C@@H](C(=O)NCCCCCCNC(=O)c2ccc(-c3c4nc(c(-c5cccc(S(=O)(=O)[O-])c5F)c5ccc([nH]5)c(-c5cccc(S(=O)(=O)[O-])c5F)c5nc(c(-c6cccc(S(=O)(=O)[O-])c6F)c6ccc3[nH]6)C=C5)C=C4)cc2)CCN1C(=O)N(C)CC(=O)N1CCCC1
REMARK SMILES IDX 9 1 8 2 7 3 6 4 4 5 5 6 3 8 1 9 2 10 81 11 79 12 80 13 82 14
REMARK SMILES IDX 83 15 84 16 85 17 86 18 87 19 88 20 89 21 90 22 93 23 91 24
REMARK SMILES IDX 92 25 10 26 11 27 12 28 13 29 14 30 15 32 16 33 17 34 78 35
REMARK SMILES IDX 18 36 77 37 19 38 20 39 21 40 71 41 22 42 76 43 70 44 72 45
REMARK SMILES IDX 23 46 75 47 69 48 68 49 24 51 56 52 36 53 55 54 37 55 40 56
REMARK SMILES IDX 54 57 73 58 38 59 39 60 53 62 74 63 41 64 25 65 26 66 34 67
REMARK SMILES IDX 27 68 29 69 35 70 28 71 30 72 31 73 32 74 33 75 57 76 58 77
REMARK SMILES IDX 66 78 59 79 61 80 67 81 60 82 62 83 63 84 64 85 65 86 42 87
REMARK SMILES IDX 43 88 51 89 44 90 46 91 52 92 45 93 47 94 48 95 49 96 50 97
REMARK H PARENT 6 7 13 31 72 50 40 61
REMARK Flexibility Score: inf
ROOT
ATOM      1  C   UNL A   1      36.010  21.278  25.295  1.00  0.00     0.002 C 
ENDROOT
BRANCH   1   2
ATOM      2  C   UNL A   1      34.873  20.291  25.057  1.00  0.00     0.021 C 
BRANCH   2   3
ATOM      3  C   UNL A   1      33.470  20.896  24.921  1.00  0.00     0.116 C 
BRANCH   3   4
ATOM      4  N   UNL A   1      33.002  21.357  26.217  1.00  0.00    -0.356 N 
ATOM      5  C   UNL A   1      32.482  22.551  26.620  1.00  0.00     0.225 C 
ATOM      6  O   UNL A   1      32.332  22.698  27.836  1.00  0.00    -0.275 OA
ATOM      7  H   UNL A   1      33.074  20.686  26.934  1.00  0.00     0.163 HD
BRANCH   5   8
ATOM      8  C   UNL A   1      31.993  23.596  25.616  1.00  0.00     0.102 C 
ATOM      9  C   UNL A   1      34.404  24.633  25.528  1.00  0.00     0.032 C 
ATOM     10  C   UNL A   1      33.002  24.557  24.939  1.00  0.00     0.096 C 
ATOM     11  N   UNL A   1      32.406  25.885  25.022  1.00  0.00    -0.321 N 
ATOM     12  C   UNL A   1      30.914  24.532  26.214  1.00  0.00     0.037 C 
ATOM     13  C   UNL A   1      31.515  25.920  26.163  1.00  0.00     0.122 C 
BRANCH  11  14
ATOM     14  C   UNL A   1      32.820  27.075  24.475  1.00  0.00     0.320 C 
ATOM     15  O   UNL A   1      34.017  27.231  24.208  1.00  0.00    -0.248 OA
BRANCH  14  16
ATOM     16  N   UNL A   1      31.916  28.071  24.171  1.00  0.00    -0.318 N 
ATOM     17  C   UNL A   1      31.677  29.359  24.817  1.00  0.00     0.149 C 
BRANCH  16  18
ATOM     18  C   UNL A   1      31.107  27.833  22.982  1.00  0.00     0.221 C 
BRANCH  18  19
ATOM     19  C   UNL A   1      29.587  28.082  22.991  1.00  0.00     0.242 C 
ATOM     20  O   UNL A   1      28.870  27.223  23.527  1.00  0.00    -0.273 OA
ATOM     21  N   UNL A   1      29.035  29.285  22.614  1.00  0.00    -0.341 N 
ATOM     22  C   UNL A   1      29.532  30.344  21.753  1.00  0.00     0.119 C 
ATOM     23  C   UNL A   1      27.683  29.604  23.037  1.00  0.00     0.119 C 
ATOM     24  C   UNL A   1      28.851  31.579  22.310  1.00  0.00     0.023 C 
ATOM     25  C   UNL A   1      27.459  31.062  22.645  1.00  0.00     0.023 C 
ENDBRANCH  18  19
ENDBRANCH  16  18
ENDBRANCH  14  16
ENDBRANCH  11  14
ENDBRANCH   5   8
ENDBRANCH   3   4
ENDBRANCH   2   3
ENDBRANCH   1   2
BRANCH   1  26
ATOM     26  C   UNL A   1      37.277  21.000  24.485  1.00  0.00     0.002 C 
BRANCH  26  27
ATOM     27  C   UNL A   1      38.095  19.774  24.914  1.00  0.00     0.021 C 
BRANCH  27  28
ATOM     28  C   UNL A   1      39.008  19.972  26.125  1.00  0.00     0.116 C 
BRANCH  28  29
ATOM     29  N   UNL A   1      40.205  19.152  26.049  1.00  0.00    -0.352 N 
ATOM     30  C   UNL A   1      41.524  19.525  26.030  1.00  0.00     0.251 C 
ATOM     31  H   UNL A   1      40.044  18.182  26.005  1.00  0.00     0.163 HD
ATOM     32  O   UNL A   1      42.384  18.703  25.723  1.00  0.00    -0.269 OA
BRANCH  30  33
ATOM     33  C   UNL A   1      41.916  20.911  26.367  1.00  0.00     0.039 A 
ATOM     34  C   UNL A   1      42.225  21.222  27.694  1.00  0.00     0.014 A 
ATOM     35  C   UNL A   1      41.936  21.911  25.391  1.00  0.00     0.014 A 
ATOM     36  C   UNL A   1      42.604  22.524  28.032  1.00  0.00     0.010 A 
ATOM     37  C   UNL A   1      42.375  23.193  25.718  1.00  0.00     0.010 A 
ATOM     38  C   UNL A   1      42.705  23.516  27.043  1.00  0.00    -0.014 A 
BRANCH  38  39
ATOM     39  C   UNL A   1      43.163  24.890  27.376  1.00  0.00     0.031 A 
ATOM     40  C   UNL A   1      42.220  25.874  28.013  1.00  0.00     0.074 A 
ATOM     41  C   UNL A   1      44.406  25.278  27.029  1.00  0.00     0.049 A 
ATOM     42  N   UNL A   1      42.426  27.126  28.330  1.00  0.00    -0.248 NA
ATOM     43  C   UNL A   1      40.859  25.399  28.310  1.00  0.00     0.031 C 
ATOM     44  C   UNL A   1      45.389  24.442  26.336  1.00  0.00     0.029 A 
ATOM     45  N   UNL A   1      45.045  26.483  27.183  1.00  0.00    -0.354 N 
ATOM     46  C   UNL A   1      41.218  27.598  28.829  1.00  0.00     0.074 A 
ATOM     47  C   UNL A   1      40.272  26.505  28.744  1.00  0.00     0.031 C 
ATOM     48  C   UNL A   1      46.506  25.157  26.129  1.00  0.00     0.029 A 
ATOM     49  C   UNL A   1      46.312  26.508  26.647  1.00  0.00     0.049 A 
ATOM     50  H   UNL A   1      44.637  27.255  27.637  1.00  0.00     0.167 HD
ATOM     51  C   UNL A   1      40.926  28.818  29.342  1.00  0.00     0.034 A 
ATOM     52  C   UNL A   1      47.212  27.507  26.573  1.00  0.00     0.034 A 
ATOM     53  C   UNL A   1      41.880  29.888  29.467  1.00  0.00     0.049 A 
ATOM     54  C   UNL A   1      46.879  28.841  27.186  1.00  0.00     0.074 A 
ATOM     55  C   UNL A   1      41.709  31.129  30.056  1.00  0.00     0.029 A 
ATOM     56  N   UNL A   1      43.180  29.849  28.989  1.00  0.00    -0.354 N 
ATOM     57  N   UNL A   1      45.785  29.213  27.804  1.00  0.00    -0.248 NA
ATOM     58  C   UNL A   1      47.918  29.880  27.124  1.00  0.00     0.031 C 
ATOM     59  C   UNL A   1      42.901  31.847  29.915  1.00  0.00     0.029 A 
ATOM     60  C   UNL A   1      43.821  31.046  29.259  1.00  0.00     0.049 A 
ATOM     61  H   UNL A   1      43.589  29.081  28.526  1.00  0.00     0.167 HD
ATOM     62  C   UNL A   1      46.014  30.516  28.233  1.00  0.00     0.074 A 
ATOM     63  C   UNL A   1      47.361  30.859  27.824  1.00  0.00     0.031 C 
ATOM     64  C   UNL A   1      45.179  31.357  28.891  1.00  0.00     0.034 A 
BRANCH  51  65
ATOM     65  C   UNL A   1      39.530  29.044  29.860  1.00  0.00     0.023 A 
ATOM     66  C   UNL A   1      39.201  28.634  31.169  1.00  0.00     0.012 A 
ATOM     67  C   UNL A   1      38.562  29.709  29.082  1.00  0.00     0.148 A 
ATOM     68  C   UNL A   1      37.922  28.847  31.683  1.00  0.00     0.002 A 
ATOM     69  C   UNL A   1      37.302  29.958  29.617  1.00  0.00     0.091 A 
ATOM     70  F   UNL A   1      38.885  30.074  27.834  1.00  0.00    -0.205 F 
ATOM     71  C   UNL A   1      36.977  29.517  30.911  1.00  0.00     0.022 A 
BRANCH  69  72
ATOM     72  S   UNL A   1      36.043  30.884  28.731  1.00  0.00     0.127 S 
ATOM     73  O   UNL A   1      36.840  31.946  28.113  1.00  0.00    -0.237 OA
ATOM     74  O   UNL A   1      35.532  29.884  27.789  1.00  0.00    -0.237 OA
ATOM     75  O   UNL A   1      35.086  31.319  29.731  1.00  0.00    -0.744 OA
ENDBRANCH  69  72
ENDBRANCH  51  65
BRANCH  52  76
ATOM     76  C   UNL A   1      48.546  27.259  25.955  1.00  0.00     0.023 A 
ATOM     77  C   UNL A   1      49.588  26.738  26.746  1.00  0.00     0.012 A 
ATOM     78  C   UNL A   1      48.778  27.500  24.587  1.00  0.00     0.148 A 
ATOM     79  C   UNL A   1      50.844  26.489  26.194  1.00  0.00     0.002 A 
ATOM     80  C   UNL A   1      50.015  27.197  24.030  1.00  0.00     0.091 A 
ATOM     81  F   UNL A   1      47.777  28.007  23.852  1.00  0.00    -0.205 F 
ATOM     82  C   UNL A   1      51.055  26.707  24.835  1.00  0.00     0.022 A 
BRANCH  80  83
ATOM     83  S   UNL A   1      50.329  27.316  22.265  1.00  0.00     0.127 S 
ATOM     84  O   UNL A   1      49.271  26.471  21.715  1.00  0.00    -0.237 OA
ATOM     85  O   UNL A   1      50.159  28.750  22.023  1.00  0.00    -0.237 OA
ATOM     86  O   UNL A   1      51.689  26.835  22.073  1.00  0.00    -0.744 OA
ENDBRANCH  80  83
ENDBRANCH  52  76
BRANCH  64  87
ATOM     87  C   UNL A   1      45.699  32.728  29.238  1.00  0.00     0.023 A 
ATOM     88  C   UNL A   1      46.492  32.903  30.389  1.00  0.00     0.012 A 
ATOM     89  C   UNL A   1      45.467  33.824  28.384  1.00  0.00     0.148 A 
ATOM     90  C   UNL A   1      47.019  34.155  30.702  1.00  0.00     0.002 A 
ATOM     91  C   UNL A   1      46.036  35.059  28.676  1.00  0.00     0.091 A 
ATOM     92  F   UNL A   1      44.695  33.642  27.302  1.00  0.00    -0.205 F 
ATOM     93  C   UNL A   1      46.802  35.229  29.842  1.00  0.00     0.022 A 
BRANCH  91  94
ATOM     94  S   UNL A   1      45.888  36.472  27.578  1.00  0.00     0.127 S 
ATOM     95  O   UNL A   1      46.738  36.070  26.459  1.00  0.00    -0.237 OA
ATOM     96  O   UNL A   1      44.455  36.485  27.280  1.00  0.00    -0.237 OA
ATOM     97  O   UNL A   1      46.356  37.623  28.339  1.00  0.00    -0.744 OA
ENDBRANCH  91  94
ENDBRANCH  64  87
ENDBRANCH  38  39
ENDBRANCH  30  33
ENDBRANCH  28  29
ENDBRANCH  27  28
ENDBRANCH  26  27
ENDBRANCH   1  26
TORSDOF 20
ENDMDL
MODEL 2
REMARK VINA RESULT:     -11.0      6.153     11.720
REMARK SMILES C[C@H]1[C@@H](C(=O)NCCCCCCNC(=O)c2ccc(-c3c4nc(c(-c5cccc(S(=O)(=O)[O-])c5F)c5ccc([nH]5)c(-c5cccc(S(=O)(=O)[O-])c5F)c5nc(c(-c6cccc(S(=O)(=O)[O-])c6F)c6ccc3[nH]6)C=C5)C=C4)cc2)CCN1C(=O)N(C)CC(=O)N1CCCC1
REMARK SMILES IDX 9 1 8 2 7 3 6 4 4 5 5 6 3 8 1 9 2 10 81 11 79 12 80 13 82 14
REMARK SMILES IDX 83 15 84 16 85 17 86 18 87 19 88 20 89 21 90 22 93 23 91 24
REMARK SMILES IDX 92 25 10 26 11 27 12 28 13 29 14 30 15 32 16 33 17 34 78 35
REMARK SMILES IDX 18 36 77 37 19 38 20 39 21 40 71 41 22 42 76 43 70 44 72 45
REMARK SMILES IDX 23 46 75 47 69 48 68 49 24 51 56 52 36 53 55 54 37 55 40 56
REMARK SMILES IDX 54 57 73 58 38 59 39 60 53 62 74 63 41 64 25 65 26 66 34 67
REMARK SMILES IDX 27 68 29 69 35 70 28 71 30 72 31 73 32 74 33 75 57 76 58 77
REMARK SMILES IDX 66 78 59 79 61 80 67 81 60 82 62 83 63 84 64 85 65 86 42 87
REMARK SMILES IDX 43 88 51 89 44 90 46 91 52 92 45 93 47 94 48 95 49 96 50 97
REMARK H PARENT 6 7 13 31 72 50 40 61
REMARK Flexibility Score: inf
ROOT
ATOM      1  C   UNL A   1      32.683  30.049  26.509  1.00  0.00     0.002 C 
ENDROOT
BRANCH   1   2
ATOM      2  C   UNL A   1      33.256  29.412  25.248  1.00  0.00     0.021 C 
BRANCH   2   3
ATOM      3  C   UNL A   1      32.590  28.110  24.785  1.00  0.00     0.116 C 
BRANCH   3   4
ATOM      4  N   UNL A   1      31.585  28.400  23.776  1.00  0.00    -0.356 N 
ATOM      5  C   UNL A   1      31.130  27.674  22.716  1.00  0.00     0.225 C 
ATOM      6  O   UNL A   1      30.381  28.264  21.932  1.00  0.00    -0.275 OA
ATOM      7  H   UNL A   1      31.155  29.280  23.876  1.00  0.00     0.163 HD
BRANCH   5   8
ATOM      8  C   UNL A   1      31.426  26.180  22.577  1.00  0.00     0.102 C 
ATOM      9  C   UNL A   1      29.864  25.684  24.628  1.00  0.00     0.032 C 
ATOM     10  C   UNL A   1      30.662  25.151  23.446  1.00  0.00     0.096 C 
ATOM     11  N   UNL A   1      31.673  24.235  23.961  1.00  0.00    -0.321 N 
ATOM     12  C   UNL A   1      32.920  25.848  22.813  1.00  0.00     0.037 C 
ATOM     13  C   UNL A   1      32.941  24.931  24.017  1.00  0.00     0.122 C 
BRANCH  11  14
ATOM     14  C   UNL A   1      31.528  23.074  24.682  1.00  0.00     0.320 C 
ATOM     15  O   UNL A   1      30.846  23.086  25.713  1.00  0.00    -0.248 OA
BRANCH  14  16
ATOM     16  N   UNL A   1      32.085  21.891  24.244  1.00  0.00    -0.318 N 
ATOM     17  C   UNL A   1      32.197  21.342  22.895  1.00  0.00     0.149 C 
BRANCH  16  18
ATOM     18  C   UNL A   1      32.717  21.082  25.279  1.00  0.00     0.221 C 
BRANCH  18  19
ATOM     19  C   UNL A   1      34.224  20.765  25.231  1.00  0.00     0.242 C 
ATOM     20  O   UNL A   1      34.565  19.683  24.731  1.00  0.00    -0.273 OA
ATOM     21  N   UNL A   1      35.183  21.705  25.533  1.00  0.00    -0.341 N 
ATOM     22  C   UNL A   1      35.130  22.909  26.342  1.00  0.00     0.119 C 
ATOM     23  C   UNL A   1      36.544  21.495  25.071  1.00  0.00     0.119 C 
ATOM     24  C   UNL A   1      36.188  23.789  25.708  1.00  0.00     0.023 C 
ATOM     25  C   UNL A   1      37.290  22.792  25.379  1.00  0.00     0.023 C 
ENDBRANCH  18  19
ENDBRANCH  16  18
ENDBRANCH  14  16
ENDBRANCH  11  14
ENDBRANCH   5   8
ENDBRANCH   3   4
ENDBRANCH   2   3
ENDBRANCH   1   2
BRANCH   1  26
ATOM     26  C   UNL A   1      31.370  30.804  26.303  1.00  0.00     0.002 C 
BRANCH  26  27
ATOM     27  C   UNL A   1      31.413  32.315  26.572  1.00  0.00     0.021 C 
BRANCH  27  28
ATOM     28  C   UNL A   1      32.619  32.817  27.366  1.00  0.00     0.116 C 
BRANCH  28  29
ATOM     29  N   UNL A   1      32.494  34.218  27.727  1.00  0.00    -0.352 N 
ATOM     30  C   UNL A   1      33.117  34.928  28.721  1.00  0.00     0.251 C 
ATOM     31  H   UNL A   1      31.866  34.737  27.173  1.00  0.00     0.163 HD
ATOM     32  O   UNL A   1      32.703  36.046  29.022  1.00  0.00    -0.269 OA
BRANCH  30  33
ATOM     33  C   UNL A   1      34.275  34.353  29.439  1.00  0.00     0.039 A 
ATOM     34  C   UNL A   1      34.053  33.646  30.623  1.00  0.00     0.014 A 
ATOM     35  C   UNL A   1      35.579  34.549  28.974  1.00  0.00     0.014 A 
ATOM     36  C   UNL A   1      35.134  33.089  31.313  1.00  0.00     0.010 A 
ATOM     37  C   UNL A   1      36.649  33.940  29.629  1.00  0.00     0.010 A 
ATOM     38  C   UNL A   1      36.439  33.212  30.810  1.00  0.00    -0.014 A 
BRANCH  38  39
ATOM     39  C   UNL A   1      37.592  32.577  31.500  1.00  0.00     0.031 A 
ATOM     40  C   UNL A   1      38.318  31.422  30.865  1.00  0.00     0.074 A 
ATOM     41  C   UNL A   1      37.934  32.988  32.737  1.00  0.00     0.049 A 
ATOM     42  N   UNL A   1      39.311  30.713  31.336  1.00  0.00    -0.248 NA
ATOM     43  C   UNL A   1      37.851  30.988  29.538  1.00  0.00     0.031 C 
ATOM     44  C   UNL A   1      37.259  34.045  33.493  1.00  0.00     0.029 A 
ATOM     45  N   UNL A   1      38.915  32.546  33.590  1.00  0.00    -0.354 N 
ATOM     46  C   UNL A   1      39.565  29.732  30.386  1.00  0.00     0.074 A 
ATOM     47  C   UNL A   1      38.601  29.916  29.323  1.00  0.00     0.031 C 
ATOM     48  C   UNL A   1      37.847  34.171  34.693  1.00  0.00     0.029 A 
ATOM     49  C   UNL A   1      38.920  33.189  34.806  1.00  0.00     0.049 A 
ATOM     50  H   UNL A   1      39.556  31.836  33.352  1.00  0.00     0.167 HD
ATOM     51  C   UNL A   1      40.533  28.783  30.379  1.00  0.00     0.034 A 
ATOM     52  C   UNL A   1      39.697  33.005  35.891  1.00  0.00     0.034 A 
ATOM     53  C   UNL A   1      41.519  28.631  31.416  1.00  0.00     0.049 A 
ATOM     54  C   UNL A   1      40.790  31.972  35.843  1.00  0.00     0.074 A 
ATOM     55  C   UNL A   1      42.595  27.762  31.458  1.00  0.00     0.029 A 
ATOM     56  N   UNL A   1      41.546  29.358  32.595  1.00  0.00    -0.354 N 
ATOM     57  N   UNL A   1      41.120  31.166  34.864  1.00  0.00    -0.248 NA
ATOM     58  C   UNL A   1      41.642  31.848  37.035  1.00  0.00     0.031 C 
ATOM     59  C   UNL A   1      43.261  27.951  32.675  1.00  0.00     0.029 A 
ATOM     60  C   UNL A   1      42.612  28.952  33.378  1.00  0.00     0.049 A 
ATOM     61  H   UNL A   1      40.901  30.061  32.840  1.00  0.00     0.167 HD
ATOM     62  C   UNL A   1      42.235  30.463  35.307  1.00  0.00     0.074 A 
ATOM     63  C   UNL A   1      42.538  30.956  36.635  1.00  0.00     0.031 C 
ATOM     64  C   UNL A   1      42.934  29.486  34.678  1.00  0.00     0.034 A 
BRANCH  51  65
ATOM     65  C   UNL A   1      40.609  27.869  29.184  1.00  0.00     0.023 A 
ATOM     66  C   UNL A   1      39.727  26.772  29.093  1.00  0.00     0.012 A 
ATOM     67  C   UNL A   1      41.506  28.122  28.128  1.00  0.00     0.148 A 
ATOM     68  C   UNL A   1      39.761  25.920  27.990  1.00  0.00     0.002 A 
ATOM     69  C   UNL A   1      41.504  27.293  27.011  1.00  0.00     0.091 A 
ATOM     70  F   UNL A   1      42.351  29.156  28.241  1.00  0.00    -0.205 F 
ATOM     71  C   UNL A   1      40.642  26.186  26.945  1.00  0.00     0.022 A 
BRANCH  69  72
ATOM     72  S   UNL A   1      42.547  27.601  25.579  1.00  0.00     0.127 S 
ATOM     73  O   UNL A   1      41.995  28.862  25.080  1.00  0.00    -0.237 OA
ATOM     74  O   UNL A   1      43.875  27.720  26.188  1.00  0.00    -0.237 OA
ATOM     75  O   UNL A   1      42.380  26.454  24.708  1.00  0.00    -0.744 OA
ENDBRANCH  69  72
ENDBRANCH  51  65
BRANCH  52  76
ATOM     76  C   UNL A   1      39.512  33.870  37.091  1.00  0.00     0.023 A 
ATOM     77  C   UNL A   1      39.946  35.210  37.049  1.00  0.00     0.012 A 
ATOM     78  C   UNL A   1      38.878  33.390  38.252  1.00  0.00     0.148 A 
ATOM     79  C   UNL A   1      39.780  36.045  38.153  1.00  0.00     0.002 A 
ATOM     80  C   UNL A   1      38.665  34.244  39.329  1.00  0.00     0.091 A 
ATOM     81  F   UNL A   1      38.482  32.109  38.277  1.00  0.00    -0.205 F 
ATOM     82  C   UNL A   1      39.130  35.567  39.288  1.00  0.00     0.022 A 
BRANCH  80  83
ATOM     83  S   UNL A   1      37.716  33.750  40.772  1.00  0.00     0.127 S 
ATOM     84  O   UNL A   1      38.642  32.839  41.442  1.00  0.00    -0.237 OA
ATOM     85  O   UNL A   1      37.513  35.030  41.453  1.00  0.00    -0.237 OA
ATOM     86  O   UNL A   1      36.496  33.149  40.255  1.00  0.00    -0.744 OA
ENDBRANCH  80  83
ENDBRANCH  52  76
BRANCH  64  87
ATOM     87  C   UNL A   1      44.116  28.896  35.402  1.00  0.00     0.023 A 
ATOM     88  C   UNL A   1      45.396  29.456  35.222  1.00  0.00     0.012 A 
ATOM     89  C   UNL A   1      43.946  27.838  36.318  1.00  0.00     0.148 A 
ATOM     90  C   UNL A   1      46.494  28.952  35.918  1.00  0.00     0.002 A 
ATOM     91  C   UNL A   1      45.036  27.373  37.043  1.00  0.00     0.091 A 
ATOM     92  F   UNL A   1      42.723  27.307  36.462  1.00  0.00    -0.205 F 
ATOM     93  C   UNL A   1      46.313  27.920  36.836  1.00  0.00     0.022 A 
BRANCH  91  94
ATOM     94  S   UNL A   1      44.880  26.112  38.314  1.00  0.00     0.127 S 
ATOM     95  O   UNL A   1      46.274  25.909  38.704  1.00  0.00    -0.237 OA
ATOM     96  O   UNL A   1      44.057  26.785  39.319  1.00  0.00    -0.237 OA
ATOM     97  O   UNL A   1      44.237  24.974  37.671  1.00  0.00    -0.744 OA
ENDBRANCH  91  94
ENDBRANCH  64  87
ENDBRANCH  38  39
ENDBRANCH  30  33
ENDBRANCH  28  29
ENDBRANCH  27  28
ENDBRANCH  26  27
ENDBRANCH   1  26
TORSDOF 20
ENDMDL
MODEL 3
REMARK VINA RESULT:     -10.9      5.083      9.276
REMARK SMILES C[C@H]1[C@@H](C(=O)NCCCCCCNC(=O)c2ccc(-c3c4nc(c(-c5cccc(S(=O)(=O)[O-])c5F)c5ccc([nH]5)c(-c5cccc(S(=O)(=O)[O-])c5F)c5nc(c(-c6cccc(S(=O)(=O)[O-])c6F)c6ccc3[nH]6)C=C5)C=C4)cc2)CCN1C(=O)N(C)CC(=O)N1CCCC1
REMARK SMILES IDX 9 1 8 2 7 3 6 4 4 5 5 6 3 8 1 9 2 10 81 11 79 12 80 13 82 14
REMARK SMILES IDX 83 15 84 16 85 17 86 18 87 19 88 20 89 21 90 22 93 23 91 24
REMARK SMILES IDX 92 25 10 26 11 27 12 28 13 29 14 30 15 32 16 33 17 34 78 35
REMARK SMILES IDX 18 36 77 37 19 38 20 39 21 40 71 41 22 42 76 43 70 44 72 45
REMARK SMILES IDX 23 46 75 47 69 48 68 49 24 51 56 52 36 53 55 54 37 55 40 56
REMARK SMILES IDX 54 57 73 58 38 59 39 60 53 62 74 63 41 64 25 65 26 66 34 67
REMARK SMILES IDX 27 68 29 69 35 70 28 71 30 72 31 73 32 74 33 75 57 76 58 77
REMARK SMILES IDX 66 78 59 79 61 80 67 81 60 82 62 83 63 84 64 85 65 86 42 87
REMARK SMILES IDX 43 88 51 89 44 90 46 91 52 92 45 93 47 94 48 95 49 96 50 97
REMARK H PARENT 6 7 13 31 72 50 40 61
REMARK Flexibility Score: inf
ROOT
ATOM      1  C   UNL A   1      31.602  30.215  25.548  1.00  0.00     0.002 C 
ENDROOT
BRANCH   1   2
ATOM      2  C   UNL A   1      31.908  29.449  24.265  1.00  0.00     0.021 C 
BRANCH   2   3
ATOM      3  C   UNL A   1      30.697  29.032  23.421  1.00  0.00     0.116 C 
BRANCH   3   4
ATOM      4  N   UNL A   1      31.116  28.117  22.373  1.00  0.00    -0.356 N 
ATOM      5  C   UNL A   1      31.399  26.784  22.395  1.00  0.00     0.225 C 
ATOM      6  O   UNL A   1      31.897  26.315  21.367  1.00  0.00    -0.275 OA
ATOM      7  H   UNL A   1      31.213  28.535  21.487  1.00  0.00     0.163 HD
BRANCH   5   8
ATOM      8  C   UNL A   1      31.004  25.896  23.576  1.00  0.00     0.102 C 
ATOM      9  C   UNL A   1      33.538  25.612  24.204  1.00  0.00     0.032 C 
ATOM     10  C   UNL A   1      32.077  25.427  24.590  1.00  0.00     0.096 C 
ATOM     11  N   UNL A   1      31.841  24.003  24.791  1.00  0.00    -0.321 N 
ATOM     12  C   UNL A   1      30.305  24.589  23.127  1.00  0.00     0.037 C 
ATOM     13  C   UNL A   1      31.201  23.469  23.607  1.00  0.00     0.122 C 
BRANCH  11  14
ATOM     14  C   UNL A   1      32.424  23.127  25.675  1.00  0.00     0.320 C 
ATOM     15  O   UNL A   1      32.215  23.264  26.886  1.00  0.00    -0.248 OA
BRANCH  14  16
ATOM     16  N   UNL A   1      33.190  22.070  25.228  1.00  0.00    -0.318 N 
ATOM     17  C   UNL A   1      34.542  22.051  24.676  1.00  0.00     0.149 C 
BRANCH  16  18
ATOM     18  C   UNL A   1      32.582  20.754  25.384  1.00  0.00     0.221 C 
BRANCH  18  19
ATOM     19  C   UNL A   1      32.478  19.781  24.194  1.00  0.00     0.242 C 
ATOM     20  O   UNL A   1      32.146  20.252  23.096  1.00  0.00    -0.273 OA
ATOM     21  N   UNL A   1      32.924  18.480  24.266  1.00  0.00    -0.341 N 
ATOM     22  C   UNL A   1      33.120  17.591  25.397  1.00  0.00     0.119 C 
ATOM     23  C   UNL A   1      33.193  17.759  23.034  1.00  0.00     0.119 C 
ATOM     24  C   UNL A   1      34.229  16.675  24.918  1.00  0.00     0.023 C 
ATOM     25  C   UNL A   1      33.862  16.453  23.458  1.00  0.00     0.023 C 
ENDBRANCH  18  19
ENDBRANCH  16  18
ENDBRANCH  14  16
ENDBRANCH  11  14
ENDBRANCH   5   8
ENDBRANCH   3   4
ENDBRANCH   2   3
ENDBRANCH   1   2
BRANCH   1  26
ATOM     26  C   UNL A   1      31.769  29.402  26.832  1.00  0.00     0.002 C 
BRANCH  26  27
ATOM     27  C   UNL A   1      33.028  28.528  26.918  1.00  0.00     0.021 C 
BRANCH  27  28
ATOM     28  C   UNL A   1      34.354  29.280  27.038  1.00  0.00     0.116 C 
BRANCH  28  29
ATOM     29  N   UNL A   1      34.181  30.616  27.581  1.00  0.00    -0.352 N 
ATOM     30  C   UNL A   1      34.887  31.264  28.562  1.00  0.00     0.251 C 
ATOM     31  H   UNL A   1      33.444  31.135  27.184  1.00  0.00     0.163 HD
ATOM     32  O   UNL A   1      34.441  32.300  29.049  1.00  0.00    -0.269 OA
BRANCH  30  33
ATOM     33  C   UNL A   1      36.175  30.719  29.042  1.00  0.00     0.039 A 
ATOM     34  C   UNL A   1      36.163  29.712  30.012  1.00  0.00     0.014 A 
ATOM     35  C   UNL A   1      37.390  31.227  28.574  1.00  0.00     0.014 A 
ATOM     36  C   UNL A   1      37.369  29.179  30.474  1.00  0.00     0.010 A 
ATOM     37  C   UNL A   1      38.590  30.651  28.990  1.00  0.00     0.010 A 
ATOM     38  C   UNL A   1      38.593  29.627  29.951  1.00  0.00    -0.014 A 
BRANCH  38  39
ATOM     39  C   UNL A   1      39.882  29.030  30.389  1.00  0.00     0.031 A 
ATOM     40  C   UNL A   1      40.593  29.560  31.605  1.00  0.00     0.074 A 
ATOM     41  C   UNL A   1      40.453  28.065  29.642  1.00  0.00     0.049 A 
ATOM     42  N   UNL A   1      41.745  29.199  32.108  1.00  0.00    -0.248 NA
ATOM     43  C   UNL A   1      39.938  30.656  32.336  1.00  0.00     0.031 C 
ATOM     44  C   UNL A   1      39.903  27.520  28.400  1.00  0.00     0.029 A 
ATOM     45  N   UNL A   1      41.638  27.390  29.804  1.00  0.00    -0.354 N 
ATOM     46  C   UNL A   1      41.970  30.041  33.190  1.00  0.00     0.074 A 
ATOM     47  C   UNL A   1      40.849  30.955  33.251  1.00  0.00     0.031 C 
ATOM     48  C   UNL A   1      40.745  26.595  27.913  1.00  0.00     0.029 A 
ATOM     49  C   UNL A   1      41.907  26.498  28.791  1.00  0.00     0.049 A 
ATOM     50  H   UNL A   1      42.238  27.530  30.572  1.00  0.00     0.167 HD
ATOM     51  C   UNL A   1      42.998  30.038  34.072  1.00  0.00     0.034 A 
ATOM     52  C   UNL A   1      42.972  25.698  28.589  1.00  0.00     0.034 A 
ATOM     53  C   UNL A   1      44.088  29.099  34.035  1.00  0.00     0.049 A 
ATOM     54  C   UNL A   1      44.082  25.684  29.605  1.00  0.00     0.074 A 
ATOM     55  C   UNL A   1      45.129  28.954  34.936  1.00  0.00     0.029 A 
ATOM     56  N   UNL A   1      44.284  28.153  33.042  1.00  0.00    -0.354 N 
ATOM     57  N   UNL A   1      44.193  26.374  30.713  1.00  0.00    -0.248 NA
ATOM     58  C   UNL A   1      45.195  24.755  29.362  1.00  0.00     0.031 C 
ATOM     59  C   UNL A   1      45.965  27.931  34.475  1.00  0.00     0.029 A 
ATOM     60  C   UNL A   1      45.433  27.426  33.300  1.00  0.00     0.049 A 
ATOM     61  H   UNL A   1      43.692  28.017  32.267  1.00  0.00     0.167 HD
ATOM     62  C   UNL A   1      45.369  25.941  31.317  1.00  0.00     0.074 A 
ATOM     63  C   UNL A   1      45.922  24.911  30.461  1.00  0.00     0.031 C 
ATOM     64  C   UNL A   1      45.947  26.368  32.466  1.00  0.00     0.034 A 
BRANCH  51  65
ATOM     65  C   UNL A   1      42.964  31.047  35.191  1.00  0.00     0.023 A 
ATOM     66  C   UNL A   1      42.394  30.689  36.430  1.00  0.00     0.012 A 
ATOM     67  C   UNL A   1      43.543  32.322  35.040  1.00  0.00     0.148 A 
ATOM     68  C   UNL A   1      42.366  31.596  37.489  1.00  0.00     0.002 A 
ATOM     69  C   UNL A   1      43.550  33.206  36.114  1.00  0.00     0.091 A 
ATOM     70  F   UNL A   1      44.061  32.653  33.849  1.00  0.00    -0.205 F 
ATOM     71  C   UNL A   1      42.952  32.849  37.334  1.00  0.00     0.022 A 
BRANCH  69  72
ATOM     72  S   UNL A   1      44.351  34.812  36.038  1.00  0.00     0.127 S 
ATOM     73  O   UNL A   1      44.182  35.290  37.411  1.00  0.00    -0.237 OA
ATOM     74  O   UNL A   1      45.728  34.452  35.687  1.00  0.00    -0.237 OA
ATOM     75  O   UNL A   1      43.644  35.565  35.020  1.00  0.00    -0.744 OA
ENDBRANCH  69  72
ENDBRANCH  51  65
BRANCH  52  76
ATOM     76  C   UNL A   1      43.004  24.790  27.407  1.00  0.00     0.023 A 
ATOM     77  C   UNL A   1      43.638  25.218  26.224  1.00  0.00     0.012 A 
ATOM     78  C   UNL A   1      42.446  23.499  27.458  1.00  0.00     0.148 A 
ATOM     79  C   UNL A   1      43.690  24.388  25.105  1.00  0.00     0.002 A 
ATOM     80  C   UNL A   1      42.551  22.655  26.357  1.00  0.00     0.091 A 
ATOM     81  F   UNL A   1      41.837  23.114  28.588  1.00  0.00    -0.205 F 
ATOM     82  C   UNL A   1      43.157  23.104  25.174  1.00  0.00     0.022 A 
BRANCH  80  83
ATOM     83  S   UNL A   1      42.016  20.941  26.407  1.00  0.00     0.127 S 
ATOM     84  O   UNL A   1      40.589  21.063  26.111  1.00  0.00    -0.237 OA
ATOM     85  O   UNL A   1      42.816  20.342  25.338  1.00  0.00    -0.237 OA
ATOM     86  O   UNL A   1      42.348  20.463  27.741  1.00  0.00    -0.744 OA
ENDBRANCH  80  83
ENDBRANCH  52  76
BRANCH  64  87
ATOM     87  C   UNL A   1      47.234  25.709  32.888  1.00  0.00     0.023 A 
ATOM     88  C   UNL A   1      48.464  26.222  32.430  1.00  0.00     0.012 A 
ATOM     89  C   UNL A   1      47.229  24.633  33.797  1.00  0.00     0.148 A 
ATOM     90  C   UNL A   1      49.667  25.653  32.845  1.00  0.00     0.002 A 
ATOM     91  C   UNL A   1      48.433  24.102  34.244  1.00  0.00     0.091 A 
ATOM     92  F   UNL A   1      46.048  24.147  34.207  1.00  0.00    -0.205 F 
ATOM     93  C   UNL A   1      49.653  24.602  33.759  1.00  0.00     0.022 A 
BRANCH  91  94
ATOM     94  S   UNL A   1      48.513  22.811  35.491  1.00  0.00     0.127 S 
ATOM     95  O   UNL A   1      47.900  21.683  34.792  1.00  0.00    -0.237 OA
ATOM     96  O   UNL A   1      49.953  22.681  35.712  1.00  0.00    -0.237 OA
ATOM     97  O   UNL A   1      47.770  23.317  36.638  1.00  0.00    -0.744 OA
ENDBRANCH  91  94
ENDBRANCH  64  87
ENDBRANCH  38  39
ENDBRANCH  30  33
ENDBRANCH  28  29
ENDBRANCH  27  28
ENDBRANCH  26  27
ENDBRANCH   1  26
TORSDOF 20
ENDMDL
