MODEL 1
REMARK VINA RESULT:     -10.2      0.000      0.000
REMARK SMILES C[C@H](CSc1ccc(C(=O)N(C)C)cn1)C(=O)NCCCCCCNC(=O)c1ccc(-c2c3nc(c(-c4cccc(S(=O)(=O)[O-])c4F)c4ccc([nH]4)c(-c4cccc(S(=O)(=O)[O-])c4F)c4nc(c(-c5cccc(S(=O)(=O)[O-])c5F)c5ccc2[nH]5)C=C4)C=C3)cc1
REMARK SMILES IDX 21 1 20 2 19 3 18 4 16 5 17 6 2 8 1 9 3 10 4 11 5 12 6 13
REMARK SMILES IDX 15 14 7 15 14 16 8 17 9 18 10 19 11 20 12 21 13 22 22 23
REMARK SMILES IDX 23 24 24 25 25 26 26 27 27 29 28 30 29 31 90 32 30 33 89 34
REMARK SMILES IDX 31 35 32 36 33 37 83 38 34 39 88 40 82 41 84 42 35 43 87 44
REMARK SMILES IDX 81 45 80 46 36 48 68 49 48 50 67 51 49 52 52 53 66 54 85 55
REMARK SMILES IDX 50 56 51 57 65 59 86 60 53 61 37 62 38 63 46 64 39 65 41 66
REMARK SMILES IDX 47 67 40 68 42 69 43 70 44 71 45 72 69 73 70 74 78 75 71 76
REMARK SMILES IDX 73 77 79 78 72 79 74 80 75 81 76 82 77 83 54 84 55 85 63 86
REMARK SMILES IDX 56 87 58 88 64 89 57 90 59 91 60 92 61 93 62 94
REMARK H PARENT 18 7 25 28 84 47 52 58
REMARK Flexibility Score: inf
ROOT
ATOM      1  C   UNL A   1      38.613  23.835  26.498  1.00  0.00     0.002 C 
ENDROOT
BRANCH   1   2
ATOM      2  C   UNL A   1      37.508  23.281  25.594  1.00  0.00     0.021 C 
BRANCH   2   3
ATOM      3  C   UNL A   1      36.112  23.855  25.820  1.00  0.00     0.116 C 
BRANCH   3   4
ATOM      4  N   UNL A   1      35.340  23.091  26.778  1.00  0.00    -0.356 N 
ATOM      5  C   UNL A   1      34.532  22.018  26.637  1.00  0.00     0.223 C 
ATOM      6  O   UNL A   1      34.011  21.566  27.666  1.00  0.00    -0.275 OA
ATOM      7  H   UNL A   1      35.419  23.414  27.705  1.00  0.00     0.163 HD
BRANCH   5   8
ATOM      8  C   UNL A   1      34.279  21.326  25.311  1.00  0.00     0.085 C 
ATOM      9  C   UNL A   1      35.451  20.411  24.937  1.00  0.00     0.019 C 
BRANCH   8  10
ATOM     10  C   UNL A   1      33.708  22.083  24.098  1.00  0.00     0.089 C 
BRANCH  10  11
ATOM     11  S   UNL A   1      31.974  22.555  23.780  1.00  0.00    -0.106 SA
BRANCH  11  12
ATOM     12  C   UNL A   1      31.699  24.139  24.520  1.00  0.00     0.096 A 
ATOM     13  C   UNL A   1      30.496  24.823  24.532  1.00  0.00     0.036 A 
ATOM     14  N   UNL A   1      32.803  24.652  25.107  1.00  0.00    -0.249 NA
ATOM     15  C   UNL A   1      30.398  26.023  25.255  1.00  0.00     0.018 A 
ATOM     16  C   UNL A   1      32.687  25.817  25.791  1.00  0.00     0.126 A 
ATOM     17  C   UNL A   1      31.503  26.525  25.941  1.00  0.00     0.058 A 
BRANCH  17  18
ATOM     18  C   UNL A   1      31.562  27.793  26.717  1.00  0.00     0.254 C 
ATOM     19  O   UNL A   1      31.394  27.703  27.936  1.00  0.00    -0.269 OA
ATOM     20  N   UNL A   1      31.818  29.034  26.130  1.00  0.00    -0.345 N 
ATOM     21  C   UNL A   1      31.704  29.377  24.722  1.00  0.00     0.146 C 
ATOM     22  C   UNL A   1      32.093  30.131  27.043  1.00  0.00     0.146 C 
ENDBRANCH  17  18
ENDBRANCH  11  12
ENDBRANCH  10  11
ENDBRANCH   8  10
ENDBRANCH   5   8
ENDBRANCH   3   4
ENDBRANCH   2   3
ENDBRANCH   1   2
BRANCH   1  23
ATOM     23  C   UNL A   1      39.705  22.834  26.868  1.00  0.00     0.002 C 
BRANCH  23  24
ATOM     24  C   UNL A   1      39.638  21.506  26.115  1.00  0.00     0.021 C 
BRANCH  24  25
ATOM     25  C   UNL A   1      40.129  20.293  26.901  1.00  0.00     0.116 C 
BRANCH  25  26
ATOM     26  N   UNL A   1      41.138  19.538  26.177  1.00  0.00    -0.352 N 
ATOM     27  C   UNL A   1      42.369  19.955  25.743  1.00  0.00     0.251 C 
ATOM     28  H   UNL A   1      40.906  18.605  25.972  1.00  0.00     0.163 HD
ATOM     29  O   UNL A   1      43.030  19.246  24.983  1.00  0.00    -0.269 OA
BRANCH  27  30
ATOM     30  C   UNL A   1      42.889  21.271  26.168  1.00  0.00     0.039 A 
ATOM     31  C   UNL A   1      43.092  22.259  25.203  1.00  0.00     0.014 A 
ATOM     32  C   UNL A   1      43.161  21.536  27.515  1.00  0.00     0.014 A 
ATOM     33  C   UNL A   1      43.516  23.529  25.595  1.00  0.00     0.010 A 
ATOM     34  C   UNL A   1      43.508  22.826  27.912  1.00  0.00     0.010 A 
ATOM     35  C   UNL A   1      43.698  23.834  26.955  1.00  0.00    -0.014 A 
BRANCH  35  36
ATOM     36  C   UNL A   1      44.059  25.212  27.377  1.00  0.00     0.031 A 
ATOM     37  C   UNL A   1      45.488  25.684  27.337  1.00  0.00     0.074 A 
ATOM     38  C   UNL A   1      43.097  26.029  27.851  1.00  0.00     0.049 A 
ATOM     39  N   UNL A   1      45.970  26.867  27.613  1.00  0.00    -0.248 NA
ATOM     40  C   UNL A   1      46.510  24.693  26.963  1.00  0.00     0.031 C 
ATOM     41  C   UNL A   1      41.691  25.661  28.029  1.00  0.00     0.029 A 
ATOM     42  N   UNL A   1      43.155  27.333  28.275  1.00  0.00    -0.354 N 
ATOM     43  C   UNL A   1      47.349  26.758  27.480  1.00  0.00     0.074 A 
ATOM     44  C   UNL A   1      47.630  25.383  27.131  1.00  0.00     0.031 C 
ATOM     45  C   UNL A   1      41.016  26.721  28.498  1.00  0.00     0.029 A 
ATOM     46  C   UNL A   1      41.940  27.837  28.677  1.00  0.00     0.049 A 
ATOM     47  H   UNL A   1      43.988  27.857  28.291  1.00  0.00     0.167 HD
ATOM     48  C   UNL A   1      48.295  27.721  27.607  1.00  0.00     0.034 A 
ATOM     49  C   UNL A   1      41.606  29.061  29.127  1.00  0.00     0.034 A 
ATOM     50  C   UNL A   1      48.008  29.096  27.917  1.00  0.00     0.049 A 
ATOM     51  C   UNL A   1      42.666  30.125  29.207  1.00  0.00     0.074 A 
ATOM     52  C   UNL A   1      48.881  30.170  27.959  1.00  0.00     0.029 A 
ATOM     53  N   UNL A   1      46.757  29.587  28.258  1.00  0.00    -0.354 N 
ATOM     54  N   UNL A   1      43.936  30.053  28.889  1.00  0.00    -0.248 NA
ATOM     55  C   UNL A   1      42.237  31.451  29.672  1.00  0.00     0.031 C 
ATOM     56  C   UNL A   1      48.162  31.303  28.358  1.00  0.00     0.029 A 
ATOM     57  C   UNL A   1      46.837  30.942  28.535  1.00  0.00     0.049 A 
ATOM     58  H   UNL A   1      45.933  29.051  28.298  1.00  0.00     0.167 HD
ATOM     59  C   UNL A   1      44.451  31.328  29.086  1.00  0.00     0.074 A 
ATOM     60  C   UNL A   1      43.348  32.160  29.522  1.00  0.00     0.031 C 
ATOM     61  C   UNL A   1      45.727  31.768  28.936  1.00  0.00     0.034 A 
BRANCH  48  62
ATOM     62  C   UNL A   1      49.731  27.325  27.367  1.00  0.00     0.023 A 
ATOM     63  C   UNL A   1      50.474  26.723  28.403  1.00  0.00     0.012 A 
ATOM     64  C   UNL A   1      50.330  27.505  26.105  1.00  0.00     0.148 A 
ATOM     65  C   UNL A   1      51.802  26.346  28.202  1.00  0.00     0.002 A 
ATOM     66  C   UNL A   1      51.639  27.083  25.898  1.00  0.00     0.091 A 
ATOM     67  F   UNL A   1      49.619  28.100  25.136  1.00  0.00    -0.205 F 
ATOM     68  C   UNL A   1      52.380  26.516  26.947  1.00  0.00     0.022 A 
BRANCH  66  69
ATOM     69  S   UNL A   1      52.444  27.183  24.294  1.00  0.00     0.127 S 
ATOM     70  O   UNL A   1      52.897  28.573  24.278  1.00  0.00    -0.237 OA
ATOM     71  O   UNL A   1      53.516  26.195  24.425  1.00  0.00    -0.237 OA
ATOM     72  O   UNL A   1      51.425  26.842  23.313  1.00  0.00    -0.744 OA
ENDBRANCH  66  69
ENDBRANCH  48  62
BRANCH  49  73
ATOM     73  C   UNL A   1      40.184  29.370  29.449  1.00  0.00     0.023 A 
ATOM     74  C   UNL A   1      39.288  29.661  28.401  1.00  0.00     0.012 A 
ATOM     75  C   UNL A   1      39.707  29.344  30.773  1.00  0.00     0.148 A 
ATOM     76  C   UNL A   1      37.950  29.949  28.669  1.00  0.00     0.002 A 
ATOM     77  C   UNL A   1      38.361  29.578  31.028  1.00  0.00     0.091 A 
ATOM     78  F   UNL A   1      40.578  29.075  31.756  1.00  0.00    -0.205 F 
ATOM     79  C   UNL A   1      37.484  29.897  29.980  1.00  0.00     0.022 A 
BRANCH  77  80
ATOM     80  S   UNL A   1      37.644  29.403  32.666  1.00  0.00     0.127 S 
ATOM     81  O   UNL A   1      36.303  29.942  32.465  1.00  0.00    -0.237 OA
ATOM     82  O   UNL A   1      37.703  27.954  32.867  1.00  0.00    -0.237 OA
ATOM     83  O   UNL A   1      38.506  30.166  33.558  1.00  0.00    -0.744 OA
ENDBRANCH  77  80
ENDBRANCH  49  73
BRANCH  61  84
ATOM     84  C   UNL A   1      45.995  33.222  29.233  1.00  0.00     0.023 A 
ATOM     85  C   UNL A   1      46.477  33.601  30.503  1.00  0.00     0.012 A 
ATOM     86  C   UNL A   1      45.808  34.209  28.245  1.00  0.00     0.148 A 
ATOM     87  C   UNL A   1      46.722  34.940  30.799  1.00  0.00     0.002 A 
ATOM     88  C   UNL A   1      46.106  35.537  28.531  1.00  0.00     0.091 A 
ATOM     89  F   UNL A   1      45.331  33.837  27.049  1.00  0.00    -0.205 F 
ATOM     90  C   UNL A   1      46.547  35.907  29.812  1.00  0.00     0.022 A 
BRANCH  88  91
ATOM     91  S   UNL A   1      46.002  36.832  27.291  1.00  0.00     0.127 S 
ATOM     92  O   UNL A   1      44.561  36.913  27.062  1.00  0.00    -0.237 OA
ATOM     93  O   UNL A   1      46.574  37.982  27.992  1.00  0.00    -0.237 OA
ATOM     94  O   UNL A   1      46.793  36.364  26.160  1.00  0.00    -0.744 OA
ENDBRANCH  88  91
ENDBRANCH  61  84
ENDBRANCH  35  36
ENDBRANCH  27  30
ENDBRANCH  25  26
ENDBRANCH  24  25
ENDBRANCH  23  24
ENDBRANCH   1  23
TORSDOF 20
ENDMDL
MODEL 2
REMARK VINA RESULT:     -10.1      2.088      3.098
REMARK SMILES C[C@H](CSc1ccc(C(=O)N(C)C)cn1)C(=O)NCCCCCCNC(=O)c1ccc(-c2c3nc(c(-c4cccc(S(=O)(=O)[O-])c4F)c4ccc([nH]4)c(-c4cccc(S(=O)(=O)[O-])c4F)c4nc(c(-c5cccc(S(=O)(=O)[O-])c5F)c5ccc2[nH]5)C=C4)C=C3)cc1
REMARK SMILES IDX 21 1 20 2 19 3 18 4 16 5 17 6 2 8 1 9 3 10 4 11 5 12 6 13
REMARK SMILES IDX 15 14 7 15 14 16 8 17 9 18 10 19 11 20 12 21 13 22 22 23
REMARK SMILES IDX 23 24 24 25 25 26 26 27 27 29 28 30 29 31 90 32 30 33 89 34
REMARK SMILES IDX 31 35 32 36 33 37 83 38 34 39 88 40 82 41 84 42 35 43 87 44
REMARK SMILES IDX 81 45 80 46 36 48 68 49 48 50 67 51 49 52 52 53 66 54 85 55
REMARK SMILES IDX 50 56 51 57 65 59 86 60 53 61 37 62 38 63 46 64 39 65 41 66
REMARK SMILES IDX 47 67 40 68 42 69 43 70 44 71 45 72 69 73 70 74 78 75 71 76
REMARK SMILES IDX 73 77 79 78 72 79 74 80 75 81 76 82 77 83 54 84 55 85 63 86
REMARK SMILES IDX 56 87 58 88 64 89 57 90 59 91 60 92 61 93 62 94
REMARK H PARENT 18 7 25 28 84 47 52 58
REMARK Flexibility Score: inf
ROOT
ATOM      1  C   UNL A   1      35.231  21.035  24.905  1.00  0.00     0.002 C 
ENDROOT
BRANCH   1   2
ATOM      2  C   UNL A   1      34.037  20.155  24.523  1.00  0.00     0.021 C 
BRANCH   2   3
ATOM      3  C   UNL A   1      32.712  20.500  25.197  1.00  0.00     0.116 C 
BRANCH   3   4
ATOM      4  N   UNL A   1      32.882  20.994  26.548  1.00  0.00    -0.356 N 
ATOM      5  C   UNL A   1      32.735  22.224  27.085  1.00  0.00     0.223 C 
ATOM      6  O   UNL A   1      32.940  22.336  28.302  1.00  0.00    -0.275 OA
ATOM      7  H   UNL A   1      33.155  20.304  27.196  1.00  0.00     0.163 HD
BRANCH   5   8
ATOM      8  C   UNL A   1      32.293  23.439  26.292  1.00  0.00     0.085 C 
ATOM      9  C   UNL A   1      33.462  24.407  26.073  1.00  0.00     0.019 C 
BRANCH   8  10
ATOM     10  C   UNL A   1      30.970  24.165  26.593  1.00  0.00     0.089 C 
BRANCH  10  11
ATOM     11  S   UNL A   1      30.108  25.405  25.568  1.00  0.00    -0.106 SA
BRANCH  11  12
ATOM     12  C   UNL A   1      30.920  26.960  25.800  1.00  0.00     0.096 A 
ATOM     13  C   UNL A   1      31.306  27.824  24.791  1.00  0.00     0.036 A 
ATOM     14  N   UNL A   1      31.139  27.259  27.100  1.00  0.00    -0.249 NA
ATOM     15  C   UNL A   1      31.843  29.077  25.129  1.00  0.00     0.018 A 
ATOM     16  C   UNL A   1      31.667  28.470  27.403  1.00  0.00     0.126 A 
ATOM     17  C   UNL A   1      31.996  29.440  26.466  1.00  0.00     0.058 A 
BRANCH  17  18
ATOM     18  C   UNL A   1      32.577  30.711  26.978  1.00  0.00     0.254 C 
ATOM     19  O   UNL A   1      31.852  31.708  26.933  1.00  0.00    -0.269 OA
ATOM     20  N   UNL A   1      33.864  30.798  27.512  1.00  0.00    -0.345 N 
ATOM     21  C   UNL A   1      34.951  29.848  27.340  1.00  0.00     0.146 C 
ATOM     22  C   UNL A   1      34.192  32.039  28.196  1.00  0.00     0.146 C 
ENDBRANCH  17  18
ENDBRANCH  11  12
ENDBRANCH  10  11
ENDBRANCH   8  10
ENDBRANCH   5   8
ENDBRANCH   3   4
ENDBRANCH   2   3
ENDBRANCH   1   2
BRANCH   1  23
ATOM     23  C   UNL A   1      35.530  22.174  23.933  1.00  0.00     0.002 C 
BRANCH  23  24
ATOM     24  C   UNL A   1      36.472  23.248  24.476  1.00  0.00     0.021 C 
BRANCH  24  25
ATOM     25  C   UNL A   1      36.919  23.041  25.921  1.00  0.00     0.116 C 
BRANCH  25  26
ATOM     26  N   UNL A   1      37.836  21.922  26.061  1.00  0.00    -0.352 N 
ATOM     27  C   UNL A   1      39.173  21.945  26.359  1.00  0.00     0.251 C 
ATOM     28  H   UNL A   1      37.444  21.030  25.923  1.00  0.00     0.163 HD
ATOM     29  O   UNL A   1      39.847  20.919  26.259  1.00  0.00    -0.269 OA
BRANCH  27  30
ATOM     30  C   UNL A   1      39.809  23.213  26.773  1.00  0.00     0.039 A 
ATOM     31  C   UNL A   1      40.719  23.194  27.832  1.00  0.00     0.014 A 
ATOM     32  C   UNL A   1      39.524  24.412  26.111  1.00  0.00     0.014 A 
ATOM     33  C   UNL A   1      41.382  24.368  28.192  1.00  0.00     0.010 A 
ATOM     34  C   UNL A   1      40.244  25.564  26.420  1.00  0.00     0.010 A 
ATOM     35  C   UNL A   1      41.174  25.557  27.470  1.00  0.00    -0.014 A 
BRANCH  35  36
ATOM     36  C   UNL A   1      41.949  26.781  27.795  1.00  0.00     0.031 A 
ATOM     37  C   UNL A   1      43.381  26.930  27.358  1.00  0.00     0.074 A 
ATOM     38  C   UNL A   1      41.371  27.748  28.537  1.00  0.00     0.049 A 
ATOM     39  N   UNL A   1      44.184  27.951  27.506  1.00  0.00    -0.248 NA
ATOM     40  C   UNL A   1      44.001  25.773  26.692  1.00  0.00     0.031 C 
ATOM     41  C   UNL A   1      40.021  27.685  29.102  1.00  0.00     0.029 A 
ATOM     42  N   UNL A   1      41.847  28.968  28.950  1.00  0.00    -0.354 N 
ATOM     43  C   UNL A   1      45.409  27.554  26.984  1.00  0.00     0.074 A 
ATOM     44  C   UNL A   1      45.253  26.184  26.546  1.00  0.00     0.031 C 
ATOM     45  C   UNL A   1      39.768  28.826  29.762  1.00  0.00     0.029 A 
ATOM     46  C   UNL A   1      40.940  29.692  29.689  1.00  0.00     0.049 A 
ATOM     47  H   UNL A   1      42.750  29.293  28.736  1.00  0.00     0.167 HD
ATOM     48  C   UNL A   1      46.551  28.271  26.852  1.00  0.00     0.034 A 
ATOM     49  C   UNL A   1      41.038  30.919  30.236  1.00  0.00     0.034 A 
ATOM     50  C   UNL A   1      46.690  29.646  27.254  1.00  0.00     0.049 A 
ATOM     51  C   UNL A   1      42.298  31.713  30.029  1.00  0.00     0.074 A 
ATOM     52  C   UNL A   1      47.766  30.494  27.064  1.00  0.00     0.029 A 
ATOM     53  N   UNL A   1      45.730  30.369  27.945  1.00  0.00    -0.354 N 
ATOM     54  N   UNL A   1      43.379  31.390  29.361  1.00  0.00    -0.248 NA
ATOM     55  C   UNL A   1      42.335  33.058  30.620  1.00  0.00     0.031 C 
ATOM     56  C   UNL A   1      47.471  31.720  27.671  1.00  0.00     0.029 A 
ATOM     57  C   UNL A   1      46.198  31.646  28.211  1.00  0.00     0.049 A 
ATOM     58  H   UNL A   1      44.847  30.027  28.210  1.00  0.00     0.167 HD
ATOM     59  C   UNL A   1      44.213  32.500  29.426  1.00  0.00     0.074 A 
ATOM     60  C   UNL A   1      43.497  33.515  30.172  1.00  0.00     0.031 C 
ATOM     61  C   UNL A   1      45.465  32.660  28.926  1.00  0.00     0.034 A 
BRANCH  48  62
ATOM     62  C   UNL A   1      47.733  27.590  26.207  1.00  0.00     0.023 A 
ATOM     63  C   UNL A   1      47.982  27.775  24.832  1.00  0.00     0.012 A 
ATOM     64  C   UNL A   1      48.622  26.808  26.969  1.00  0.00     0.148 A 
ATOM     65  C   UNL A   1      49.071  27.158  24.216  1.00  0.00     0.002 A 
ATOM     66  C   UNL A   1      49.733  26.235  26.358  1.00  0.00     0.091 A 
ATOM     67  F   UNL A   1      48.360  26.623  28.271  1.00  0.00    -0.205 F 
ATOM     68  C   UNL A   1      49.951  26.398  24.980  1.00  0.00     0.022 A 
BRANCH  66  69
ATOM     69  S   UNL A   1      50.969  25.308  27.274  1.00  0.00     0.127 S 
ATOM     70  O   UNL A   1      51.480  26.325  28.191  1.00  0.00    -0.237 OA
ATOM     71  O   UNL A   1      50.162  24.265  27.910  1.00  0.00    -0.237 OA
ATOM     72  O   UNL A   1      51.918  24.819  26.285  1.00  0.00    -0.744 OA
ENDBRANCH  66  69
ENDBRANCH  48  62
BRANCH  49  73
ATOM     73  C   UNL A   1      39.872  31.505  30.955  1.00  0.00     0.023 A 
ATOM     74  C   UNL A   1      38.855  32.140  30.215  1.00  0.00     0.012 A 
ATOM     75  C   UNL A   1      39.745  31.408  32.354  1.00  0.00     0.148 A 
ATOM     76  C   UNL A   1      37.748  32.694  30.857  1.00  0.00     0.002 A 
ATOM     77  C   UNL A   1      38.613  31.913  32.982  1.00  0.00     0.091 A 
ATOM     78  F   UNL A   1      40.728  30.809  33.040  1.00  0.00    -0.205 F 
ATOM     79  C   UNL A   1      37.621  32.571  32.238  1.00  0.00     0.022 A 
BRANCH  77  80
ATOM     80  S   UNL A   1      38.300  31.686  34.736  1.00  0.00     0.127 S 
ATOM     81  O   UNL A   1      36.989  32.310  34.890  1.00  0.00    -0.237 OA
ATOM     82  O   UNL A   1      38.307  30.228  34.856  1.00  0.00    -0.237 OA
ATOM     83  O   UNL A   1      39.400  32.349  35.423  1.00  0.00    -0.744 OA
ENDBRANCH  77  80
ENDBRANCH  49  73
BRANCH  61  84
ATOM     84  C   UNL A   1      46.136  33.990  29.159  1.00  0.00     0.023 A 
ATOM     85  C   UNL A   1      46.811  34.231  30.373  1.00  0.00     0.012 A 
ATOM     86  C   UNL A   1      46.134  34.986  28.163  1.00  0.00     0.148 A 
ATOM     87  C   UNL A   1      47.430  35.457  30.611  1.00  0.00     0.002 A 
ATOM     88  C   UNL A   1      46.800  36.186  28.386  1.00  0.00     0.091 A 
ATOM     89  F   UNL A   1      45.473  34.750  27.021  1.00  0.00    -0.205 F 
ATOM     90  C   UNL A   1      47.434  36.430  29.615  1.00  0.00     0.022 A 
BRANCH  88  91
ATOM     91  S   UNL A   1      46.938  37.456  27.123  1.00  0.00     0.127 S 
ATOM     92  O   UNL A   1      47.465  38.584  27.888  1.00  0.00    -0.237 OA
ATOM     93  O   UNL A   1      47.888  36.859  26.183  1.00  0.00    -0.237 OA
ATOM     94  O   UNL A   1      45.594  37.632  26.587  1.00  0.00    -0.744 OA
ENDBRANCH  88  91
ENDBRANCH  61  84
ENDBRANCH  35  36
ENDBRANCH  27  30
ENDBRANCH  25  26
ENDBRANCH  24  25
ENDBRANCH  23  24
ENDBRANCH   1  23
TORSDOF 20
ENDMDL
MODEL 3
REMARK VINA RESULT:     -10.1      2.445      8.448
REMARK SMILES C[C@H](CSc1ccc(C(=O)N(C)C)cn1)C(=O)NCCCCCCNC(=O)c1ccc(-c2c3nc(c(-c4cccc(S(=O)(=O)[O-])c4F)c4ccc([nH]4)c(-c4cccc(S(=O)(=O)[O-])c4F)c4nc(c(-c5cccc(S(=O)(=O)[O-])c5F)c5ccc2[nH]5)C=C4)C=C3)cc1
REMARK SMILES IDX 21 1 20 2 19 3 18 4 16 5 17 6 2 8 1 9 3 10 4 11 5 12 6 13
REMARK SMILES IDX 15 14 7 15 14 16 8 17 9 18 10 19 11 20 12 21 13 22 22 23
REMARK SMILES IDX 23 24 24 25 25 26 26 27 27 29 28 30 29 31 90 32 30 33 89 34
REMARK SMILES IDX 31 35 32 36 33 37 83 38 34 39 88 40 82 41 84 42 35 43 87 44
REMARK SMILES IDX 81 45 80 46 36 48 68 49 48 50 67 51 49 52 52 53 66 54 85 55
REMARK SMILES IDX 50 56 51 57 65 59 86 60 53 61 37 62 38 63 46 64 39 65 41 66
REMARK SMILES IDX 47 67 40 68 42 69 43 70 44 71 45 72 69 73 70 74 78 75 71 76
REMARK SMILES IDX 73 77 79 78 72 79 74 80 75 81 76 82 77 83 54 84 55 85 63 86
REMARK SMILES IDX 56 87 58 88 64 89 57 90 59 91 60 92 61 93 62 94
REMARK H PARENT 18 7 25 28 84 47 52 58
REMARK Flexibility Score: inf
ROOT
ATOM      1  C   UNL A   1      35.892  24.078  24.875  1.00  0.00     0.002 C 
ENDROOT
BRANCH   1   2
ATOM      2  C   UNL A   1      34.621  24.510  25.613  1.00  0.00     0.021 C 
BRANCH   2   3
ATOM      3  C   UNL A   1      34.127  25.924  25.318  1.00  0.00     0.116 C 
BRANCH   3   4
ATOM      4  N   UNL A   1      32.941  26.273  26.073  1.00  0.00    -0.356 N 
ATOM      5  C   UNL A   1      32.170  27.381  26.082  1.00  0.00     0.223 C 
ATOM      6  O   UNL A   1      31.191  27.380  26.841  1.00  0.00    -0.275 OA
ATOM      7  H   UNL A   1      32.641  25.571  26.695  1.00  0.00     0.163 HD
BRANCH   5   8
ATOM      8  C   UNL A   1      32.416  28.582  25.189  1.00  0.00     0.085 C 
ATOM      9  C   UNL A   1      31.779  29.846  25.781  1.00  0.00     0.019 C 
BRANCH   8  10
ATOM     10  C   UNL A   1      32.259  28.501  23.660  1.00  0.00     0.089 C 
BRANCH  10  11
ATOM     11  S   UNL A   1      30.997  27.593  22.705  1.00  0.00    -0.106 SA
BRANCH  11  12
ATOM     12  C   UNL A   1      31.235  25.864  22.998  1.00  0.00     0.096 A 
ATOM     13  C   UNL A   1      30.402  25.054  23.750  1.00  0.00     0.036 A 
ATOM     14  N   UNL A   1      32.340  25.368  22.398  1.00  0.00    -0.249 NA
ATOM     15  C   UNL A   1      30.656  23.673  23.804  1.00  0.00     0.018 A 
ATOM     16  C   UNL A   1      32.570  24.034  22.472  1.00  0.00     0.126 A 
ATOM     17  C   UNL A   1      31.741  23.129  23.120  1.00  0.00     0.058 A 
BRANCH  17  18
ATOM     18  C   UNL A   1      32.156  21.700  23.111  1.00  0.00     0.254 C 
ATOM     19  O   UNL A   1      32.053  21.102  22.036  1.00  0.00    -0.269 OA
ATOM     20  N   UNL A   1      32.663  21.047  24.236  1.00  0.00    -0.345 N 
ATOM     21  C   UNL A   1      32.541  21.467  25.622  1.00  0.00     0.146 C 
ATOM     22  C   UNL A   1      33.255  19.739  24.006  1.00  0.00     0.146 C 
ENDBRANCH  17  18
ENDBRANCH  11  12
ENDBRANCH  10  11
ENDBRANCH   8  10
ENDBRANCH   5   8
ENDBRANCH   3   4
ENDBRANCH   2   3
ENDBRANCH   1   2
BRANCH   1  23
ATOM     23  C   UNL A   1      35.704  22.929  23.887  1.00  0.00     0.002 C 
BRANCH  23  24
ATOM     24  C   UNL A   1      36.605  21.719  24.134  1.00  0.00     0.021 C 
BRANCH  24  25
ATOM     25  C   UNL A   1      36.908  21.431  25.602  1.00  0.00     0.116 C 
BRANCH  25  26
ATOM     26  N   UNL A   1      37.926  20.407  25.765  1.00  0.00    -0.352 N 
ATOM     27  C   UNL A   1      39.253  20.562  26.071  1.00  0.00     0.251 C 
ATOM     28  H   UNL A   1      37.622  19.480  25.639  1.00  0.00     0.163 HD
ATOM     29  O   UNL A   1      40.022  19.603  25.992  1.00  0.00    -0.269 OA
BRANCH  27  30
ATOM     30  C   UNL A   1      39.763  21.890  26.469  1.00  0.00     0.039 A 
ATOM     31  C   UNL A   1      40.962  21.966  27.180  1.00  0.00     0.014 A 
ATOM     32  C   UNL A   1      39.071  23.058  26.130  1.00  0.00     0.014 A 
ATOM     33  C   UNL A   1      41.494  23.214  27.504  1.00  0.00     0.010 A 
ATOM     34  C   UNL A   1      39.643  24.303  26.385  1.00  0.00     0.010 A 
ATOM     35  C   UNL A   1      40.856  24.394  27.083  1.00  0.00    -0.014 A 
BRANCH  35  36
ATOM     36  C   UNL A   1      41.472  25.720  27.348  1.00  0.00     0.031 A 
ATOM     37  C   UNL A   1      40.733  26.774  28.128  1.00  0.00     0.074 A 
ATOM     38  C   UNL A   1      42.688  25.995  26.837  1.00  0.00     0.049 A 
ATOM     39  N   UNL A   1      41.142  27.959  28.499  1.00  0.00    -0.248 NA
ATOM     40  C   UNL A   1      39.348  26.469  28.521  1.00  0.00     0.031 C 
ATOM     41  C   UNL A   1      43.468  25.094  25.985  1.00  0.00     0.029 A 
ATOM     42  N   UNL A   1      43.479  27.111  26.951  1.00  0.00    -0.354 N 
ATOM     43  C   UNL A   1      40.060  28.554  29.138  1.00  0.00     0.074 A 
ATOM     44  C   UNL A   1      38.965  27.612  29.073  1.00  0.00     0.031 C 
ATOM     45  C   UNL A   1      44.636  25.681  25.678  1.00  0.00     0.029 A 
ATOM     46  C   UNL A   1      44.680  27.006  26.289  1.00  0.00     0.049 A 
ATOM     47  H   UNL A   1      43.211  27.910  27.458  1.00  0.00     0.167 HD
ATOM     48  C   UNL A   1      39.992  29.762  29.748  1.00  0.00     0.034 A 
ATOM     49  C   UNL A   1      45.706  27.874  26.194  1.00  0.00     0.034 A 
ATOM     50  C   UNL A   1      41.095  30.681  29.843  1.00  0.00     0.049 A 
ATOM     51  C   UNL A   1      45.624  29.185  26.925  1.00  0.00     0.074 A 
ATOM     52  C   UNL A   1      41.162  31.878  30.533  1.00  0.00     0.029 A 
ATOM     53  N   UNL A   1      42.319  30.516  29.213  1.00  0.00    -0.354 N 
ATOM     54  N   UNL A   1      44.663  29.648  27.688  1.00  0.00    -0.248 NA
ATOM     55  C   UNL A   1      46.787  30.077  26.814  1.00  0.00     0.031 C 
ATOM     56  C   UNL A   1      42.415  32.453  30.293  1.00  0.00     0.029 A 
ATOM     57  C   UNL A   1      43.141  31.600  29.478  1.00  0.00     0.049 A 
ATOM     58  H   UNL A   1      42.568  29.743  28.658  1.00  0.00     0.167 HD
ATOM     59  C   UNL A   1      45.116  30.870  28.171  1.00  0.00     0.074 A 
ATOM     60  C   UNL A   1      46.450  31.060  27.638  1.00  0.00     0.031 C 
ATOM     61  C   UNL A   1      44.479  31.764  28.970  1.00  0.00     0.034 A 
BRANCH  48  62
ATOM     62  C   UNL A   1      38.685  30.142  30.401  1.00  0.00     0.023 A 
ATOM     63  C   UNL A   1      38.452  29.803  31.749  1.00  0.00     0.012 A 
ATOM     64  C   UNL A   1      37.710  30.874  29.696  1.00  0.00     0.148 A 
ATOM     65  C   UNL A   1      37.253  30.148  32.373  1.00  0.00     0.002 A 
ATOM     66  C   UNL A   1      36.537  31.255  30.339  1.00  0.00     0.091 A 
ATOM     67  F   UNL A   1      37.936  31.168  28.407  1.00  0.00    -0.205 F 
ATOM     68  C   UNL A   1      36.302  30.883  31.672  1.00  0.00     0.022 A 
BRANCH  66  69
ATOM     69  S   UNL A   1      35.288  32.273  29.544  1.00  0.00     0.127 S 
ATOM     70  O   UNL A   1      34.374  32.538  30.654  1.00  0.00    -0.237 OA
ATOM     71  O   UNL A   1      36.067  33.433  29.108  1.00  0.00    -0.237 OA
ATOM     72  O   UNL A   1      34.744  31.468  28.460  1.00  0.00    -0.744 OA
ENDBRANCH  66  69
ENDBRANCH  48  62
BRANCH  49  73
ATOM     73  C   UNL A   1      46.937  27.488  25.448  1.00  0.00     0.023 A 
ATOM     74  C   UNL A   1      47.936  26.744  26.105  1.00  0.00     0.012 A 
ATOM     75  C   UNL A   1      47.109  27.819  24.090  1.00  0.00     0.148 A 
ATOM     76  C   UNL A   1      49.097  26.362  25.434  1.00  0.00     0.002 A 
ATOM     77  C   UNL A   1      48.242  27.388  23.411  1.00  0.00     0.091 A 
ATOM     78  F   UNL A   1      46.151  28.535  23.485  1.00  0.00    -0.205 F 
ATOM     79  C   UNL A   1      49.246  26.674  24.085  1.00  0.00     0.022 A 
BRANCH  77  80
ATOM     80  S   UNL A   1      48.459  27.629  21.645  1.00  0.00     0.127 S 
ATOM     81  O   UNL A   1      47.181  28.223  21.264  1.00  0.00    -0.237 OA
ATOM     82  O   UNL A   1      49.601  28.542  21.603  1.00  0.00    -0.237 OA
ATOM     83  O   UNL A   1      48.730  26.307  21.096  1.00  0.00    -0.744 OA
ENDBRANCH  77  80
ENDBRANCH  49  73
BRANCH  61  84
ATOM     84  C   UNL A   1      45.225  33.024  29.329  1.00  0.00     0.023 A 
ATOM     85  C   UNL A   1      46.046  33.049  30.475  1.00  0.00     0.012 A 
ATOM     86  C   UNL A   1      45.146  34.169  28.513  1.00  0.00     0.148 A 
ATOM     87  C   UNL A   1      46.736  34.207  30.829  1.00  0.00     0.002 A 
ATOM     88  C   UNL A   1      45.880  35.303  28.843  1.00  0.00     0.091 A 
ATOM     89  F   UNL A   1      44.347  34.136  27.437  1.00  0.00    -0.205 F 
ATOM     90  C   UNL A   1      46.662  35.330  30.009  1.00  0.00     0.022 A 
BRANCH  88  91
ATOM     91  S   UNL A   1      45.919  36.759  27.791  1.00  0.00     0.127 S 
ATOM     92  O   UNL A   1      46.614  36.255  26.608  1.00  0.00    -0.237 OA
ATOM     93  O   UNL A   1      44.497  37.038  27.591  1.00  0.00    -0.237 OA
ATOM     94  O   UNL A   1      46.630  37.779  28.551  1.00  0.00    -0.744 OA
ENDBRANCH  88  91
ENDBRANCH  61  84
ENDBRANCH  35  36
ENDBRANCH  27  30
ENDBRANCH  25  26
ENDBRANCH  24  25
ENDBRANCH  23  24
ENDBRANCH   1  23
TORSDOF 20
ENDMDL
