MODEL 1
REMARK VINA RESULT:     -11.0      0.000      0.000
REMARK SMILES Cc1ccc2nc(CC3(CC(=O)NCCCCCCNC(=O)c4ccc(-c5c6nc(c(-c7cccc(S(=O)(=O)[O-])c7F)c7ccc([nH]7)c(-c7cccc(S(=O)(=O)[O-])c7F)c7nc(c(-c8cccc(S(=O)(=O)[O-])c8F)c8ccc5[nH]8)C=C7)C=C6)cc4)CCCCC3)sc2c1
REMARK SMILES IDX 16 1 15 2 14 3 13 4 11 5 12 6 10 8 9 9 86 10 90 11 87 12
REMARK SMILES IDX 89 13 88 14 8 15 7 16 1 17 2 18 3 19 93 20 4 21 92 22 5 23
REMARK SMILES IDX 91 24 6 25 17 26 18 27 19 28 20 29 21 30 22 32 23 33 24 34
REMARK SMILES IDX 85 35 25 36 84 37 26 38 27 39 28 40 78 41 29 42 83 43 77 44
REMARK SMILES IDX 79 45 30 46 82 47 76 48 75 49 31 51 63 52 43 53 62 54 44 55
REMARK SMILES IDX 47 56 61 57 80 58 45 59 46 60 60 62 81 63 48 64 32 65 33 66
REMARK SMILES IDX 41 67 34 68 36 69 42 70 35 71 37 72 38 73 39 74 40 75 64 76
REMARK SMILES IDX 65 77 73 78 66 79 68 80 74 81 67 82 69 83 70 84 71 85 72 86
REMARK SMILES IDX 49 87 50 88 58 89 51 90 53 91 59 92 52 93 54 94 55 95 56 96
REMARK SMILES IDX 57 97
REMARK H PARENT 13 7 20 31 79 50 47 61
REMARK Flexibility Score: inf
ROOT
ATOM      1  C   UNL A   1      40.235  22.553  27.171  1.00  0.00     0.002 C 
ENDROOT
BRANCH   1   2
ATOM      2  C   UNL A   1      39.011  23.290  26.628  1.00  0.00     0.021 C 
BRANCH   2   3
ATOM      3  C   UNL A   1      37.996  22.390  25.916  1.00  0.00     0.116 C 
BRANCH   3   4
ATOM      4  N   UNL A   1      37.700  22.888  24.587  1.00  0.00    -0.356 N 
ATOM      5  C   UNL A   1      36.639  22.646  23.773  1.00  0.00     0.220 C 
ATOM      6  O   UNL A   1      36.632  23.176  22.658  1.00  0.00    -0.275 OA
ATOM      7  H   UNL A   1      38.376  23.499  24.214  1.00  0.00     0.163 HD
BRANCH   5   8
ATOM      8  C   UNL A   1      35.482  21.750  24.205  1.00  0.00     0.107 C 
BRANCH   8   9
ATOM      9  C   UNL A   1      34.063  22.407  24.355  1.00  0.00    -0.015 C 
ATOM     10  C   UNL A   1      34.213  23.720  25.186  1.00  0.00     0.008 C 
ATOM     11  C   UNL A   1      33.086  21.510  25.161  1.00  0.00     0.008 C 
ATOM     12  C   UNL A   1      34.640  23.481  26.639  1.00  0.00     0.001 C 
ATOM     13  C   UNL A   1      33.519  21.219  26.597  1.00  0.00     0.001 C 
ATOM     14  C   UNL A   1      33.710  22.517  27.370  1.00  0.00     0.000 C 
BRANCH   9  15
ATOM     15  C   UNL A   1      33.511  22.760  22.927  1.00  0.00     0.075 C 
BRANCH  15  16
ATOM     16  C   UNL A   1      32.629  23.975  22.866  1.00  0.00     0.094 A 
ATOM     17  C   UNL A   1      29.564  29.339  22.858  1.00  0.00     0.044 C 
ATOM     18  C   UNL A   1      30.019  27.915  22.998  1.00  0.00    -0.050 A 
ATOM     19  C   UNL A   1      29.222  26.984  23.668  1.00  0.00     0.006 A 
ATOM     20  C   UNL A   1      31.255  27.526  22.453  1.00  0.00     0.024 A 
ATOM     21  C   UNL A   1      29.634  25.654  23.798  1.00  0.00     0.030 A 
ATOM     22  C   UNL A   1      31.672  26.194  22.620  1.00  0.00     0.055 A 
ATOM     23  C   UNL A   1      30.873  25.253  23.268  1.00  0.00     0.082 A 
ATOM     24  S   UNL A   1      33.146  25.437  22.137  1.00  0.00    -0.119 S 
ATOM     25  N   UNL A   1      31.401  23.980  23.338  1.00  0.00    -0.241 NA
ENDBRANCH  15  16
ENDBRANCH   9  15
ENDBRANCH   8   9
ENDBRANCH   5   8
ENDBRANCH   3   4
ENDBRANCH   2   3
ENDBRANCH   1   2
BRANCH   1  26
ATOM     26  C   UNL A   1      41.045  21.793  26.114  1.00  0.00     0.002 C 
BRANCH  26  27
ATOM     27  C   UNL A   1      41.038  20.265  26.243  1.00  0.00     0.021 C 
BRANCH  27  28
ATOM     28  C   UNL A   1      42.344  19.650  26.743  1.00  0.00     0.116 C 
BRANCH  28  29
ATOM     29  N   UNL A   1      43.224  19.281  25.644  1.00  0.00    -0.352 N 
ATOM     30  C   UNL A   1      44.019  20.072  24.853  1.00  0.00     0.251 C 
ATOM     31  H   UNL A   1      43.255  18.318  25.439  1.00  0.00     0.163 HD
ATOM     32  O   UNL A   1      44.509  19.612  23.826  1.00  0.00    -0.269 OA
BRANCH  30  33
ATOM     33  C   UNL A   1      44.282  21.476  25.233  1.00  0.00     0.039 A 
ATOM     34  C   UNL A   1      44.015  22.492  24.311  1.00  0.00     0.014 A 
ATOM     35  C   UNL A   1      44.821  21.788  26.485  1.00  0.00     0.014 A 
ATOM     36  C   UNL A   1      44.236  23.826  24.665  1.00  0.00     0.010 A 
ATOM     37  C   UNL A   1      44.980  23.120  26.859  1.00  0.00     0.010 A 
ATOM     38  C   UNL A   1      44.695  24.152  25.951  1.00  0.00    -0.014 A 
BRANCH  38  39
ATOM     39  C   UNL A   1      44.871  25.565  26.374  1.00  0.00     0.031 A 
ATOM     40  C   UNL A   1      46.233  26.204  26.344  1.00  0.00     0.074 A 
ATOM     41  C   UNL A   1      43.820  26.241  26.881  1.00  0.00     0.049 A 
ATOM     42  N   UNL A   1      46.594  27.395  26.743  1.00  0.00    -0.248 NA
ATOM     43  C   UNL A   1      47.340  25.386  25.821  1.00  0.00     0.031 C 
ATOM     44  C   UNL A   1      42.468  25.703  27.038  1.00  0.00     0.029 A 
ATOM     45  N   UNL A   1      43.734  27.513  27.390  1.00  0.00    -0.354 N 
ATOM     46  C   UNL A   1      47.970  27.458  26.557  1.00  0.00     0.074 A 
ATOM     47  C   UNL A   1      48.384  26.174  26.035  1.00  0.00     0.031 C 
ATOM     48  C   UNL A   1      41.687  26.636  27.607  1.00  0.00     0.029 A 
ATOM     49  C   UNL A   1      42.487  27.826  27.880  1.00  0.00     0.049 A 
ATOM     50  H   UNL A   1      44.491  28.141  27.400  1.00  0.00     0.167 HD
ATOM     51  C   UNL A   1      48.809  28.500  26.774  1.00  0.00     0.034 A 
ATOM     52  C   UNL A   1      42.041  28.941  28.490  1.00  0.00     0.034 A 
ATOM     53  C   UNL A   1      48.385  29.790  27.248  1.00  0.00     0.049 A 
ATOM     54  C   UNL A   1      42.982  30.099  28.677  1.00  0.00     0.074 A 
ATOM     55  C   UNL A   1      49.139  30.939  27.407  1.00  0.00     0.029 A 
ATOM     56  N   UNL A   1      47.093  30.102  27.645  1.00  0.00    -0.354 N 
ATOM     57  N   UNL A   1      44.246  30.197  28.340  1.00  0.00    -0.248 NA
ATOM     58  C   UNL A   1      42.431  31.314  29.294  1.00  0.00     0.031 C 
ATOM     59  C   UNL A   1      48.309  31.940  27.920  1.00  0.00     0.029 A 
ATOM     60  C   UNL A   1      47.031  31.421  28.059  1.00  0.00     0.049 A 
ATOM     61  H   UNL A   1      46.333  29.478  27.634  1.00  0.00     0.167 HD
ATOM     62  C   UNL A   1      44.630  31.492  28.672  1.00  0.00     0.074 A 
ATOM     63  C   UNL A   1      43.460  32.148  29.217  1.00  0.00     0.031 C 
ATOM     64  C   UNL A   1      45.846  32.078  28.550  1.00  0.00     0.034 A 
BRANCH  51  65
ATOM     65  C   UNL A   1      50.266  28.305  26.447  1.00  0.00     0.023 A 
ATOM     66  C   UNL A   1      50.719  28.535  25.131  1.00  0.00     0.012 A 
ATOM     67  C   UNL A   1      51.196  27.955  27.445  1.00  0.00     0.148 A 
ATOM     68  C   UNL A   1      52.066  28.386  24.806  1.00  0.00     0.002 A 
ATOM     69  C   UNL A   1      52.545  27.850  27.122  1.00  0.00     0.091 A 
ATOM     70  F   UNL A   1      50.746  27.718  28.685  1.00  0.00    -0.205 F 
ATOM     71  C   UNL A   1      52.979  28.053  25.802  1.00  0.00     0.022 A 
BRANCH  69  72
ATOM     72  S   UNL A   1      53.810  27.500  28.350  1.00  0.00     0.127 S 
ATOM     73  O   UNL A   1      55.008  27.401  27.519  1.00  0.00    -0.237 OA
ATOM     74  O   UNL A   1      53.754  28.692  29.198  1.00  0.00    -0.237 OA
ATOM     75  O   UNL A   1      53.399  26.269  29.009  1.00  0.00    -0.744 OA
ENDBRANCH  69  72
ENDBRANCH  51  65
BRANCH  52  76
ATOM     76  C   UNL A   1      40.613  29.039  28.905  1.00  0.00     0.023 A 
ATOM     77  C   UNL A   1      39.616  29.182  27.920  1.00  0.00     0.012 A 
ATOM     78  C   UNL A   1      40.232  28.950  30.258  1.00  0.00     0.148 A 
ATOM     79  C   UNL A   1      38.270  29.267  28.276  1.00  0.00     0.002 A 
ATOM     80  C   UNL A   1      38.886  28.980  30.603  1.00  0.00     0.091 A 
ATOM     81  F   UNL A   1      41.196  28.826  31.182  1.00  0.00    -0.205 F 
ATOM     82  C   UNL A   1      37.905  29.155  29.614  1.00  0.00     0.022 A 
BRANCH  80  83
ATOM     83  S   UNL A   1      38.315  28.709  32.284  1.00  0.00     0.127 S 
ATOM     84  O   UNL A   1      39.092  29.696  33.027  1.00  0.00    -0.237 OA
ATOM     85  O   UNL A   1      36.887  29.006  32.171  1.00  0.00    -0.237 OA
ATOM     86  O   UNL A   1      38.614  27.313  32.579  1.00  0.00    -0.744 OA
ENDBRANCH  80  83
ENDBRANCH  52  76
BRANCH  64  87
ATOM     87  C   UNL A   1      45.977  33.514  28.986  1.00  0.00     0.023 A 
ATOM     88  C   UNL A   1      46.384  33.811  30.302  1.00  0.00     0.012 A 
ATOM     89  C   UNL A   1      45.776  34.566  28.070  1.00  0.00     0.148 A 
ATOM     90  C   UNL A   1      46.562  35.133  30.707  1.00  0.00     0.002 A 
ATOM     91  C   UNL A   1      46.002  35.878  28.467  1.00  0.00     0.091 A 
ATOM     92  F   UNL A   1      45.371  34.263  26.828  1.00  0.00    -0.205 F 
ATOM     93  C   UNL A   1      46.383  36.164  29.787  1.00  0.00     0.022 A 
BRANCH  91  94
ATOM     94  S   UNL A   1      45.889  37.262  27.326  1.00  0.00     0.127 S 
ATOM     95  O   UNL A   1      46.541  38.328  28.086  1.00  0.00    -0.237 OA
ATOM     96  O   UNL A   1      46.653  36.779  26.175  1.00  0.00    -0.237 OA
ATOM     97  O   UNL A   1      44.468  37.455  27.069  1.00  0.00    -0.744 OA
ENDBRANCH  91  94
ENDBRANCH  64  87
ENDBRANCH  38  39
ENDBRANCH  30  33
ENDBRANCH  28  29
ENDBRANCH  27  28
ENDBRANCH  26  27
ENDBRANCH   1  26
TORSDOF 19
ENDMDL
MODEL 2
REMARK VINA RESULT:     -10.9      6.520     12.031
REMARK SMILES Cc1ccc2nc(CC3(CC(=O)NCCCCCCNC(=O)c4ccc(-c5c6nc(c(-c7cccc(S(=O)(=O)[O-])c7F)c7ccc([nH]7)c(-c7cccc(S(=O)(=O)[O-])c7F)c7nc(c(-c8cccc(S(=O)(=O)[O-])c8F)c8ccc5[nH]8)C=C7)C=C6)cc4)CCCCC3)sc2c1
REMARK SMILES IDX 16 1 15 2 14 3 13 4 11 5 12 6 10 8 9 9 86 10 90 11 87 12
REMARK SMILES IDX 89 13 88 14 8 15 7 16 1 17 2 18 3 19 93 20 4 21 92 22 5 23
REMARK SMILES IDX 91 24 6 25 17 26 18 27 19 28 20 29 21 30 22 32 23 33 24 34
REMARK SMILES IDX 85 35 25 36 84 37 26 38 27 39 28 40 78 41 29 42 83 43 77 44
REMARK SMILES IDX 79 45 30 46 82 47 76 48 75 49 31 51 63 52 43 53 62 54 44 55
REMARK SMILES IDX 47 56 61 57 80 58 45 59 46 60 60 62 81 63 48 64 32 65 33 66
REMARK SMILES IDX 41 67 34 68 36 69 42 70 35 71 37 72 38 73 39 74 40 75 64 76
REMARK SMILES IDX 65 77 73 78 66 79 68 80 74 81 67 82 69 83 70 84 71 85 72 86
REMARK SMILES IDX 49 87 50 88 58 89 51 90 53 91 59 92 52 93 54 94 55 95 56 96
REMARK SMILES IDX 57 97
REMARK H PARENT 13 7 20 31 79 50 47 61
REMARK Flexibility Score: inf
ROOT
ATOM      1  C   UNL A   1      34.788  31.690  28.830  1.00  0.00     0.002 C 
ENDROOT
BRANCH   1   2
ATOM      2  C   UNL A   1      34.904  30.614  27.751  1.00  0.00     0.021 C 
BRANCH   2   3
ATOM      3  C   UNL A   1      33.641  30.427  26.906  1.00  0.00     0.116 C 
BRANCH   3   4
ATOM      4  N   UNL A   1      32.657  29.624  27.607  1.00  0.00    -0.356 N 
ATOM      5  C   UNL A   1      32.258  28.343  27.399  1.00  0.00     0.220 C 
ATOM      6  O   UNL A   1      31.370  27.888  28.125  1.00  0.00    -0.275 OA
ATOM      7  H   UNL A   1      32.207  30.081  28.354  1.00  0.00     0.163 HD
BRANCH   5   8
ATOM      8  C   UNL A   1      32.875  27.475  26.306  1.00  0.00     0.107 C 
BRANCH   8   9
ATOM      9  C   UNL A   1      31.952  27.027  25.117  1.00  0.00    -0.015 C 
ATOM     10  C   UNL A   1      32.860  26.539  23.944  1.00  0.00     0.008 C 
ATOM     11  C   UNL A   1      31.123  28.207  24.542  1.00  0.00     0.008 C 
ATOM     12  C   UNL A   1      33.710  27.654  23.322  1.00  0.00     0.001 C 
ATOM     13  C   UNL A   1      31.954  29.351  23.962  1.00  0.00     0.001 C 
ATOM     14  C   UNL A   1      32.869  28.839  22.858  1.00  0.00     0.000 C 
BRANCH   9  15
ATOM     15  C   UNL A   1      31.045  25.837  25.596  1.00  0.00     0.075 C 
BRANCH  15  16
ATOM     16  C   UNL A   1      31.589  24.465  25.313  1.00  0.00     0.094 A 
ATOM     17  C   UNL A   1      33.151  18.626  24.032  1.00  0.00     0.044 C 
ATOM     18  C   UNL A   1      32.997  20.008  24.599  1.00  0.00    -0.050 A 
ATOM     19  C   UNL A   1      33.623  20.351  25.799  1.00  0.00     0.006 A 
ATOM     20  C   UNL A   1      32.212  20.954  23.916  1.00  0.00     0.024 A 
ATOM     21  C   UNL A   1      33.490  21.637  26.332  1.00  0.00     0.030 A 
ATOM     22  C   UNL A   1      32.060  22.233  24.480  1.00  0.00     0.055 A 
ATOM     23  C   UNL A   1      32.701  22.590  25.666  1.00  0.00     0.082 A 
ATOM     24  S   UNL A   1      31.120  23.571  23.928  1.00  0.00    -0.119 S 
ATOM     25  N   UNL A   1      32.479  23.884  26.088  1.00  0.00    -0.241 NA
ENDBRANCH  15  16
ENDBRANCH   9  15
ENDBRANCH   8   9
ENDBRANCH   5   8
ENDBRANCH   3   4
ENDBRANCH   2   3
ENDBRANCH   1   2
BRANCH   1  26
ATOM     26  C   UNL A   1      34.904  33.129  28.313  1.00  0.00     0.002 C 
BRANCH  26  27
ATOM     27  C   UNL A   1      33.629  33.975  28.410  1.00  0.00     0.021 C 
BRANCH  27  28
ATOM     28  C   UNL A   1      33.841  35.420  28.858  1.00  0.00     0.116 C 
BRANCH  28  29
ATOM     29  N   UNL A   1      32.973  35.775  29.971  1.00  0.00    -0.352 N 
ATOM     30  C   UNL A   1      33.003  35.352  31.277  1.00  0.00     0.251 C 
ATOM     31  H   UNL A   1      32.258  36.417  29.756  1.00  0.00     0.163 HD
ATOM     32  O   UNL A   1      32.048  35.577  32.013  1.00  0.00    -0.269 OA
BRANCH  30  33
ATOM     33  C   UNL A   1      34.180  34.622  31.794  1.00  0.00     0.039 A 
ATOM     34  C   UNL A   1      34.012  33.327  32.292  1.00  0.00     0.014 A 
ATOM     35  C   UNL A   1      35.441  35.226  31.817  1.00  0.00     0.014 A 
ATOM     36  C   UNL A   1      35.119  32.616  32.763  1.00  0.00     0.010 A 
ATOM     37  C   UNL A   1      36.552  34.493  32.226  1.00  0.00     0.010 A 
ATOM     38  C   UNL A   1      36.402  33.183  32.708  1.00  0.00    -0.014 A 
BRANCH  38  39
ATOM     39  C   UNL A   1      37.603  32.422  33.136  1.00  0.00     0.031 A 
ATOM     40  C   UNL A   1      38.350  32.817  34.381  1.00  0.00     0.074 A 
ATOM     41  C   UNL A   1      38.079  31.436  32.349  1.00  0.00     0.049 A 
ATOM     42  N   UNL A   1      39.457  32.323  34.871  1.00  0.00    -0.248 NA
ATOM     43  C   UNL A   1      37.796  33.934  35.164  1.00  0.00     0.031 C 
ATOM     44  C   UNL A   1      37.489  31.013  31.077  1.00  0.00     0.029 A 
ATOM     45  N   UNL A   1      39.185  30.635  32.485  1.00  0.00    -0.354 N 
ATOM     46  C   UNL A   1      39.753  33.088  35.993  1.00  0.00     0.074 A 
ATOM     47  C   UNL A   1      38.724  34.099  36.096  1.00  0.00     0.031 C 
ATOM     48  C   UNL A   1      38.241  30.034  30.548  1.00  0.00     0.029 A 
ATOM     49  C   UNL A   1      39.379  29.779  31.426  1.00  0.00     0.049 A 
ATOM     50  H   UNL A   1      39.782  30.670  33.266  1.00  0.00     0.167 HD
ATOM     51  C   UNL A   1      40.771  32.944  36.874  1.00  0.00     0.034 A 
ATOM     52  C   UNL A   1      40.366  28.894  31.184  1.00  0.00     0.034 A 
ATOM     53  C   UNL A   1      41.765  31.907  36.794  1.00  0.00     0.049 A 
ATOM     54  C   UNL A   1      41.461  28.723  32.201  1.00  0.00     0.074 A 
ATOM     55  C   UNL A   1      42.779  31.616  37.689  1.00  0.00     0.029 A 
ATOM     56  N   UNL A   1      41.874  30.994  35.756  1.00  0.00    -0.354 N 
ATOM     57  N   UNL A   1      41.630  29.346  33.343  1.00  0.00    -0.248 NA
ATOM     58  C   UNL A   1      42.480  27.704  31.918  1.00  0.00     0.031 C 
ATOM     59  C   UNL A   1      43.515  30.540  37.182  1.00  0.00     0.029 A 
ATOM     60  C   UNL A   1      42.944  30.145  35.982  1.00  0.00     0.049 A 
ATOM     61  H   UNL A   1      41.278  30.954  34.974  1.00  0.00     0.167 HD
ATOM     62  C   UNL A   1      42.752  28.772  33.928  1.00  0.00     0.074 A 
ATOM     63  C   UNL A   1      43.211  27.736  33.025  1.00  0.00     0.031 C 
ATOM     64  C   UNL A   1      43.358  29.084  35.101  1.00  0.00     0.034 A 
BRANCH  51  65
ATOM     65  C   UNL A   1      40.832  33.900  38.036  1.00  0.00     0.023 A 
ATOM     66  C   UNL A   1      41.591  35.084  37.922  1.00  0.00     0.012 A 
ATOM     67  C   UNL A   1      40.098  33.662  39.215  1.00  0.00     0.148 A 
ATOM     68  C   UNL A   1      41.645  35.998  38.973  1.00  0.00     0.002 A 
ATOM     69  C   UNL A   1      40.124  34.600  40.242  1.00  0.00     0.091 A 
ATOM     70  F   UNL A   1      39.400  32.522  39.316  1.00  0.00    -0.205 F 
ATOM     71  C   UNL A   1      40.905  35.761  40.127  1.00  0.00     0.022 A 
BRANCH  69  72
ATOM     72  S   UNL A   1      39.145  34.423  41.738  1.00  0.00     0.127 S 
ATOM     73  O   UNL A   1      37.800  34.724  41.250  1.00  0.00    -0.237 OA
ATOM     74  O   UNL A   1      39.366  33.019  42.088  1.00  0.00    -0.237 OA
ATOM     75  O   UNL A   1      39.694  35.377  42.691  1.00  0.00    -0.744 OA
ENDBRANCH  69  72
ENDBRANCH  51  65
BRANCH  52  76
ATOM     76  C   UNL A   1      40.322  28.053  29.955  1.00  0.00     0.023 A 
ATOM     77  C   UNL A   1      39.415  26.978  29.886  1.00  0.00     0.012 A 
ATOM     78  C   UNL A   1      41.141  28.332  28.843  1.00  0.00     0.148 A 
ATOM     79  C   UNL A   1      39.344  26.177  28.745  1.00  0.00     0.002 A 
ATOM     80  C   UNL A   1      41.027  27.566  27.688  1.00  0.00     0.091 A 
ATOM     81  F   UNL A   1      42.006  29.352  28.932  1.00  0.00    -0.205 F 
ATOM     82  C   UNL A   1      40.140  26.478  27.644  1.00  0.00     0.022 A 
BRANCH  80  83
ATOM     83  S   UNL A   1      41.914  27.961  26.178  1.00  0.00     0.127 S 
ATOM     84  O   UNL A   1      41.283  29.215  25.778  1.00  0.00    -0.237 OA
ATOM     85  O   UNL A   1      43.290  28.090  26.660  1.00  0.00    -0.237 OA
ATOM     86  O   UNL A   1      41.696  26.828  25.287  1.00  0.00    -0.744 OA
ENDBRANCH  80  83
ENDBRANCH  52  76
BRANCH  64  87
ATOM     87  C   UNL A   1      44.569  28.282  35.498  1.00  0.00     0.023 A 
ATOM     88  C   UNL A   1      45.853  28.714  35.109  1.00  0.00     0.012 A 
ATOM     89  C   UNL A   1      44.441  27.146  36.323  1.00  0.00     0.148 A 
ATOM     90  C   UNL A   1      46.988  28.014  35.513  1.00  0.00     0.002 A 
ATOM     91  C   UNL A   1      45.580  26.482  36.761  1.00  0.00     0.091 A 
ATOM     92  F   UNL A   1      43.210  26.741  36.666  1.00  0.00    -0.205 F 
ATOM     93  C   UNL A   1      46.853  26.907  36.348  1.00  0.00     0.022 A 
BRANCH  91  94
ATOM     94  S   UNL A   1      45.508  25.106  37.914  1.00  0.00     0.127 S 
ATOM     95  O   UNL A   1      44.842  24.080  37.113  1.00  0.00    -0.237 OA
ATOM     96  O   UNL A   1      46.924  24.849  38.180  1.00  0.00    -0.237 OA
ATOM     97  O   UNL A   1      44.756  25.586  39.066  1.00  0.00    -0.744 OA
ENDBRANCH  91  94
ENDBRANCH  64  87
ENDBRANCH  38  39
ENDBRANCH  30  33
ENDBRANCH  28  29
ENDBRANCH  27  28
ENDBRANCH  26  27
ENDBRANCH   1  26
TORSDOF 19
ENDMDL
MODEL 3
REMARK VINA RESULT:     -10.9      6.100     11.602
REMARK SMILES Cc1ccc2nc(CC3(CC(=O)NCCCCCCNC(=O)c4ccc(-c5c6nc(c(-c7cccc(S(=O)(=O)[O-])c7F)c7ccc([nH]7)c(-c7cccc(S(=O)(=O)[O-])c7F)c7nc(c(-c8cccc(S(=O)(=O)[O-])c8F)c8ccc5[nH]8)C=C7)C=C6)cc4)CCCCC3)sc2c1
REMARK SMILES IDX 16 1 15 2 14 3 13 4 11 5 12 6 10 8 9 9 86 10 90 11 87 12
REMARK SMILES IDX 89 13 88 14 8 15 7 16 1 17 2 18 3 19 93 20 4 21 92 22 5 23
REMARK SMILES IDX 91 24 6 25 17 26 18 27 19 28 20 29 21 30 22 32 23 33 24 34
REMARK SMILES IDX 85 35 25 36 84 37 26 38 27 39 28 40 78 41 29 42 83 43 77 44
REMARK SMILES IDX 79 45 30 46 82 47 76 48 75 49 31 51 63 52 43 53 62 54 44 55
REMARK SMILES IDX 47 56 61 57 80 58 45 59 46 60 60 62 81 63 48 64 32 65 33 66
REMARK SMILES IDX 41 67 34 68 36 69 42 70 35 71 37 72 38 73 39 74 40 75 64 76
REMARK SMILES IDX 65 77 73 78 66 79 68 80 74 81 67 82 69 83 70 84 71 85 72 86
REMARK SMILES IDX 49 87 50 88 58 89 51 90 53 91 59 92 52 93 54 94 55 95 56 96
REMARK SMILES IDX 57 97
REMARK H PARENT 13 7 20 31 79 50 47 61
REMARK Flexibility Score: inf
ROOT
ATOM      1  C   UNL A   1      33.592  30.106  26.739  1.00  0.00     0.002 C 
ENDROOT
BRANCH   1   2
ATOM      2  C   UNL A   1      32.962  28.844  27.327  1.00  0.00     0.021 C 
BRANCH   2   3
ATOM      3  C   UNL A   1      31.728  28.342  26.571  1.00  0.00     0.116 C 
BRANCH   3   4
ATOM      4  N   UNL A   1      31.388  26.989  26.967  1.00  0.00    -0.356 N 
ATOM      5  C   UNL A   1      31.445  25.827  26.265  1.00  0.00     0.220 C 
ATOM      6  O   UNL A   1      31.069  24.793  26.825  1.00  0.00    -0.275 OA
ATOM      7  H   UNL A   1      31.065  26.896  27.892  1.00  0.00     0.163 HD
BRANCH   5   8
ATOM      8  C   UNL A   1      31.955  25.779  24.828  1.00  0.00     0.107 C 
BRANCH   8   9
ATOM      9  C   UNL A   1      30.942  25.358  23.704  1.00  0.00    -0.015 C 
ATOM     10  C   UNL A   1      31.414  25.983  22.354  1.00  0.00     0.008 C 
ATOM     11  C   UNL A   1      29.520  25.927  23.954  1.00  0.00     0.008 C 
ATOM     12  C   UNL A   1      31.343  27.515  22.329  1.00  0.00     0.001 C 
ATOM     13  C   UNL A   1      29.436  27.453  23.983  1.00  0.00     0.001 C 
ATOM     14  C   UNL A   1      29.953  28.039  22.676  1.00  0.00     0.000 C 
BRANCH   9  15
ATOM     15  C   UNL A   1      30.945  23.791  23.576  1.00  0.00     0.075 C 
BRANCH  15  16
ATOM     16  C   UNL A   1      32.287  23.139  23.754  1.00  0.00     0.094 A 
ATOM     17  C   UNL A   1      37.688  20.506  25.191  1.00  0.00     0.044 C 
ATOM     18  C   UNL A   1      36.564  21.317  24.612  1.00  0.00    -0.050 A 
ATOM     19  C   UNL A   1      36.829  22.328  23.686  1.00  0.00     0.006 A 
ATOM     20  C   UNL A   1      35.242  21.055  25.013  1.00  0.00     0.024 A 
ATOM     21  C   UNL A   1      35.790  23.085  23.138  1.00  0.00     0.030 A 
ATOM     22  C   UNL A   1      34.209  21.844  24.478  1.00  0.00     0.055 A 
ATOM     23  C   UNL A   1      34.464  22.841  23.537  1.00  0.00     0.082 A 
ATOM     24  S   UNL A   1      32.518  21.816  24.819  1.00  0.00    -0.119 S 
ATOM     25  N   UNL A   1      33.352  23.520  23.083  1.00  0.00    -0.241 NA
ENDBRANCH  15  16
ENDBRANCH   9  15
ENDBRANCH   8   9
ENDBRANCH   5   8
ENDBRANCH   3   4
ENDBRANCH   2   3
ENDBRANCH   1   2
BRANCH   1  26
ATOM     26  C   UNL A   1      33.773  31.256  27.736  1.00  0.00     0.002 C 
BRANCH  26  27
ATOM     27  C   UNL A   1      32.755  32.398  27.625  1.00  0.00     0.021 C 
BRANCH  27  28
ATOM     28  C   UNL A   1      33.354  33.778  27.358  1.00  0.00     0.116 C 
BRANCH  28  29
ATOM     29  N   UNL A   1      32.954  34.746  28.369  1.00  0.00    -0.352 N 
ATOM     30  C   UNL A   1      33.328  34.845  29.686  1.00  0.00     0.251 C 
ATOM     31  H   UNL A   1      32.321  35.435  28.061  1.00  0.00     0.163 HD
ATOM     32  O   UNL A   1      32.707  35.584  30.444  1.00  0.00    -0.269 OA
BRANCH  30  33
ATOM     33  C   UNL A   1      34.475  34.061  30.193  1.00  0.00     0.039 A 
ATOM     34  C   UNL A   1      35.759  34.357  29.727  1.00  0.00     0.014 A 
ATOM     35  C   UNL A   1      34.281  33.018  31.103  1.00  0.00     0.014 A 
ATOM     36  C   UNL A   1      36.856  33.641  30.215  1.00  0.00     0.010 A 
ATOM     37  C   UNL A   1      35.380  32.350  31.636  1.00  0.00     0.010 A 
ATOM     38  C   UNL A   1      36.678  32.650  31.194  1.00  0.00    -0.014 A 
BRANCH  38  39
ATOM     39  C   UNL A   1      37.834  31.925  31.778  1.00  0.00     0.031 A 
ATOM     40  C   UNL A   1      38.435  32.377  33.082  1.00  0.00     0.074 A 
ATOM     41  C   UNL A   1      38.406  30.920  31.085  1.00  0.00     0.049 A 
ATOM     42  N   UNL A   1      39.487  31.919  33.708  1.00  0.00    -0.248 NA
ATOM     43  C   UNL A   1      37.784  33.511  33.757  1.00  0.00     0.031 C 
ATOM     44  C   UNL A   1      37.965  30.442  29.773  1.00  0.00     0.029 A 
ATOM     45  N   UNL A   1      39.501  30.143  31.371  1.00  0.00    -0.354 N 
ATOM     46  C   UNL A   1      39.649  32.728  34.826  1.00  0.00     0.074 A 
ATOM     47  C   UNL A   1      38.602  33.725  34.778  1.00  0.00     0.031 C 
ATOM     48  C   UNL A   1      38.782  29.458  29.366  1.00  0.00     0.029 A 
ATOM     49  C   UNL A   1      39.820  29.253  30.371  1.00  0.00     0.049 A 
ATOM     50  H   UNL A   1      40.008  30.215  32.211  1.00  0.00     0.167 HD
ATOM     51  C   UNL A   1      40.567  32.633  35.818  1.00  0.00     0.034 A 
ATOM     52  C   UNL A   1      40.839  28.377  30.272  1.00  0.00     0.034 A 
ATOM     53  C   UNL A   1      41.576  31.610  35.885  1.00  0.00     0.049 A 
ATOM     54  C   UNL A   1      41.818  28.260  31.408  1.00  0.00     0.074 A 
ATOM     55  C   UNL A   1      42.489  31.368  36.896  1.00  0.00     0.029 A 
ATOM     56  N   UNL A   1      41.810  30.663  34.900  1.00  0.00    -0.354 N 
ATOM     57  N   UNL A   1      41.853  28.926  32.538  1.00  0.00    -0.248 NA
ATOM     58  C   UNL A   1      42.875  27.249  31.276  1.00  0.00     0.031 C 
ATOM     59  C   UNL A   1      43.290  30.287  36.513  1.00  0.00     0.029 A 
ATOM     60  C   UNL A   1      42.859  29.841  35.273  1.00  0.00     0.049 A 
ATOM     61  H   UNL A   1      41.304  30.586  34.059  1.00  0.00     0.167 HD
ATOM     62  C   UNL A   1      42.912  28.392  33.263  1.00  0.00     0.074 A 
ATOM     63  C   UNL A   1      43.479  27.333  32.454  1.00  0.00     0.031 C 
ATOM     64  C   UNL A   1      43.381  28.756  34.482  1.00  0.00     0.034 A 
BRANCH  51  65
ATOM     65  C   UNL A   1      40.488  33.631  36.943  1.00  0.00     0.023 A 
ATOM     66  C   UNL A   1      41.143  34.873  36.816  1.00  0.00     0.012 A 
ATOM     67  C   UNL A   1      39.722  33.369  38.097  1.00  0.00     0.148 A 
ATOM     68  C   UNL A   1      41.067  35.825  37.832  1.00  0.00     0.002 A 
ATOM     69  C   UNL A   1      39.616  34.341  39.086  1.00  0.00     0.091 A 
ATOM     70  F   UNL A   1      39.124  32.175  38.211  1.00  0.00    -0.205 F 
ATOM     71  C   UNL A   1      40.297  35.562  38.961  1.00  0.00     0.022 A 
BRANCH  69  72
ATOM     72  S   UNL A   1      38.586  34.129  40.544  1.00  0.00     0.127 S 
ATOM     73  O   UNL A   1      38.455  35.506  41.016  1.00  0.00    -0.237 OA
ATOM     74  O   UNL A   1      37.362  33.561  39.977  1.00  0.00    -0.237 OA
ATOM     75  O   UNL A   1      39.319  33.230  41.424  1.00  0.00    -0.744 OA
ENDBRANCH  69  72
ENDBRANCH  51  65
BRANCH  52  76
ATOM     76  C   UNL A   1      40.941  27.491  29.077  1.00  0.00     0.023 A 
ATOM     77  C   UNL A   1      40.105  26.362  28.982  1.00  0.00     0.012 A 
ATOM     78  C   UNL A   1      41.828  27.781  28.021  1.00  0.00     0.148 A 
ATOM     79  C   UNL A   1      40.171  25.519  27.872  1.00  0.00     0.002 A 
ATOM     80  C   UNL A   1      41.850  26.969  26.893  1.00  0.00     0.091 A 
ATOM     81  F   UNL A   1      42.624  28.853  28.136  1.00  0.00    -0.205 F 
ATOM     82  C   UNL A   1      41.034  25.828  26.824  1.00  0.00     0.022 A 
BRANCH  80  83
ATOM     83  S   UNL A   1      42.830  27.364  25.441  1.00  0.00     0.127 S 
ATOM     84  O   UNL A   1      42.654  26.165  24.626  1.00  0.00    -0.237 OA
ATOM     85  O   UNL A   1      42.154  28.559  24.935  1.00  0.00    -0.237 OA
ATOM     86  O   UNL A   1      44.181  27.603  25.934  1.00  0.00    -0.744 OA
ENDBRANCH  80  83
ENDBRANCH  52  76
BRANCH  64  87
ATOM     87  C   UNL A   1      44.552  27.989  35.039  1.00  0.00     0.023 A 
ATOM     88  C   UNL A   1      45.862  28.464  34.831  1.00  0.00     0.012 A 
ATOM     89  C   UNL A   1      44.348  26.843  35.835  1.00  0.00     0.148 A 
ATOM     90  C   UNL A   1      46.953  27.796  35.384  1.00  0.00     0.002 A 
ATOM     91  C   UNL A   1      45.437  26.212  36.422  1.00  0.00     0.091 A 
ATOM     92  F   UNL A   1      43.096  26.397  36.004  1.00  0.00    -0.205 F 
ATOM     93  C   UNL A   1      46.740  26.679  36.188  1.00  0.00     0.022 A 
BRANCH  91  94
ATOM     94  S   UNL A   1      45.252  24.824  37.549  1.00  0.00     0.127 S 
ATOM     95  O   UNL A   1      44.892  23.743  36.634  1.00  0.00    -0.237 OA
ATOM     96  O   UNL A   1      46.591  24.714  38.128  1.00  0.00    -0.237 OA
ATOM     97  O   UNL A   1      44.216  25.213  38.496  1.00  0.00    -0.744 OA
ENDBRANCH  91  94
ENDBRANCH  64  87
ENDBRANCH  38  39
ENDBRANCH  30  33
ENDBRANCH  28  29
ENDBRANCH  27  28
ENDBRANCH  26  27
ENDBRANCH   1  26
TORSDOF 19
ENDMDL
