MODEL 1
REMARK VINA RESULT:     -11.1      0.000      0.000
REMARK SMILES O=C(NCCCCCCNC(=O)[C@H]1[C@H]2[C@@H]3CC[C@@H](C3)[C@@H]12)c1ccc(-c2c3nc(c(-c4cccc(S(=O)(=O)[O-])c4F)c4ccc([nH]4)c(-c4cccc(S(=O)(=O)[O-])c4F)c4nc(c(-c5cccc(S(=O)(=O)[O-])c5F)c5ccc2[nH]5)C=C4)C=C3)cc1
REMARK SMILES IDX 5 1 4 2 3 3 1 4 2 5 21 7 22 8 83 9 23 10 82 11 24 12 25 13
REMARK SMILES IDX 26 14 76 15 27 16 81 17 75 18 77 19 28 20 80 21 74 22 73 23
REMARK SMILES IDX 29 25 61 26 41 27 60 28 42 29 45 30 59 31 78 32 43 33 44 34
REMARK SMILES IDX 58 36 79 37 46 38 30 39 31 40 39 41 32 42 34 43 40 44 33 45
REMARK SMILES IDX 35 46 36 47 37 48 38 49 62 50 63 51 71 52 64 53 66 54 72 55
REMARK SMILES IDX 65 56 67 57 68 58 69 59 70 60 47 61 48 62 56 63 49 64 51 65
REMARK SMILES IDX 57 66 50 67 52 68 53 69 54 70 55 71 6 72 7 73 8 74 9 75
REMARK SMILES IDX 10 76 11 77 12 79 13 80 20 81 14 82 18 83 15 84 17 85 19 86
REMARK SMILES IDX 16 87
REMARK H PARENT 3 6 77 24 45 35 10 78
REMARK Flexibility Score: inf
ROOT
ATOM      1  C   UNL A   1      36.044  22.816  24.365  1.00  0.00     0.021 C 
ENDROOT
BRANCH   1   2
ATOM      2  C   UNL A   1      36.500  22.513  25.786  1.00  0.00     0.116 C 
BRANCH   2   3
ATOM      3  N   UNL A   1      37.468  21.428  25.828  1.00  0.00    -0.352 N 
ATOM      4  O   UNL A   1      39.524  20.504  25.830  1.00  0.00    -0.269 OA
ATOM      5  C   UNL A   1      38.824  21.488  26.043  1.00  0.00     0.251 C 
ATOM      6  H   UNL A   1      37.100  20.527  25.682  1.00  0.00     0.163 HD
BRANCH   5   7
ATOM      7  C   UNL A   1      39.422  22.754  26.514  1.00  0.00     0.039 A 
ATOM      8  C   UNL A   1      39.134  23.950  25.851  1.00  0.00     0.014 A 
ATOM      9  C   UNL A   1      40.286  22.744  27.611  1.00  0.00     0.014 A 
ATOM     10  C   UNL A   1      39.822  25.107  26.190  1.00  0.00     0.010 A 
ATOM     11  C   UNL A   1      40.899  23.932  28.014  1.00  0.00     0.010 A 
ATOM     12  C   UNL A   1      40.695  25.118  27.289  1.00  0.00    -0.014 A 
BRANCH  12  13
ATOM     13  C   UNL A   1      41.303  26.403  27.712  1.00  0.00     0.031 A 
ATOM     14  C   UNL A   1      42.739  26.731  27.414  1.00  0.00     0.074 A 
ATOM     15  C   UNL A   1      40.532  27.282  28.381  1.00  0.00     0.049 A 
ATOM     16  N   UNL A   1      43.408  27.818  27.701  1.00  0.00    -0.248 NA
ATOM     17  C   UNL A   1      43.530  25.710  26.709  1.00  0.00     0.031 C 
ATOM     18  C   UNL A   1      39.134  27.054  28.762  1.00  0.00     0.029 A 
ATOM     19  N   UNL A   1      40.805  28.536  28.862  1.00  0.00    -0.354 N 
ATOM     20  C   UNL A   1      44.706  27.599  27.255  1.00  0.00     0.074 A 
ATOM     21  C   UNL A   1      44.732  26.270  26.681  1.00  0.00     0.031 C 
ATOM     22  C   UNL A   1      38.664  28.139  29.389  1.00  0.00     0.029 A 
ATOM     23  C   UNL A   1      39.742  29.112  29.518  1.00  0.00     0.049 A 
ATOM     24  H   UNL A   1      41.675  28.981  28.749  1.00  0.00     0.167 HD
ATOM     25  C   UNL A   1      45.772  28.433  27.310  1.00  0.00     0.034 A 
ATOM     26  C   UNL A   1      39.648  30.281  30.176  1.00  0.00     0.034 A 
ATOM     27  C   UNL A   1      45.730  29.760  27.871  1.00  0.00     0.049 A 
ATOM     28  C   UNL A   1      40.846  31.182  30.225  1.00  0.00     0.074 A 
ATOM     29  C   UNL A   1      46.738  30.708  27.917  1.00  0.00     0.029 A 
ATOM     30  N   UNL A   1      44.629  30.320  28.505  1.00  0.00    -0.354 N 
ATOM     31  N   UNL A   1      42.028  31.011  29.685  1.00  0.00    -0.248 NA
ATOM     32  C   UNL A   1      40.691  32.449  30.951  1.00  0.00     0.031 C 
ATOM     33  C   UNL A   1      46.260  31.822  28.615  1.00  0.00     0.029 A 
ATOM     34  C   UNL A   1      44.940  31.590  28.963  1.00  0.00     0.049 A 
ATOM     35  H   UNL A   1      43.755  29.879  28.613  1.00  0.00     0.167 HD
ATOM     36  C   UNL A   1      42.750  32.159  29.980  1.00  0.00     0.074 A 
ATOM     37  C   UNL A   1      41.862  33.030  30.725  1.00  0.00     0.031 C 
ATOM     38  C   UNL A   1      44.035  32.461  29.672  1.00  0.00     0.034 A 
BRANCH  25  39
ATOM     39  C   UNL A   1      47.080  27.944  26.738  1.00  0.00     0.023 A 
ATOM     40  C   UNL A   1      48.092  27.473  27.599  1.00  0.00     0.012 A 
ATOM     41  C   UNL A   1      47.287  27.900  25.344  1.00  0.00     0.148 A 
ATOM     42  C   UNL A   1      49.302  27.005  27.087  1.00  0.00     0.002 A 
ATOM     43  C   UNL A   1      48.477  27.389  24.840  1.00  0.00     0.091 A 
ATOM     44  F   UNL A   1      46.323  28.368  24.539  1.00  0.00    -0.205 F 
ATOM     45  C   UNL A   1      49.491  26.955  25.709  1.00  0.00     0.022 A 
BRANCH  43  46
ATOM     46  S   UNL A   1      48.784  27.206  23.078  1.00  0.00     0.127 S 
ATOM     47  O   UNL A   1      50.244  27.268  23.027  1.00  0.00    -0.237 OA
ATOM     48  O   UNL A   1      48.221  25.883  22.805  1.00  0.00    -0.237 OA
ATOM     49  O   UNL A   1      48.086  28.307  22.432  1.00  0.00    -0.744 OA
ENDBRANCH  43  46
ENDBRANCH  25  39
BRANCH  26  50
ATOM     50  C   UNL A   1      38.359  30.667  30.814  1.00  0.00     0.023 A 
ATOM     51  C   UNL A   1      38.126  30.341  32.162  1.00  0.00     0.012 A 
ATOM     52  C   UNL A   1      37.389  31.401  30.103  1.00  0.00     0.148 A 
ATOM     53  C   UNL A   1      36.935  30.715  32.786  1.00  0.00     0.002 A 
ATOM     54  C   UNL A   1      36.233  31.823  30.747  1.00  0.00     0.091 A 
ATOM     55  F   UNL A   1      37.631  31.696  28.818  1.00  0.00    -0.205 F 
ATOM     56  C   UNL A   1      35.995  31.465  32.083  1.00  0.00     0.022 A 
BRANCH  54  57
ATOM     57  S   UNL A   1      35.035  32.907  29.966  1.00  0.00     0.127 S 
ATOM     58  O   UNL A   1      34.128  33.197  31.073  1.00  0.00    -0.237 OA
ATOM     59  O   UNL A   1      35.876  34.030  29.548  1.00  0.00    -0.237 OA
ATOM     60  O   UNL A   1      34.464  32.141  28.867  1.00  0.00    -0.744 OA
ENDBRANCH  54  57
ENDBRANCH  26  50
BRANCH  38  61
ATOM     61  C   UNL A   1      44.552  33.808  30.108  1.00  0.00     0.023 A 
ATOM     62  C   UNL A   1      45.255  33.937  31.322  1.00  0.00     0.012 A 
ATOM     63  C   UNL A   1      44.387  34.937  29.280  1.00  0.00     0.148 A 
ATOM     64  C   UNL A   1      45.751  35.176  31.726  1.00  0.00     0.002 A 
ATOM     65  C   UNL A   1      44.932  36.157  29.663  1.00  0.00     0.091 A 
ATOM     66  F   UNL A   1      43.699  34.798  28.139  1.00  0.00    -0.205 F 
ATOM     67  C   UNL A   1      45.600  36.281  30.892  1.00  0.00     0.022 A 
BRANCH  65  68
ATOM     68  S   UNL A   1      44.874  37.611  28.611  1.00  0.00     0.127 S 
ATOM     69  O   UNL A   1      45.596  38.592  29.418  1.00  0.00    -0.237 OA
ATOM     70  O   UNL A   1      45.589  37.156  27.418  1.00  0.00    -0.237 OA
ATOM     71  O   UNL A   1      43.461  37.898  28.397  1.00  0.00    -0.744 OA
ENDBRANCH  65  68
ENDBRANCH  38  61
ENDBRANCH  12  13
ENDBRANCH   5   7
ENDBRANCH   2   3
ENDBRANCH   1   2
BRANCH   1  72
ATOM     72  C   UNL A   1      34.951  23.882  24.271  1.00  0.00     0.002 C 
BRANCH  72  73
ATOM     73  C   UNL A   1      34.185  24.138  25.575  1.00  0.00     0.002 C 
BRANCH  73  74
ATOM     74  C   UNL A   1      32.693  23.807  25.515  1.00  0.00     0.021 C 
BRANCH  74  75
ATOM     75  C   UNL A   1      32.391  22.323  25.710  1.00  0.00     0.116 C 
BRANCH  75  76
ATOM     76  N   UNL A   1      31.953  21.685  24.474  1.00  0.00    -0.356 N 
ATOM     77  C   UNL A   1      32.519  20.583  23.872  1.00  0.00     0.223 C 
ATOM     78  H   UNL A   1      31.173  22.083  24.023  1.00  0.00     0.163 HD
ATOM     79  O   UNL A   1      32.132  20.172  22.783  1.00  0.00    -0.275 OA
BRANCH  77  80
ATOM     80  C   UNL A   1      33.641  19.978  24.616  1.00  0.00     0.086 C 
ATOM     81  C   UNL A   1      34.484  18.718  24.568  1.00  0.00     0.009 C 
ATOM     82  C   UNL A   1      33.250  18.743  25.409  1.00  0.00     0.009 C 
ATOM     83  C   UNL A   1      34.350  17.420  23.796  1.00  0.00    -0.007 C 
ATOM     84  C   UNL A   1      32.423  17.559  24.886  1.00  0.00    -0.007 C 
ATOM     85  C   UNL A   1      34.440  16.266  24.844  1.00  0.00     0.004 C 
ATOM     86  C   UNL A   1      32.877  17.355  23.429  1.00  0.00     0.007 C 
ATOM     87  C   UNL A   1      33.048  16.305  25.526  1.00  0.00     0.004 C 
ENDBRANCH  77  80
ENDBRANCH  75  76
ENDBRANCH  74  75
ENDBRANCH  73  74
ENDBRANCH  72  73
ENDBRANCH   1  72
TORSDOF 16
ENDMDL
MODEL 2
REMARK VINA RESULT:     -11.1      5.600     10.259
REMARK SMILES O=C(NCCCCCCNC(=O)[C@H]1[C@H]2[C@@H]3CC[C@@H](C3)[C@@H]12)c1ccc(-c2c3nc(c(-c4cccc(S(=O)(=O)[O-])c4F)c4ccc([nH]4)c(-c4cccc(S(=O)(=O)[O-])c4F)c4nc(c(-c5cccc(S(=O)(=O)[O-])c5F)c5ccc2[nH]5)C=C4)C=C3)cc1
REMARK SMILES IDX 5 1 4 2 3 3 1 4 2 5 21 7 22 8 83 9 23 10 82 11 24 12 25 13
REMARK SMILES IDX 26 14 76 15 27 16 81 17 75 18 77 19 28 20 80 21 74 22 73 23
REMARK SMILES IDX 29 25 61 26 41 27 60 28 42 29 45 30 59 31 78 32 43 33 44 34
REMARK SMILES IDX 58 36 79 37 46 38 30 39 31 40 39 41 32 42 34 43 40 44 33 45
REMARK SMILES IDX 35 46 36 47 37 48 38 49 62 50 63 51 71 52 64 53 66 54 72 55
REMARK SMILES IDX 65 56 67 57 68 58 69 59 70 60 47 61 48 62 56 63 49 64 51 65
REMARK SMILES IDX 57 66 50 67 52 68 53 69 54 70 55 71 6 72 7 73 8 74 9 75
REMARK SMILES IDX 10 76 11 77 12 79 13 80 20 81 14 82 18 83 15 84 17 85 19 86
REMARK SMILES IDX 16 87
REMARK H PARENT 3 6 77 24 45 35 10 78
REMARK Flexibility Score: inf
ROOT
ATOM      1  C   UNL A   1      32.674  28.904  23.786  1.00  0.00     0.021 C 
ENDROOT
BRANCH   1   2
ATOM      2  C   UNL A   1      33.233  29.272  25.153  1.00  0.00     0.116 C 
BRANCH   2   3
ATOM      3  N   UNL A   1      32.617  30.477  25.687  1.00  0.00    -0.352 N 
ATOM      4  O   UNL A   1      32.179  32.048  27.243  1.00  0.00    -0.269 OA
ATOM      5  C   UNL A   1      32.937  31.181  26.823  1.00  0.00     0.251 C 
ATOM      6  H   UNL A   1      31.866  30.837  25.162  1.00  0.00     0.163 HD
BRANCH   5   7
ATOM      7  C   UNL A   1      34.192  30.865  27.535  1.00  0.00     0.039 A 
ATOM      8  C   UNL A   1      34.422  29.567  28.000  1.00  0.00     0.014 A 
ATOM      9  C   UNL A   1      35.136  31.871  27.751  1.00  0.00     0.014 A 
ATOM     10  C   UNL A   1      35.521  29.311  28.808  1.00  0.00     0.010 A 
ATOM     11  C   UNL A   1      36.292  31.584  28.480  1.00  0.00     0.010 A 
ATOM     12  C   UNL A   1      36.481  30.309  29.038  1.00  0.00    -0.014 A 
BRANCH  12  13
ATOM     13  C   UNL A   1      37.715  29.963  29.786  1.00  0.00     0.031 A 
ATOM     14  C   UNL A   1      37.963  30.474  31.177  1.00  0.00     0.074 A 
ATOM     15  C   UNL A   1      38.622  29.170  29.184  1.00  0.00     0.049 A 
ATOM     16  N   UNL A   1      38.981  30.245  31.965  1.00  0.00    -0.248 NA
ATOM     17  C   UNL A   1      36.944  31.362  31.760  1.00  0.00     0.031 C 
ATOM     18  C   UNL A   1      38.506  28.645  27.820  1.00  0.00     0.029 A 
ATOM     19  N   UNL A   1      39.817  28.667  29.630  1.00  0.00    -0.354 N 
ATOM     20  C   UNL A   1      38.752  30.990  33.116  1.00  0.00     0.074 A 
ATOM     21  C   UNL A   1      37.498  31.685  32.920  1.00  0.00     0.031 C 
ATOM     22  C   UNL A   1      39.567  27.874  27.550  1.00  0.00     0.029 A 
ATOM     23  C   UNL A   1      40.471  27.903  28.692  1.00  0.00     0.049 A 
ATOM     24  H   UNL A   1      40.171  28.836  30.532  1.00  0.00     0.167 HD
ATOM     25  C   UNL A   1      39.513  31.077  34.234  1.00  0.00     0.034 A 
ATOM     26  C   UNL A   1      41.679  27.312  28.732  1.00  0.00     0.034 A 
ATOM     27  C   UNL A   1      40.754  30.369  34.422  1.00  0.00     0.049 A 
ATOM     28  C   UNL A   1      42.501  27.429  29.980  1.00  0.00     0.074 A 
ATOM     29  C   UNL A   1      41.567  30.339  35.542  1.00  0.00     0.029 A 
ATOM     30  N   UNL A   1      41.375  29.584  33.460  1.00  0.00    -0.354 N 
ATOM     31  N   UNL A   1      42.208  28.034  31.106  1.00  0.00    -0.248 NA
ATOM     32  C   UNL A   1      43.809  26.762  29.976  1.00  0.00     0.031 C 
ATOM     33  C   UNL A   1      42.698  29.572  35.243  1.00  0.00     0.029 A 
ATOM     34  C   UNL A   1      42.569  29.083  33.953  1.00  0.00     0.049 A 
ATOM     35  H   UNL A   1      41.019  29.408  32.559  1.00  0.00     0.167 HD
ATOM     36  C   UNL A   1      43.281  27.797  31.955  1.00  0.00     0.074 A 
ATOM     37  C   UNL A   1      44.219  26.971  31.220  1.00  0.00     0.031 C 
ATOM     38  C   UNL A   1      43.477  28.233  33.224  1.00  0.00     0.034 A 
BRANCH  25  39
ATOM     39  C   UNL A   1      39.022  31.962  35.353  1.00  0.00     0.023 A 
ATOM     40  C   UNL A   1      39.157  33.363  35.252  1.00  0.00     0.012 A 
ATOM     41  C   UNL A   1      38.380  31.412  36.480  1.00  0.00     0.148 A 
ATOM     42  C   UNL A   1      38.697  34.197  36.271  1.00  0.00     0.002 A 
ATOM     43  C   UNL A   1      37.883  32.252  37.469  1.00  0.00     0.091 A 
ATOM     44  F   UNL A   1      38.276  30.079  36.570  1.00  0.00    -0.205 F 
ATOM     45  C   UNL A   1      38.053  33.643  37.374  1.00  0.00     0.022 A 
BRANCH  43  46
ATOM     46  S   UNL A   1      36.965  31.642  38.889  1.00  0.00     0.127 S 
ATOM     47  O   UNL A   1      35.803  32.530  38.891  1.00  0.00    -0.237 OA
ATOM     48  O   UNL A   1      36.677  30.262  38.498  1.00  0.00    -0.237 OA
ATOM     49  O   UNL A   1      37.857  31.775  40.031  1.00  0.00    -0.744 OA
ENDBRANCH  43  46
ENDBRANCH  25  39
BRANCH  26  50
ATOM     50  C   UNL A   1      42.159  26.536  27.556  1.00  0.00     0.023 A 
ATOM     51  C   UNL A   1      42.950  27.170  26.581  1.00  0.00     0.012 A 
ATOM     52  C   UNL A   1      41.878  25.161  27.430  1.00  0.00     0.148 A 
ATOM     53  C   UNL A   1      43.431  26.455  25.483  1.00  0.00     0.002 A 
ATOM     54  C   UNL A   1      42.410  24.442  26.368  1.00  0.00     0.091 A 
ATOM     55  F   UNL A   1      41.119  24.579  28.369  1.00  0.00    -0.205 F 
ATOM     56  C   UNL A   1      43.172  25.090  25.383  1.00  0.00     0.022 A 
BRANCH  54  57
ATOM     57  S   UNL A   1      42.246  22.659  26.232  1.00  0.00     0.127 S 
ATOM     58  O   UNL A   1      42.873  22.207  27.472  1.00  0.00    -0.237 OA
ATOM     59  O   UNL A   1      40.793  22.496  26.181  1.00  0.00    -0.237 OA
ATOM     60  O   UNL A   1      42.937  22.290  25.005  1.00  0.00    -0.744 OA
ENDBRANCH  54  57
ENDBRANCH  26  50
BRANCH  38  61
ATOM     61  C   UNL A   1      44.740  27.794  33.917  1.00  0.00     0.023 A 
ATOM     62  C   UNL A   1      45.892  28.605  33.869  1.00  0.00     0.012 A 
ATOM     63  C   UNL A   1      44.766  26.600  34.665  1.00  0.00     0.148 A 
ATOM     64  C   UNL A   1      47.061  28.215  34.522  1.00  0.00     0.002 A 
ATOM     65  C   UNL A   1      45.917  26.245  35.358  1.00  0.00     0.091 A 
ATOM     66  F   UNL A   1      43.667  25.832  34.682  1.00  0.00    -0.205 F 
ATOM     67  C   UNL A   1      47.070  27.043  35.274  1.00  0.00     0.022 A 
BRANCH  65  68
ATOM     68  S   UNL A   1      45.991  24.807  36.431  1.00  0.00     0.127 S 
ATOM     69  O   UNL A   1      47.197  25.080  37.211  1.00  0.00    -0.237 OA
ATOM     70  O   UNL A   1      44.740  24.917  37.181  1.00  0.00    -0.237 OA
ATOM     71  O   UNL A   1      46.069  23.650  35.549  1.00  0.00    -0.744 OA
ENDBRANCH  65  68
ENDBRANCH  38  61
ENDBRANCH  12  13
ENDBRANCH   5   7
ENDBRANCH   2   3
ENDBRANCH   1   2
BRANCH   1  72
ATOM     72  C   UNL A   1      31.147  28.951  23.700  1.00  0.00     0.002 C 
BRANCH  72  73
ATOM     73  C   UNL A   1      30.504  27.760  22.979  1.00  0.00     0.002 C 
BRANCH  73  74
ATOM     74  C   UNL A   1      29.673  26.843  23.879  1.00  0.00     0.021 C 
BRANCH  74  75
ATOM     75  C   UNL A   1      30.205  25.413  23.949  1.00  0.00     0.116 C 
BRANCH  75  76
ATOM     76  N   UNL A   1      30.249  24.911  25.317  1.00  0.00    -0.356 N 
ATOM     77  C   UNL A   1      31.350  24.867  26.142  1.00  0.00     0.223 C 
ATOM     78  H   UNL A   1      29.404  24.568  25.689  1.00  0.00     0.163 HD
ATOM     79  O   UNL A   1      31.307  24.344  27.250  1.00  0.00    -0.275 OA
BRANCH  77  80
ATOM     80  C   UNL A   1      32.578  25.455  25.569  1.00  0.00     0.086 C 
ATOM     81  C   UNL A   1      33.525  25.195  24.413  1.00  0.00     0.009 C 
ATOM     82  C   UNL A   1      33.810  24.583  25.745  1.00  0.00     0.009 C 
ATOM     83  C   UNL A   1      33.684  24.030  23.457  1.00  0.00    -0.007 C 
ATOM     84  C   UNL A   1      33.900  23.079  25.448  1.00  0.00    -0.007 C 
ATOM     85  C   UNL A   1      35.190  23.618  23.502  1.00  0.00     0.004 C 
ATOM     86  C   UNL A   1      33.047  22.859  24.185  1.00  0.00     0.007 C 
ATOM     87  C   UNL A   1      35.303  22.861  24.850  1.00  0.00     0.004 C 
ENDBRANCH  77  80
ENDBRANCH  75  76
ENDBRANCH  74  75
ENDBRANCH  73  74
ENDBRANCH  72  73
ENDBRANCH   1  72
TORSDOF 16
ENDMDL
MODEL 3
REMARK VINA RESULT:     -11.0      5.994     11.698
REMARK SMILES O=C(NCCCCCCNC(=O)[C@H]1[C@H]2[C@@H]3CC[C@@H](C3)[C@@H]12)c1ccc(-c2c3nc(c(-c4cccc(S(=O)(=O)[O-])c4F)c4ccc([nH]4)c(-c4cccc(S(=O)(=O)[O-])c4F)c4nc(c(-c5cccc(S(=O)(=O)[O-])c5F)c5ccc2[nH]5)C=C4)C=C3)cc1
REMARK SMILES IDX 5 1 4 2 3 3 1 4 2 5 21 7 22 8 83 9 23 10 82 11 24 12 25 13
REMARK SMILES IDX 26 14 76 15 27 16 81 17 75 18 77 19 28 20 80 21 74 22 73 23
REMARK SMILES IDX 29 25 61 26 41 27 60 28 42 29 45 30 59 31 78 32 43 33 44 34
REMARK SMILES IDX 58 36 79 37 46 38 30 39 31 40 39 41 32 42 34 43 40 44 33 45
REMARK SMILES IDX 35 46 36 47 37 48 38 49 62 50 63 51 71 52 64 53 66 54 72 55
REMARK SMILES IDX 65 56 67 57 68 58 69 59 70 60 47 61 48 62 56 63 49 64 51 65
REMARK SMILES IDX 57 66 50 67 52 68 53 69 54 70 55 71 6 72 7 73 8 74 9 75
REMARK SMILES IDX 10 76 11 77 12 79 13 80 20 81 14 82 18 83 15 84 17 85 19 86
REMARK SMILES IDX 16 87
REMARK H PARENT 3 6 77 24 45 35 10 78
REMARK Flexibility Score: inf
ROOT
ATOM      1  C   UNL A   1      34.282  33.761  29.393  1.00  0.00     0.021 C 
ENDROOT
BRANCH   1   2
ATOM      2  C   UNL A   1      34.940  33.008  28.245  1.00  0.00     0.116 C 
BRANCH   2   3
ATOM      3  N   UNL A   1      34.163  31.846  27.839  1.00  0.00    -0.352 N 
ATOM      4  O   UNL A   1      33.843  29.732  27.126  1.00  0.00    -0.269 OA
ATOM      5  C   UNL A   1      34.574  30.544  27.683  1.00  0.00     0.251 C 
ATOM      6  H   UNL A   1      33.213  32.018  27.650  1.00  0.00     0.163 HD
BRANCH   5   7
ATOM      7  C   UNL A   1      35.908  30.146  28.177  1.00  0.00     0.039 A 
ATOM      8  C   UNL A   1      37.024  30.269  27.346  1.00  0.00     0.014 A 
ATOM      9  C   UNL A   1      36.041  29.635  29.470  1.00  0.00     0.014 A 
ATOM     10  C   UNL A   1      38.244  29.743  27.751  1.00  0.00     0.010 A 
ATOM     11  C   UNL A   1      37.293  29.200  29.911  1.00  0.00     0.010 A 
ATOM     12  C   UNL A   1      38.398  29.225  29.046  1.00  0.00    -0.014 A 
BRANCH  12  13
ATOM     13  C   UNL A   1      39.748  28.804  29.496  1.00  0.00     0.031 A 
ATOM     14  C   UNL A   1      40.465  29.515  30.609  1.00  0.00     0.074 A 
ATOM     15  C   UNL A   1      40.327  27.756  28.878  1.00  0.00     0.049 A 
ATOM     16  N   UNL A   1      41.637  29.254  31.126  1.00  0.00    -0.248 NA
ATOM     17  C   UNL A   1      39.787  30.671  31.216  1.00  0.00     0.031 C 
ATOM     18  C   UNL A   1      39.740  27.013  27.757  1.00  0.00     0.029 A 
ATOM     19  N   UNL A   1      41.529  27.134  29.093  1.00  0.00    -0.354 N 
ATOM     20  C   UNL A   1      41.860  30.233  32.087  1.00  0.00     0.074 A 
ATOM     21  C   UNL A   1      40.700  31.100  32.076  1.00  0.00     0.031 C 
ATOM     22  C   UNL A   1      40.567  26.021  27.404  1.00  0.00     0.029 A 
ATOM     23  C   UNL A   1      41.770  26.098  28.222  1.00  0.00     0.049 A 
ATOM     24  H   UNL A   1      42.157  27.402  29.801  1.00  0.00     0.167 HD
ATOM     25  C   UNL A   1      42.927  30.388  32.907  1.00  0.00     0.034 A 
ATOM     26  C   UNL A   1      42.852  25.310  28.076  1.00  0.00     0.034 A 
ATOM     27  C   UNL A   1      44.070  29.510  32.918  1.00  0.00     0.049 A 
ATOM     28  C   UNL A   1      44.020  25.508  28.994  1.00  0.00     0.074 A 
ATOM     29  C   UNL A   1      45.173  29.544  33.754  1.00  0.00     0.029 A 
ATOM     30  N   UNL A   1      44.271  28.456  32.038  1.00  0.00    -0.354 N 
ATOM     31  N   UNL A   1      44.157  26.359  29.981  1.00  0.00    -0.248 NA
ATOM     32  C   UNL A   1      45.174  24.620  28.797  1.00  0.00     0.031 C 
ATOM     33  C   UNL A   1      46.058  28.537  33.352  1.00  0.00     0.029 A 
ATOM     34  C   UNL A   1      45.487  27.845  32.297  1.00  0.00     0.049 A 
ATOM     35  H   UNL A   1      43.640  28.181  31.333  1.00  0.00     0.167 HD
ATOM     36  C   UNL A   1      45.399  26.093  30.543  1.00  0.00     0.074 A 
ATOM     37  C   UNL A   1      45.962  24.983  29.800  1.00  0.00     0.031 C 
ATOM     38  C   UNL A   1      46.020  26.717  31.573  1.00  0.00     0.034 A 
BRANCH  25  39
ATOM     39  C   UNL A   1      42.910  31.545  33.875  1.00  0.00     0.023 A 
ATOM     40  C   UNL A   1      43.429  32.797  33.484  1.00  0.00     0.012 A 
ATOM     41  C   UNL A   1      42.331  31.410  35.153  1.00  0.00     0.148 A 
ATOM     42  C   UNL A   1      43.410  33.881  34.361  1.00  0.00     0.002 A 
ATOM     43  C   UNL A   1      42.273  32.507  36.004  1.00  0.00     0.091 A 
ATOM     44  F   UNL A   1      41.858  30.209  35.517  1.00  0.00    -0.205 F 
ATOM     45  C   UNL A   1      42.825  33.739  35.617  1.00  0.00     0.022 A 
BRANCH  43  46
ATOM     46  S   UNL A   1      41.467  32.447  37.609  1.00  0.00     0.127 S 
ATOM     47  O   UNL A   1      40.115  32.026  37.243  1.00  0.00    -0.237 OA
ATOM     48  O   UNL A   1      42.252  31.431  38.310  1.00  0.00    -0.237 OA
ATOM     49  O   UNL A   1      41.577  33.788  38.165  1.00  0.00    -0.744 OA
ENDBRANCH  43  46
ENDBRANCH  25  39
BRANCH  26  50
ATOM     50  C   UNL A   1      42.855  24.249  27.031  1.00  0.00     0.023 A 
ATOM     51  C   UNL A   1      43.573  24.451  25.838  1.00  0.00     0.012 A 
ATOM     52  C   UNL A   1      42.194  23.023  27.240  1.00  0.00     0.148 A 
ATOM     53  C   UNL A   1      43.610  23.459  24.857  1.00  0.00     0.002 A 
ATOM     54  C   UNL A   1      42.285  22.018  26.286  1.00  0.00     0.091 A 
ATOM     55  F   UNL A   1      41.513  22.856  28.382  1.00  0.00    -0.205 F 
ATOM     56  C   UNL A   1      42.977  22.240  25.085  1.00  0.00     0.022 A 
BRANCH  54  57
ATOM     57  S   UNL A   1      41.622  20.371  26.555  1.00  0.00     0.127 S 
ATOM     58  O   UNL A   1      40.183  20.623  26.539  1.00  0.00    -0.237 OA
ATOM     59  O   UNL A   1      42.134  19.649  25.390  1.00  0.00    -0.237 OA
ATOM     60  O   UNL A   1      42.171  19.926  27.828  1.00  0.00    -0.744 OA
ENDBRANCH  54  57
ENDBRANCH  26  50
BRANCH  38  61
ATOM     61  C   UNL A   1      47.370  26.191  31.986  1.00  0.00     0.023 A 
ATOM     62  C   UNL A   1      47.478  25.285  33.059  1.00  0.00     0.012 A 
ATOM     63  C   UNL A   1      48.528  26.557  31.270  1.00  0.00     0.148 A 
ATOM     64  C   UNL A   1      48.722  24.780  33.439  1.00  0.00     0.002 A 
ATOM     65  C   UNL A   1      49.756  26.007  31.619  1.00  0.00     0.091 A 
ATOM     66  F   UNL A   1      48.407  27.436  30.265  1.00  0.00    -0.205 F 
ATOM     67  C   UNL A   1      49.857  25.131  32.712  1.00  0.00     0.022 A 
BRANCH  65  68
ATOM     68  S   UNL A   1      51.254  26.324  30.681  1.00  0.00     0.127 S 
ATOM     69  O   UNL A   1      51.485  27.741  30.959  1.00  0.00    -0.237 OA
ATOM     70  O   UNL A   1      52.211  25.414  31.311  1.00  0.00    -0.237 OA
ATOM     71  O   UNL A   1      50.938  26.005  29.295  1.00  0.00    -0.744 OA
ENDBRANCH  65  68
ENDBRANCH  38  61
ENDBRANCH  12  13
ENDBRANCH   5   7
ENDBRANCH   2   3
ENDBRANCH   1   2
BRANCH   1  72
ATOM     72  C   UNL A   1      33.961  35.224  29.080  1.00  0.00     0.002 C 
BRANCH  72  73
ATOM     73  C   UNL A   1      32.821  35.826  29.910  1.00  0.00     0.002 C 
BRANCH  73  74
ATOM     74  C   UNL A   1      33.259  36.897  30.912  1.00  0.00     0.021 C 
BRANCH  74  75
ATOM     75  C   UNL A   1      33.209  36.427  32.365  1.00  0.00     0.116 C 
BRANCH  75  76
ATOM     76  N   UNL A   1      32.932  34.999  32.469  1.00  0.00    -0.356 N 
ATOM     77  C   UNL A   1      33.672  34.066  33.160  1.00  0.00     0.223 C 
ATOM     78  H   UNL A   1      32.133  34.668  31.997  1.00  0.00     0.163 HD
ATOM     79  O   UNL A   1      33.407  32.869  33.117  1.00  0.00    -0.275 OA
BRANCH  77  80
ATOM     80  C   UNL A   1      34.820  34.616  33.909  1.00  0.00     0.086 C 
ATOM     81  C   UNL A   1      36.308  34.828  33.706  1.00  0.00     0.009 C 
ATOM     82  C   UNL A   1      35.827  33.564  34.339  1.00  0.00     0.009 C 
ATOM     83  C   UNL A   1      37.282  34.339  32.653  1.00  0.00    -0.007 C 
ATOM     84  C   UNL A   1      36.414  32.459  33.448  1.00  0.00    -0.007 C 
ATOM     85  C   UNL A   1      38.475  33.682  33.418  1.00  0.00     0.004 C 
ATOM     86  C   UNL A   1      36.610  33.109  32.066  1.00  0.00     0.007 C 
ATOM     87  C   UNL A   1      37.887  32.323  33.877  1.00  0.00     0.004 C 
ENDBRANCH  77  80
ENDBRANCH  75  76
ENDBRANCH  74  75
ENDBRANCH  73  74
ENDBRANCH  72  73
ENDBRANCH   1  72
TORSDOF 16
ENDMDL
