MODEL 1
REMARK VINA RESULT:     -10.5      0.000      0.000
REMARK SMILES C[C@@H]1C[N@@H+](CC(C)(C)C(=O)NCCCCCCNC(=O)c2ccc(-c3c4nc(c(-c5cccc(S(=O)(=O)[O-])c5F)c5ccc([nH]5)c(-c5cccc(S(=O)(=O)[O-])c5F)c5nc(c(-c6cccc(S(=O)(=O)[O-])c6F)c6ccc3[nH]6)C=C5)C=C4)cc2)CC[C@@H]1[NH3+]
REMARK SMILES IDX 14 1 13 2 12 3 11 4 9 5 10 6 6 8 7 9 8 10 5 11 4 12 1 13
REMARK SMILES IDX 2 14 3 15 86 16 85 17 84 18 87 20 15 24 16 25 17 26 18 27
REMARK SMILES IDX 19 28 20 30 21 31 22 32 83 33 23 34 82 35 24 36 25 37 26 38
REMARK SMILES IDX 76 39 27 40 81 41 75 42 77 43 28 44 80 45 74 46 73 47 29 49
REMARK SMILES IDX 61 50 41 51 60 52 42 53 45 54 59 55 78 56 43 57 44 58 58 60
REMARK SMILES IDX 79 61 46 62 30 63 31 64 39 65 32 66 34 67 40 68 33 69 35 70
REMARK SMILES IDX 36 71 37 72 38 73 62 74 63 75 71 76 64 77 66 78 72 79 65 80
REMARK SMILES IDX 67 81 68 82 69 83 70 84 47 85 48 86 56 87 49 88 51 89 57 90
REMARK SMILES IDX 50 91 52 92 53 93 54 94 55 95
REMARK H PARENT 11 7 4 19 87 21 87 22 87 23 18 29 77 48 45 59
REMARK Flexibility Score: inf
ROOT
ATOM      1  C   UNL A   1      36.207  21.192  25.424  1.00  0.00     0.002 C 
ENDROOT
BRANCH   1   2
ATOM      2  C   UNL A   1      34.909  20.541  24.936  1.00  0.00     0.021 C 
BRANCH   2   3
ATOM      3  C   UNL A   1      33.766  21.521  24.686  1.00  0.00     0.116 C 
BRANCH   3   4
ATOM      4  N   UNL A   1      34.036  22.299  23.497  1.00  0.00    -0.355 N 
ATOM      5  C   UNL A   1      33.770  23.600  23.228  1.00  0.00     0.231 C 
ATOM      6  O   UNL A   1      33.512  23.851  22.046  1.00  0.00    -0.274 OA
ATOM      7  H   UNL A   1      34.482  21.807  22.771  1.00  0.00     0.163 HD
BRANCH   5   8
ATOM      8  C   UNL A   1      33.732  24.689  24.317  1.00  0.00     0.092 C 
ATOM      9  C   UNL A   1      34.906  24.671  25.309  1.00  0.00     0.027 C 
ATOM     10  C   UNL A   1      32.429  24.444  25.109  1.00  0.00     0.027 C 
BRANCH   8  11
ATOM     11  C   UNL A   1      33.627  26.107  23.620  1.00  0.00     0.278 C 
BRANCH  11  12
ATOM     12  N   UNL A   1      32.468  27.026  23.795  1.00  0.00    -0.333 N 
ATOM     13  C   UNL A   1      29.340  27.302  23.513  1.00  0.00     0.020 C 
ATOM     14  C   UNL A   1      30.425  28.057  22.733  1.00  0.00     0.099 C 
ATOM     15  C   UNL A   1      31.698  27.211  22.561  1.00  0.00     0.271 C 
ATOM     16  C   UNL A   1      30.829  29.408  23.353  1.00  0.00     0.194 C 
ATOM     17  C   UNL A   1      31.564  29.191  24.678  1.00  0.00     0.126 C 
ATOM     18  C   UNL A   1      32.784  28.289  24.464  1.00  0.00     0.268 C 
ATOM     19  H   UNL A   1      31.857  26.539  24.451  1.00  0.00     0.348 HD
BRANCH  16  20
ATOM     20  N   UNL A   1      29.698  30.322  23.521  1.00  0.00    -0.355 N 
ATOM     21  H   UNL A   1      29.087  30.261  22.707  1.00  0.00     0.344 HD
ATOM     22  H   UNL A   1      30.043  31.278  23.615  1.00  0.00     0.344 HD
ATOM     23  H   UNL A   1      29.175  30.065  24.358  1.00  0.00     0.344 HD
ENDBRANCH  16  20
ENDBRANCH  11  12
ENDBRANCH   8  11
ENDBRANCH   5   8
ENDBRANCH   3   4
ENDBRANCH   2   3
ENDBRANCH   1   2
BRANCH   1  24
ATOM     24  C   UNL A   1      37.434  20.923  24.549  1.00  0.00     0.002 C 
BRANCH  24  25
ATOM     25  C   UNL A   1      38.293  19.735  24.990  1.00  0.00     0.021 C 
BRANCH  25  26
ATOM     26  C   UNL A   1      39.287  20.046  26.103  1.00  0.00     0.116 C 
BRANCH  26  27
ATOM     27  N   UNL A   1      40.442  19.166  26.064  1.00  0.00    -0.352 N 
ATOM     28  C   UNL A   1      41.776  19.490  26.064  1.00  0.00     0.251 C 
ATOM     29  H   UNL A   1      40.241  18.203  26.034  1.00  0.00     0.163 HD
ATOM     30  O   UNL A   1      42.615  18.627  25.838  1.00  0.00    -0.269 OA
BRANCH  28  31
ATOM     31  C   UNL A   1      42.191  20.887  26.319  1.00  0.00     0.039 A 
ATOM     32  C   UNL A   1      42.422  21.288  27.636  1.00  0.00     0.014 A 
ATOM     33  C   UNL A   1      42.344  21.799  25.269  1.00  0.00     0.014 A 
ATOM     34  C   UNL A   1      42.843  22.593  27.896  1.00  0.00     0.010 A 
ATOM     35  C   UNL A   1      42.839  23.076  25.525  1.00  0.00     0.010 A 
ATOM     36  C   UNL A   1      43.080  23.491  26.842  1.00  0.00    -0.014 A 
BRANCH  36  37
ATOM     37  C   UNL A   1      43.586  24.861  27.112  1.00  0.00     0.031 A 
ATOM     38  C   UNL A   1      42.668  25.925  27.649  1.00  0.00     0.074 A 
ATOM     39  C   UNL A   1      44.866  25.163  26.817  1.00  0.00     0.049 A 
ATOM     40  N   UNL A   1      42.938  27.168  27.954  1.00  0.00    -0.248 NA
ATOM     41  C   UNL A   1      41.256  25.556  27.851  1.00  0.00     0.031 C 
ATOM     42  C   UNL A   1      45.831  24.244  26.207  1.00  0.00     0.029 A 
ATOM     43  N   UNL A   1      45.572  26.328  26.974  1.00  0.00    -0.354 N 
ATOM     44  C   UNL A   1      41.733  27.736  28.349  1.00  0.00     0.074 A 
ATOM     45  C   UNL A   1      40.721  26.713  28.213  1.00  0.00     0.031 C 
ATOM     46  C   UNL A   1      47.004  24.878  26.052  1.00  0.00     0.029 A 
ATOM     47  C   UNL A   1      46.871  26.251  26.527  1.00  0.00     0.049 A 
ATOM     48  H   UNL A   1      45.186  27.142  27.369  1.00  0.00     0.167 HD
ATOM     49  C   UNL A   1      41.495  28.987  28.813  1.00  0.00     0.034 A 
ATOM     50  C   UNL A   1      47.845  27.181  26.501  1.00  0.00     0.034 A 
ATOM     51  C   UNL A   1      42.513  29.988  28.985  1.00  0.00     0.049 A 
ATOM     52  C   UNL A   1      47.567  28.545  27.073  1.00  0.00     0.074 A 
ATOM     53  C   UNL A   1      42.391  31.252  29.537  1.00  0.00     0.029 A 
ATOM     54  N   UNL A   1      43.837  29.846  28.601  1.00  0.00    -0.354 N 
ATOM     55  N   UNL A   1      46.460  29.007  27.602  1.00  0.00    -0.248 NA
ATOM     56  C   UNL A   1      48.682  29.502  27.080  1.00  0.00     0.031 C 
ATOM     57  C   UNL A   1      43.635  31.885  29.457  1.00  0.00     0.029 A 
ATOM     58  C   UNL A   1      44.540  31.004  28.891  1.00  0.00     0.049 A 
ATOM     59  H   UNL A   1      44.220  29.041  28.184  1.00  0.00     0.167 HD
ATOM     60  C   UNL A   1      46.755  30.294  28.038  1.00  0.00     0.074 A 
ATOM     61  C   UNL A   1      48.153  30.526  27.734  1.00  0.00     0.031 C 
ATOM     62  C   UNL A   1      45.941  31.206  28.626  1.00  0.00     0.034 A 
BRANCH  49  63
ATOM     63  C   UNL A   1      40.084  29.330  29.217  1.00  0.00     0.023 A 
ATOM     64  C   UNL A   1      39.144  29.693  28.230  1.00  0.00     0.012 A 
ATOM     65  C   UNL A   1      39.669  29.225  30.560  1.00  0.00     0.148 A 
ATOM     66  C   UNL A   1      37.824  29.979  28.576  1.00  0.00     0.002 A 
ATOM     67  C   UNL A   1      38.340  29.464  30.890  1.00  0.00     0.091 A 
ATOM     68  F   UNL A   1      40.580  28.898  31.486  1.00  0.00    -0.205 F 
ATOM     69  C   UNL A   1      37.419  29.852  29.901  1.00  0.00     0.022 A 
BRANCH  67  70
ATOM     70  S   UNL A   1      37.699  29.250  32.554  1.00  0.00     0.127 S 
ATOM     71  O   UNL A   1      38.606  30.092  33.330  1.00  0.00    -0.237 OA
ATOM     72  O   UNL A   1      36.338  29.772  32.428  1.00  0.00    -0.237 OA
ATOM     73  O   UNL A   1      37.780  27.823  32.836  1.00  0.00    -0.744 OA
ENDBRANCH  67  70
ENDBRANCH  49  63
BRANCH  50  74
ATOM     74  C   UNL A   1      49.194  26.835  25.970  1.00  0.00     0.023 A 
ATOM     75  C   UNL A   1      50.090  26.102  26.773  1.00  0.00     0.012 A 
ATOM     76  C   UNL A   1      49.584  27.208  24.670  1.00  0.00     0.148 A 
ATOM     77  C   UNL A   1      51.366  25.781  26.305  1.00  0.00     0.002 A 
ATOM     78  C   UNL A   1      50.833  26.835  24.188  1.00  0.00     0.091 A 
ATOM     79  F   UNL A   1      48.721  27.914  23.926  1.00  0.00    -0.205 F 
ATOM     80  C   UNL A   1      51.733  26.139  25.010  1.00  0.00     0.022 A 
BRANCH  78  81
ATOM     81  S   UNL A   1      51.335  27.132  22.490  1.00  0.00     0.127 S 
ATOM     82  O   UNL A   1      51.398  28.591  22.448  1.00  0.00    -0.237 OA
ATOM     83  O   UNL A   1      52.632  26.457  22.434  1.00  0.00    -0.237 OA
ATOM     84  O   UNL A   1      50.306  26.517  21.662  1.00  0.00    -0.744 OA
ENDBRANCH  78  81
ENDBRANCH  50  74
BRANCH  62  85
ATOM     85  C   UNL A   1      46.544  32.531  29.012  1.00  0.00     0.023 A 
ATOM     86  C   UNL A   1      47.154  32.687  30.273  1.00  0.00     0.012 A 
ATOM     87  C   UNL A   1      46.555  33.607  28.102  1.00  0.00     0.148 A 
ATOM     88  C   UNL A   1      47.729  33.904  30.636  1.00  0.00     0.002 A 
ATOM     89  C   UNL A   1      47.176  34.799  28.450  1.00  0.00     0.091 A 
ATOM     90  F   UNL A   1      45.953  33.446  26.914  1.00  0.00    -0.205 F 
ATOM     91  C   UNL A   1      47.751  34.955  29.723  1.00  0.00     0.022 A 
BRANCH  89  92
ATOM     92  S   UNL A   1      47.338  36.170  27.302  1.00  0.00     0.127 S 
ATOM     93  O   UNL A   1      48.082  37.143  28.101  1.00  0.00    -0.237 OA
ATOM     94  O   UNL A   1      48.100  35.570  26.206  1.00  0.00    -0.237 OA
ATOM     95  O   UNL A   1      45.979  36.560  26.948  1.00  0.00    -0.744 OA
ENDBRANCH  89  92
ENDBRANCH  62  85
ENDBRANCH  36  37
ENDBRANCH  28  31
ENDBRANCH  26  27
ENDBRANCH  25  26
ENDBRANCH  24  25
ENDBRANCH   1  24
TORSDOF 19
ENDMDL
MODEL 2
REMARK VINA RESULT:     -10.5      3.679      8.584
REMARK SMILES C[C@@H]1C[N@@H+](CC(C)(C)C(=O)NCCCCCCNC(=O)c2ccc(-c3c4nc(c(-c5cccc(S(=O)(=O)[O-])c5F)c5ccc([nH]5)c(-c5cccc(S(=O)(=O)[O-])c5F)c5nc(c(-c6cccc(S(=O)(=O)[O-])c6F)c6ccc3[nH]6)C=C5)C=C4)cc2)CC[C@@H]1[NH3+]
REMARK SMILES IDX 14 1 13 2 12 3 11 4 9 5 10 6 6 8 7 9 8 10 5 11 4 12 1 13
REMARK SMILES IDX 2 14 3 15 86 16 85 17 84 18 87 20 15 24 16 25 17 26 18 27
REMARK SMILES IDX 19 28 20 30 21 31 22 32 83 33 23 34 82 35 24 36 25 37 26 38
REMARK SMILES IDX 76 39 27 40 81 41 75 42 77 43 28 44 80 45 74 46 73 47 29 49
REMARK SMILES IDX 61 50 41 51 60 52 42 53 45 54 59 55 78 56 43 57 44 58 58 60
REMARK SMILES IDX 79 61 46 62 30 63 31 64 39 65 32 66 34 67 40 68 33 69 35 70
REMARK SMILES IDX 36 71 37 72 38 73 62 74 63 75 71 76 64 77 66 78 72 79 65 80
REMARK SMILES IDX 67 81 68 82 69 83 70 84 47 85 48 86 56 87 49 88 51 89 57 90
REMARK SMILES IDX 50 91 52 92 53 93 54 94 55 95
REMARK H PARENT 11 7 4 19 87 21 87 22 87 23 18 29 77 48 45 59
REMARK Flexibility Score: inf
ROOT
ATOM      1  C   UNL A   1      34.718  21.491  24.703  1.00  0.00     0.002 C 
ENDROOT
BRANCH   1   2
ATOM      2  C   UNL A   1      33.475  21.183  25.544  1.00  0.00     0.021 C 
BRANCH   2   3
ATOM      3  C   UNL A   1      33.188  22.203  26.642  1.00  0.00     0.116 C 
BRANCH   3   4
ATOM      4  N   UNL A   1      31.762  22.428  26.745  1.00  0.00    -0.355 N 
ATOM      5  C   UNL A   1      31.035  23.543  26.492  1.00  0.00     0.231 C 
ATOM      6  O   UNL A   1      30.036  23.694  27.203  1.00  0.00    -0.274 OA
ATOM      7  H   UNL A   1      31.239  21.651  27.047  1.00  0.00     0.163 HD
BRANCH   5   8
ATOM      8  C   UNL A   1      31.445  24.586  25.434  1.00  0.00     0.092 C 
ATOM      9  C   UNL A   1      31.714  24.028  24.027  1.00  0.00     0.027 C 
ATOM     10  C   UNL A   1      32.751  25.222  25.957  1.00  0.00     0.027 C 
BRANCH   8  11
ATOM     11  C   UNL A   1      30.336  25.715  25.372  1.00  0.00     0.278 C 
BRANCH  11  12
ATOM     12  N   UNL A   1      30.394  26.874  24.437  1.00  0.00    -0.333 N 
ATOM     13  C   UNL A   1      32.305  28.944  23.023  1.00  0.00     0.020 C 
ATOM     14  C   UNL A   1      31.211  29.231  24.060  1.00  0.00     0.099 C 
ATOM     15  C   UNL A   1      31.025  28.055  25.034  1.00  0.00     0.271 C 
ATOM     16  C   UNL A   1      29.837  29.572  23.455  1.00  0.00     0.194 C 
ATOM     17  C   UNL A   1      29.232  28.342  22.771  1.00  0.00     0.126 C 
ATOM     18  C   UNL A   1      29.131  27.181  23.765  1.00  0.00     0.268 C 
ATOM     19  H   UNL A   1      31.010  26.562  23.686  1.00  0.00     0.348 HD
BRANCH  16  20
ATOM     20  N   UNL A   1      29.880  30.715  22.542  1.00  0.00    -0.355 N 
ATOM     21  H   UNL A   1      29.120  30.640  21.866  1.00  0.00     0.344 HD
ATOM     22  H   UNL A   1      30.774  30.724  22.049  1.00  0.00     0.344 HD
ATOM     23  H   UNL A   1      29.778  31.579  23.074  1.00  0.00     0.344 HD
ENDBRANCH  16  20
ENDBRANCH  11  12
ENDBRANCH   8  11
ENDBRANCH   5   8
ENDBRANCH   3   4
ENDBRANCH   2   3
ENDBRANCH   1   2
BRANCH   1  24
ATOM     24  C   UNL A   1      34.861  22.954  24.272  1.00  0.00     0.002 C 
BRANCH  24  25
ATOM     25  C   UNL A   1      36.227  23.580  24.559  1.00  0.00     0.021 C 
BRANCH  25  26
ATOM     26  C   UNL A   1      36.693  23.461  26.004  1.00  0.00     0.116 C 
BRANCH  26  27
ATOM     27  N   UNL A   1      37.723  22.449  26.165  1.00  0.00    -0.352 N 
ATOM     28  C   UNL A   1      39.044  22.606  26.499  1.00  0.00     0.251 C 
ATOM     29  H   UNL A   1      37.432  21.520  26.014  1.00  0.00     0.163 HD
ATOM     30  O   UNL A   1      39.816  21.659  26.405  1.00  0.00    -0.269 OA
BRANCH  28  31
ATOM     31  C   UNL A   1      39.534  23.927  26.952  1.00  0.00     0.039 A 
ATOM     32  C   UNL A   1      40.012  24.827  25.998  1.00  0.00     0.014 A 
ATOM     33  C   UNL A   1      39.533  24.272  28.307  1.00  0.00     0.014 A 
ATOM     34  C   UNL A   1      40.452  26.089  26.400  1.00  0.00     0.010 A 
ATOM     35  C   UNL A   1      39.899  25.558  28.696  1.00  0.00     0.010 A 
ATOM     36  C   UNL A   1      40.376  26.476  27.749  1.00  0.00    -0.014 A 
BRANCH  36  37
ATOM     37  C   UNL A   1      40.786  27.839  28.172  1.00  0.00     0.031 A 
ATOM     38  C   UNL A   1      42.239  28.232  28.184  1.00  0.00     0.074 A 
ATOM     39  C   UNL A   1      39.849  28.708  28.601  1.00  0.00     0.049 A 
ATOM     40  N   UNL A   1      42.778  29.378  28.512  1.00  0.00    -0.248 NA
ATOM     41  C   UNL A   1      43.218  27.201  27.804  1.00  0.00     0.031 C 
ATOM     42  C   UNL A   1      38.419  28.417  28.721  1.00  0.00     0.029 A 
ATOM     43  N   UNL A   1      39.959  30.007  29.029  1.00  0.00    -0.354 N 
ATOM     44  C   UNL A   1      44.152  29.198  28.409  1.00  0.00     0.074 A 
ATOM     45  C   UNL A   1      44.368  27.822  28.023  1.00  0.00     0.031 C 
ATOM     46  C   UNL A   1      37.785  29.506  29.181  1.00  0.00     0.029 A 
ATOM     47  C   UNL A   1      38.762  30.565  29.413  1.00  0.00     0.049 A 
ATOM     48  H   UNL A   1      40.814  30.493  29.060  1.00  0.00     0.167 HD
ATOM     49  C   UNL A   1      45.143  30.104  28.589  1.00  0.00     0.034 A 
ATOM     50  C   UNL A   1      38.482  31.791  29.896  1.00  0.00     0.034 A 
ATOM     51  C   UNL A   1      44.921  31.483  28.932  1.00  0.00     0.049 A 
ATOM     52  C   UNL A   1      39.596  32.793  30.034  1.00  0.00     0.074 A 
ATOM     53  C   UNL A   1      45.851  32.502  29.044  1.00  0.00     0.029 A 
ATOM     54  N   UNL A   1      43.686  32.035  29.230  1.00  0.00    -0.354 N 
ATOM     55  N   UNL A   1      40.871  32.651  29.765  1.00  0.00    -0.248 NA
ATOM     56  C   UNL A   1      39.227  34.135  30.504  1.00  0.00     0.031 C 
ATOM     57  C   UNL A   1      45.181  33.663  29.440  1.00  0.00     0.029 A 
ATOM     58  C   UNL A   1      43.830  33.378  29.539  1.00  0.00     0.049 A 
ATOM     59  H   UNL A   1      42.832  31.546  29.224  1.00  0.00     0.167 HD
ATOM     60  C   UNL A   1      41.450  33.893  29.997  1.00  0.00     0.074 A 
ATOM     61  C   UNL A   1      40.380  34.781  30.404  1.00  0.00     0.031 C 
ATOM     62  C   UNL A   1      42.751  34.263  29.896  1.00  0.00     0.034 A 
BRANCH  49  63
ATOM     63  C   UNL A   1      46.562  29.647  28.367  1.00  0.00     0.023 A 
ATOM     64  C   UNL A   1      47.154  29.799  27.095  1.00  0.00     0.012 A 
ATOM     65  C   UNL A   1      47.333  29.136  29.430  1.00  0.00     0.148 A 
ATOM     66  C   UNL A   1      48.478  29.418  26.876  1.00  0.00     0.002 A 
ATOM     67  C   UNL A   1      48.666  28.804  29.216  1.00  0.00     0.091 A 
ATOM     68  F   UNL A   1      46.750  28.981  30.626  1.00  0.00    -0.205 F 
ATOM     69  C   UNL A   1      49.236  28.934  27.938  1.00  0.00     0.022 A 
BRANCH  67  70
ATOM     70  S   UNL A   1      49.753  28.248  30.534  1.00  0.00     0.127 S 
ATOM     71  O   UNL A   1      50.899  27.745  29.778  1.00  0.00    -0.237 OA
ATOM     72  O   UNL A   1      50.003  29.488  31.269  1.00  0.00    -0.237 OA
ATOM     73  O   UNL A   1      49.005  27.241  31.275  1.00  0.00    -0.744 OA
ENDBRANCH  67  70
ENDBRANCH  49  63
BRANCH  50  74
ATOM     74  C   UNL A   1      37.076  32.159  30.227  1.00  0.00     0.023 A 
ATOM     75  C   UNL A   1      36.607  31.999  31.545  1.00  0.00     0.012 A 
ATOM     76  C   UNL A   1      36.210  32.684  29.249  1.00  0.00     0.148 A 
ATOM     77  C   UNL A   1      35.289  32.319  31.875  1.00  0.00     0.002 A 
ATOM     78  C   UNL A   1      34.917  33.056  29.596  1.00  0.00     0.091 A 
ATOM     79  F   UNL A   1      36.673  32.819  27.998  1.00  0.00    -0.205 F 
ATOM     80  C   UNL A   1      34.448  32.857  30.904  1.00  0.00     0.022 A 
BRANCH  78  81
ATOM     81  S   UNL A   1      33.814  33.882  28.446  1.00  0.00     0.127 S 
ATOM     82  O   UNL A   1      32.968  34.658  29.348  1.00  0.00    -0.237 OA
ATOM     83  O   UNL A   1      34.748  34.672  27.643  1.00  0.00    -0.237 OA
ATOM     84  O   UNL A   1      33.146  32.817  27.709  1.00  0.00    -0.744 OA
ENDBRANCH  78  81
ENDBRANCH  50  74
BRANCH  62  85
ATOM     85  C   UNL A   1      43.092  35.699  30.197  1.00  0.00     0.023 A 
ATOM     86  C   UNL A   1      43.536  36.063  31.484  1.00  0.00     0.012 A 
ATOM     87  C   UNL A   1      43.027  36.678  29.186  1.00  0.00     0.148 A 
ATOM     88  C   UNL A   1      43.869  37.386  31.771  1.00  0.00     0.002 A 
ATOM     89  C   UNL A   1      43.412  37.984  29.465  1.00  0.00     0.091 A 
ATOM     90  F   UNL A   1      42.585  36.318  27.973  1.00  0.00    -0.205 F 
ATOM     91  C   UNL A   1      43.819  38.343  30.760  1.00  0.00     0.022 A 
BRANCH  89  92
ATOM     92  S   UNL A   1      43.472  39.259  28.201  1.00  0.00     0.127 S 
ATOM     93  O   UNL A   1      42.121  39.192  27.646  1.00  0.00    -0.237 OA
ATOM     94  O   UNL A   1      43.750  40.462  28.986  1.00  0.00    -0.237 OA
ATOM     95  O   UNL A   1      44.543  38.872  27.292  1.00  0.00    -0.744 OA
ENDBRANCH  89  92
ENDBRANCH  62  85
ENDBRANCH  36  37
ENDBRANCH  28  31
ENDBRANCH  26  27
ENDBRANCH  25  26
ENDBRANCH  24  25
ENDBRANCH   1  24
TORSDOF 19
ENDMDL
MODEL 3
REMARK VINA RESULT:     -10.3      1.553      2.108
REMARK SMILES C[C@@H]1C[N@@H+](CC(C)(C)C(=O)NCCCCCCNC(=O)c2ccc(-c3c4nc(c(-c5cccc(S(=O)(=O)[O-])c5F)c5ccc([nH]5)c(-c5cccc(S(=O)(=O)[O-])c5F)c5nc(c(-c6cccc(S(=O)(=O)[O-])c6F)c6ccc3[nH]6)C=C5)C=C4)cc2)CC[C@@H]1[NH3+]
REMARK SMILES IDX 14 1 13 2 12 3 11 4 9 5 10 6 6 8 7 9 8 10 5 11 4 12 1 13
REMARK SMILES IDX 2 14 3 15 86 16 85 17 84 18 87 20 15 24 16 25 17 26 18 27
REMARK SMILES IDX 19 28 20 30 21 31 22 32 83 33 23 34 82 35 24 36 25 37 26 38
REMARK SMILES IDX 76 39 27 40 81 41 75 42 77 43 28 44 80 45 74 46 73 47 29 49
REMARK SMILES IDX 61 50 41 51 60 52 42 53 45 54 59 55 78 56 43 57 44 58 58 60
REMARK SMILES IDX 79 61 46 62 30 63 31 64 39 65 32 66 34 67 40 68 33 69 35 70
REMARK SMILES IDX 36 71 37 72 38 73 62 74 63 75 71 76 64 77 66 78 72 79 65 80
REMARK SMILES IDX 67 81 68 82 69 83 70 84 47 85 48 86 56 87 49 88 51 89 57 90
REMARK SMILES IDX 50 91 52 92 53 93 54 94 55 95
REMARK H PARENT 11 7 4 19 87 21 87 22 87 23 18 29 77 48 45 59
REMARK Flexibility Score: inf
ROOT
ATOM      1  C   UNL A   1      36.538  21.936  24.361  1.00  0.00     0.002 C 
ENDROOT
BRANCH   1   2
ATOM      2  C   UNL A   1      36.717  23.118  25.320  1.00  0.00     0.021 C 
BRANCH   2   3
ATOM      3  C   UNL A   1      35.525  24.069  25.379  1.00  0.00     0.116 C 
BRANCH   3   4
ATOM      4  N   UNL A   1      34.533  23.676  24.401  1.00  0.00    -0.355 N 
ATOM      5  C   UNL A   1      33.280  23.193  24.577  1.00  0.00     0.231 C 
ATOM      6  O   UNL A   1      32.899  22.389  23.718  1.00  0.00    -0.274 OA
ATOM      7  H   UNL A   1      34.813  23.775  23.463  1.00  0.00     0.163 HD
BRANCH   5   8
ATOM      8  C   UNL A   1      32.401  23.566  25.786  1.00  0.00     0.092 C 
ATOM      9  C   UNL A   1      32.836  22.960  27.131  1.00  0.00     0.027 C 
ATOM     10  C   UNL A   1      30.988  23.039  25.455  1.00  0.00     0.027 C 
BRANCH   8  11
ATOM     11  C   UNL A   1      32.326  25.144  25.898  1.00  0.00     0.278 C 
BRANCH  11  12
ATOM     12  N   UNL A   1      32.114  26.042  24.728  1.00  0.00    -0.333 N 
ATOM     13  C   UNL A   1      33.323  27.024  21.987  1.00  0.00     0.020 C 
ATOM     14  C   UNL A   1      33.091  27.847  23.260  1.00  0.00     0.099 C 
ATOM     15  C   UNL A   1      33.218  26.987  24.529  1.00  0.00     0.271 C 
ATOM     16  C   UNL A   1      31.732  28.571  23.309  1.00  0.00     0.194 C 
ATOM     17  C   UNL A   1      30.590  27.559  23.441  1.00  0.00     0.126 C 
ATOM     18  C   UNL A   1      30.801  26.684  24.680  1.00  0.00     0.268 C 
ATOM     19  H   UNL A   1      32.118  25.415  23.924  1.00  0.00     0.348 HD
BRANCH  16  20
ATOM     20  N   UNL A   1      31.517  29.463  22.169  1.00  0.00    -0.355 N 
ATOM     21  H   UNL A   1      30.577  29.857  22.217  1.00  0.00     0.344 HD
ATOM     22  H   UNL A   1      31.622  28.938  21.300  1.00  0.00     0.344 HD
ATOM     23  H   UNL A   1      32.203  30.218  22.195  1.00  0.00     0.344 HD
ENDBRANCH  16  20
ENDBRANCH  11  12
ENDBRANCH   8  11
ENDBRANCH   5   8
ENDBRANCH   3   4
ENDBRANCH   2   3
ENDBRANCH   1   2
BRANCH   1  24
ATOM     24  C   UNL A   1      36.701  20.554  25.000  1.00  0.00     0.002 C 
BRANCH  24  25
ATOM     25  C   UNL A   1      38.098  19.943  24.867  1.00  0.00     0.021 C 
BRANCH  25  26
ATOM     26  C   UNL A   1      38.982  20.098  26.098  1.00  0.00     0.116 C 
BRANCH  26  27
ATOM     27  N   UNL A   1      40.090  19.159  26.097  1.00  0.00    -0.352 N 
ATOM     28  C   UNL A   1      41.438  19.412  26.129  1.00  0.00     0.251 C 
ATOM     29  H   UNL A   1      39.838  18.207  26.070  1.00  0.00     0.163 HD
ATOM     30  O   UNL A   1      42.236  18.504  25.932  1.00  0.00    -0.269 OA
BRANCH  28  31
ATOM     31  C   UNL A   1      41.920  20.788  26.384  1.00  0.00     0.039 A 
ATOM     32  C   UNL A   1      42.131  21.636  25.295  1.00  0.00     0.014 A 
ATOM     33  C   UNL A   1      42.171  21.236  27.684  1.00  0.00     0.014 A 
ATOM     34  C   UNL A   1      42.557  22.946  25.514  1.00  0.00     0.010 A 
ATOM     35  C   UNL A   1      42.522  22.567  27.904  1.00  0.00     0.010 A 
ATOM     36  C   UNL A   1      42.732  23.432  26.821  1.00  0.00    -0.014 A 
BRANCH  36  37
ATOM     37  C   UNL A   1      43.127  24.843  27.059  1.00  0.00     0.031 A 
ATOM     38  C   UNL A   1      42.176  25.804  27.720  1.00  0.00     0.074 A 
ATOM     39  C   UNL A   1      44.329  25.275  26.628  1.00  0.00     0.049 A 
ATOM     40  N   UNL A   1      42.355  27.065  28.017  1.00  0.00    -0.248 NA
ATOM     41  C   UNL A   1      40.841  25.293  28.072  1.00  0.00     0.031 C 
ATOM     42  C   UNL A   1      45.304  24.465  25.893  1.00  0.00     0.029 A 
ATOM     43  N   UNL A   1      44.930  26.505  26.728  1.00  0.00    -0.354 N 
ATOM     44  C   UNL A   1      41.153  27.505  28.558  1.00  0.00     0.074 A 
ATOM     45  C   UNL A   1      40.238  26.387  28.516  1.00  0.00     0.031 C 
ATOM     46  C   UNL A   1      46.383  25.215  25.621  1.00  0.00     0.029 A 
ATOM     47  C   UNL A   1      46.170  26.563  26.136  1.00  0.00     0.049 A 
ATOM     48  H   UNL A   1      44.513  27.272  27.182  1.00  0.00     0.167 HD
ATOM     49  C   UNL A   1      40.847  28.721  29.072  1.00  0.00     0.034 A 
ATOM     50  C   UNL A   1      47.038  27.587  26.019  1.00  0.00     0.034 A 
ATOM     51  C   UNL A   1      41.773  29.818  29.149  1.00  0.00     0.049 A 
ATOM     52  C   UNL A   1      46.693  28.911  26.647  1.00  0.00     0.074 A 
ATOM     53  C   UNL A   1      41.591  31.058  29.737  1.00  0.00     0.029 A 
ATOM     54  N   UNL A   1      43.052  29.814  28.615  1.00  0.00    -0.354 N 
ATOM     55  N   UNL A   1      45.614  29.254  27.308  1.00  0.00    -0.248 NA
ATOM     56  C   UNL A   1      47.701  29.974  26.549  1.00  0.00     0.031 C 
ATOM     57  C   UNL A   1      42.749  31.814  29.531  1.00  0.00     0.029 A 
ATOM     58  C   UNL A   1      43.666  31.034  28.847  1.00  0.00     0.049 A 
ATOM     59  H   UNL A   1      43.463  29.056  28.140  1.00  0.00     0.167 HD
ATOM     60  C   UNL A   1      45.828  30.559  27.735  1.00  0.00     0.074 A 
ATOM     61  C   UNL A   1      47.151  30.934  27.279  1.00  0.00     0.031 C 
ATOM     62  C   UNL A   1      45.000  31.379  28.429  1.00  0.00     0.034 A 
BRANCH  49  63
ATOM     63  C   UNL A   1      39.465  28.917  29.641  1.00  0.00     0.023 A 
ATOM     64  C   UNL A   1      39.180  28.476  30.951  1.00  0.00     0.012 A 
ATOM     65  C   UNL A   1      38.471  29.598  28.911  1.00  0.00     0.148 A 
ATOM     66  C   UNL A   1      37.920  28.681  31.512  1.00  0.00     0.002 A 
ATOM     67  C   UNL A   1      37.233  29.840  29.495  1.00  0.00     0.091 A 
ATOM     68  F   UNL A   1      38.753  29.992  27.662  1.00  0.00    -0.205 F 
ATOM     69  C   UNL A   1      36.952  29.373  30.790  1.00  0.00     0.022 A 
BRANCH  67  70
ATOM     70  S   UNL A   1      35.945  30.793  28.682  1.00  0.00     0.127 S 
ATOM     71  O   UNL A   1      35.257  29.759  27.910  1.00  0.00    -0.237 OA
ATOM     72  O   UNL A   1      35.185  31.315  29.818  1.00  0.00    -0.237 OA
ATOM     73  O   UNL A   1      36.631  31.806  27.891  1.00  0.00    -0.744 OA
ENDBRANCH  67  70
ENDBRANCH  49  63
BRANCH  50  74
ATOM     74  C   UNL A   1      48.344  27.383  25.332  1.00  0.00     0.023 A 
ATOM     75  C   UNL A   1      49.435  26.862  26.054  1.00  0.00     0.012 A 
ATOM     76  C   UNL A   1      48.504  27.683  23.966  1.00  0.00     0.148 A 
ATOM     77  C   UNL A   1      50.675  26.680  25.437  1.00  0.00     0.002 A 
ATOM     78  C   UNL A   1      49.723  27.443  23.343  1.00  0.00     0.091 A 
ATOM     79  F   UNL A   1      47.456  28.187  23.299  1.00  0.00    -0.205 F 
ATOM     80  C   UNL A   1      50.815  26.960  24.080  1.00  0.00     0.022 A 
BRANCH  78  81
ATOM     81  S   UNL A   1      49.954  27.646  21.574  1.00  0.00     0.127 S 
ATOM     82  O   UNL A   1      48.980  28.689  21.263  1.00  0.00    -0.237 OA
ATOM     83  O   UNL A   1      51.353  28.065  21.496  1.00  0.00    -0.237 OA
ATOM     84  O   UNL A   1      49.689  26.337  20.991  1.00  0.00    -0.744 OA
ENDBRANCH  78  81
ENDBRANCH  50  74
BRANCH  62  85
ATOM     85  C   UNL A   1      45.509  32.755  28.773  1.00  0.00     0.023 A 
ATOM     86  C   UNL A   1      46.247  32.958  29.956  1.00  0.00     0.012 A 
ATOM     87  C   UNL A   1      45.303  33.836  27.893  1.00  0.00     0.148 A 
ATOM     88  C   UNL A   1      46.737  34.223  30.277  1.00  0.00     0.002 A 
ATOM     89  C   UNL A   1      45.839  35.082  28.193  1.00  0.00     0.091 A 
ATOM     90  F   UNL A   1      44.582  33.628  26.781  1.00  0.00    -0.205 F 
ATOM     91  C   UNL A   1      46.543  35.281  29.392  1.00  0.00     0.022 A 
BRANCH  89  92
ATOM     92  S   UNL A   1      45.724  36.475  27.066  1.00  0.00     0.127 S 
ATOM     93  O   UNL A   1      46.413  35.959  25.884  1.00  0.00    -0.237 OA
ATOM     94  O   UNL A   1      44.277  36.630  26.910  1.00  0.00    -0.237 OA
ATOM     95  O   UNL A   1      46.380  37.589  27.737  1.00  0.00    -0.744 OA
ENDBRANCH  89  92
ENDBRANCH  62  85
ENDBRANCH  36  37
ENDBRANCH  28  31
ENDBRANCH  26  27
ENDBRANCH  25  26
ENDBRANCH  24  25
ENDBRANCH   1  24
TORSDOF 19
ENDMDL
