MODEL 1
REMARK VINA RESULT:     -11.6      0.000      0.000
REMARK SMILES O=C(C[C@H]1C[N@@H+]([C@@H]2CC(=O)NC2=O)CCO1)NCCCCCCNC(=O)c1ccc(-c2c3nc(c(-c4cccc(S(=O)(=O)[O-])c4F)c4ccc([nH]4)c(-c4cccc(S(=O)(=O)[O-])c4F)c4nc(c(-c5cccc(S(=O)(=O)[O-])c5F)c5ccc2[nH]5)C=C4)C=C3)cc1
REMARK SMILES IDX 21 1 20 2 19 3 18 4 17 5 1 6 2 7 3 9 4 10 5 11 16 12 6 13
REMARK SMILES IDX 15 14 14 15 7 17 8 18 12 19 9 20 11 21 13 22 10 23 22 25
REMARK SMILES IDX 23 26 24 27 25 28 26 30 27 31 28 32 89 33 29 34 88 35 30 36
REMARK SMILES IDX 31 37 32 38 82 39 33 40 87 41 81 42 83 43 34 44 86 45 80 46
REMARK SMILES IDX 79 47 35 49 67 50 47 51 66 52 48 53 51 54 65 55 84 56 49 57
REMARK SMILES IDX 50 58 64 60 85 61 52 62 36 63 37 64 45 65 38 66 40 67 46 68
REMARK SMILES IDX 39 69 41 70 42 71 43 72 44 73 68 74 69 75 77 76 70 77 72 78
REMARK SMILES IDX 78 79 71 80 73 81 74 82 75 83 76 84 53 85 54 86 62 87 55 88
REMARK SMILES IDX 57 89 63 90 56 91 58 92 59 93 60 94 61 95
REMARK H PARENT 17 8 6 16 11 24 24 29 83 48 51 59
REMARK Flexibility Score: inf
ROOT
ATOM      1  C   UNL A   1      31.902  30.441  26.444  1.00  0.00     0.002 C 
ENDROOT
BRANCH   1   2
ATOM      2  C   UNL A   1      33.049  29.781  27.216  1.00  0.00     0.002 C 
BRANCH   2   3
ATOM      3  C   UNL A   1      34.019  28.953  26.363  1.00  0.00     0.021 C 
BRANCH   3   4
ATOM      4  C   UNL A   1      33.464  28.492  25.014  1.00  0.00     0.116 C 
BRANCH   4   5
ATOM      5  N   UNL A   1      33.955  27.172  24.667  1.00  0.00    -0.356 N 
ATOM      6  O   UNL A   1      32.523  26.026  26.049  1.00  0.00    -0.275 OA
ATOM      7  C   UNL A   1      33.487  26.040  25.293  1.00  0.00     0.222 C 
ATOM      8  H   UNL A   1      34.639  27.085  23.965  1.00  0.00     0.163 HD
BRANCH   7   9
ATOM      9  C   UNL A   1      34.368  24.828  25.106  1.00  0.00     0.138 C 
BRANCH   9  10
ATOM     10  C   UNL A   1      34.633  24.423  23.659  1.00  0.00     0.182 C 
ATOM     11  C   UNL A   1      35.041  22.938  23.482  1.00  0.00     0.295 C 
ATOM     12  O   UNL A   1      33.490  24.710  22.824  1.00  0.00    -0.366 OA
ATOM     13  N   UNL A   1      33.965  21.946  23.613  1.00  0.00    -0.320 N 
ATOM     14  C   UNL A   1      32.386  23.828  23.054  1.00  0.00     0.222 C 
ATOM     15  C   UNL A   1      32.768  22.351  22.874  1.00  0.00     0.291 C 
ATOM     16  H   UNL A   1      34.383  21.139  23.148  1.00  0.00     0.348 HD
BRANCH  13  17
ATOM     17  C   UNL A   1      33.758  21.191  24.856  1.00  0.00     0.284 C 
ATOM     18  C   UNL A   1      32.831  21.756  25.938  1.00  0.00     0.176 C 
ATOM     19  C   UNL A   1      35.055  20.904  25.609  1.00  0.00     0.285 C 
ATOM     20  C   UNL A   1      33.710  21.882  27.148  1.00  0.00     0.233 C 
ATOM     21  N   UNL A   1      34.932  21.369  26.879  1.00  0.00    -0.291 N 
ATOM     22  O   UNL A   1      36.060  20.373  25.165  1.00  0.00    -0.268 OA
ATOM     23  O   UNL A   1      33.373  22.373  28.214  1.00  0.00    -0.274 OA
ATOM     24  H   UNL A   1      35.661  21.336  27.539  1.00  0.00     0.173 HD
ENDBRANCH  13  17
ENDBRANCH   9  10
ENDBRANCH   7   9
ENDBRANCH   4   5
ENDBRANCH   3   4
ENDBRANCH   2   3
ENDBRANCH   1   2
BRANCH   1  25
ATOM     25  C   UNL A   1      31.622  31.896  26.821  1.00  0.00     0.021 C 
BRANCH  25  26
ATOM     26  C   UNL A   1      32.837  32.674  27.314  1.00  0.00     0.116 C 
BRANCH  26  27
ATOM     27  N   UNL A   1      32.516  34.059  27.632  1.00  0.00    -0.352 N 
ATOM     28  C   UNL A   1      33.043  34.866  28.611  1.00  0.00     0.251 C 
ATOM     29  H   UNL A   1      31.825  34.474  27.067  1.00  0.00     0.163 HD
ATOM     30  O   UNL A   1      32.528  35.953  28.857  1.00  0.00    -0.269 OA
BRANCH  28  31
ATOM     31  C   UNL A   1      34.221  34.411  29.381  1.00  0.00     0.039 A 
ATOM     32  C   UNL A   1      34.031  33.840  30.642  1.00  0.00     0.014 A 
ATOM     33  C   UNL A   1      35.510  34.533  28.853  1.00  0.00     0.014 A 
ATOM     34  C   UNL A   1      35.127  33.331  31.344  1.00  0.00     0.010 A 
ATOM     35  C   UNL A   1      36.587  33.957  29.518  1.00  0.00     0.010 A 
ATOM     36  C   UNL A   1      36.411  33.352  30.772  1.00  0.00    -0.014 A 
BRANCH  36  37
ATOM     37  C   UNL A   1      37.578  32.738  31.459  1.00  0.00     0.031 A 
ATOM     38  C   UNL A   1      38.315  31.592  30.817  1.00  0.00     0.074 A 
ATOM     39  C   UNL A   1      37.914  33.144  32.701  1.00  0.00     0.049 A 
ATOM     40  N   UNL A   1      39.297  30.874  31.294  1.00  0.00    -0.248 NA
ATOM     41  C   UNL A   1      37.875  31.181  29.471  1.00  0.00     0.031 C 
ATOM     42  C   UNL A   1      37.238  34.199  33.460  1.00  0.00     0.029 A 
ATOM     43  N   UNL A   1      38.889  32.695  33.559  1.00  0.00    -0.354 N 
ATOM     44  C   UNL A   1      39.558  29.899  30.338  1.00  0.00     0.074 A 
ATOM     45  C   UNL A   1      38.622  30.108  29.256  1.00  0.00     0.031 C 
ATOM     46  C   UNL A   1      37.816  34.315  34.667  1.00  0.00     0.029 A 
ATOM     47  C   UNL A   1      38.876  33.318  34.787  1.00  0.00     0.049 A 
ATOM     48  H   UNL A   1      39.536  31.993  33.319  1.00  0.00     0.167 HD
ATOM     49  C   UNL A   1      40.503  28.930  30.352  1.00  0.00     0.034 A 
ATOM     50  C   UNL A   1      39.617  33.098  35.891  1.00  0.00     0.034 A 
ATOM     51  C   UNL A   1      41.465  28.758  31.406  1.00  0.00     0.049 A 
ATOM     52  C   UNL A   1      40.677  32.027  35.861  1.00  0.00     0.074 A 
ATOM     53  C   UNL A   1      42.531  27.877  31.455  1.00  0.00     0.029 A 
ATOM     54  N   UNL A   1      41.472  29.462  32.598  1.00  0.00    -0.354 N 
ATOM     55  N   UNL A   1      41.020  31.233  34.876  1.00  0.00    -0.248 NA
ATOM     56  C   UNL A   1      41.474  31.844  37.082  1.00  0.00     0.031 C 
ATOM     57  C   UNL A   1      43.153  28.015  32.698  1.00  0.00     0.029 A 
ATOM     58  C   UNL A   1      42.507  29.017  33.401  1.00  0.00     0.049 A 
ATOM     59  H   UNL A   1      40.834  30.173  32.838  1.00  0.00     0.167 HD
ATOM     60  C   UNL A   1      42.102  30.494  35.343  1.00  0.00     0.074 A 
ATOM     61  C   UNL A   1      42.368  30.947  36.692  1.00  0.00     0.031 C 
ATOM     62  C   UNL A   1      42.805  29.520  34.716  1.00  0.00     0.034 A 
BRANCH  49  63
ATOM     63  C   UNL A   1      40.574  27.985  29.183  1.00  0.00     0.023 A 
ATOM     64  C   UNL A   1      39.655  26.921  29.082  1.00  0.00     0.012 A 
ATOM     65  C   UNL A   1      41.482  28.219  28.131  1.00  0.00     0.148 A 
ATOM     66  C   UNL A   1      39.653  26.092  27.960  1.00  0.00     0.002 A 
ATOM     67  C   UNL A   1      41.441  27.419  26.997  1.00  0.00     0.091 A 
ATOM     68  F   UNL A   1      42.358  29.225  28.256  1.00  0.00    -0.205 F 
ATOM     69  C   UNL A   1      40.534  26.349  26.914  1.00  0.00     0.022 A 
BRANCH  67  70
ATOM     70  S   UNL A   1      42.472  27.722  25.557  1.00  0.00     0.127 S 
ATOM     71  O   UNL A   1      42.190  26.542  24.740  1.00  0.00    -0.237 OA
ATOM     72  O   UNL A   1      41.914  28.971  25.038  1.00  0.00    -0.237 OA
ATOM     73  O   UNL A   1      43.839  27.821  26.051  1.00  0.00    -0.744 OA
ENDBRANCH  67  70
ENDBRANCH  49  63
BRANCH  50  74
ATOM     74  C   UNL A   1      39.419  33.924  37.117  1.00  0.00     0.023 A 
ATOM     75  C   UNL A   1      39.921  35.241  37.155  1.00  0.00     0.012 A 
ATOM     76  C   UNL A   1      38.766  33.409  38.254  1.00  0.00     0.148 A 
ATOM     77  C   UNL A   1      39.826  36.007  38.317  1.00  0.00     0.002 A 
ATOM     78  C   UNL A   1      38.620  34.199  39.388  1.00  0.00     0.091 A 
ATOM     79  F   UNL A   1      38.306  32.151  38.205  1.00  0.00    -0.205 F 
ATOM     80  C   UNL A   1      39.170  35.490  39.431  1.00  0.00     0.022 A 
BRANCH  78  81
ATOM     81  S   UNL A   1      37.681  33.660  40.820  1.00  0.00     0.127 S 
ATOM     82  O   UNL A   1      37.535  34.905  41.568  1.00  0.00    -0.237 OA
ATOM     83  O   UNL A   1      36.450  33.162  40.203  1.00  0.00    -0.237 OA
ATOM     84  O   UNL A   1      38.493  32.628  41.453  1.00  0.00    -0.744 OA
ENDBRANCH  78  81
ENDBRANCH  50  74
BRANCH  62  85
ATOM     85  C   UNL A   1      43.978  28.916  35.441  1.00  0.00     0.023 A 
ATOM     86  C   UNL A   1      45.253  29.506  35.345  1.00  0.00     0.012 A 
ATOM     87  C   UNL A   1      43.790  27.807  36.291  1.00  0.00     0.148 A 
ATOM     88  C   UNL A   1      46.330  28.981  36.060  1.00  0.00     0.002 A 
ATOM     89  C   UNL A   1      44.854  27.324  37.042  1.00  0.00     0.091 A 
ATOM     90  F   UNL A   1      42.571  27.250  36.354  1.00  0.00    -0.205 F 
ATOM     91  C   UNL A   1      46.128  27.901  36.917  1.00  0.00     0.022 A 
BRANCH  89  92
ATOM     92  S   UNL A   1      44.664  26.008  38.248  1.00  0.00     0.127 S 
ATOM     93  O   UNL A   1      46.031  25.864  38.748  1.00  0.00    -0.237 OA
ATOM     94  O   UNL A   1      43.724  26.598  39.202  1.00  0.00    -0.237 OA
ATOM     95  O   UNL A   1      44.146  24.860  37.516  1.00  0.00    -0.744 OA
ENDBRANCH  89  92
ENDBRANCH  62  85
ENDBRANCH  36  37
ENDBRANCH  28  31
ENDBRANCH  26  27
ENDBRANCH  25  26
ENDBRANCH   1  25
TORSDOF 18
ENDMDL
MODEL 2
REMARK VINA RESULT:     -11.5      3.906      9.032
REMARK SMILES O=C(C[C@H]1C[N@@H+]([C@@H]2CC(=O)NC2=O)CCO1)NCCCCCCNC(=O)c1ccc(-c2c3nc(c(-c4cccc(S(=O)(=O)[O-])c4F)c4ccc([nH]4)c(-c4cccc(S(=O)(=O)[O-])c4F)c4nc(c(-c5cccc(S(=O)(=O)[O-])c5F)c5ccc2[nH]5)C=C4)C=C3)cc1
REMARK SMILES IDX 21 1 20 2 19 3 18 4 17 5 1 6 2 7 3 9 4 10 5 11 16 12 6 13
REMARK SMILES IDX 15 14 14 15 7 17 8 18 12 19 9 20 11 21 13 22 10 23 22 25
REMARK SMILES IDX 23 26 24 27 25 28 26 30 27 31 28 32 89 33 29 34 88 35 30 36
REMARK SMILES IDX 31 37 32 38 82 39 33 40 87 41 81 42 83 43 34 44 86 45 80 46
REMARK SMILES IDX 79 47 35 49 67 50 47 51 66 52 48 53 51 54 65 55 84 56 49 57
REMARK SMILES IDX 50 58 64 60 85 61 52 62 36 63 37 64 45 65 38 66 40 67 46 68
REMARK SMILES IDX 39 69 41 70 42 71 43 72 44 73 68 74 69 75 77 76 70 77 72 78
REMARK SMILES IDX 78 79 71 80 73 81 74 82 75 83 76 84 53 85 54 86 62 87 55 88
REMARK SMILES IDX 57 89 63 90 56 91 58 92 59 93 60 94 61 95
REMARK H PARENT 17 8 6 16 11 24 24 29 83 48 51 59
REMARK Flexibility Score: inf
ROOT
ATOM      1  C   UNL A   1      31.730  27.226  26.912  1.00  0.00     0.002 C 
ENDROOT
BRANCH   1   2
ATOM      2  C   UNL A   1      31.813  27.054  25.392  1.00  0.00     0.002 C 
BRANCH   2   3
ATOM      3  C   UNL A   1      30.462  26.966  24.670  1.00  0.00     0.021 C 
BRANCH   3   4
ATOM      4  C   UNL A   1      29.595  25.768  25.064  1.00  0.00     0.116 C 
BRANCH   4   5
ATOM      5  N   UNL A   1      30.339  24.527  24.969  1.00  0.00    -0.356 N 
ATOM      6  O   UNL A   1      30.243  24.034  27.210  1.00  0.00    -0.275 OA
ATOM      7  C   UNL A   1      30.676  23.801  26.088  1.00  0.00     0.222 C 
ATOM      8  H   UNL A   1      30.609  24.197  24.083  1.00  0.00     0.163 HD
BRANCH   7   9
ATOM      9  C   UNL A   1      31.766  22.783  25.852  1.00  0.00     0.138 C 
BRANCH   9  10
ATOM     10  C   UNL A   1      32.907  22.791  26.865  1.00  0.00     0.182 C 
ATOM     11  C   UNL A   1      33.621  21.423  27.023  1.00  0.00     0.295 C 
ATOM     12  O   UNL A   1      33.880  23.807  26.540  1.00  0.00    -0.366 OA
ATOM     13  N   UNL A   1      34.527  21.031  25.935  1.00  0.00    -0.320 N 
ATOM     14  C   UNL A   1      34.669  23.487  25.388  1.00  0.00     0.222 C 
ATOM     15  C   UNL A   1      35.393  22.139  25.530  1.00  0.00     0.291 C 
ATOM     16  H   UNL A   1      35.094  20.320  26.398  1.00  0.00     0.348 HD
BRANCH  13  17
ATOM     17  C   UNL A   1      34.109  20.093  24.884  1.00  0.00     0.284 C 
ATOM     18  C   UNL A   1      32.677  19.550  24.880  1.00  0.00     0.176 C 
ATOM     19  C   UNL A   1      34.971  18.835  24.824  1.00  0.00     0.285 C 
ATOM     20  C   UNL A   1      32.847  18.062  24.973  1.00  0.00     0.233 C 
ATOM     21  N   UNL A   1      34.161  17.748  24.921  1.00  0.00    -0.291 N 
ATOM     22  O   UNL A   1      36.186  18.780  24.732  1.00  0.00    -0.268 OA
ATOM     23  O   UNL A   1      31.936  17.255  25.078  1.00  0.00    -0.274 OA
ATOM     24  H   UNL A   1      34.498  16.825  24.950  1.00  0.00     0.173 HD
ENDBRANCH  13  17
ENDBRANCH   9  10
ENDBRANCH   7   9
ENDBRANCH   4   5
ENDBRANCH   3   4
ENDBRANCH   2   3
ENDBRANCH   1   2
BRANCH   1  25
ATOM     25  C   UNL A   1      32.049  28.632  27.422  1.00  0.00     0.021 C 
BRANCH  25  26
ATOM     26  C   UNL A   1      33.499  29.063  27.241  1.00  0.00     0.116 C 
BRANCH  26  27
ATOM     27  N   UNL A   1      33.667  30.505  27.362  1.00  0.00    -0.352 N 
ATOM     28  C   UNL A   1      34.699  31.212  27.930  1.00  0.00     0.251 C 
ATOM     29  H   UNL A   1      32.939  31.049  26.983  1.00  0.00     0.163 HD
ATOM     30  O   UNL A   1      34.593  32.422  28.108  1.00  0.00    -0.269 OA
BRANCH  28  31
ATOM     31  C   UNL A   1      35.930  30.504  28.347  1.00  0.00     0.039 A 
ATOM     32  C   UNL A   1      37.042  30.517  27.501  1.00  0.00     0.014 A 
ATOM     33  C   UNL A   1      35.991  29.843  29.577  1.00  0.00     0.014 A 
ATOM     34  C   UNL A   1      38.236  29.924  27.918  1.00  0.00     0.010 A 
ATOM     35  C   UNL A   1      37.202  29.322  30.021  1.00  0.00     0.010 A 
ATOM     36  C   UNL A   1      38.338  29.352  29.198  1.00  0.00    -0.014 A 
BRANCH  36  37
ATOM     37  C   UNL A   1      39.621  28.793  29.701  1.00  0.00     0.031 A 
ATOM     38  C   UNL A   1      40.353  29.478  30.824  1.00  0.00     0.074 A 
ATOM     39  C   UNL A   1      40.176  27.731  29.082  1.00  0.00     0.049 A 
ATOM     40  N   UNL A   1      41.521  29.193  31.341  1.00  0.00    -0.248 NA
ATOM     41  C   UNL A   1      39.702  30.652  31.434  1.00  0.00     0.031 C 
ATOM     42  C   UNL A   1      39.601  27.018  27.939  1.00  0.00     0.029 A 
ATOM     43  N   UNL A   1      41.367  27.084  29.307  1.00  0.00    -0.354 N 
ATOM     44  C   UNL A   1      41.767  30.175  32.293  1.00  0.00     0.074 A 
ATOM     45  C   UNL A   1      40.635  31.074  32.277  1.00  0.00     0.031 C 
ATOM     46  C   UNL A   1      40.436  26.036  27.563  1.00  0.00     0.029 A 
ATOM     47  C   UNL A   1      41.625  26.072  28.409  1.00  0.00     0.049 A 
ATOM     48  H   UNL A   1      41.979  27.320  30.041  1.00  0.00     0.167 HD
ATOM     49  C   UNL A   1      42.831  30.306  33.119  1.00  0.00     0.034 A 
ATOM     50  C   UNL A   1      42.706  25.278  28.268  1.00  0.00     0.034 A 
ATOM     51  C   UNL A   1      43.932  29.383  33.168  1.00  0.00     0.049 A 
ATOM     52  C   UNL A   1      43.861  25.436  29.221  1.00  0.00     0.074 A 
ATOM     53  C   UNL A   1      44.999  29.371  34.049  1.00  0.00     0.029 A 
ATOM     54  N   UNL A   1      44.118  28.323  32.297  1.00  0.00    -0.354 N 
ATOM     55  N   UNL A   1      43.993  26.264  30.229  1.00  0.00    -0.248 NA
ATOM     56  C   UNL A   1      45.004  24.529  29.040  1.00  0.00     0.031 C 
ATOM     57  C   UNL A   1      45.856  28.332  33.680  1.00  0.00     0.029 A 
ATOM     58  C   UNL A   1      45.297  27.666  32.603  1.00  0.00     0.049 A 
ATOM     59  H   UNL A   1      43.504  28.075  31.569  1.00  0.00     0.167 HD
ATOM     60  C   UNL A   1      45.206  25.944  30.829  1.00  0.00     0.074 A 
ATOM     61  C   UNL A   1      45.764  24.836  30.082  1.00  0.00     0.031 C 
ATOM     62  C   UNL A   1      45.810  26.522  31.895  1.00  0.00     0.034 A 
BRANCH  49  63
ATOM     63  C   UNL A   1      42.862  31.476  34.065  1.00  0.00     0.023 A 
ATOM     64  C   UNL A   1      43.373  32.717  33.634  1.00  0.00     0.012 A 
ATOM     65  C   UNL A   1      42.281  31.373  35.345  1.00  0.00     0.148 A 
ATOM     66  C   UNL A   1      43.325  33.832  34.471  1.00  0.00     0.002 A 
ATOM     67  C   UNL A   1      42.193  32.499  36.153  1.00  0.00     0.091 A 
ATOM     68  F   UNL A   1      41.817  30.179  35.741  1.00  0.00    -0.205 F 
ATOM     69  C   UNL A   1      42.723  33.726  35.722  1.00  0.00     0.022 A 
BRANCH  67  70
ATOM     70  S   UNL A   1      41.359  32.489  37.744  1.00  0.00     0.127 S 
ATOM     71  O   UNL A   1      41.417  33.903  38.115  1.00  0.00    -0.237 OA
ATOM     72  O   UNL A   1      40.025  32.007  37.387  1.00  0.00    -0.237 OA
ATOM     73  O   UNL A   1      42.126  31.593  38.599  1.00  0.00    -0.744 OA
ENDBRANCH  67  70
ENDBRANCH  49  63
BRANCH  50  74
ATOM     74  C   UNL A   1      42.747  24.231  27.206  1.00  0.00     0.023 A 
ATOM     75  C   UNL A   1      43.403  24.504  25.988  1.00  0.00     0.012 A 
ATOM     76  C   UNL A   1      42.121  22.982  27.379  1.00  0.00     0.148 A 
ATOM     77  C   UNL A   1      43.387  23.577  24.946  1.00  0.00     0.002 A 
ATOM     78  C   UNL A   1      42.160  22.039  26.358  1.00  0.00     0.091 A 
ATOM     79  F   UNL A   1      41.491  22.743  28.538  1.00  0.00    -0.205 F 
ATOM     80  C   UNL A   1      42.772  22.343  25.132  1.00  0.00     0.022 A 
BRANCH  78  81
ATOM     81  S   UNL A   1      41.505  20.379  26.559  1.00  0.00     0.127 S 
ATOM     82  O   UNL A   1      42.083  19.689  25.409  1.00  0.00    -0.237 OA
ATOM     83  O   UNL A   1      42.060  19.990  27.856  1.00  0.00    -0.237 OA
ATOM     84  O   UNL A   1      40.055  20.528  26.549  1.00  0.00    -0.744 OA
ENDBRANCH  78  81
ENDBRANCH  50  74
BRANCH  62  85
ATOM     85  C   UNL A   1      47.111  25.936  32.375  1.00  0.00     0.023 A 
ATOM     86  C   UNL A   1      47.129  25.048  33.468  1.00  0.00     0.012 A 
ATOM     87  C   UNL A   1      48.308  26.201  31.678  1.00  0.00     0.148 A 
ATOM     88  C   UNL A   1      48.325  24.460  33.881  1.00  0.00     0.002 A 
ATOM     89  C   UNL A   1      49.484  25.569  32.060  1.00  0.00     0.091 A 
ATOM     90  F   UNL A   1      48.271  27.062  30.650  1.00  0.00    -0.205 F 
ATOM     91  C   UNL A   1      49.497  24.709  33.170  1.00  0.00     0.022 A 
BRANCH  89  92
ATOM     92  S   UNL A   1      51.016  25.746  31.141  1.00  0.00     0.127 S 
ATOM     93  O   UNL A   1      51.896  24.817  31.848  1.00  0.00    -0.237 OA
ATOM     94  O   UNL A   1      50.623  25.313  29.800  1.00  0.00    -0.237 OA
ATOM     95  O   UNL A   1      51.387  27.151  31.240  1.00  0.00    -0.744 OA
ENDBRANCH  89  92
ENDBRANCH  62  85
ENDBRANCH  36  37
ENDBRANCH  28  31
ENDBRANCH  26  27
ENDBRANCH  25  26
ENDBRANCH   1  25
TORSDOF 18
ENDMDL
MODEL 3
REMARK VINA RESULT:     -11.2      3.453      8.782
REMARK SMILES O=C(C[C@H]1C[N@@H+]([C@@H]2CC(=O)NC2=O)CCO1)NCCCCCCNC(=O)c1ccc(-c2c3nc(c(-c4cccc(S(=O)(=O)[O-])c4F)c4ccc([nH]4)c(-c4cccc(S(=O)(=O)[O-])c4F)c4nc(c(-c5cccc(S(=O)(=O)[O-])c5F)c5ccc2[nH]5)C=C4)C=C3)cc1
REMARK SMILES IDX 21 1 20 2 19 3 18 4 17 5 1 6 2 7 3 9 4 10 5 11 16 12 6 13
REMARK SMILES IDX 15 14 14 15 7 17 8 18 12 19 9 20 11 21 13 22 10 23 22 25
REMARK SMILES IDX 23 26 24 27 25 28 26 30 27 31 28 32 89 33 29 34 88 35 30 36
REMARK SMILES IDX 31 37 32 38 82 39 33 40 87 41 81 42 83 43 34 44 86 45 80 46
REMARK SMILES IDX 79 47 35 49 67 50 47 51 66 52 48 53 51 54 65 55 84 56 49 57
REMARK SMILES IDX 50 58 64 60 85 61 52 62 36 63 37 64 45 65 38 66 40 67 46 68
REMARK SMILES IDX 39 69 41 70 42 71 43 72 44 73 68 74 69 75 77 76 70 77 72 78
REMARK SMILES IDX 78 79 71 80 73 81 74 82 75 83 76 84 53 85 54 86 62 87 55 88
REMARK SMILES IDX 57 89 63 90 56 91 58 92 59 93 60 94 61 95
REMARK H PARENT 17 8 6 16 11 24 24 29 83 48 51 59
REMARK Flexibility Score: inf
ROOT
ATOM      1  C   UNL A   1      32.972  29.074  24.595  1.00  0.00     0.002 C 
ENDROOT
BRANCH   1   2
ATOM      2  C   UNL A   1      31.523  28.622  24.799  1.00  0.00     0.002 C 
BRANCH   2   3
ATOM      3  C   UNL A   1      31.057  27.484  23.880  1.00  0.00     0.021 C 
BRANCH   3   4
ATOM      4  C   UNL A   1      30.997  26.105  24.539  1.00  0.00     0.116 C 
BRANCH   4   5
ATOM      5  N   UNL A   1      32.234  25.374  24.343  1.00  0.00    -0.356 N 
ATOM      6  O   UNL A   1      32.834  25.345  26.559  1.00  0.00    -0.275 OA
ATOM      7  C   UNL A   1      33.100  25.130  25.383  1.00  0.00     0.222 C 
ATOM      8  H   UNL A   1      32.457  25.044  23.444  1.00  0.00     0.163 HD
BRANCH   7   9
ATOM      9  C   UNL A   1      34.487  24.726  24.943  1.00  0.00     0.138 C 
BRANCH   9  10
ATOM     10  C   UNL A   1      35.353  24.066  26.012  1.00  0.00     0.182 C 
ATOM     11  C   UNL A   1      34.913  22.625  26.380  1.00  0.00     0.295 C 
ATOM     12  O   UNL A   1      36.743  24.060  25.621  1.00  0.00    -0.366 OA
ATOM     13  N   UNL A   1      35.236  21.575  25.404  1.00  0.00    -0.320 N 
ATOM     14  C   UNL A   1      37.030  23.135  24.567  1.00  0.00     0.222 C 
ATOM     15  C   UNL A   1      36.611  21.698  24.917  1.00  0.00     0.291 C 
ATOM     16  H   UNL A   1      35.165  20.739  25.984  1.00  0.00     0.348 HD
BRANCH  13  17
ATOM     17  C   UNL A   1      34.235  21.071  24.455  1.00  0.00     0.284 C 
ATOM     18  C   UNL A   1      33.617  22.025  23.428  1.00  0.00     0.176 C 
ATOM     19  C   UNL A   1      33.022  20.443  25.136  1.00  0.00     0.285 C 
ATOM     20  C   UNL A   1      32.145  21.974  23.715  1.00  0.00     0.233 C 
ATOM     21  N   UNL A   1      31.899  21.053  24.674  1.00  0.00    -0.291 N 
ATOM     22  O   UNL A   1      33.027  19.560  25.979  1.00  0.00    -0.268 OA
ATOM     23  O   UNL A   1      31.296  22.659  23.166  1.00  0.00    -0.274 OA
ATOM     24  H   UNL A   1      30.997  20.845  25.005  1.00  0.00     0.173 HD
ENDBRANCH  13  17
ENDBRANCH   9  10
ENDBRANCH   7   9
ENDBRANCH   4   5
ENDBRANCH   3   4
ENDBRANCH   2   3
ENDBRANCH   1   2
BRANCH   1  25
ATOM     25  C   UNL A   1      33.961  28.573  25.647  1.00  0.00     0.021 C 
BRANCH  25  26
ATOM     26  C   UNL A   1      33.582  28.899  27.087  1.00  0.00     0.116 C 
BRANCH  26  27
ATOM     27  N   UNL A   1      33.660  30.326  27.370  1.00  0.00    -0.352 N 
ATOM     28  C   UNL A   1      34.626  31.019  28.059  1.00  0.00     0.251 C 
ATOM     29  H   UNL A   1      32.917  30.869  27.020  1.00  0.00     0.163 HD
ATOM     30  O   UNL A   1      34.442  32.195  28.362  1.00  0.00    -0.269 OA
BRANCH  28  31
ATOM     31  C   UNL A   1      35.879  30.337  28.452  1.00  0.00     0.039 A 
ATOM     32  C   UNL A   1      36.991  30.418  27.610  1.00  0.00     0.014 A 
ATOM     33  C   UNL A   1      35.959  29.633  29.656  1.00  0.00     0.014 A 
ATOM     34  C   UNL A   1      38.203  29.849  28.008  1.00  0.00     0.010 A 
ATOM     35  C   UNL A   1      37.186  29.134  30.084  1.00  0.00     0.010 A 
ATOM     36  C   UNL A   1      38.321  29.233  29.266  1.00  0.00    -0.014 A 
BRANCH  36  37
ATOM     37  C   UNL A   1      39.621  28.698  29.751  1.00  0.00     0.031 A 
ATOM     38  C   UNL A   1      40.364  29.405  30.853  1.00  0.00     0.074 A 
ATOM     39  C   UNL A   1      40.180  27.636  29.135  1.00  0.00     0.049 A 
ATOM     40  N   UNL A   1      41.545  29.142  31.351  1.00  0.00    -0.248 NA
ATOM     41  C   UNL A   1      39.709  30.577  31.462  1.00  0.00     0.031 C 
ATOM     42  C   UNL A   1      39.593  26.903  28.010  1.00  0.00     0.029 A 
ATOM     43  N   UNL A   1      41.384  27.008  29.344  1.00  0.00    -0.354 N 
ATOM     44  C   UNL A   1      41.795  30.139  32.288  1.00  0.00     0.074 A 
ATOM     45  C   UNL A   1      40.650  31.021  32.282  1.00  0.00     0.031 C 
ATOM     46  C   UNL A   1      40.435  25.928  27.630  1.00  0.00     0.029 A 
ATOM     47  C   UNL A   1      41.639  25.989  28.453  1.00  0.00     0.049 A 
ATOM     48  H   UNL A   1      42.005  27.261  30.064  1.00  0.00     0.167 HD
ATOM     49  C   UNL A   1      42.872  30.294  33.092  1.00  0.00     0.034 A 
ATOM     50  C   UNL A   1      42.728  25.209  28.301  1.00  0.00     0.034 A 
ATOM     51  C   UNL A   1      43.986  29.386  33.131  1.00  0.00     0.049 A 
ATOM     52  C   UNL A   1      43.898  25.394  29.231  1.00  0.00     0.074 A 
ATOM     53  C   UNL A   1      45.070  29.399  33.992  1.00  0.00     0.029 A 
ATOM     54  N   UNL A   1      44.172  28.319  32.269  1.00  0.00    -0.354 N 
ATOM     55  N   UNL A   1      44.037  26.235  30.227  1.00  0.00    -0.248 NA
ATOM     56  C   UNL A   1      45.051  24.501  29.039  1.00  0.00     0.031 C 
ATOM     57  C   UNL A   1      45.935  28.368  33.619  1.00  0.00     0.029 A 
ATOM     58  C   UNL A   1      45.365  27.682  32.560  1.00  0.00     0.049 A 
ATOM     59  H   UNL A   1      43.548  28.054  31.555  1.00  0.00     0.167 HD
ATOM     60  C   UNL A   1      45.266  25.939  30.807  1.00  0.00     0.074 A 
ATOM     61  C   UNL A   1      45.825  24.830  30.063  1.00  0.00     0.031 C 
ATOM     62  C   UNL A   1      45.881  26.538  31.856  1.00  0.00     0.034 A 
BRANCH  49  63
ATOM     63  C   UNL A   1      42.904  31.475  34.025  1.00  0.00     0.023 A 
ATOM     64  C   UNL A   1      43.408  32.713  33.576  1.00  0.00     0.012 A 
ATOM     65  C   UNL A   1      42.331  31.385  35.309  1.00  0.00     0.148 A 
ATOM     66  C   UNL A   1      43.361  33.837  34.400  1.00  0.00     0.002 A 
ATOM     67  C   UNL A   1      42.244  32.520  36.104  1.00  0.00     0.091 A 
ATOM     68  F   UNL A   1      41.873  30.194  35.721  1.00  0.00    -0.205 F 
ATOM     69  C   UNL A   1      42.767  33.744  35.656  1.00  0.00     0.022 A 
BRANCH  67  70
ATOM     70  S   UNL A   1      41.418  32.525  37.700  1.00  0.00     0.127 S 
ATOM     71  O   UNL A   1      41.521  33.934  38.079  1.00  0.00    -0.237 OA
ATOM     72  O   UNL A   1      40.068  32.086  37.348  1.00  0.00    -0.237 OA
ATOM     73  O   UNL A   1      42.162  31.601  38.545  1.00  0.00    -0.744 OA
ENDBRANCH  67  70
ENDBRANCH  49  63
BRANCH  50  74
ATOM     74  C   UNL A   1      42.765  24.151  27.250  1.00  0.00     0.023 A 
ATOM     75  C   UNL A   1      43.391  24.420  26.016  1.00  0.00     0.012 A 
ATOM     76  C   UNL A   1      42.162  22.894  27.450  1.00  0.00     0.148 A 
ATOM     77  C   UNL A   1      43.368  23.481  24.985  1.00  0.00     0.002 A 
ATOM     78  C   UNL A   1      42.196  21.940  26.440  1.00  0.00     0.091 A 
ATOM     79  F   UNL A   1      41.560  22.658  28.624  1.00  0.00    -0.205 F 
ATOM     80  C   UNL A   1      42.777  22.239  25.198  1.00  0.00     0.022 A 
BRANCH  78  81
ATOM     81  S   UNL A   1      41.571  20.272  26.673  1.00  0.00     0.127 S 
ATOM     82  O   UNL A   1      41.950  19.633  25.415  1.00  0.00    -0.237 OA
ATOM     83  O   UNL A   1      42.328  19.827  27.844  1.00  0.00    -0.237 OA
ATOM     84  O   UNL A   1      40.140  20.421  26.906  1.00  0.00    -0.744 OA
ENDBRANCH  78  81
ENDBRANCH  50  74
BRANCH  62  85
ATOM     85  C   UNL A   1      47.198  25.975  32.318  1.00  0.00     0.023 A 
ATOM     86  C   UNL A   1      48.406  26.460  31.780  1.00  0.00     0.012 A 
ATOM     87  C   UNL A   1      47.237  25.020  33.355  1.00  0.00     0.148 A 
ATOM     88  C   UNL A   1      49.631  25.980  32.244  1.00  0.00     0.002 A 
ATOM     89  C   UNL A   1      48.460  24.588  33.851  1.00  0.00     0.091 A 
ATOM     90  F   UNL A   1      46.075  24.559  33.842  1.00  0.00    -0.205 F 
ATOM     91  C   UNL A   1      49.658  25.057  33.287  1.00  0.00     0.022 A 
BRANCH  89  92
ATOM     92  S   UNL A   1      48.593  23.483  35.260  1.00  0.00     0.127 S 
ATOM     93  O   UNL A   1      50.043  23.358  35.403  1.00  0.00    -0.237 OA
ATOM     94  O   UNL A   1      47.940  24.254  36.319  1.00  0.00    -0.237 OA
ATOM     95  O   UNL A   1      47.898  22.260  34.882  1.00  0.00    -0.744 OA
ENDBRANCH  89  92
ENDBRANCH  62  85
ENDBRANCH  36  37
ENDBRANCH  28  31
ENDBRANCH  26  27
ENDBRANCH  25  26
ENDBRANCH   1  25
TORSDOF 18
ENDMDL
