MODEL 1
REMARK VINA RESULT:     -11.6      0.000      0.000
REMARK SMILES Cc1cc(C(=O)N[C@H](CC(C)C)C(=O)NCCCCCCNC(=O)c2ccc(-c3c4nc(c(-c5cccc(S(=O)(=O)[O-])c5F)c5ccc([nH]5)c(-c5cccc(S(=O)(=O)[O-])c5F)c5nc(c(-c6cccc(S(=O)(=O)[O-])c6F)c6ccc3[nH]6)C=C5)C=C4)cc2)sc1Br
REMARK SMILES IDX 19 1 18 2 17 3 16 4 15 5 13 6 14 7 8 9 7 10 5 11 6 12 4 14
REMARK SMILES IDX 1 15 2 16 3 17 89 18 88 19 90 20 9 21 10 22 11 23 12 24
REMARK SMILES IDX 20 25 21 26 22 27 23 28 24 30 25 31 26 32 87 33 27 34 86 35
REMARK SMILES IDX 28 36 29 37 30 38 80 39 31 40 85 41 79 42 81 43 32 44 84 45
REMARK SMILES IDX 78 46 77 47 33 49 65 50 45 51 64 52 46 53 49 54 63 55 82 56
REMARK SMILES IDX 47 57 48 58 62 60 83 61 50 62 34 63 35 64 43 65 36 66 38 67
REMARK SMILES IDX 44 68 37 69 39 70 40 71 41 72 42 73 66 74 67 75 75 76 68 77
REMARK SMILES IDX 70 78 76 79 69 80 71 81 72 82 73 83 74 84 51 85 52 86 60 87
REMARK SMILES IDX 53 88 55 89 61 90 54 91 56 92 57 93 58 94 59 95
REMARK H PARENT 15 8 7 13 22 29 81 48 49 59
REMARK Flexibility Score: inf
ROOT
ATOM      1  C   UNL A   1      36.546  20.408  24.786  1.00  0.00     0.002 C 
ENDROOT
BRANCH   1   2
ATOM      2  C   UNL A   1      36.906  21.860  24.437  1.00  0.00     0.002 C 
BRANCH   2   3
ATOM      3  C   UNL A   1      35.754  22.741  23.942  1.00  0.00     0.021 C 
BRANCH   3   4
ATOM      4  C   UNL A   1      35.211  23.700  24.997  1.00  0.00     0.116 C 
BRANCH   4   5
ATOM      5  N   UNL A   1      35.088  23.036  26.283  1.00  0.00    -0.354 N 
ATOM      6  C   UNL A   1      34.107  22.231  26.783  1.00  0.00     0.242 C 
ATOM      7  O   UNL A   1      34.240  21.814  27.938  1.00  0.00    -0.273 OA
ATOM      8  H   UNL A   1      35.841  23.194  26.899  1.00  0.00     0.163 HD
BRANCH   6   9
ATOM      9  C   UNL A   1      32.954  21.733  25.892  1.00  0.00     0.171 C 
BRANCH   9  10
ATOM     10  N   UNL A   1      31.739  22.162  26.593  1.00  0.00    -0.340 N 
ATOM     11  C   UNL A   1      31.111  23.380  26.680  1.00  0.00     0.262 C 
ATOM     12  O   UNL A   1      30.166  23.426  27.473  1.00  0.00    -0.268 OA
ATOM     13  H   UNL A   1      31.291  21.443  27.094  1.00  0.00     0.164 HD
BRANCH  11  14
ATOM     14  C   UNL A   1      31.491  24.505  25.832  1.00  0.00     0.093 A 
ATOM     15  C   UNL A   1      33.620  27.411  24.720  1.00  0.00     0.046 C 
ATOM     16  C   UNL A   1      32.584  26.341  24.823  1.00  0.00    -0.025 A 
ATOM     17  C   UNL A   1      32.352  25.573  26.016  1.00  0.00     0.030 A 
ATOM     18  C   UNL A   1      31.713  25.936  23.837  1.00  0.00     0.074 A 
ATOM     19  S   UNL A   1      30.754  24.615  24.278  1.00  0.00    -0.123 S 
ATOM     20  Br  UNL A   1      31.571  26.742  22.146  1.00  0.00    -0.039 Br
ENDBRANCH  11  14
ENDBRANCH   9  10
BRANCH   9  21
ATOM     21  C   UNL A   1      33.004  20.251  25.486  1.00  0.00     0.038 C 
BRANCH  21  22
ATOM     22  C   UNL A   1      32.299  19.931  24.151  1.00  0.00    -0.015 C 
ATOM     23  C   UNL A   1      32.426  21.053  23.117  1.00  0.00     0.007 C 
ATOM     24  C   UNL A   1      32.852  18.635  23.554  1.00  0.00     0.007 C 
ENDBRANCH  21  22
ENDBRANCH   9  21
ENDBRANCH   6   9
ENDBRANCH   4   5
ENDBRANCH   3   4
ENDBRANCH   2   3
ENDBRANCH   1   2
BRANCH   1  25
ATOM     25  C   UNL A   1      37.712  19.432  25.003  1.00  0.00     0.021 C 
BRANCH  25  26
ATOM     26  C   UNL A   1      38.986  20.074  25.532  1.00  0.00     0.116 C 
BRANCH  26  27
ATOM     27  N   UNL A   1      40.061  19.099  25.752  1.00  0.00    -0.352 N 
ATOM     28  C   UNL A   1      41.407  19.327  26.000  1.00  0.00     0.251 C 
ATOM     29  H   UNL A   1      39.789  18.153  25.720  1.00  0.00     0.163 HD
ATOM     30  O   UNL A   1      42.239  18.461  25.795  1.00  0.00    -0.269 OA
BRANCH  28  31
ATOM     31  C   UNL A   1      41.803  20.640  26.538  1.00  0.00     0.039 A 
ATOM     32  C   UNL A   1      42.426  21.622  25.763  1.00  0.00     0.014 A 
ATOM     33  C   UNL A   1      41.491  20.880  27.867  1.00  0.00     0.014 A 
ATOM     34  C   UNL A   1      42.664  22.870  26.339  1.00  0.00     0.010 A 
ATOM     35  C   UNL A   1      41.482  22.158  28.334  1.00  0.00     0.010 A 
ATOM     36  C   UNL A   1      42.178  23.126  27.628  1.00  0.00    -0.014 A 
BRANCH  36  37
ATOM     37  C   UNL A   1      42.319  24.415  28.283  1.00  0.00     0.031 A 
ATOM     38  C   UNL A   1      41.182  25.342  28.067  1.00  0.00     0.074 A 
ATOM     39  C   UNL A   1      43.270  24.634  29.219  1.00  0.00     0.049 A 
ATOM     40  N   UNL A   1      41.177  26.423  27.361  1.00  0.00    -0.248 NA
ATOM     41  C   UNL A   1      39.854  24.942  28.558  1.00  0.00     0.031 C 
ATOM     42  C   UNL A   1      44.235  23.672  29.780  1.00  0.00     0.029 A 
ATOM     43  N   UNL A   1      43.464  25.727  29.999  1.00  0.00    -0.354 N 
ATOM     44  C   UNL A   1      39.913  26.974  27.547  1.00  0.00     0.074 A 
ATOM     45  C   UNL A   1      39.088  25.918  28.069  1.00  0.00     0.031 C 
ATOM     46  C   UNL A   1      44.696  24.132  30.963  1.00  0.00     0.029 A 
ATOM     47  C   UNL A   1      44.215  25.485  31.146  1.00  0.00     0.049 A 
ATOM     48  H   UNL A   1      43.104  26.615  29.773  1.00  0.00     0.167 HD
ATOM     49  C   UNL A   1      39.729  28.324  27.535  1.00  0.00     0.034 A 
ATOM     50  C   UNL A   1      44.382  26.327  32.193  1.00  0.00     0.034 A 
ATOM     51  C   UNL A   1      40.893  29.007  27.023  1.00  0.00     0.049 A 
ATOM     52  C   UNL A   1      44.064  27.689  31.702  1.00  0.00     0.074 A 
ATOM     53  C   UNL A   1      41.625  28.952  25.853  1.00  0.00     0.029 A 
ATOM     54  N   UNL A   1      41.709  29.614  27.949  1.00  0.00    -0.354 N 
ATOM     55  N   UNL A   1      44.766  28.305  30.791  1.00  0.00    -0.248 NA
ATOM     56  C   UNL A   1      42.707  28.176  31.885  1.00  0.00     0.031 C 
ATOM     57  C   UNL A   1      42.985  29.073  26.268  1.00  0.00     0.029 A 
ATOM     58  C   UNL A   1      43.002  29.272  27.650  1.00  0.00     0.049 A 
ATOM     59  H   UNL A   1      41.417  30.191  28.692  1.00  0.00     0.167 HD
ATOM     60  C   UNL A   1      43.816  28.915  29.980  1.00  0.00     0.074 A 
ATOM     61  C   UNL A   1      42.583  28.900  30.768  1.00  0.00     0.031 C 
ATOM     62  C   UNL A   1      44.041  29.098  28.645  1.00  0.00     0.034 A 
BRANCH  49  63
ATOM     63  C   UNL A   1      38.683  29.070  28.336  1.00  0.00     0.023 A 
ATOM     64  C   UNL A   1      37.861  29.976  27.628  1.00  0.00     0.012 A 
ATOM     65  C   UNL A   1      38.645  29.141  29.747  1.00  0.00     0.148 A 
ATOM     66  C   UNL A   1      37.092  30.940  28.288  1.00  0.00     0.002 A 
ATOM     67  C   UNL A   1      37.814  30.046  30.400  1.00  0.00     0.091 A 
ATOM     68  F   UNL A   1      39.510  28.439  30.482  1.00  0.00    -0.205 F 
ATOM     69  C   UNL A   1      37.061  30.972  29.675  1.00  0.00     0.022 A 
BRANCH  67  70
ATOM     70  S   UNL A   1      37.704  30.092  32.193  1.00  0.00     0.127 S 
ATOM     71  O   UNL A   1      37.038  31.371  32.411  1.00  0.00    -0.237 OA
ATOM     72  O   UNL A   1      36.888  28.909  32.472  1.00  0.00    -0.237 OA
ATOM     73  O   UNL A   1      39.079  29.992  32.669  1.00  0.00    -0.744 OA
ENDBRANCH  67  70
ENDBRANCH  49  63
BRANCH  50  74
ATOM     74  C   UNL A   1      44.542  26.019  33.632  1.00  0.00     0.023 A 
ATOM     75  C   UNL A   1      45.831  25.985  34.199  1.00  0.00     0.012 A 
ATOM     76  C   UNL A   1      43.430  26.039  34.504  1.00  0.00     0.148 A 
ATOM     77  C   UNL A   1      46.008  26.006  35.589  1.00  0.00     0.002 A 
ATOM     78  C   UNL A   1      43.609  26.056  35.885  1.00  0.00     0.091 A 
ATOM     79  F   UNL A   1      42.200  26.134  33.980  1.00  0.00    -0.205 F 
ATOM     80  C   UNL A   1      44.899  26.053  36.430  1.00  0.00     0.022 A 
BRANCH  78  81
ATOM     81  S   UNL A   1      42.225  26.144  37.031  1.00  0.00     0.127 S 
ATOM     82  O   UNL A   1      41.602  24.831  36.859  1.00  0.00    -0.237 OA
ATOM     83  O   UNL A   1      42.901  26.337  38.311  1.00  0.00    -0.237 OA
ATOM     84  O   UNL A   1      41.399  27.259  36.583  1.00  0.00    -0.744 OA
ENDBRANCH  78  81
ENDBRANCH  50  74
BRANCH  62  85
ATOM     85  C   UNL A   1      45.432  28.851  28.113  1.00  0.00     0.023 A 
ATOM     86  C   UNL A   1      46.473  29.797  28.241  1.00  0.00     0.012 A 
ATOM     87  C   UNL A   1      45.744  27.565  27.641  1.00  0.00     0.148 A 
ATOM     88  C   UNL A   1      47.786  29.474  27.885  1.00  0.00     0.002 A 
ATOM     89  C   UNL A   1      47.057  27.233  27.331  1.00  0.00     0.091 A 
ATOM     90  F   UNL A   1      44.747  26.674  27.531  1.00  0.00    -0.205 F 
ATOM     91  C   UNL A   1      48.081  28.188  27.442  1.00  0.00     0.022 A 
BRANCH  89  92
ATOM     92  S   UNL A   1      47.519  25.561  26.877  1.00  0.00     0.127 S 
ATOM     93  O   UNL A   1      48.960  25.688  26.671  1.00  0.00    -0.237 OA
ATOM     94  O   UNL A   1      47.136  24.795  28.065  1.00  0.00    -0.237 OA
ATOM     95  O   UNL A   1      46.741  25.239  25.687  1.00  0.00    -0.744 OA
ENDBRANCH  89  92
ENDBRANCH  62  85
ENDBRANCH  36  37
ENDBRANCH  28  31
ENDBRANCH  26  27
ENDBRANCH  25  26
ENDBRANCH   1  25
TORSDOF 20
ENDMDL
MODEL 2
REMARK VINA RESULT:     -10.7      1.549      2.612
REMARK SMILES Cc1cc(C(=O)N[C@H](CC(C)C)C(=O)NCCCCCCNC(=O)c2ccc(-c3c4nc(c(-c5cccc(S(=O)(=O)[O-])c5F)c5ccc([nH]5)c(-c5cccc(S(=O)(=O)[O-])c5F)c5nc(c(-c6cccc(S(=O)(=O)[O-])c6F)c6ccc3[nH]6)C=C5)C=C4)cc2)sc1Br
REMARK SMILES IDX 19 1 18 2 17 3 16 4 15 5 13 6 14 7 8 9 7 10 5 11 6 12 4 14
REMARK SMILES IDX 1 15 2 16 3 17 89 18 88 19 90 20 9 21 10 22 11 23 12 24
REMARK SMILES IDX 20 25 21 26 22 27 23 28 24 30 25 31 26 32 87 33 27 34 86 35
REMARK SMILES IDX 28 36 29 37 30 38 80 39 31 40 85 41 79 42 81 43 32 44 84 45
REMARK SMILES IDX 78 46 77 47 33 49 65 50 45 51 64 52 46 53 49 54 63 55 82 56
REMARK SMILES IDX 47 57 48 58 62 60 83 61 50 62 34 63 35 64 43 65 36 66 38 67
REMARK SMILES IDX 44 68 37 69 39 70 40 71 41 72 42 73 66 74 67 75 75 76 68 77
REMARK SMILES IDX 70 78 76 79 69 80 71 81 72 82 73 83 74 84 51 85 52 86 60 87
REMARK SMILES IDX 53 88 55 89 61 90 54 91 56 92 57 93 58 94 59 95
REMARK H PARENT 15 8 7 13 22 29 81 48 49 59
REMARK Flexibility Score: inf
ROOT
ATOM      1  C   UNL A   1      36.275  19.879  25.020  1.00  0.00     0.002 C 
ENDROOT
BRANCH   1   2
ATOM      2  C   UNL A   1      35.502  21.138  24.594  1.00  0.00     0.002 C 
BRANCH   2   3
ATOM      3  C   UNL A   1      36.208  22.477  24.832  1.00  0.00     0.021 C 
BRANCH   3   4
ATOM      4  C   UNL A   1      35.311  23.694  24.623  1.00  0.00     0.116 C 
BRANCH   4   5
ATOM      5  N   UNL A   1      33.915  23.347  24.826  1.00  0.00    -0.354 N 
ATOM      6  C   UNL A   1      32.824  24.130  25.062  1.00  0.00     0.242 C 
ATOM      7  O   UNL A   1      31.738  23.567  25.229  1.00  0.00    -0.273 OA
ATOM      8  H   UNL A   1      33.724  22.381  24.786  1.00  0.00     0.163 HD
BRANCH   6   9
ATOM      9  C   UNL A   1      32.912  25.665  24.971  1.00  0.00     0.171 C 
BRANCH   9  10
ATOM     10  N   UNL A   1      33.417  25.924  23.618  1.00  0.00    -0.340 N 
ATOM     11  C   UNL A   1      32.850  26.540  22.529  1.00  0.00     0.262 C 
ATOM     12  O   UNL A   1      33.509  26.470  21.487  1.00  0.00    -0.268 OA
ATOM     13  H   UNL A   1      34.331  25.594  23.463  1.00  0.00     0.164 HD
BRANCH  11  14
ATOM     14  C   UNL A   1      31.601  27.286  22.630  1.00  0.00     0.093 A 
ATOM     15  C   UNL A   1      27.954  27.801  23.436  1.00  0.00     0.046 C 
ATOM     16  C   UNL A   1      29.383  27.988  23.044  1.00  0.00    -0.025 A 
ATOM     17  C   UNL A   1      30.281  26.897  22.778  1.00  0.00     0.030 A 
ATOM     18  C   UNL A   1      30.044  29.183  22.875  1.00  0.00     0.074 A 
ATOM     19  S   UNL A   1      31.692  29.006  22.539  1.00  0.00    -0.123 S 
ATOM     20  Br  UNL A   1      29.235  30.873  22.999  1.00  0.00    -0.039 Br
ENDBRANCH  11  14
ENDBRANCH   9  10
BRANCH   9  21
ATOM     21  C   UNL A   1      33.665  26.369  26.112  1.00  0.00     0.038 C 
BRANCH  21  22
ATOM     22  C   UNL A   1      33.352  27.873  26.252  1.00  0.00    -0.015 C 
ATOM     23  C   UNL A   1      32.060  28.152  27.024  1.00  0.00     0.007 C 
ATOM     24  C   UNL A   1      34.512  28.597  26.939  1.00  0.00     0.007 C 
ENDBRANCH  21  22
ENDBRANCH   9  21
ENDBRANCH   6   9
ENDBRANCH   4   5
ENDBRANCH   3   4
ENDBRANCH   2   3
ENDBRANCH   1   2
BRANCH   1  25
ATOM     25  C   UNL A   1      37.750  19.789  24.599  1.00  0.00     0.021 C 
BRANCH  25  26
ATOM     26  C   UNL A   1      38.744  20.163  25.687  1.00  0.00     0.116 C 
BRANCH  26  27
ATOM     27  N   UNL A   1      39.822  19.177  25.831  1.00  0.00    -0.352 N 
ATOM     28  C   UNL A   1      41.180  19.390  26.016  1.00  0.00     0.251 C 
ATOM     29  H   UNL A   1      39.542  18.233  25.791  1.00  0.00     0.163 HD
ATOM     30  O   UNL A   1      41.995  18.524  25.751  1.00  0.00    -0.269 OA
BRANCH  28  31
ATOM     31  C   UNL A   1      41.612  20.688  26.564  1.00  0.00     0.039 A 
ATOM     32  C   UNL A   1      42.288  21.646  25.804  1.00  0.00     0.014 A 
ATOM     33  C   UNL A   1      41.279  20.940  27.886  1.00  0.00     0.014 A 
ATOM     34  C   UNL A   1      42.559  22.885  26.385  1.00  0.00     0.010 A 
ATOM     35  C   UNL A   1      41.307  22.218  28.353  1.00  0.00     0.010 A 
ATOM     36  C   UNL A   1      42.054  23.158  27.664  1.00  0.00    -0.014 A 
BRANCH  36  37
ATOM     37  C   UNL A   1      42.228  24.442  28.322  1.00  0.00     0.031 A 
ATOM     38  C   UNL A   1      41.086  25.374  28.161  1.00  0.00     0.074 A 
ATOM     39  C   UNL A   1      43.218  24.650  29.219  1.00  0.00     0.049 A 
ATOM     40  N   UNL A   1      41.055  26.461  27.465  1.00  0.00    -0.248 NA
ATOM     41  C   UNL A   1      39.779  24.975  28.705  1.00  0.00     0.031 C 
ATOM     42  C   UNL A   1      44.202  23.680  29.731  1.00  0.00     0.029 A 
ATOM     43  N   UNL A   1      43.448  25.736  29.999  1.00  0.00    -0.354 N 
ATOM     44  C   UNL A   1      39.803  27.016  27.708  1.00  0.00     0.074 A 
ATOM     45  C   UNL A   1      38.996  25.958  28.256  1.00  0.00     0.031 C 
ATOM     46  C   UNL A   1      44.714  24.129  30.897  1.00  0.00     0.029 A 
ATOM     47  C   UNL A   1      44.247  25.482  31.111  1.00  0.00     0.049 A 
ATOM     48  H   UNL A   1      43.083  26.627  29.795  1.00  0.00     0.167 HD
ATOM     49  C   UNL A   1      39.623  28.367  27.715  1.00  0.00     0.034 A 
ATOM     50  C   UNL A   1      44.461  26.315  32.156  1.00  0.00     0.034 A 
ATOM     51  C   UNL A   1      40.768  29.050  27.160  1.00  0.00     0.049 A 
ATOM     52  C   UNL A   1      44.128  27.682  31.690  1.00  0.00     0.074 A 
ATOM     53  C   UNL A   1      41.449  29.001  25.960  1.00  0.00     0.029 A 
ATOM     54  N   UNL A   1      41.624  29.646  28.055  1.00  0.00    -0.354 N 
ATOM     55  N   UNL A   1      44.794  28.303  30.755  1.00  0.00    -0.248 NA
ATOM     56  C   UNL A   1      42.782  28.173  31.934  1.00  0.00     0.031 C 
ATOM     57  C   UNL A   1      42.826  29.114  26.318  1.00  0.00     0.029 A 
ATOM     58  C   UNL A   1      42.902  29.301  27.700  1.00  0.00     0.049 A 
ATOM     59  H   UNL A   1      41.367  30.218  28.814  1.00  0.00     0.167 HD
ATOM     60  C   UNL A   1      43.813  28.923  29.990  1.00  0.00     0.074 A 
ATOM     61  C   UNL A   1      42.614  28.905  30.829  1.00  0.00     0.031 C 
ATOM     62  C   UNL A   1      43.981  29.116  28.648  1.00  0.00     0.034 A 
BRANCH  49  63
ATOM     63  C   UNL A   1      38.615  29.109  28.565  1.00  0.00     0.023 A 
ATOM     64  C   UNL A   1      37.837  30.097  27.919  1.00  0.00     0.012 A 
ATOM     65  C   UNL A   1      38.582  29.093  29.978  1.00  0.00     0.148 A 
ATOM     66  C   UNL A   1      37.116  31.053  28.641  1.00  0.00     0.002 A 
ATOM     67  C   UNL A   1      37.796  29.994  30.690  1.00  0.00     0.091 A 
ATOM     68  F   UNL A   1      39.412  28.305  30.665  1.00  0.00    -0.205 F 
ATOM     69  C   UNL A   1      37.088  30.998  30.028  1.00  0.00     0.022 A 
BRANCH  67  70
ATOM     70  S   UNL A   1      37.690  29.931  32.483  1.00  0.00     0.127 S 
ATOM     71  O   UNL A   1      36.706  30.974  32.753  1.00  0.00    -0.237 OA
ATOM     72  O   UNL A   1      37.222  28.562  32.707  1.00  0.00    -0.237 OA
ATOM     73  O   UNL A   1      39.043  30.183  32.962  1.00  0.00    -0.744 OA
ENDBRANCH  67  70
ENDBRANCH  49  63
BRANCH  50  74
ATOM     74  C   UNL A   1      44.681  25.995  33.585  1.00  0.00     0.023 A 
ATOM     75  C   UNL A   1      45.994  25.903  34.086  1.00  0.00     0.012 A 
ATOM     76  C   UNL A   1      43.616  26.059  34.512  1.00  0.00     0.148 A 
ATOM     77  C   UNL A   1      46.242  25.911  35.465  1.00  0.00     0.002 A 
ATOM     78  C   UNL A   1      43.866  26.063  35.882  1.00  0.00     0.091 A 
ATOM     79  F   UNL A   1      42.367  26.209  34.052  1.00  0.00    -0.205 F 
ATOM     80  C   UNL A   1      45.180  26.002  36.362  1.00  0.00     0.022 A 
BRANCH  78  81
ATOM     81  S   UNL A   1      42.546  26.205  37.098  1.00  0.00     0.127 S 
ATOM     82  O   UNL A   1      41.762  24.997  36.839  1.00  0.00    -0.237 OA
ATOM     83  O   UNL A   1      43.288  26.195  38.355  1.00  0.00    -0.237 OA
ATOM     84  O   UNL A   1      41.846  27.447  36.791  1.00  0.00    -0.744 OA
ENDBRANCH  78  81
ENDBRANCH  50  74
BRANCH  62  85
ATOM     85  C   UNL A   1      45.348  28.868  28.056  1.00  0.00     0.023 A 
ATOM     86  C   UNL A   1      46.412  29.786  28.192  1.00  0.00     0.012 A 
ATOM     87  C   UNL A   1      45.616  27.601  27.512  1.00  0.00     0.148 A 
ATOM     88  C   UNL A   1      47.704  29.456  27.774  1.00  0.00     0.002 A 
ATOM     89  C   UNL A   1      46.911  27.259  27.140  1.00  0.00     0.091 A 
ATOM     90  F   UNL A   1      44.598  26.735  27.396  1.00  0.00    -0.205 F 
ATOM     91  C   UNL A   1      47.957  28.188  27.260  1.00  0.00     0.022 A 
BRANCH  89  92
ATOM     92  S   UNL A   1      47.321  25.602  26.591  1.00  0.00     0.127 S 
ATOM     93  O   UNL A   1      47.052  24.809  27.789  1.00  0.00    -0.237 OA
ATOM     94  O   UNL A   1      46.376  25.391  25.493  1.00  0.00    -0.237 OA
ATOM     95  O   UNL A   1      48.717  25.652  26.172  1.00  0.00    -0.744 OA
ENDBRANCH  89  92
ENDBRANCH  62  85
ENDBRANCH  36  37
ENDBRANCH  28  31
ENDBRANCH  26  27
ENDBRANCH  25  26
ENDBRANCH   1  25
TORSDOF 20
ENDMDL
MODEL 3
REMARK VINA RESULT:     -10.4      2.006      2.873
REMARK SMILES Cc1cc(C(=O)N[C@H](CC(C)C)C(=O)NCCCCCCNC(=O)c2ccc(-c3c4nc(c(-c5cccc(S(=O)(=O)[O-])c5F)c5ccc([nH]5)c(-c5cccc(S(=O)(=O)[O-])c5F)c5nc(c(-c6cccc(S(=O)(=O)[O-])c6F)c6ccc3[nH]6)C=C5)C=C4)cc2)sc1Br
REMARK SMILES IDX 19 1 18 2 17 3 16 4 15 5 13 6 14 7 8 9 7 10 5 11 6 12 4 14
REMARK SMILES IDX 1 15 2 16 3 17 89 18 88 19 90 20 9 21 10 22 11 23 12 24
REMARK SMILES IDX 20 25 21 26 22 27 23 28 24 30 25 31 26 32 87 33 27 34 86 35
REMARK SMILES IDX 28 36 29 37 30 38 80 39 31 40 85 41 79 42 81 43 32 44 84 45
REMARK SMILES IDX 78 46 77 47 33 49 65 50 45 51 64 52 46 53 49 54 63 55 82 56
REMARK SMILES IDX 47 57 48 58 62 60 83 61 50 62 34 63 35 64 43 65 36 66 38 67
REMARK SMILES IDX 44 68 37 69 39 70 40 71 41 72 42 73 66 74 67 75 75 76 68 77
REMARK SMILES IDX 70 78 76 79 69 80 71 81 72 82 73 83 74 84 51 85 52 86 60 87
REMARK SMILES IDX 53 88 55 89 61 90 54 91 56 92 57 93 58 94 59 95
REMARK H PARENT 15 8 7 13 22 29 81 48 49 59
REMARK Flexibility Score: inf
ROOT
ATOM      1  C   UNL A   1      36.751  19.817  25.005  1.00  0.00     0.002 C 
ENDROOT
BRANCH   1   2
ATOM      2  C   UNL A   1      36.029  21.085  25.487  1.00  0.00     0.002 C 
BRANCH   2   3
ATOM      3  C   UNL A   1      34.834  21.544  24.645  1.00  0.00     0.021 C 
BRANCH   3   4
ATOM      4  C   UNL A   1      34.964  22.967  24.112  1.00  0.00     0.116 C 
BRANCH   4   5
ATOM      5  N   UNL A   1      34.434  23.063  22.763  1.00  0.00    -0.354 N 
ATOM      6  C   UNL A   1      33.536  23.931  22.215  1.00  0.00     0.242 C 
ATOM      7  O   UNL A   1      33.232  23.769  21.029  1.00  0.00    -0.273 OA
ATOM      8  H   UNL A   1      34.782  22.386  22.137  1.00  0.00     0.163 HD
BRANCH   6   9
ATOM      9  C   UNL A   1      33.036  25.159  22.997  1.00  0.00     0.171 C 
BRANCH   9  10
ATOM     10  N   UNL A   1      32.144  24.603  24.020  1.00  0.00    -0.340 N 
ATOM     11  C   UNL A   1      31.858  24.999  25.304  1.00  0.00     0.262 C 
ATOM     12  O   UNL A   1      31.151  24.218  25.948  1.00  0.00    -0.268 OA
ATOM     13  H   UNL A   1      31.660  23.795  23.732  1.00  0.00     0.164 HD
BRANCH  11  14
ATOM     14  C   UNL A   1      32.299  26.287  25.828  1.00  0.00     0.093 A 
ATOM     15  C   UNL A   1      34.800  28.943  26.780  1.00  0.00     0.046 C 
ATOM     16  C   UNL A   1      33.549  28.175  26.504  1.00  0.00    -0.025 A 
ATOM     17  C   UNL A   1      33.527  26.759  26.259  1.00  0.00     0.030 A 
ATOM     18  C   UNL A   1      32.268  28.675  26.446  1.00  0.00     0.074 A 
ATOM     19  S   UNL A   1      31.111  27.526  25.994  1.00  0.00    -0.123 S 
ATOM     20  Br  UNL A   1      31.802  30.455  26.820  1.00  0.00    -0.039 Br
ENDBRANCH  11  14
ENDBRANCH   9  10
BRANCH   9  21
ATOM     21  C   UNL A   1      32.455  26.308  22.156  1.00  0.00     0.038 C 
BRANCH  21  22
ATOM     22  C   UNL A   1      32.719  27.716  22.729  1.00  0.00    -0.015 C 
ATOM     23  C   UNL A   1      34.023  28.340  22.225  1.00  0.00     0.007 C 
ATOM     24  C   UNL A   1      31.555  28.652  22.398  1.00  0.00     0.007 C 
ENDBRANCH  21  22
ENDBRANCH   9  21
ENDBRANCH   6   9
ENDBRANCH   4   5
ENDBRANCH   3   4
ENDBRANCH   2   3
ENDBRANCH   1   2
BRANCH   1  25
ATOM     25  C   UNL A   1      38.266  19.921  24.771  1.00  0.00     0.021 C 
BRANCH  25  26
ATOM     26  C   UNL A   1      39.110  19.838  26.034  1.00  0.00     0.116 C 
BRANCH  26  27
ATOM     27  N   UNL A   1      40.306  19.005  25.861  1.00  0.00    -0.352 N 
ATOM     28  C   UNL A   1      41.638  19.390  25.820  1.00  0.00     0.251 C 
ATOM     29  H   UNL A   1      40.139  18.040  25.761  1.00  0.00     0.163 HD
ATOM     30  O   UNL A   1      42.483  18.676  25.310  1.00  0.00    -0.269 OA
BRANCH  28  31
ATOM     31  C   UNL A   1      42.009  20.679  26.430  1.00  0.00     0.039 A 
ATOM     32  C   UNL A   1      42.607  21.716  25.709  1.00  0.00     0.014 A 
ATOM     33  C   UNL A   1      41.697  20.837  27.771  1.00  0.00     0.014 A 
ATOM     34  C   UNL A   1      42.822  22.934  26.354  1.00  0.00     0.010 A 
ATOM     35  C   UNL A   1      41.664  22.087  28.310  1.00  0.00     0.010 A 
ATOM     36  C   UNL A   1      42.336  23.107  27.657  1.00  0.00    -0.014 A 
BRANCH  36  37
ATOM     37  C   UNL A   1      42.454  24.360  28.383  1.00  0.00     0.031 A 
ATOM     38  C   UNL A   1      41.318  25.293  28.185  1.00  0.00     0.074 A 
ATOM     39  C   UNL A   1      43.378  24.532  29.355  1.00  0.00     0.049 A 
ATOM     40  N   UNL A   1      41.327  26.410  27.538  1.00  0.00    -0.248 NA
ATOM     41  C   UNL A   1      39.979  24.863  28.618  1.00  0.00     0.031 C 
ATOM     42  C   UNL A   1      44.331  23.545  29.891  1.00  0.00     0.029 A 
ATOM     43  N   UNL A   1      43.544  25.583  30.197  1.00  0.00    -0.354 N 
ATOM     44  C   UNL A   1      40.056  26.946  27.718  1.00  0.00     0.074 A 
ATOM     45  C   UNL A   1      39.222  25.861  28.160  1.00  0.00     0.031 C 
ATOM     46  C   UNL A   1      44.758  23.943  31.108  1.00  0.00     0.029 A 
ATOM     47  C   UNL A   1      44.266  25.283  31.349  1.00  0.00     0.049 A 
ATOM     48  H   UNL A   1      43.186  26.481  30.009  1.00  0.00     0.167 HD
ATOM     49  C   UNL A   1      39.865  28.294  27.773  1.00  0.00     0.034 A 
ATOM     50  C   UNL A   1      44.400  26.069  32.444  1.00  0.00     0.034 A 
ATOM     51  C   UNL A   1      41.040  29.008  27.329  1.00  0.00     0.049 A 
ATOM     52  C   UNL A   1      44.089  27.453  32.017  1.00  0.00     0.074 A 
ATOM     53  C   UNL A   1      41.803  29.017  26.179  1.00  0.00     0.029 A 
ATOM     54  N   UNL A   1      41.827  29.567  28.308  1.00  0.00    -0.354 N 
ATOM     55  N   UNL A   1      44.812  28.120  31.160  1.00  0.00    -0.248 NA
ATOM     56  C   UNL A   1      42.725  27.926  32.188  1.00  0.00     0.031 C 
ATOM     57  C   UNL A   1      43.151  29.120  26.636  1.00  0.00     0.029 A 
ATOM     58  C   UNL A   1      43.129  29.246  28.027  1.00  0.00     0.049 A 
ATOM     59  H   UNL A   1      41.513  30.103  29.072  1.00  0.00     0.167 HD
ATOM     60  C   UNL A   1      43.882  28.768  30.357  1.00  0.00     0.074 A 
ATOM     61  C   UNL A   1      42.628  28.707  31.108  1.00  0.00     0.031 C 
ATOM     62  C   UNL A   1      44.141  29.023  29.039  1.00  0.00     0.034 A 
BRANCH  49  63
ATOM     63  C   UNL A   1      38.794  28.993  28.583  1.00  0.00     0.023 A 
ATOM     64  C   UNL A   1      38.044  29.994  27.924  1.00  0.00     0.012 A 
ATOM     65  C   UNL A   1      38.672  28.925  29.989  1.00  0.00     0.148 A 
ATOM     66  C   UNL A   1      37.264  30.914  28.632  1.00  0.00     0.002 A 
ATOM     67  C   UNL A   1      37.829  29.788  30.681  1.00  0.00     0.091 A 
ATOM     68  F   UNL A   1      39.469  28.122  30.698  1.00  0.00    -0.205 F 
ATOM     69  C   UNL A   1      37.150  30.808  30.011  1.00  0.00     0.022 A 
BRANCH  67  70
ATOM     70  S   UNL A   1      37.611  29.659  32.460  1.00  0.00     0.127 S 
ATOM     71  O   UNL A   1      38.835  30.284  32.950  1.00  0.00    -0.237 OA
ATOM     72  O   UNL A   1      36.388  30.436  32.668  1.00  0.00    -0.237 OA
ATOM     73  O   UNL A   1      37.463  28.234  32.731  1.00  0.00    -0.744 OA
ENDBRANCH  67  70
ENDBRANCH  49  63
BRANCH  50  74
ATOM     74  C   UNL A   1      44.522  25.686  33.868  1.00  0.00     0.023 A 
ATOM     75  C   UNL A   1      43.372  25.311  34.591  1.00  0.00     0.012 A 
ATOM     76  C   UNL A   1      45.787  25.415  34.439  1.00  0.00     0.148 A 
ATOM     77  C   UNL A   1      43.478  24.655  35.824  1.00  0.00     0.002 A 
ATOM     78  C   UNL A   1      45.888  24.766  35.667  1.00  0.00     0.091 A 
ATOM     79  F   UNL A   1      46.889  25.710  33.737  1.00  0.00    -0.205 F 
ATOM     80  C   UNL A   1      44.734  24.373  36.357  1.00  0.00     0.022 A 
BRANCH  78  81
ATOM     81  S   UNL A   1      47.476  24.346  36.402  1.00  0.00     0.127 S 
ATOM     82  O   UNL A   1      48.064  25.666  36.634  1.00  0.00    -0.237 OA
ATOM     83  O   UNL A   1      47.073  23.635  37.612  1.00  0.00    -0.237 OA
ATOM     84  O   UNL A   1      48.181  23.545  35.409  1.00  0.00    -0.744 OA
ENDBRANCH  78  81
ENDBRANCH  50  74
BRANCH  62  85
ATOM     85  C   UNL A   1      45.548  28.809  28.534  1.00  0.00     0.023 A 
ATOM     86  C   UNL A   1      46.598  29.715  28.803  1.00  0.00     0.012 A 
ATOM     87  C   UNL A   1      45.858  27.578  27.932  1.00  0.00     0.148 A 
ATOM     88  C   UNL A   1      47.918  29.408  28.461  1.00  0.00     0.002 A 
ATOM     89  C   UNL A   1      47.177  27.257  27.634  1.00  0.00     0.091 A 
ATOM     90  F   UNL A   1      44.852  26.724  27.689  1.00  0.00    -0.205 F 
ATOM     91  C   UNL A   1      48.209  28.173  27.888  1.00  0.00     0.022 A 
BRANCH  89  92
ATOM     92  S   UNL A   1      47.629  25.637  27.014  1.00  0.00     0.127 S 
ATOM     93  O   UNL A   1      46.902  25.581  25.747  1.00  0.00    -0.237 OA
ATOM     94  O   UNL A   1      49.083  25.745  26.881  1.00  0.00    -0.237 OA
ATOM     95  O   UNL A   1      47.195  24.683  28.028  1.00  0.00    -0.744 OA
ENDBRANCH  89  92
ENDBRANCH  62  85
ENDBRANCH  36  37
ENDBRANCH  28  31
ENDBRANCH  26  27
ENDBRANCH  25  26
ENDBRANCH   1  25
TORSDOF 20
ENDMDL
