MODEL 1
REMARK VINA RESULT:     -11.7      0.000      0.000
REMARK SMILES COc1cccc(NC(=O)c2nccnc2C(=O)NCCCCCCNC(=O)c2ccc(-c3c4nc(c(-c5cccc(S(=O)(=O)[O-])c5F)c5ccc([nH]5)c(-c5cccc(S(=O)(=O)[O-])c5F)c5nc(c(-c6cccc(S(=O)(=O)[O-])c6F)c6ccc3[nH]6)C=C5)C=C4)cc2)c1
REMARK SMILES IDX 22 1 21 2 20 3 19 4 17 5 18 6 16 8 11 9 12 10 13 11 15 12
REMARK SMILES IDX 14 13 9 14 8 15 10 17 7 18 3 19 4 20 92 21 5 22 6 23 2 24
REMARK SMILES IDX 1 25 23 26 24 27 25 28 26 29 27 30 28 32 29 33 30 34 91 35
REMARK SMILES IDX 31 36 90 37 32 38 33 39 34 40 84 41 35 42 89 43 83 44 85 45
REMARK SMILES IDX 36 46 88 47 82 48 81 49 37 51 69 52 49 53 68 54 50 55 53 56
REMARK SMILES IDX 67 57 86 58 51 59 52 60 66 62 87 63 54 64 38 65 39 66 47 67
REMARK SMILES IDX 40 68 42 69 48 70 41 71 43 72 44 73 45 74 46 75 70 76 71 77
REMARK SMILES IDX 79 78 72 79 74 80 80 81 73 82 75 83 76 84 77 85 78 86 55 87
REMARK SMILES IDX 56 88 64 89 57 90 59 91 65 92 58 93 60 94 61 95 62 96 63 97
REMARK H PARENT 19 7 8 16 26 31 85 50 53 61
REMARK Flexibility Score: inf
ROOT
ATOM      1  C   UNL A   1      33.501  28.181  23.307  1.00  0.00     0.002 C 
ENDROOT
BRANCH   1   2
ATOM      2  C   UNL A   1      33.759  26.674  23.206  1.00  0.00     0.021 C 
BRANCH   2   3
ATOM      3  C   UNL A   1      32.575  25.752  23.460  1.00  0.00     0.116 C 
BRANCH   3   4
ATOM      4  N   UNL A   1      32.465  24.618  22.580  1.00  0.00    -0.351 N 
ATOM      5  C   UNL A   1      33.086  23.387  22.600  1.00  0.00     0.272 C 
ATOM      6  O   UNL A   1      32.725  22.594  21.724  1.00  0.00    -0.267 OA
ATOM      7  H   UNL A   1      31.838  24.742  21.832  1.00  0.00     0.163 HD
BRANCH   5   8
ATOM      8  C   UNL A   1      34.201  22.960  23.517  1.00  0.00     0.159 A 
ATOM      9  C   UNL A   1      34.124  22.287  24.730  1.00  0.00     0.159 A 
ATOM     10  N   UNL A   1      35.234  21.794  25.381  1.00  0.00    -0.247 NA
ATOM     11  C   UNL A   1      36.425  22.031  24.800  1.00  0.00     0.132 A 
ATOM     12  N   UNL A   1      35.441  23.217  22.973  1.00  0.00    -0.247 NA
ATOM     13  C   UNL A   1      36.527  22.745  23.628  1.00  0.00     0.132 A 
BRANCH   9  14
ATOM     14  C   UNL A   1      32.880  22.027  25.458  1.00  0.00     0.276 C 
ATOM     15  N   UNL A   1      32.207  20.816  25.345  1.00  0.00    -0.320 N 
ATOM     16  H   UNL A   1      31.340  20.810  25.812  1.00  0.00     0.170 HD
ATOM     17  O   UNL A   1      32.438  22.913  26.190  1.00  0.00    -0.267 OA
BRANCH  15  18
ATOM     18  C   UNL A   1      32.501  19.586  24.698  1.00  0.00     0.045 A 
ATOM     19  C   UNL A   1      33.309  17.292  24.955  1.00  0.00     0.120 A 
ATOM     20  C   UNL A   1      33.101  17.063  23.596  1.00  0.00     0.046 A 
ATOM     21  C   UNL A   1      33.006  18.547  25.502  1.00  0.00     0.072 A 
ATOM     22  C   UNL A   1      32.624  18.082  22.786  1.00  0.00     0.006 A 
ATOM     23  C   UNL A   1      32.354  19.339  23.331  1.00  0.00     0.026 A 
BRANCH  19  24
ATOM     24  O   UNL A   1      33.835  16.219  25.617  1.00  0.00    -0.497 OA
ATOM     25  C   UNL A   1      35.159  15.829  25.280  1.00  0.00     0.278 C 
ENDBRANCH  19  24
ENDBRANCH  15  18
ENDBRANCH   9  14
ENDBRANCH   5   8
ENDBRANCH   3   4
ENDBRANCH   2   3
ENDBRANCH   1   2
BRANCH   1  26
ATOM     26  C   UNL A   1      33.182  28.763  24.687  1.00  0.00     0.002 C 
BRANCH  26  27
ATOM     27  C   UNL A   1      34.011  28.272  25.879  1.00  0.00     0.021 C 
BRANCH  27  28
ATOM     28  C   UNL A   1      33.553  28.709  27.267  1.00  0.00     0.116 C 
BRANCH  28  29
ATOM     29  N   UNL A   1      33.453  30.147  27.415  1.00  0.00    -0.352 N 
ATOM     30  C   UNL A   1      34.332  31.052  27.956  1.00  0.00     0.251 C 
ATOM     31  H   UNL A   1      32.618  30.540  27.072  1.00  0.00     0.163 HD
ATOM     32  O   UNL A   1      33.984  32.226  28.062  1.00  0.00    -0.269 OA
BRANCH  30  33
ATOM     33  C   UNL A   1      35.674  30.640  28.436  1.00  0.00     0.039 A 
ATOM     34  C   UNL A   1      35.740  29.732  29.497  1.00  0.00     0.014 A 
ATOM     35  C   UNL A   1      36.857  31.157  27.897  1.00  0.00     0.014 A 
ATOM     36  C   UNL A   1      36.980  29.312  29.984  1.00  0.00     0.010 A 
ATOM     37  C   UNL A   1      38.095  30.680  28.335  1.00  0.00     0.010 A 
ATOM     38  C   UNL A   1      38.172  29.759  29.390  1.00  0.00    -0.014 A 
BRANCH  38  39
ATOM     39  C   UNL A   1      39.481  29.227  29.853  1.00  0.00     0.031 A 
ATOM     40  C   UNL A   1      40.218  29.847  31.009  1.00  0.00     0.074 A 
ATOM     41  C   UNL A   1      40.038  28.195  29.190  1.00  0.00     0.049 A 
ATOM     42  N   UNL A   1      41.326  29.452  31.585  1.00  0.00    -0.248 NA
ATOM     43  C   UNL A   1      39.658  31.084  31.575  1.00  0.00     0.031 C 
ATOM     44  C   UNL A   1      39.489  27.577  27.983  1.00  0.00     0.029 A 
ATOM     45  N   UNL A   1      41.194  27.493  29.428  1.00  0.00    -0.354 N 
ATOM     46  C   UNL A   1      41.611  30.402  32.558  1.00  0.00     0.074 A 
ATOM     47  C   UNL A   1      40.580  31.414  32.468  1.00  0.00     0.031 C 
ATOM     48  C   UNL A   1      40.297  26.579  27.593  1.00  0.00     0.029 A 
ATOM     49  C   UNL A   1      41.429  26.495  28.512  1.00  0.00     0.049 A 
ATOM     50  H   UNL A   1      41.797  27.686  30.182  1.00  0.00     0.167 HD
ATOM     51  C   UNL A   1      42.620  30.418  33.464  1.00  0.00     0.034 A 
ATOM     52  C   UNL A   1      42.435  25.605  28.421  1.00  0.00     0.034 A 
ATOM     53  C   UNL A   1      43.629  29.395  33.568  1.00  0.00     0.049 A 
ATOM     54  C   UNL A   1      43.494  25.582  29.486  1.00  0.00     0.074 A 
ATOM     55  C   UNL A   1      44.627  29.262  34.517  1.00  0.00     0.029 A 
ATOM     56  N   UNL A   1      43.781  28.338  32.682  1.00  0.00    -0.354 N 
ATOM     57  N   UNL A   1      43.638  26.374  30.521  1.00  0.00    -0.248 NA
ATOM     58  C   UNL A   1      44.499  24.514  29.401  1.00  0.00     0.031 C 
ATOM     59  C   UNL A   1      45.402  28.143  34.186  1.00  0.00     0.029 A 
ATOM     60  C   UNL A   1      44.865  27.557  33.051  1.00  0.00     0.049 A 
ATOM     61  H   UNL A   1      43.201  28.167  31.904  1.00  0.00     0.167 HD
ATOM     62  C   UNL A   1      44.732  25.887  31.225  1.00  0.00     0.074 A 
ATOM     63  C   UNL A   1      45.194  24.713  30.512  1.00  0.00     0.031 C 
ATOM     64  C   UNL A   1      45.307  26.376  32.353  1.00  0.00     0.034 A 
BRANCH  51  65
ATOM     65  C   UNL A   1      42.654  31.565  34.444  1.00  0.00     0.023 A 
ATOM     66  C   UNL A   1      43.428  32.710  34.155  1.00  0.00     0.012 A 
ATOM     67  C   UNL A   1      41.900  31.530  35.634  1.00  0.00     0.148 A 
ATOM     68  C   UNL A   1      43.493  33.773  35.056  1.00  0.00     0.002 A 
ATOM     69  C   UNL A   1      41.932  32.615  36.503  1.00  0.00     0.091 A 
ATOM     70  F   UNL A   1      41.185  30.428  35.908  1.00  0.00    -0.205 F 
ATOM     71  C   UNL A   1      42.739  33.729  36.224  1.00  0.00     0.022 A 
BRANCH  69  72
ATOM     72  S   UNL A   1      40.930  32.683  37.993  1.00  0.00     0.127 S 
ATOM     73  O   UNL A   1      41.735  31.899  38.927  1.00  0.00    -0.237 OA
ATOM     74  O   UNL A   1      40.892  34.118  38.276  1.00  0.00    -0.237 OA
ATOM     75  O   UNL A   1      39.642  32.106  37.631  1.00  0.00    -0.744 OA
ENDBRANCH  69  72
ENDBRANCH  51  65
BRANCH  52  76
ATOM     76  C   UNL A   1      42.426  24.613  27.310  1.00  0.00     0.023 A 
ATOM     77  C   UNL A   1      43.266  24.802  26.196  1.00  0.00     0.012 A 
ATOM     78  C   UNL A   1      41.652  23.441  27.399  1.00  0.00     0.148 A 
ATOM     79  C   UNL A   1      43.322  23.847  25.181  1.00  0.00     0.002 A 
ATOM     80  C   UNL A   1      41.757  22.467  26.414  1.00  0.00     0.091 A 
ATOM     81  F   UNL A   1      40.855  23.288  28.467  1.00  0.00    -0.205 F 
ATOM     82  C   UNL A   1      42.580  22.674  25.296  1.00  0.00     0.022 A 
BRANCH  80  83
ATOM     83  S   UNL A   1      40.955  20.866  26.556  1.00  0.00     0.127 S 
ATOM     84  O   UNL A   1      39.660  21.125  25.929  1.00  0.00    -0.237 OA
ATOM     85  O   UNL A   1      41.856  20.012  25.779  1.00  0.00    -0.237 OA
ATOM     86  O   UNL A   1      40.917  20.566  27.978  1.00  0.00    -0.744 OA
ENDBRANCH  80  83
ENDBRANCH  52  76
BRANCH  64  87
ATOM     87  C   UNL A   1      46.497  25.630  32.901  1.00  0.00     0.023 A 
ATOM     88  C   UNL A   1      47.802  26.030  32.549  1.00  0.00     0.012 A 
ATOM     89  C   UNL A   1      46.325  24.556  33.797  1.00  0.00     0.148 A 
ATOM     90  C   UNL A   1      48.914  25.345  33.040  1.00  0.00     0.002 A 
ATOM     91  C   UNL A   1      47.438  23.911  34.323  1.00  0.00     0.091 A 
ATOM     92  F   UNL A   1      45.079  24.172  34.107  1.00  0.00    -0.205 F 
ATOM     93  C   UNL A   1      48.732  24.293  33.935  1.00  0.00     0.022 A 
BRANCH  91  94
ATOM     94  S   UNL A   1      47.296  22.609  35.554  1.00  0.00     0.127 S 
ATOM     95  O   UNL A   1      48.692  22.408  35.938  1.00  0.00    -0.237 OA
ATOM     96  O   UNL A   1      46.465  23.239  36.581  1.00  0.00    -0.237 OA
ATOM     97  O   UNL A   1      46.661  21.489  34.873  1.00  0.00    -0.744 OA
ENDBRANCH  91  94
ENDBRANCH  64  87
ENDBRANCH  38  39
ENDBRANCH  30  33
ENDBRANCH  28  29
ENDBRANCH  27  28
ENDBRANCH  26  27
ENDBRANCH   1  26
TORSDOF 19
ENDMDL
MODEL 2
REMARK VINA RESULT:     -11.4      5.302      9.042
REMARK SMILES COc1cccc(NC(=O)c2nccnc2C(=O)NCCCCCCNC(=O)c2ccc(-c3c4nc(c(-c5cccc(S(=O)(=O)[O-])c5F)c5ccc([nH]5)c(-c5cccc(S(=O)(=O)[O-])c5F)c5nc(c(-c6cccc(S(=O)(=O)[O-])c6F)c6ccc3[nH]6)C=C5)C=C4)cc2)c1
REMARK SMILES IDX 22 1 21 2 20 3 19 4 17 5 18 6 16 8 11 9 12 10 13 11 15 12
REMARK SMILES IDX 14 13 9 14 8 15 10 17 7 18 3 19 4 20 92 21 5 22 6 23 2 24
REMARK SMILES IDX 1 25 23 26 24 27 25 28 26 29 27 30 28 32 29 33 30 34 91 35
REMARK SMILES IDX 31 36 90 37 32 38 33 39 34 40 84 41 35 42 89 43 83 44 85 45
REMARK SMILES IDX 36 46 88 47 82 48 81 49 37 51 69 52 49 53 68 54 50 55 53 56
REMARK SMILES IDX 67 57 86 58 51 59 52 60 66 62 87 63 54 64 38 65 39 66 47 67
REMARK SMILES IDX 40 68 42 69 48 70 41 71 43 72 44 73 45 74 46 75 70 76 71 77
REMARK SMILES IDX 79 78 72 79 74 80 80 81 73 82 75 83 76 84 77 85 78 86 55 87
REMARK SMILES IDX 56 88 64 89 57 90 59 91 65 92 58 93 60 94 61 95 62 96 63 97
REMARK H PARENT 19 7 8 16 26 31 85 50 53 61
REMARK Flexibility Score: inf
ROOT
ATOM      1  C   UNL A   1      36.784  21.743  24.315  1.00  0.00     0.002 C 
ENDROOT
BRANCH   1   2
ATOM      2  C   UNL A   1      37.075  22.842  25.341  1.00  0.00     0.021 C 
BRANCH   2   3
ATOM      3  C   UNL A   1      35.878  23.587  25.914  1.00  0.00     0.116 C 
BRANCH   3   4
ATOM      4  N   UNL A   1      35.083  22.856  26.867  1.00  0.00    -0.351 N 
ATOM      5  C   UNL A   1      33.838  22.276  26.757  1.00  0.00     0.272 C 
ATOM      6  O   UNL A   1      33.449  21.656  27.754  1.00  0.00    -0.267 OA
ATOM      7  H   UNL A   1      35.501  22.753  27.752  1.00  0.00     0.163 HD
BRANCH   5   8
ATOM      8  C   UNL A   1      32.892  22.395  25.592  1.00  0.00     0.159 A 
ATOM      9  C   UNL A   1      31.765  23.198  25.463  1.00  0.00     0.159 A 
ATOM     10  N   UNL A   1      31.090  23.347  24.271  1.00  0.00    -0.247 NA
ATOM     11  C   UNL A   1      31.553  22.639  23.225  1.00  0.00     0.132 A 
ATOM     12  N   UNL A   1      33.314  21.656  24.509  1.00  0.00    -0.247 NA
ATOM     13  C   UNL A   1      32.634  21.794  23.348  1.00  0.00     0.132 A 
BRANCH   9  14
ATOM     14  C   UNL A   1      31.161  23.965  26.555  1.00  0.00     0.276 C 
ATOM     15  N   UNL A   1      31.368  25.333  26.688  1.00  0.00    -0.320 N 
ATOM     16  H   UNL A   1      30.983  25.704  27.514  1.00  0.00     0.170 HD
ATOM     17  O   UNL A   1      30.449  23.367  27.362  1.00  0.00    -0.267 OA
BRANCH  15  18
ATOM     18  C   UNL A   1      32.018  26.310  25.887  1.00  0.00     0.045 A 
ATOM     19  C   UNL A   1      31.781  27.973  24.108  1.00  0.00     0.120 A 
ATOM     20  C   UNL A   1      33.126  28.309  24.238  1.00  0.00     0.046 A 
ATOM     21  C   UNL A   1      31.230  26.980  24.932  1.00  0.00     0.072 A 
ATOM     22  C   UNL A   1      33.922  27.644  25.159  1.00  0.00     0.006 A 
ATOM     23  C   UNL A   1      33.375  26.635  25.954  1.00  0.00     0.026 A 
BRANCH  19  24
ATOM     24  O   UNL A   1      31.134  28.667  23.126  1.00  0.00    -0.497 OA
ATOM     25  C   UNL A   1      29.746  28.910  23.304  1.00  0.00     0.278 C 
ENDBRANCH  19  24
ENDBRANCH  15  18
ENDBRANCH   9  14
ENDBRANCH   5   8
ENDBRANCH   3   4
ENDBRANCH   2   3
ENDBRANCH   1   2
BRANCH   1  26
ATOM     26  C   UNL A   1      36.645  20.305  24.823  1.00  0.00     0.002 C 
BRANCH  26  27
ATOM     27  C   UNL A   1      37.925  19.481  24.995  1.00  0.00     0.021 C 
BRANCH  27  28
ATOM     28  C   UNL A   1      39.084  20.146  25.730  1.00  0.00     0.116 C 
BRANCH  28  29
ATOM     29  N   UNL A   1      40.190  19.248  25.997  1.00  0.00    -0.352 N 
ATOM     30  C   UNL A   1      41.488  19.512  26.358  1.00  0.00     0.251 C 
ATOM     31  H   UNL A   1      39.976  18.291  25.904  1.00  0.00     0.163 HD
ATOM     32  O   UNL A   1      42.283  18.578  26.436  1.00  0.00    -0.269 OA
BRANCH  30  33
ATOM     33  C   UNL A   1      41.952  20.894  26.629  1.00  0.00     0.039 A 
ATOM     34  C   UNL A   1      42.094  21.763  25.542  1.00  0.00     0.014 A 
ATOM     35  C   UNL A   1      42.290  21.336  27.912  1.00  0.00     0.014 A 
ATOM     36  C   UNL A   1      42.527  23.075  25.746  1.00  0.00     0.010 A 
ATOM     37  C   UNL A   1      42.650  22.670  28.123  1.00  0.00     0.010 A 
ATOM     38  C   UNL A   1      42.783  23.552  27.042  1.00  0.00    -0.014 A 
BRANCH  38  39
ATOM     39  C   UNL A   1      43.147  24.979  27.254  1.00  0.00     0.031 A 
ATOM     40  C   UNL A   1      42.178  25.956  27.862  1.00  0.00     0.074 A 
ATOM     41  C   UNL A   1      44.357  25.412  26.849  1.00  0.00     0.049 A 
ATOM     42  N   UNL A   1      42.369  27.210  28.186  1.00  0.00    -0.248 NA
ATOM     43  C   UNL A   1      40.810  25.476  28.111  1.00  0.00     0.031 C 
ATOM     44  C   UNL A   1      45.346  24.599  26.140  1.00  0.00     0.029 A 
ATOM     45  N   UNL A   1      44.955  26.642  26.962  1.00  0.00    -0.354 N 
ATOM     46  C   UNL A   1      41.146  27.676  28.651  1.00  0.00     0.074 A 
ATOM     47  C   UNL A   1      40.208  26.581  28.528  1.00  0.00     0.031 C 
ATOM     48  C   UNL A   1      46.434  25.346  25.894  1.00  0.00     0.029 A 
ATOM     49  C   UNL A   1      46.214  26.693  26.413  1.00  0.00     0.049 A 
ATOM     50  H   UNL A   1      44.524  27.415  27.394  1.00  0.00     0.167 HD
ATOM     51  C   UNL A   1      40.835  28.894  29.161  1.00  0.00     0.034 A 
ATOM     52  C   UNL A   1      47.101  27.704  26.339  1.00  0.00     0.034 A 
ATOM     53  C   UNL A   1      41.778  29.974  29.306  1.00  0.00     0.049 A 
ATOM     54  C   UNL A   1      46.772  29.018  26.990  1.00  0.00     0.074 A 
ATOM     55  C   UNL A   1      41.592  31.206  29.907  1.00  0.00     0.029 A 
ATOM     56  N   UNL A   1      43.080  29.959  28.828  1.00  0.00    -0.354 N 
ATOM     57  N   UNL A   1      45.672  29.380  27.604  1.00  0.00    -0.248 NA
ATOM     58  C   UNL A   1      47.823  30.044  26.983  1.00  0.00     0.031 C 
ATOM     59  C   UNL A   1      42.771  31.948  29.764  1.00  0.00     0.029 A 
ATOM     60  C   UNL A   1      43.705  31.164  29.106  1.00  0.00     0.049 A 
ATOM     61  H   UNL A   1      43.500  29.201  28.360  1.00  0.00     0.167 HD
ATOM     62  C   UNL A   1      45.905  30.664  28.079  1.00  0.00     0.074 A 
ATOM     63  C   UNL A   1      47.263  31.004  27.705  1.00  0.00     0.031 C 
ATOM     64  C   UNL A   1      45.065  31.490  28.754  1.00  0.00     0.034 A 
BRANCH  51  65
ATOM     65  C   UNL A   1      39.419  29.106  29.637  1.00  0.00     0.023 A 
ATOM     66  C   UNL A   1      39.058  28.727  30.949  1.00  0.00     0.012 A 
ATOM     67  C   UNL A   1      38.452  29.704  28.806  1.00  0.00     0.148 A 
ATOM     68  C   UNL A   1      37.749  28.891  31.404  1.00  0.00     0.002 A 
ATOM     69  C   UNL A   1      37.162  29.909  29.284  1.00  0.00     0.091 A 
ATOM     70  F   UNL A   1      38.801  30.040  27.555  1.00  0.00    -0.205 F 
ATOM     71  C   UNL A   1      36.805  29.489  30.576  1.00  0.00     0.022 A 
BRANCH  69  72
ATOM     72  S   UNL A   1      35.901  30.747  28.318  1.00  0.00     0.127 S 
ATOM     73  O   UNL A   1      36.581  31.989  27.955  1.00  0.00    -0.237 OA
ATOM     74  O   UNL A   1      35.694  29.818  27.205  1.00  0.00    -0.237 OA
ATOM     75  O   UNL A   1      34.753  30.890  29.203  1.00  0.00    -0.744 OA
ENDBRANCH  69  72
ENDBRANCH  51  65
BRANCH  52  76
ATOM     76  C   UNL A   1      48.417  27.467  25.686  1.00  0.00     0.023 A 
ATOM     77  C   UNL A   1      49.502  26.993  26.449  1.00  0.00     0.012 A 
ATOM     78  C   UNL A   1      48.569  27.626  24.295  1.00  0.00     0.148 A 
ATOM     79  C   UNL A   1      50.722  26.697  25.838  1.00  0.00     0.002 A 
ATOM     80  C   UNL A   1      49.768  27.274  23.686  1.00  0.00     0.091 A 
ATOM     81  F   UNL A   1      47.524  28.085  23.592  1.00  0.00    -0.205 F 
ATOM     82  C   UNL A   1      50.850  26.824  24.458  1.00  0.00     0.022 A 
BRANCH  80  83
ATOM     83  S   UNL A   1      49.971  27.263  21.902  1.00  0.00     0.127 S 
ATOM     84  O   UNL A   1      49.012  26.235  21.499  1.00  0.00    -0.237 OA
ATOM     85  O   UNL A   1      49.591  28.632  21.551  1.00  0.00    -0.237 OA
ATOM     86  O   UNL A   1      51.370  26.946  21.664  1.00  0.00    -0.744 OA
ENDBRANCH  80  83
ENDBRANCH  52  76
BRANCH  64  87
ATOM     87  C   UNL A   1      45.596  32.844  29.149  1.00  0.00     0.023 A 
ATOM     88  C   UNL A   1      46.263  33.008  30.380  1.00  0.00     0.012 A 
ATOM     89  C   UNL A   1      45.469  33.949  28.283  1.00  0.00     0.148 A 
ATOM     90  C   UNL A   1      46.753  34.257  30.764  1.00  0.00     0.002 A 
ATOM     91  C   UNL A   1      46.004  35.178  28.649  1.00  0.00     0.091 A 
ATOM     92  F   UNL A   1      44.813  33.784  27.125  1.00  0.00    -0.205 F 
ATOM     93  C   UNL A   1      46.632  35.339  29.894  1.00  0.00     0.022 A 
BRANCH  91  94
ATOM     94  S   UNL A   1      45.977  36.599  27.548  1.00  0.00     0.127 S 
ATOM     95  O   UNL A   1      46.631  37.620  28.363  1.00  0.00    -0.237 OA
ATOM     96  O   UNL A   1      46.767  36.128  26.410  1.00  0.00    -0.237 OA
ATOM     97  O   UNL A   1      44.573  36.837  27.245  1.00  0.00    -0.744 OA
ENDBRANCH  91  94
ENDBRANCH  64  87
ENDBRANCH  38  39
ENDBRANCH  30  33
ENDBRANCH  28  29
ENDBRANCH  27  28
ENDBRANCH  26  27
ENDBRANCH   1  26
TORSDOF 19
ENDMDL
MODEL 3
REMARK VINA RESULT:     -11.3      2.014      3.145
REMARK SMILES COc1cccc(NC(=O)c2nccnc2C(=O)NCCCCCCNC(=O)c2ccc(-c3c4nc(c(-c5cccc(S(=O)(=O)[O-])c5F)c5ccc([nH]5)c(-c5cccc(S(=O)(=O)[O-])c5F)c5nc(c(-c6cccc(S(=O)(=O)[O-])c6F)c6ccc3[nH]6)C=C5)C=C4)cc2)c1
REMARK SMILES IDX 22 1 21 2 20 3 19 4 17 5 18 6 16 8 11 9 12 10 13 11 15 12
REMARK SMILES IDX 14 13 9 14 8 15 10 17 7 18 3 19 4 20 92 21 5 22 6 23 2 24
REMARK SMILES IDX 1 25 23 26 24 27 25 28 26 29 27 30 28 32 29 33 30 34 91 35
REMARK SMILES IDX 31 36 90 37 32 38 33 39 34 40 84 41 35 42 89 43 83 44 85 45
REMARK SMILES IDX 36 46 88 47 82 48 81 49 37 51 69 52 49 53 68 54 50 55 53 56
REMARK SMILES IDX 67 57 86 58 51 59 52 60 66 62 87 63 54 64 38 65 39 66 47 67
REMARK SMILES IDX 40 68 42 69 48 70 41 71 43 72 44 73 45 74 46 75 70 76 71 77
REMARK SMILES IDX 79 78 72 79 74 80 80 81 73 82 75 83 76 84 77 85 78 86 55 87
REMARK SMILES IDX 56 88 64 89 57 90 59 91 65 92 58 93 60 94 61 95 62 96 63 97
REMARK H PARENT 19 7 8 16 26 31 85 50 53 61
REMARK Flexibility Score: inf
ROOT
ATOM      1  C   UNL A   1      32.629  26.992  26.222  1.00  0.00     0.002 C 
ENDROOT
BRANCH   1   2
ATOM      2  C   UNL A   1      33.625  26.429  25.204  1.00  0.00     0.021 C 
BRANCH   2   3
ATOM      3  C   UNL A   1      34.348  25.145  25.581  1.00  0.00     0.116 C 
BRANCH   3   4
ATOM      4  N   UNL A   1      33.695  24.326  26.569  1.00  0.00    -0.351 N 
ATOM      5  C   UNL A   1      33.889  23.011  26.933  1.00  0.00     0.272 C 
ATOM      6  O   UNL A   1      33.196  22.612  27.877  1.00  0.00    -0.267 OA
ATOM      7  H   UNL A   1      32.985  24.785  27.074  1.00  0.00     0.163 HD
BRANCH   5   8
ATOM      8  C   UNL A   1      34.783  22.012  26.247  1.00  0.00     0.159 A 
ATOM      9  C   UNL A   1      34.438  20.830  25.603  1.00  0.00     0.159 A 
ATOM     10  N   UNL A   1      35.336  20.100  24.857  1.00  0.00    -0.247 NA
ATOM     11  C   UNL A   1      36.597  20.567  24.807  1.00  0.00     0.132 A 
ATOM     12  N   UNL A   1      36.093  22.439  26.205  1.00  0.00    -0.247 NA
ATOM     13  C   UNL A   1      36.971  21.705  25.485  1.00  0.00     0.132 A 
BRANCH   9  14
ATOM     14  C   UNL A   1      33.106  20.221  25.642  1.00  0.00     0.276 C 
ATOM     15  N   UNL A   1      31.978  20.905  25.203  1.00  0.00    -0.320 N 
ATOM     16  H   UNL A   1      31.140  20.417  25.371  1.00  0.00     0.170 HD
ATOM     17  O   UNL A   1      33.004  19.072  26.070  1.00  0.00    -0.267 OA
BRANCH  15  18
ATOM     18  C   UNL A   1      31.776  22.158  24.565  1.00  0.00     0.045 A 
ATOM     19  C   UNL A   1      32.432  23.643  22.736  1.00  0.00     0.120 A 
ATOM     20  C   UNL A   1      31.484  24.576  23.148  1.00  0.00     0.046 A 
ATOM     21  C   UNL A   1      32.573  22.438  23.439  1.00  0.00     0.072 A 
ATOM     22  C   UNL A   1      30.705  24.326  24.267  1.00  0.00     0.006 A 
ATOM     23  C   UNL A   1      30.872  23.139  24.982  1.00  0.00     0.026 A 
BRANCH  19  24
ATOM     24  O   UNL A   1      33.166  24.046  21.655  1.00  0.00    -0.497 OA
ATOM     25  C   UNL A   1      33.230  25.441  21.394  1.00  0.00     0.278 C 
ENDBRANCH  19  24
ENDBRANCH  15  18
ENDBRANCH   9  14
ENDBRANCH   5   8
ENDBRANCH   3   4
ENDBRANCH   2   3
ENDBRANCH   1   2
BRANCH   1  26
ATOM     26  C   UNL A   1      31.435  27.791  25.691  1.00  0.00     0.002 C 
BRANCH  26  27
ATOM     27  C   UNL A   1      31.571  29.316  25.616  1.00  0.00     0.021 C 
BRANCH  27  28
ATOM     28  C   UNL A   1      32.885  29.918  26.104  1.00  0.00     0.116 C 
BRANCH  28  29
ATOM     29  N   UNL A   1      32.758  31.291  26.553  1.00  0.00    -0.352 N 
ATOM     30  C   UNL A   1      33.528  32.021  27.423  1.00  0.00     0.251 C 
ATOM     31  H   UNL A   1      31.994  31.781  26.170  1.00  0.00     0.163 HD
ATOM     32  O   UNL A   1      33.164  33.155  27.729  1.00  0.00    -0.269 OA
BRANCH  30  33
ATOM     33  C   UNL A   1      34.767  31.464  28.018  1.00  0.00     0.039 A 
ATOM     34  C   UNL A   1      35.887  32.299  28.099  1.00  0.00     0.014 A 
ATOM     35  C   UNL A   1      34.864  30.139  28.452  1.00  0.00     0.014 A 
ATOM     36  C   UNL A   1      37.077  31.822  28.651  1.00  0.00     0.010 A 
ATOM     37  C   UNL A   1      36.031  29.687  29.073  1.00  0.00     0.010 A 
ATOM     38  C   UNL A   1      37.155  30.519  29.171  1.00  0.00    -0.014 A 
BRANCH  38  39
ATOM     39  C   UNL A   1      38.397  30.058  29.846  1.00  0.00     0.031 A 
ATOM     40  C   UNL A   1      38.768  30.537  31.224  1.00  0.00     0.074 A 
ATOM     41  C   UNL A   1      39.229  29.226  29.189  1.00  0.00     0.049 A 
ATOM     42  N   UNL A   1      39.771  30.168  31.980  1.00  0.00    -0.248 NA
ATOM     43  C   UNL A   1      37.925  31.585  31.818  1.00  0.00     0.031 C 
ATOM     44  C   UNL A   1      39.050  28.778  27.807  1.00  0.00     0.029 A 
ATOM     45  N   UNL A   1      40.396  28.622  29.587  1.00  0.00    -0.354 N 
ATOM     46  C   UNL A   1      39.698  30.954  33.123  1.00  0.00     0.074 A 
ATOM     47  C   UNL A   1      38.574  31.849  32.943  1.00  0.00     0.031 C 
ATOM     48  C   UNL A   1      40.059  27.959  27.476  1.00  0.00     0.029 A 
ATOM     49  C   UNL A   1      40.966  27.836  28.614  1.00  0.00     0.049 A 
ATOM     50  H   UNL A   1      40.787  28.742  30.482  1.00  0.00     0.167 HD
ATOM     51  C   UNL A   1      40.474  30.917  34.235  1.00  0.00     0.034 A 
ATOM     52  C   UNL A   1      42.088  27.090  28.633  1.00  0.00     0.034 A 
ATOM     53  C   UNL A   1      41.575  30.007  34.421  1.00  0.00     0.049 A 
ATOM     54  C   UNL A   1      42.883  26.992  29.902  1.00  0.00     0.074 A 
ATOM     55  C   UNL A   1      42.354  29.816  35.550  1.00  0.00     0.029 A 
ATOM     56  N   UNL A   1      42.068  29.148  33.450  1.00  0.00    -0.354 N 
ATOM     57  N   UNL A   1      42.683  27.598  31.048  1.00  0.00    -0.248 NA
ATOM     58  C   UNL A   1      44.028  26.071  29.901  1.00  0.00     0.031 C 
ATOM     59  C   UNL A   1      43.337  28.864  35.249  1.00  0.00     0.029 A 
ATOM     60  C   UNL A   1      43.149  28.436  33.945  1.00  0.00     0.049 A 
ATOM     61  H   UNL A   1      41.701  29.057  32.540  1.00  0.00     0.167 HD
ATOM     62  C   UNL A   1      43.659  27.114  31.911  1.00  0.00     0.074 A 
ATOM     63  C   UNL A   1      44.431  26.144  31.161  1.00  0.00     0.031 C 
ATOM     64  C   UNL A   1      43.899  27.453  33.203  1.00  0.00     0.034 A 
BRANCH  51  65
ATOM     65  C   UNL A   1      40.128  31.868  35.355  1.00  0.00     0.023 A 
ATOM     66  C   UNL A   1      40.827  33.088  35.479  1.00  0.00     0.012 A 
ATOM     67  C   UNL A   1      39.093  31.575  36.265  1.00  0.00     0.148 A 
ATOM     68  C   UNL A   1      40.541  33.972  36.519  1.00  0.00     0.002 A 
ATOM     69  C   UNL A   1      38.781  32.484  37.270  1.00  0.00     0.091 A 
ATOM     70  F   UNL A   1      38.451  30.403  36.151  1.00  0.00    -0.205 F 
ATOM     71  C   UNL A   1      39.513  33.675  37.408  1.00  0.00     0.022 A 
BRANCH  69  72
ATOM     72  S   UNL A   1      37.419  32.224  38.412  1.00  0.00     0.127 S 
ATOM     73  O   UNL A   1      37.955  32.792  39.647  1.00  0.00    -0.237 OA
ATOM     74  O   UNL A   1      36.345  33.007  37.798  1.00  0.00    -0.237 OA
ATOM     75  O   UNL A   1      37.183  30.787  38.427  1.00  0.00    -0.744 OA
ENDBRANCH  69  72
ENDBRANCH  51  65
BRANCH  52  76
ATOM     76  C   UNL A   1      42.464  26.318  27.416  1.00  0.00     0.023 A 
ATOM     77  C   UNL A   1      43.281  26.911  26.435  1.00  0.00     0.012 A 
ATOM     78  C   UNL A   1      42.084  24.969  27.276  1.00  0.00     0.148 A 
ATOM     79  C   UNL A   1      43.701  26.177  25.325  1.00  0.00     0.002 A 
ATOM     80  C   UNL A   1      42.555  24.228  26.198  1.00  0.00     0.091 A 
ATOM     81  F   UNL A   1      41.300  24.430  28.220  1.00  0.00    -0.205 F 
ATOM     82  C   UNL A   1      43.350  24.834  25.214  1.00  0.00     0.022 A 
BRANCH  80  83
ATOM     83  S   UNL A   1      42.277  22.459  26.055  1.00  0.00     0.127 S 
ATOM     84  O   UNL A   1      40.817  22.389  26.017  1.00  0.00    -0.237 OA
ATOM     85  O   UNL A   1      42.942  22.157  24.786  1.00  0.00    -0.237 OA
ATOM     86  O   UNL A   1      42.906  21.863  27.222  1.00  0.00    -0.744 OA
ENDBRANCH  80  83
ENDBRANCH  52  76
BRANCH  64  87
ATOM     87  C   UNL A   1      45.039  26.755  33.901  1.00  0.00     0.023 A 
ATOM     88  C   UNL A   1      46.352  27.253  33.776  1.00  0.00     0.012 A 
ATOM     89  C   UNL A   1      44.805  25.626  34.712  1.00  0.00     0.148 A 
ATOM     90  C   UNL A   1      47.419  26.613  34.408  1.00  0.00     0.002 A 
ATOM     91  C   UNL A   1      45.866  25.024  35.379  1.00  0.00     0.091 A 
ATOM     92  F   UNL A   1      43.555  25.150  34.804  1.00  0.00    -0.205 F 
ATOM     93  C   UNL A   1      47.174  25.506  35.217  1.00  0.00     0.022 A 
BRANCH  91  94
ATOM     94  S   UNL A   1      45.625  23.654  36.516  1.00  0.00     0.127 S 
ATOM     95  O   UNL A   1      44.938  22.681  35.670  1.00  0.00    -0.237 OA
ATOM     96  O   UNL A   1      46.999  23.293  36.869  1.00  0.00    -0.237 OA
ATOM     97  O   UNL A   1      44.844  24.191  37.622  1.00  0.00    -0.744 OA
ENDBRANCH  91  94
ENDBRANCH  64  87
ENDBRANCH  38  39
ENDBRANCH  30  33
ENDBRANCH  28  29
ENDBRANCH  27  28
ENDBRANCH  26  27
ENDBRANCH   1  26
TORSDOF 19
ENDMDL
