MODEL 1
REMARK VINA RESULT:     -11.7      0.000      0.000
REMARK SMILES Cc1nnc(S[C@H]2CCC[C@@]([NH2+]C3CC3)(C(=O)NCCCCCCNC(=O)c3ccc(-c4c5nc(c(-c6cccc(S(=O)(=O)[O-])c6F)c6ccc([nH]6)c(-c6cccc(S(=O)(=O)[O-])c6F)c6nc(c(-c7cccc(S(=O)(=O)[O-])c7F)c7ccc4[nH]7)C=C6)C=C5)cc3)C2)n1C
REMARK SMILES IDX 22 1 21 2 20 3 19 4 18 5 16 6 17 7 11 9 7 10 8 11 91 12 9 13
REMARK SMILES IDX 10 14 6 15 5 16 1 17 2 18 3 19 92 20 4 21 93 22 12 23 13 26
REMARK SMILES IDX 14 27 15 28 23 29 24 30 25 31 26 32 27 34 28 35 29 36 90 37
REMARK SMILES IDX 30 38 89 39 31 40 32 41 33 42 83 43 34 44 88 45 82 46 84 47
REMARK SMILES IDX 35 48 87 49 81 50 80 51 36 53 68 54 48 55 67 56 49 57 52 58
REMARK SMILES IDX 66 59 85 60 50 61 51 62 65 64 86 65 53 66 37 67 38 68 46 69
REMARK SMILES IDX 39 70 41 71 47 72 40 73 42 74 43 75 44 76 45 77 69 78 70 79
REMARK SMILES IDX 78 80 71 81 73 82 79 83 72 84 74 85 75 86 76 87 77 88 54 89
REMARK SMILES IDX 55 90 63 91 56 92 58 93 64 94 57 95 59 96 60 97 61 98 62 99
REMARK H PARENT 18 8 12 24 12 25 25 33 84 52 52 63
REMARK Flexibility Score: inf
ROOT
ATOM      1  C   UNL A   1      39.170  22.068  26.183  1.00  0.00     0.002 C 
ENDROOT
BRANCH   1   2
ATOM      2  C   UNL A   1      37.916  22.746  25.605  1.00  0.00     0.002 C 
BRANCH   2   3
ATOM      3  C   UNL A   1      37.052  21.879  24.676  1.00  0.00     0.021 C 
BRANCH   3   4
ATOM      4  C   UNL A   1      36.193  20.850  25.413  1.00  0.00     0.116 C 
BRANCH   4   5
ATOM      5  N   UNL A   1      35.418  21.504  26.449  1.00  0.00    -0.351 N 
ATOM      6  C   UNL A   1      34.076  21.666  26.627  1.00  0.00     0.281 C 
ATOM      7  O   UNL A   1      33.785  22.348  27.615  1.00  0.00    -0.268 OA
ATOM      8  H   UNL A   1      35.966  21.908  27.160  1.00  0.00     0.163 HD
BRANCH   6   9
ATOM      9  C   UNL A   1      33.013  20.959  25.700  1.00  0.00     0.176 C 
ATOM     10  C   UNL A   1      31.306  22.909  25.096  1.00  0.00     0.061 C 
ATOM     11  C   UNL A   1      32.032  23.078  23.759  1.00  0.00     0.015 C 
ATOM     12  C   UNL A   1      31.550  21.514  25.720  1.00  0.00     0.094 C 
ATOM     13  C   UNL A   1      33.435  22.491  23.712  1.00  0.00     0.008 C 
ATOM     14  C   UNL A   1      33.455  21.047  24.217  1.00  0.00     0.079 C 
BRANCH  10  15
ATOM     15  S   UNL A   1      31.549  24.108  26.434  1.00  0.00    -0.082 SA
BRANCH  15  16
ATOM     16  C   UNL A   1      32.545  25.377  25.868  1.00  0.00     0.191 A 
ATOM     17  C   UNL A   1      33.096  28.034  23.472  1.00  0.00     0.090 C 
ATOM     18  C   UNL A   1      33.129  26.997  24.526  1.00  0.00     0.130 A 
ATOM     19  N   UNL A   1      34.221  26.471  25.046  1.00  0.00    -0.135 NA
ATOM     20  N   UNL A   1      32.036  26.380  25.085  1.00  0.00    -0.309 N 
ATOM     21  N   UNL A   1      33.852  25.439  25.880  1.00  0.00    -0.123 NA
ATOM     22  C   UNL A   1      30.640  26.659  24.858  1.00  0.00     0.154 C 
ENDBRANCH  15  16
ENDBRANCH  10  15
BRANCH   9  23
ATOM     23  N   UNL A   1      32.944  19.528  26.124  1.00  0.00    -0.331 N 
ATOM     24  H   UNL A   1      32.154  19.450  26.766  1.00  0.00     0.347 HD
ATOM     25  H   UNL A   1      33.876  19.351  26.499  1.00  0.00     0.347 HD
BRANCH  23  26
ATOM     26  C   UNL A   1      32.780  18.463  25.119  1.00  0.00     0.183 C 
ATOM     27  C   UNL A   1      33.823  17.471  24.676  1.00  0.00     0.071 C 
ATOM     28  C   UNL A   1      32.708  17.024  25.567  1.00  0.00     0.071 C 
ENDBRANCH  23  26
ENDBRANCH   9  23
ENDBRANCH   6   9
ENDBRANCH   4   5
ENDBRANCH   3   4
ENDBRANCH   2   3
ENDBRANCH   1   2
BRANCH   1  29
ATOM     29  C   UNL A   1      39.643  20.785  25.483  1.00  0.00     0.021 C 
BRANCH  29  30
ATOM     30  C   UNL A   1      39.961  19.646  26.435  1.00  0.00     0.116 C 
BRANCH  30  31
ATOM     31  N   UNL A   1      41.263  19.020  26.160  1.00  0.00    -0.352 N 
ATOM     32  C   UNL A   1      42.488  19.633  25.926  1.00  0.00     0.251 C 
ATOM     33  H   UNL A   1      41.267  18.036  26.139  1.00  0.00     0.163 HD
ATOM     34  O   UNL A   1      43.386  19.051  25.342  1.00  0.00    -0.269 OA
BRANCH  32  35
ATOM     35  C   UNL A   1      42.679  21.004  26.435  1.00  0.00     0.039 A 
ATOM     36  C   UNL A   1      42.993  22.099  25.625  1.00  0.00     0.014 A 
ATOM     37  C   UNL A   1      42.484  21.167  27.796  1.00  0.00     0.014 A 
ATOM     38  C   UNL A   1      43.069  23.356  26.226  1.00  0.00     0.010 A 
ATOM     39  C   UNL A   1      42.210  22.403  28.282  1.00  0.00     0.010 A 
ATOM     40  C   UNL A   1      42.680  23.484  27.567  1.00  0.00    -0.014 A 
BRANCH  40  41
ATOM     41  C   UNL A   1      42.679  24.742  28.291  1.00  0.00     0.031 A 
ATOM     42  C   UNL A   1      41.459  25.539  28.050  1.00  0.00     0.074 A 
ATOM     43  C   UNL A   1      43.563  24.993  29.287  1.00  0.00     0.049 A 
ATOM     44  N   UNL A   1      41.334  26.568  27.281  1.00  0.00    -0.248 NA
ATOM     45  C   UNL A   1      40.179  24.995  28.532  1.00  0.00     0.031 C 
ATOM     46  C   UNL A   1      44.565  24.078  29.868  1.00  0.00     0.029 A 
ATOM     47  N   UNL A   1      43.659  26.076  30.101  1.00  0.00    -0.354 N 
ATOM     48  C   UNL A   1      40.012  26.971  27.445  1.00  0.00     0.074 A 
ATOM     49  C   UNL A   1      39.310  25.827  27.955  1.00  0.00     0.031 C 
ATOM     50  C   UNL A   1      44.969  24.545  31.070  1.00  0.00     0.029 A 
ATOM     51  C   UNL A   1      44.407  25.867  31.258  1.00  0.00     0.049 A 
ATOM     52  H   UNL A   1      43.235  26.939  29.890  1.00  0.00     0.167 HD
ATOM     53  C   UNL A   1      39.697  28.294  27.499  1.00  0.00     0.034 A 
ATOM     54  C   UNL A   1      44.516  26.711  32.313  1.00  0.00     0.034 A 
ATOM     55  C   UNL A   1      40.823  29.101  27.091  1.00  0.00     0.049 A 
ATOM     56  C   UNL A   1      44.121  28.049  31.826  1.00  0.00     0.074 A 
ATOM     57  C   UNL A   1      41.577  29.258  25.947  1.00  0.00     0.029 A 
ATOM     58  N   UNL A   1      41.574  29.594  28.132  1.00  0.00    -0.354 N 
ATOM     59  N   UNL A   1      44.775  28.704  30.907  1.00  0.00    -0.248 NA
ATOM     60  C   UNL A   1      42.752  28.481  32.048  1.00  0.00     0.031 C 
ATOM     61  C   UNL A   1      42.906  29.507  26.405  1.00  0.00     0.029 A 
ATOM     62  C   UNL A   1      42.899  29.562  27.801  1.00  0.00     0.049 A 
ATOM     63  H   UNL A   1      41.210  29.920  28.986  1.00  0.00     0.167 HD
ATOM     64  C   UNL A   1      43.783  29.287  30.131  1.00  0.00     0.074 A 
ATOM     65  C   UNL A   1      42.583  29.245  30.966  1.00  0.00     0.031 C 
ATOM     66  C   UNL A   1      43.960  29.461  28.786  1.00  0.00     0.034 A 
BRANCH  53  67
ATOM     67  C   UNL A   1      38.593  28.900  28.350  1.00  0.00     0.023 A 
ATOM     68  C   UNL A   1      37.704  29.785  27.695  1.00  0.00     0.012 A 
ATOM     69  C   UNL A   1      38.543  28.886  29.764  1.00  0.00     0.148 A 
ATOM     70  C   UNL A   1      36.863  30.646  28.406  1.00  0.00     0.002 A 
ATOM     71  C   UNL A   1      37.649  29.688  30.465  1.00  0.00     0.091 A 
ATOM     72  F   UNL A   1      39.447  28.204  30.466  1.00  0.00    -0.205 F 
ATOM     73  C   UNL A   1      36.830  30.595  29.794  1.00  0.00     0.022 A 
BRANCH  71  74
ATOM     74  S   UNL A   1      37.541  29.634  32.261  1.00  0.00     0.127 S 
ATOM     75  O   UNL A   1      36.284  30.337  32.496  1.00  0.00    -0.237 OA
ATOM     76  O   UNL A   1      37.505  28.193  32.510  1.00  0.00    -0.237 OA
ATOM     77  O   UNL A   1      38.747  30.294  32.748  1.00  0.00    -0.744 OA
ENDBRANCH  71  74
ENDBRANCH  53  67
BRANCH  54  78
ATOM     78  C   UNL A   1      44.638  26.405  33.759  1.00  0.00     0.023 A 
ATOM     79  C   UNL A   1      45.868  26.591  34.423  1.00  0.00     0.012 A 
ATOM     80  C   UNL A   1      43.480  26.214  34.544  1.00  0.00     0.148 A 
ATOM     81  C   UNL A   1      45.936  26.614  35.823  1.00  0.00     0.002 A 
ATOM     82  C   UNL A   1      43.551  26.234  35.934  1.00  0.00     0.091 A 
ATOM     83  F   UNL A   1      42.298  26.102  33.924  1.00  0.00    -0.205 F 
ATOM     84  C   UNL A   1      44.779  26.445  36.578  1.00  0.00     0.022 A 
BRANCH  82  85
ATOM     85  S   UNL A   1      42.096  26.056  36.977  1.00  0.00     0.127 S 
ATOM     86  O   UNL A   1      41.625  24.722  36.605  1.00  0.00    -0.237 OA
ATOM     87  O   UNL A   1      42.668  26.152  38.317  1.00  0.00    -0.237 OA
ATOM     88  O   UNL A   1      41.196  27.139  36.599  1.00  0.00    -0.744 OA
ENDBRANCH  82  85
ENDBRANCH  54  78
BRANCH  66  89
ATOM     89  C   UNL A   1      45.366  29.357  28.248  1.00  0.00     0.023 A 
ATOM     90  C   UNL A   1      45.934  28.151  27.785  1.00  0.00     0.012 A 
ATOM     91  C   UNL A   1      46.079  30.553  28.071  1.00  0.00     0.148 A 
ATOM     92  C   UNL A   1      47.194  28.142  27.178  1.00  0.00     0.002 A 
ATOM     93  C   UNL A   1      47.308  30.547  27.426  1.00  0.00     0.091 A 
ATOM     94  F   UNL A   1      45.524  31.690  28.517  1.00  0.00    -0.205 F 
ATOM     95  C   UNL A   1      47.876  29.342  26.986  1.00  0.00     0.022 A 
BRANCH  93  96
ATOM     96  S   UNL A   1      48.172  32.073  27.047  1.00  0.00     0.127 S 
ATOM     97  O   UNL A   1      47.248  32.724  26.122  1.00  0.00    -0.237 OA
ATOM     98  O   UNL A   1      48.275  32.708  28.362  1.00  0.00    -0.237 OA
ATOM     99  O   UNL A   1      49.455  31.678  26.477  1.00  0.00    -0.744 OA
ENDBRANCH  93  96
ENDBRANCH  66  89
ENDBRANCH  40  41
ENDBRANCH  32  35
ENDBRANCH  30  31
ENDBRANCH  29  30
ENDBRANCH   1  29
TORSDOF 20
ENDMDL
MODEL 2
REMARK VINA RESULT:     -11.4      1.771      2.134
REMARK SMILES Cc1nnc(S[C@H]2CCC[C@@]([NH2+]C3CC3)(C(=O)NCCCCCCNC(=O)c3ccc(-c4c5nc(c(-c6cccc(S(=O)(=O)[O-])c6F)c6ccc([nH]6)c(-c6cccc(S(=O)(=O)[O-])c6F)c6nc(c(-c7cccc(S(=O)(=O)[O-])c7F)c7ccc4[nH]7)C=C6)C=C5)cc3)C2)n1C
REMARK SMILES IDX 22 1 21 2 20 3 19 4 18 5 16 6 17 7 11 9 7 10 8 11 91 12 9 13
REMARK SMILES IDX 10 14 6 15 5 16 1 17 2 18 3 19 92 20 4 21 93 22 12 23 13 26
REMARK SMILES IDX 14 27 15 28 23 29 24 30 25 31 26 32 27 34 28 35 29 36 90 37
REMARK SMILES IDX 30 38 89 39 31 40 32 41 33 42 83 43 34 44 88 45 82 46 84 47
REMARK SMILES IDX 35 48 87 49 81 50 80 51 36 53 68 54 48 55 67 56 49 57 52 58
REMARK SMILES IDX 66 59 85 60 50 61 51 62 65 64 86 65 53 66 37 67 38 68 46 69
REMARK SMILES IDX 39 70 41 71 47 72 40 73 42 74 43 75 44 76 45 77 69 78 70 79
REMARK SMILES IDX 78 80 71 81 73 82 79 83 72 84 74 85 75 86 76 87 77 88 54 89
REMARK SMILES IDX 55 90 63 91 56 92 58 93 64 94 57 95 59 96 60 97 61 98 62 99
REMARK H PARENT 18 8 12 24 12 25 25 33 84 52 52 63
REMARK Flexibility Score: inf
ROOT
ATOM      1  C   UNL A   1      39.241  21.814  26.175  1.00  0.00     0.002 C 
ENDROOT
BRANCH   1   2
ATOM      2  C   UNL A   1      38.066  22.586  25.553  1.00  0.00     0.002 C 
BRANCH   2   3
ATOM      3  C   UNL A   1      36.667  22.201  26.057  1.00  0.00     0.021 C 
BRANCH   3   4
ATOM      4  C   UNL A   1      35.643  23.335  25.966  1.00  0.00     0.116 C 
BRANCH   4   5
ATOM      5  N   UNL A   1      35.374  23.647  24.577  1.00  0.00    -0.351 N 
ATOM      6  C   UNL A   1      34.346  23.316  23.744  1.00  0.00     0.281 C 
ATOM      7  O   UNL A   1      34.495  23.720  22.586  1.00  0.00    -0.268 OA
ATOM      8  H   UNL A   1      36.065  24.206  24.154  1.00  0.00     0.163 HD
BRANCH   6   9
ATOM      9  C   UNL A   1      33.054  22.569  24.258  1.00  0.00     0.176 C 
ATOM     10  C   UNL A   1      31.654  24.485  25.462  1.00  0.00     0.061 C 
ATOM     11  C   UNL A   1      30.808  24.610  24.193  1.00  0.00     0.015 C 
ATOM     12  C   UNL A   1      32.368  23.115  25.554  1.00  0.00     0.094 C 
ATOM     13  C   UNL A   1      31.443  24.031  22.937  1.00  0.00     0.008 C 
ATOM     14  C   UNL A   1      31.949  22.607  23.172  1.00  0.00     0.079 C 
BRANCH  10  15
ATOM     15  S   UNL A   1      32.907  25.732  25.861  1.00  0.00    -0.082 SA
BRANCH  15  16
ATOM     16  C   UNL A   1      32.124  27.152  26.404  1.00  0.00     0.191 A 
ATOM     17  C   UNL A   1      31.751  30.746  26.187  1.00  0.00     0.090 C 
ATOM     18  C   UNL A   1      31.744  29.299  26.496  1.00  0.00     0.130 A 
ATOM     19  N   UNL A   1      31.430  28.770  27.663  1.00  0.00    -0.135 NA
ATOM     20  N   UNL A   1      32.115  28.290  25.641  1.00  0.00    -0.309 N 
ATOM     21  N   UNL A   1      31.686  27.417  27.608  1.00  0.00    -0.123 NA
ATOM     22  C   UNL A   1      32.491  28.389  24.253  1.00  0.00     0.154 C 
ENDBRANCH  15  16
ENDBRANCH  10  15
BRANCH   9  23
ATOM     23  N   UNL A   1      33.447  21.153  24.533  1.00  0.00    -0.331 N 
ATOM     24  H   UNL A   1      33.889  21.145  25.453  1.00  0.00     0.347 HD
ATOM     25  H   UNL A   1      34.025  20.912  23.729  1.00  0.00     0.347 HD
BRANCH  23  26
ATOM     26  C   UNL A   1      32.427  20.090  24.544  1.00  0.00     0.183 C 
ATOM     27  C   UNL A   1      32.355  18.900  23.622  1.00  0.00     0.071 C 
ATOM     28  C   UNL A   1      32.796  18.713  25.039  1.00  0.00     0.071 C 
ENDBRANCH  23  26
ENDBRANCH   9  23
ENDBRANCH   6   9
ENDBRANCH   4   5
ENDBRANCH   3   4
ENDBRANCH   2   3
ENDBRANCH   1   2
BRANCH   1  29
ATOM     29  C   UNL A   1      39.569  20.446  25.557  1.00  0.00     0.021 C 
BRANCH  29  30
ATOM     30  C   UNL A   1      40.169  19.455  26.539  1.00  0.00     0.116 C 
BRANCH  30  31
ATOM     31  N   UNL A   1      41.473  18.937  26.100  1.00  0.00    -0.352 N 
ATOM     32  C   UNL A   1      42.616  19.646  25.752  1.00  0.00     0.251 C 
ATOM     33  H   UNL A   1      41.546  17.956  26.045  1.00  0.00     0.163 HD
ATOM     34  O   UNL A   1      43.482  19.148  25.053  1.00  0.00    -0.269 OA
BRANCH  32  35
ATOM     35  C   UNL A   1      42.764  21.014  26.282  1.00  0.00     0.039 A 
ATOM     36  C   UNL A   1      42.956  22.143  25.482  1.00  0.00     0.014 A 
ATOM     37  C   UNL A   1      42.658  21.135  27.658  1.00  0.00     0.014 A 
ATOM     38  C   UNL A   1      43.003  23.389  26.108  1.00  0.00     0.010 A 
ATOM     39  C   UNL A   1      42.349  22.341  28.194  1.00  0.00     0.010 A 
ATOM     40  C   UNL A   1      42.704  23.464  27.477  1.00  0.00    -0.014 A 
BRANCH  40  41
ATOM     41  C   UNL A   1      42.683  24.703  28.231  1.00  0.00     0.031 A 
ATOM     42  C   UNL A   1      41.446  25.482  28.016  1.00  0.00     0.074 A 
ATOM     43  C   UNL A   1      43.566  24.946  29.230  1.00  0.00     0.049 A 
ATOM     44  N   UNL A   1      41.298  26.528  27.273  1.00  0.00    -0.248 NA
ATOM     45  C   UNL A   1      40.179  24.902  28.489  1.00  0.00     0.031 C 
ATOM     46  C   UNL A   1      44.588  24.035  29.784  1.00  0.00     0.029 A 
ATOM     47  N   UNL A   1      43.645  26.010  30.070  1.00  0.00    -0.354 N 
ATOM     48  C   UNL A   1      39.970  26.901  27.453  1.00  0.00     0.074 A 
ATOM     49  C   UNL A   1      39.291  25.732  27.937  1.00  0.00     0.031 C 
ATOM     50  C   UNL A   1      44.988  24.481  30.995  1.00  0.00     0.029 A 
ATOM     51  C   UNL A   1      44.402  25.786  31.218  1.00  0.00     0.049 A 
ATOM     52  H   UNL A   1      43.205  26.870  29.883  1.00  0.00     0.167 HD
ATOM     53  C   UNL A   1      39.629  28.216  27.542  1.00  0.00     0.034 A 
ATOM     54  C   UNL A   1      44.501  26.606  32.294  1.00  0.00     0.034 A 
ATOM     55  C   UNL A   1      40.739  29.054  27.149  1.00  0.00     0.049 A 
ATOM     56  C   UNL A   1      44.078  27.948  31.842  1.00  0.00     0.074 A 
ATOM     57  C   UNL A   1      41.483  29.254  26.006  1.00  0.00     0.029 A 
ATOM     58  N   UNL A   1      41.484  29.535  28.199  1.00  0.00    -0.354 N 
ATOM     59  N   UNL A   1      44.715  28.638  30.937  1.00  0.00    -0.248 NA
ATOM     60  C   UNL A   1      42.702  28.348  32.080  1.00  0.00     0.031 C 
ATOM     61  C   UNL A   1      42.810  29.517  26.464  1.00  0.00     0.029 A 
ATOM     62  C   UNL A   1      42.808  29.537  27.862  1.00  0.00     0.049 A 
ATOM     63  H   UNL A   1      41.119  29.833  29.063  1.00  0.00     0.167 HD
ATOM     64  C   UNL A   1      43.708  29.221  30.180  1.00  0.00     0.074 A 
ATOM     65  C   UNL A   1      42.514  29.136  31.019  1.00  0.00     0.031 C 
ATOM     66  C   UNL A   1      43.876  29.431  28.840  1.00  0.00     0.034 A 
BRANCH  53  67
ATOM     67  C   UNL A   1      38.518  28.779  28.412  1.00  0.00     0.023 A 
ATOM     68  C   UNL A   1      37.557  29.589  27.763  1.00  0.00     0.012 A 
ATOM     69  C   UNL A   1      38.514  28.804  29.827  1.00  0.00     0.148 A 
ATOM     70  C   UNL A   1      36.688  30.420  28.478  1.00  0.00     0.002 A 
ATOM     71  C   UNL A   1      37.596  29.571  30.535  1.00  0.00     0.091 A 
ATOM     72  F   UNL A   1      39.481  28.198  30.517  1.00  0.00    -0.205 F 
ATOM     73  C   UNL A   1      36.702  30.407  29.867  1.00  0.00     0.022 A 
BRANCH  71  74
ATOM     74  S   UNL A   1      37.548  29.564  32.334  1.00  0.00     0.127 S 
ATOM     75  O   UNL A   1      37.480  28.133  32.617  1.00  0.00    -0.237 OA
ATOM     76  O   UNL A   1      38.821  30.205  32.665  1.00  0.00    -0.237 OA
ATOM     77  O   UNL A   1      36.373  30.347  32.700  1.00  0.00    -0.744 OA
ENDBRANCH  71  74
ENDBRANCH  53  67
BRANCH  54  78
ATOM     78  C   UNL A   1      44.636  26.266  33.731  1.00  0.00     0.023 A 
ATOM     79  C   UNL A   1      45.895  26.332  34.361  1.00  0.00     0.012 A 
ATOM     80  C   UNL A   1      43.487  26.165  34.547  1.00  0.00     0.148 A 
ATOM     81  C   UNL A   1      46.003  26.326  35.759  1.00  0.00     0.002 A 
ATOM     82  C   UNL A   1      43.599  26.155  35.935  1.00  0.00     0.091 A 
ATOM     83  F   UNL A   1      42.283  26.168  33.960  1.00  0.00    -0.205 F 
ATOM     84  C   UNL A   1      44.857  26.247  36.545  1.00  0.00     0.022 A 
BRANCH  82  85
ATOM     85  S   UNL A   1      42.163  26.088  37.017  1.00  0.00     0.127 S 
ATOM     86  O   UNL A   1      42.780  26.195  38.339  1.00  0.00    -0.237 OA
ATOM     87  O   UNL A   1      41.410  27.266  36.596  1.00  0.00    -0.237 OA
ATOM     88  O   UNL A   1      41.521  24.805  36.753  1.00  0.00    -0.744 OA
ENDBRANCH  82  85
ENDBRANCH  54  78
BRANCH  66  89
ATOM     89  C   UNL A   1      45.281  29.368  28.292  1.00  0.00     0.023 A 
ATOM     90  C   UNL A   1      46.220  30.410  28.439  1.00  0.00     0.012 A 
ATOM     91  C   UNL A   1      45.703  28.148  27.739  1.00  0.00     0.148 A 
ATOM     92  C   UNL A   1      47.545  30.241  28.023  1.00  0.00     0.002 A 
ATOM     93  C   UNL A   1      47.029  27.967  27.371  1.00  0.00     0.091 A 
ATOM     94  F   UNL A   1      44.796  27.168  27.607  1.00  0.00    -0.205 F 
ATOM     95  C   UNL A   1      47.954  29.015  27.502  1.00  0.00     0.022 A 
BRANCH  93  96
ATOM     96  S   UNL A   1      47.634  26.376  26.807  1.00  0.00     0.127 S 
ATOM     97  O   UNL A   1      46.900  26.197  25.556  1.00  0.00    -0.237 OA
ATOM     98  O   UNL A   1      49.067  26.625  26.647  1.00  0.00    -0.237 OA
ATOM     99  O   UNL A   1      47.310  25.425  27.864  1.00  0.00    -0.744 OA
ENDBRANCH  93  96
ENDBRANCH  66  89
ENDBRANCH  40  41
ENDBRANCH  32  35
ENDBRANCH  30  31
ENDBRANCH  29  30
ENDBRANCH   1  29
TORSDOF 20
ENDMDL
MODEL 3
REMARK VINA RESULT:     -11.3      3.706      9.447
REMARK SMILES Cc1nnc(S[C@H]2CCC[C@@]([NH2+]C3CC3)(C(=O)NCCCCCCNC(=O)c3ccc(-c4c5nc(c(-c6cccc(S(=O)(=O)[O-])c6F)c6ccc([nH]6)c(-c6cccc(S(=O)(=O)[O-])c6F)c6nc(c(-c7cccc(S(=O)(=O)[O-])c7F)c7ccc4[nH]7)C=C6)C=C5)cc3)C2)n1C
REMARK SMILES IDX 22 1 21 2 20 3 19 4 18 5 16 6 17 7 11 9 7 10 8 11 91 12 9 13
REMARK SMILES IDX 10 14 6 15 5 16 1 17 2 18 3 19 92 20 4 21 93 22 12 23 13 26
REMARK SMILES IDX 14 27 15 28 23 29 24 30 25 31 26 32 27 34 28 35 29 36 90 37
REMARK SMILES IDX 30 38 89 39 31 40 32 41 33 42 83 43 34 44 88 45 82 46 84 47
REMARK SMILES IDX 35 48 87 49 81 50 80 51 36 53 68 54 48 55 67 56 49 57 52 58
REMARK SMILES IDX 66 59 85 60 50 61 51 62 65 64 86 65 53 66 37 67 38 68 46 69
REMARK SMILES IDX 39 70 41 71 47 72 40 73 42 74 43 75 44 76 45 77 69 78 70 79
REMARK SMILES IDX 78 80 71 81 73 82 79 83 72 84 74 85 75 86 76 87 77 88 54 89
REMARK SMILES IDX 55 90 63 91 56 92 58 93 64 94 57 95 59 96 60 97 61 98 62 99
REMARK H PARENT 18 8 12 24 12 25 25 33 84 52 52 63
REMARK Flexibility Score: inf
ROOT
ATOM      1  C   UNL A   1      32.286  30.730  26.653  1.00  0.00     0.002 C 
ENDROOT
BRANCH   1   2
ATOM      2  C   UNL A   1      33.649  30.389  27.280  1.00  0.00     0.002 C 
BRANCH   2   3
ATOM      3  C   UNL A   1      34.142  28.949  27.070  1.00  0.00     0.021 C 
BRANCH   3   4
ATOM      4  C   UNL A   1      33.600  28.289  25.801  1.00  0.00     0.116 C 
BRANCH   4   5
ATOM      5  N   UNL A   1      32.606  27.294  26.147  1.00  0.00    -0.351 N 
ATOM      6  C   UNL A   1      31.777  26.521  25.388  1.00  0.00     0.281 C 
ATOM      7  O   UNL A   1      31.005  25.820  26.051  1.00  0.00    -0.268 OA
ATOM      8  H   UNL A   1      32.510  27.148  27.116  1.00  0.00     0.163 HD
BRANCH   6   9
ATOM      9  C   UNL A   1      31.879  26.472  23.814  1.00  0.00     0.176 C 
ATOM     10  C   UNL A   1      33.604  24.499  23.354  1.00  0.00     0.061 C 
ATOM     11  C   UNL A   1      32.413  23.575  23.084  1.00  0.00     0.015 C 
ATOM     12  C   UNL A   1      33.231  25.992  23.189  1.00  0.00     0.094 C 
ATOM     13  C   UNL A   1      31.083  24.062  23.639  1.00  0.00     0.008 C 
ATOM     14  C   UNL A   1      30.807  25.512  23.239  1.00  0.00     0.079 C 
BRANCH  10  15
ATOM     15  S   UNL A   1      34.529  24.380  24.907  1.00  0.00    -0.082 SA
BRANCH  15  16
ATOM     16  C   UNL A   1      35.034  22.762  25.130  1.00  0.00     0.191 A 
ATOM     17  C   UNL A   1      37.679  20.298  24.929  1.00  0.00     0.090 C 
ATOM     18  C   UNL A   1      36.435  21.090  25.058  1.00  0.00     0.130 A 
ATOM     19  N   UNL A   1      35.211  20.613  24.939  1.00  0.00    -0.135 NA
ATOM     20  N   UNL A   1      36.360  22.447  25.261  1.00  0.00    -0.309 N 
ATOM     21  N   UNL A   1      34.329  21.670  24.969  1.00  0.00    -0.123 NA
ATOM     22  C   UNL A   1      37.439  23.375  25.492  1.00  0.00     0.154 C 
ENDBRANCH  15  16
ENDBRANCH  10  15
BRANCH   9  23
ATOM     23  N   UNL A   1      31.636  27.861  23.316  1.00  0.00    -0.331 N 
ATOM     24  H   UNL A   1      31.838  27.854  22.316  1.00  0.00     0.347 HD
ATOM     25  H   UNL A   1      32.233  28.431  23.915  1.00  0.00     0.347 HD
BRANCH  23  26
ATOM     26  C   UNL A   1      30.310  28.484  23.475  1.00  0.00     0.183 C 
ATOM     27  C   UNL A   1      30.023  29.937  23.752  1.00  0.00     0.071 C 
ATOM     28  C   UNL A   1      29.775  29.381  22.386  1.00  0.00     0.071 C 
ENDBRANCH  23  26
ENDBRANCH   9  23
ENDBRANCH   6   9
ENDBRANCH   4   5
ENDBRANCH   3   4
ENDBRANCH   2   3
ENDBRANCH   1   2
BRANCH   1  29
ATOM     29  C   UNL A   1      31.573  31.979  27.195  1.00  0.00     0.021 C 
BRANCH  29  30
ATOM     30  C   UNL A   1      32.240  33.286  26.806  1.00  0.00     0.116 C 
BRANCH  30  31
ATOM     31  N   UNL A   1      32.188  34.293  27.877  1.00  0.00    -0.352 N 
ATOM     32  C   UNL A   1      32.994  34.404  29.003  1.00  0.00     0.251 C 
ATOM     33  H   UNL A   1      31.488  34.980  27.782  1.00  0.00     0.163 HD
ATOM     34  O   UNL A   1      32.624  35.020  29.987  1.00  0.00    -0.269 OA
BRANCH  32  35
ATOM     35  C   UNL A   1      34.327  33.777  28.959  1.00  0.00     0.039 A 
ATOM     36  C   UNL A   1      35.289  34.057  27.984  1.00  0.00     0.014 A 
ATOM     37  C   UNL A   1      34.606  32.897  29.992  1.00  0.00     0.014 A 
ATOM     38  C   UNL A   1      36.539  33.449  28.106  1.00  0.00     0.010 A 
ATOM     39  C   UNL A   1      35.898  32.612  30.288  1.00  0.00     0.010 A 
ATOM     40  C   UNL A   1      36.821  32.719  29.269  1.00  0.00    -0.014 A 
BRANCH  40  41
ATOM     41  C   UNL A   1      38.094  32.073  29.528  1.00  0.00     0.031 A 
ATOM     42  C   UNL A   1      38.152  30.694  29.005  1.00  0.00     0.074 A 
ATOM     43  C   UNL A   1      39.180  32.774  29.937  1.00  0.00     0.049 A 
ATOM     44  N   UNL A   1      38.039  29.595  29.674  1.00  0.00    -0.248 NA
ATOM     45  C   UNL A   1      38.094  30.511  27.545  1.00  0.00     0.031 C 
ATOM     46  C   UNL A   1      39.314  34.236  30.095  1.00  0.00     0.029 A 
ATOM     47  N   UNL A   1      40.449  32.345  30.159  1.00  0.00    -0.354 N 
ATOM     48  C   UNL A   1      38.213  28.588  28.730  1.00  0.00     0.074 A 
ATOM     49  C   UNL A   1      37.937  29.189  27.455  1.00  0.00     0.031 C 
ATOM     50  C   UNL A   1      40.622  34.573  30.133  1.00  0.00     0.029 A 
ATOM     51  C   UNL A   1      41.406  33.357  30.191  1.00  0.00     0.049 A 
ATOM     52  H   UNL A   1      40.675  31.395  30.289  1.00  0.00     0.167 HD
ATOM     53  C   UNL A   1      38.919  27.467  29.040  1.00  0.00     0.034 A 
ATOM     54  C   UNL A   1      42.752  33.196  30.220  1.00  0.00     0.034 A 
ATOM     55  C   UNL A   1      39.158  27.396  30.463  1.00  0.00     0.049 A 
ATOM     56  C   UNL A   1      43.002  31.819  30.694  1.00  0.00     0.074 A 
ATOM     57  C   UNL A   1      38.386  27.307  31.601  1.00  0.00     0.029 A 
ATOM     58  N   UNL A   1      40.391  27.860  30.854  1.00  0.00    -0.354 N 
ATOM     59  N   UNL A   1      42.670  31.394  31.882  1.00  0.00    -0.248 NA
ATOM     60  C   UNL A   1      43.233  30.784  29.701  1.00  0.00     0.031 C 
ATOM     61  C   UNL A   1      39.080  28.074  32.586  1.00  0.00     0.029 A 
ATOM     62  C   UNL A   1      40.276  28.540  32.033  1.00  0.00     0.049 A 
ATOM     63  H   UNL A   1      41.231  27.722  30.358  1.00  0.00     0.167 HD
ATOM     64  C   UNL A   1      42.197  30.107  31.665  1.00  0.00     0.074 A 
ATOM     65  C   UNL A   1      42.712  29.738  30.347  1.00  0.00     0.031 C 
ATOM     66  C   UNL A   1      41.189  29.595  32.433  1.00  0.00     0.034 A 
BRANCH  53  67
ATOM     67  C   UNL A   1      39.804  26.692  28.078  1.00  0.00     0.023 A 
ATOM     68  C   UNL A   1      39.737  25.281  28.156  1.00  0.00     0.012 A 
ATOM     69  C   UNL A   1      40.874  27.233  27.327  1.00  0.00     0.148 A 
ATOM     70  C   UNL A   1      40.710  24.462  27.574  1.00  0.00     0.002 A 
ATOM     71  C   UNL A   1      41.796  26.414  26.684  1.00  0.00     0.091 A 
ATOM     72  F   UNL A   1      41.107  28.546  27.330  1.00  0.00    -0.205 F 
ATOM     73  C   UNL A   1      41.739  25.028  26.831  1.00  0.00     0.022 A 
BRANCH  71  74
ATOM     74  S   UNL A   1      43.126  27.094  25.681  1.00  0.00     0.127 S 
ATOM     75  O   UNL A   1      43.750  25.879  25.165  1.00  0.00    -0.237 OA
ATOM     76  O   UNL A   1      42.380  27.878  24.696  1.00  0.00    -0.237 OA
ATOM     77  O   UNL A   1      43.935  27.895  26.592  1.00  0.00    -0.744 OA
ENDBRANCH  71  74
ENDBRANCH  53  67
BRANCH  54  78
ATOM     78  C   UNL A   1      43.815  34.016  29.591  1.00  0.00     0.023 A 
ATOM     79  C   UNL A   1      44.668  34.807  30.388  1.00  0.00     0.012 A 
ATOM     80  C   UNL A   1      44.179  33.795  28.244  1.00  0.00     0.148 A 
ATOM     81  C   UNL A   1      45.857  35.335  29.868  1.00  0.00     0.002 A 
ATOM     82  C   UNL A   1      45.360  34.324  27.730  1.00  0.00     0.091 A 
ATOM     83  F   UNL A   1      43.410  32.991  27.497  1.00  0.00    -0.205 F 
ATOM     84  C   UNL A   1      46.208  35.087  28.544  1.00  0.00     0.022 A 
BRANCH  82  85
ATOM     85  S   UNL A   1      45.896  34.020  26.039  1.00  0.00     0.127 S 
ATOM     86  O   UNL A   1      45.965  32.559  26.007  1.00  0.00    -0.237 OA
ATOM     87  O   UNL A   1      44.802  34.599  25.265  1.00  0.00    -0.237 OA
ATOM     88  O   UNL A   1      47.186  34.687  25.901  1.00  0.00    -0.744 OA
ENDBRANCH  82  85
ENDBRANCH  54  78
BRANCH  66  89
ATOM     89  C   UNL A   1      40.872  30.299  33.730  1.00  0.00     0.023 A 
ATOM     90  C   UNL A   1      41.700  30.237  34.870  1.00  0.00     0.012 A 
ATOM     91  C   UNL A   1      39.769  31.168  33.739  1.00  0.00     0.148 A 
ATOM     92  C   UNL A   1      41.420  31.014  35.999  1.00  0.00     0.002 A 
ATOM     93  C   UNL A   1      39.521  31.973  34.843  1.00  0.00     0.091 A 
ATOM     94  F   UNL A   1      38.993  31.214  32.646  1.00  0.00    -0.205 F 
ATOM     95  C   UNL A   1      40.338  31.892  35.982  1.00  0.00     0.022 A 
BRANCH  93  96
ATOM     96  S   UNL A   1      38.217  33.203  34.828  1.00  0.00     0.127 S 
ATOM     97  O   UNL A   1      37.016  32.375  34.902  1.00  0.00    -0.237 OA
ATOM     98  O   UNL A   1      38.504  33.978  36.036  1.00  0.00    -0.237 OA
ATOM     99  O   UNL A   1      38.385  33.952  33.588  1.00  0.00    -0.744 OA
ENDBRANCH  93  96
ENDBRANCH  66  89
ENDBRANCH  40  41
ENDBRANCH  32  35
ENDBRANCH  30  31
ENDBRANCH  29  30
ENDBRANCH   1  29
TORSDOF 20
ENDMDL
