MODEL 1
REMARK VINA RESULT:      -9.5      0.000      0.000
REMARK SMILES CCN(Cc1ccc(Br)s1)C(=O)C[N@@H+](C)CC(=O)NCCCCCCNC(=O)c1ccc(-c2c3nc(c(-c4cccc(S(=O)(=O)[O-])c4F)c4ccc([nH]4)c(-c4cccc(S(=O)(=O)[O-])c4F)c4nc(c(-c5cccc(S(=O)(=O)[O-])c5F)c5ccc2[nH]5)C=C4)C=C3)cc1
REMARK SMILES IDX 21 1 20 2 19 3 17 4 18 5 16 7 14 8 15 9 13 11 11 12 12 13
REMARK SMILES IDX 3 14 2 15 1 16 4 17 5 18 6 19 10 20 7 21 8 22 9 23 22 24
REMARK SMILES IDX 23 25 24 26 25 27 26 28 27 29 28 31 29 32 30 33 91 34 31 35
REMARK SMILES IDX 90 36 32 37 33 38 34 39 84 40 35 41 89 42 83 43 85 44 36 45
REMARK SMILES IDX 88 46 82 47 81 48 37 50 69 51 49 52 68 53 50 54 53 55 67 56
REMARK SMILES IDX 86 57 51 58 52 59 66 61 87 62 54 63 38 64 39 65 47 66 40 67
REMARK SMILES IDX 42 68 48 69 41 70 43 71 44 72 45 73 46 74 70 75 71 76 79 77
REMARK SMILES IDX 72 78 74 79 80 80 73 81 75 82 76 83 77 84 78 85 55 86 56 87
REMARK SMILES IDX 64 88 57 89 59 90 65 91 58 92 60 93 61 94 62 95 63 96
REMARK H PARENT 19 6 14 10 26 30 85 49 53 60
REMARK Flexibility Score: inf
ROOT
ATOM      1  C   UNL A   1      35.372  29.261  27.684  1.00  0.00     0.021 C 
ENDROOT
BRANCH   1   2
ATOM      2  C   UNL A   1      34.272  28.538  26.902  1.00  0.00     0.116 C 
BRANCH   2   3
ATOM      3  N   UNL A   1      33.060  28.482  27.689  1.00  0.00    -0.351 N 
ATOM      4  C   UNL A   1      31.860  27.911  27.396  1.00  0.00     0.275 C 
ATOM      5  O   UNL A   1      30.931  28.114  28.184  1.00  0.00    -0.269 OA
ATOM      6  H   UNL A   1      33.110  28.923  28.568  1.00  0.00     0.163 HD
BRANCH   4   7
ATOM      7  C   UNL A   1      31.683  27.002  26.175  1.00  0.00     0.363 C 
BRANCH   7   8
ATOM      8  N   UNL A   1      30.725  27.447  25.147  1.00  0.00    -0.322 N 
ATOM      9  C   UNL A   1      29.860  26.416  24.607  1.00  0.00     0.333 C 
ATOM     10  H   UNL A   1      30.112  28.045  25.700  1.00  0.00     0.348 HD
BRANCH   8  11
ATOM     11  C   UNL A   1      31.276  28.321  24.101  1.00  0.00     0.363 C 
BRANCH  11  12
ATOM     12  C   UNL A   1      31.364  27.607  22.743  1.00  0.00     0.278 C 
ATOM     13  O   UNL A   1      30.459  27.760  21.915  1.00  0.00    -0.268 OA
BRANCH  12  14
ATOM     14  N   UNL A   1      32.495  26.845  22.435  1.00  0.00    -0.333 N 
BRANCH  14  15
ATOM     15  C   UNL A   1      33.708  27.567  22.062  1.00  0.00     0.116 C 
ATOM     16  C   UNL A   1      34.028  28.689  23.044  1.00  0.00     0.027 C 
ENDBRANCH  14  15
BRANCH  14  17
ATOM     17  C   UNL A   1      32.539  25.378  22.397  1.00  0.00     0.166 C 
BRANCH  17  18
ATOM     18  C   UNL A   1      33.224  24.823  23.617  1.00  0.00     0.025 A 
ATOM     19  C   UNL A   1      34.384  25.234  24.254  1.00  0.00     0.018 A 
ATOM     20  S   UNL A   1      32.526  23.477  24.436  1.00  0.00    -0.131 S 
ATOM     21  C   UNL A   1      34.587  24.568  25.501  1.00  0.00     0.028 A 
ATOM     22  C   UNL A   1      33.610  23.631  25.725  1.00  0.00     0.070 A 
ATOM     23  Br  UNL A   1      33.484  22.623  27.298  1.00  0.00    -0.039 Br
ENDBRANCH  17  18
ENDBRANCH  14  17
ENDBRANCH  12  14
ENDBRANCH  11  12
ENDBRANCH   8  11
ENDBRANCH   7   8
ENDBRANCH   4   7
ENDBRANCH   2   3
ENDBRANCH   1   2
BRANCH   1  24
ATOM     24  C   UNL A   1      35.369  30.781  27.504  1.00  0.00     0.002 C 
BRANCH  24  25
ATOM     25  C   UNL A   1      34.454  31.537  28.470  1.00  0.00     0.002 C 
BRANCH  25  26
ATOM     26  C   UNL A   1      33.290  32.280  27.809  1.00  0.00     0.021 C 
BRANCH  26  27
ATOM     27  C   UNL A   1      33.628  33.693  27.339  1.00  0.00     0.116 C 
BRANCH  27  28
ATOM     28  N   UNL A   1      32.992  34.701  28.171  1.00  0.00    -0.352 N 
ATOM     29  C   UNL A   1      33.199  34.984  29.499  1.00  0.00     0.251 C 
ATOM     30  H   UNL A   1      32.320  35.261  27.720  1.00  0.00     0.163 HD
ATOM     31  O   UNL A   1      32.412  35.700  30.107  1.00  0.00    -0.269 OA
BRANCH  29  32
ATOM     32  C   UNL A   1      34.375  34.413  30.188  1.00  0.00     0.039 A 
ATOM     33  C   UNL A   1      34.182  33.610  31.314  1.00  0.00     0.014 A 
ATOM     34  C   UNL A   1      35.667  34.683  29.724  1.00  0.00     0.014 A 
ATOM     35  C   UNL A   1      35.287  33.037  31.949  1.00  0.00     0.010 A 
ATOM     36  C   UNL A   1      36.757  34.053  30.314  1.00  0.00     0.010 A 
ATOM     37  C   UNL A   1      36.581  33.235  31.440  1.00  0.00    -0.014 A 
BRANCH  37  38
ATOM     38  C   UNL A   1      37.768  32.608  32.074  1.00  0.00     0.031 A 
ATOM     39  C   UNL A   1      38.459  31.456  31.395  1.00  0.00     0.074 A 
ATOM     40  C   UNL A   1      38.166  33.013  33.296  1.00  0.00     0.049 A 
ATOM     41  N   UNL A   1      39.453  30.722  31.825  1.00  0.00    -0.248 NA
ATOM     42  C   UNL A   1      37.950  31.057  30.071  1.00  0.00     0.031 C 
ATOM     43  C   UNL A   1      37.532  34.071  34.087  1.00  0.00     0.029 A 
ATOM     44  N   UNL A   1      39.180  32.560  34.103  1.00  0.00    -0.354 N 
ATOM     45  C   UNL A   1      39.659  29.753  30.850  1.00  0.00     0.074 A 
ATOM     46  C   UNL A   1      38.669  29.972  29.818  1.00  0.00     0.031 C 
ATOM     47  C   UNL A   1      38.168  34.181  35.264  1.00  0.00     0.029 A 
ATOM     48  C   UNL A   1      39.233  33.186  35.327  1.00  0.00     0.049 A 
ATOM     49  H   UNL A   1      39.810  31.853  33.831  1.00  0.00     0.167 HD
ATOM     50  C   UNL A   1      40.603  28.784  30.803  1.00  0.00     0.034 A 
ATOM     51  C   UNL A   1      40.040  32.971  36.386  1.00  0.00     0.034 A 
ATOM     52  C   UNL A   1      41.617  28.602  31.806  1.00  0.00     0.049 A 
ATOM     53  C   UNL A   1      41.110  31.915  36.287  1.00  0.00     0.074 A 
ATOM     54  C   UNL A   1      42.675  27.710  31.806  1.00  0.00     0.029 A 
ATOM     55  N   UNL A   1      41.700  29.323  32.986  1.00  0.00    -0.354 N 
ATOM     56  N   UNL A   1      41.386  31.112  35.289  1.00  0.00    -0.248 NA
ATOM     57  C   UNL A   1      42.003  31.762  37.444  1.00  0.00     0.031 C 
ATOM     58  C   UNL A   1      43.383  27.874  33.000  1.00  0.00     0.029 A 
ATOM     59  C   UNL A   1      42.786  28.891  33.728  1.00  0.00     0.049 A 
ATOM     60  H   UNL A   1      41.078  30.036  33.258  1.00  0.00     0.167 HD
ATOM     61  C   UNL A   1      42.509  30.392  35.679  1.00  0.00     0.074 A 
ATOM     62  C   UNL A   1      42.872  30.866  36.998  1.00  0.00     0.031 C 
ATOM     63  C   UNL A   1      43.173  29.417  35.010  1.00  0.00     0.034 A 
BRANCH  50  64
ATOM     64  C   UNL A   1      40.623  27.873  29.603  1.00  0.00     0.023 A 
ATOM     65  C   UNL A   1      39.756  26.762  29.559  1.00  0.00     0.012 A 
ATOM     66  C   UNL A   1      41.439  28.159  28.492  1.00  0.00     0.148 A 
ATOM     67  C   UNL A   1      39.722  25.933  28.438  1.00  0.00     0.002 A 
ATOM     68  C   UNL A   1      41.366  27.355  27.360  1.00  0.00     0.091 A 
ATOM     69  F   UNL A   1      42.270  29.209  28.561  1.00  0.00    -0.205 F 
ATOM     70  C   UNL A   1      40.518  26.236  27.337  1.00  0.00     0.022 A 
BRANCH  68  71
ATOM     71  S   UNL A   1      42.286  27.706  25.858  1.00  0.00     0.127 S 
ATOM     72  O   UNL A   1      43.668  27.564  26.319  1.00  0.00    -0.237 OA
ATOM     73  O   UNL A   1      41.830  26.643  24.964  1.00  0.00    -0.237 OA
ATOM     74  O   UNL A   1      41.900  29.051  25.453  1.00  0.00    -0.744 OA
ENDBRANCH  68  71
ENDBRANCH  50  64
BRANCH  51  75
ATOM     75  C   UNL A   1      39.908  33.809  37.612  1.00  0.00     0.023 A 
ATOM     76  C   UNL A   1      40.585  35.042  37.684  1.00  0.00     0.012 A 
ATOM     77  C   UNL A   1      39.114  33.398  38.700  1.00  0.00     0.148 A 
ATOM     78  C   UNL A   1      40.509  35.831  38.832  1.00  0.00     0.002 A 
ATOM     79  C   UNL A   1      38.996  34.215  39.819  1.00  0.00     0.091 A 
ATOM     80  F   UNL A   1      38.487  32.216  38.619  1.00  0.00    -0.205 F 
ATOM     81  C   UNL A   1      39.708  35.422  39.896  1.00  0.00     0.022 A 
BRANCH  79  82
ATOM     82  S   UNL A   1      37.884  33.829  41.175  1.00  0.00     0.127 S 
ATOM     83  O   UNL A   1      37.468  35.161  41.609  1.00  0.00    -0.237 OA
ATOM     84  O   UNL A   1      36.845  33.047  40.504  1.00  0.00    -0.237 OA
ATOM     85  O   UNL A   1      38.680  33.070  42.130  1.00  0.00    -0.744 OA
ENDBRANCH  79  82
ENDBRANCH  51  75
BRANCH  63  86
ATOM     86  C   UNL A   1      44.399  28.830  35.658  1.00  0.00     0.023 A 
ATOM     87  C   UNL A   1      45.673  29.344  35.350  1.00  0.00     0.012 A 
ATOM     88  C   UNL A   1      44.274  27.828  36.640  1.00  0.00     0.148 A 
ATOM     89  C   UNL A   1      46.810  28.847  35.988  1.00  0.00     0.002 A 
ATOM     90  C   UNL A   1      45.404  27.373  37.308  1.00  0.00     0.091 A 
ATOM     91  F   UNL A   1      43.054  27.340  36.905  1.00  0.00    -0.205 F 
ATOM     92  C   UNL A   1      46.674  27.873  36.975  1.00  0.00     0.022 A 
BRANCH  90  93
ATOM     93  S   UNL A   1      45.315  26.197  38.662  1.00  0.00     0.127 S 
ATOM     94  O   UNL A   1      46.705  26.154  39.110  1.00  0.00    -0.237 OA
ATOM     95  O   UNL A   1      44.395  26.858  39.587  1.00  0.00    -0.237 OA
ATOM     96  O   UNL A   1      44.807  24.960  38.086  1.00  0.00    -0.744 OA
ENDBRANCH  90  93
ENDBRANCH  63  86
ENDBRANCH  37  38
ENDBRANCH  29  32
ENDBRANCH  27  28
ENDBRANCH  26  27
ENDBRANCH  25  26
ENDBRANCH  24  25
ENDBRANCH   1  24
TORSDOF 23
ENDMDL
MODEL 2
REMARK VINA RESULT:      -9.3      2.625      8.048
REMARK SMILES CCN(Cc1ccc(Br)s1)C(=O)C[N@@H+](C)CC(=O)NCCCCCCNC(=O)c1ccc(-c2c3nc(c(-c4cccc(S(=O)(=O)[O-])c4F)c4ccc([nH]4)c(-c4cccc(S(=O)(=O)[O-])c4F)c4nc(c(-c5cccc(S(=O)(=O)[O-])c5F)c5ccc2[nH]5)C=C4)C=C3)cc1
REMARK SMILES IDX 21 1 20 2 19 3 17 4 18 5 16 7 14 8 15 9 13 11 11 12 12 13
REMARK SMILES IDX 3 14 2 15 1 16 4 17 5 18 6 19 10 20 7 21 8 22 9 23 22 24
REMARK SMILES IDX 23 25 24 26 25 27 26 28 27 29 28 31 29 32 30 33 91 34 31 35
REMARK SMILES IDX 90 36 32 37 33 38 34 39 84 40 35 41 89 42 83 43 85 44 36 45
REMARK SMILES IDX 88 46 82 47 81 48 37 50 69 51 49 52 68 53 50 54 53 55 67 56
REMARK SMILES IDX 86 57 51 58 52 59 66 61 87 62 54 63 38 64 39 65 47 66 40 67
REMARK SMILES IDX 42 68 48 69 41 70 43 71 44 72 45 73 46 74 70 75 71 76 79 77
REMARK SMILES IDX 72 78 74 79 80 80 73 81 75 82 76 83 77 84 78 85 55 86 56 87
REMARK SMILES IDX 64 88 57 89 59 90 65 91 58 92 60 93 61 94 62 95 63 96
REMARK H PARENT 19 6 14 10 26 30 85 49 53 60
REMARK Flexibility Score: inf
ROOT
ATOM      1  C   UNL A   1      35.616  31.299  28.159  1.00  0.00     0.021 C 
ENDROOT
BRANCH   1   2
ATOM      2  C   UNL A   1      35.367  29.869  27.672  1.00  0.00     0.116 C 
BRANCH   2   3
ATOM      3  N   UNL A   1      34.664  29.890  26.409  1.00  0.00    -0.351 N 
ATOM      4  C   UNL A   1      33.933  28.914  25.804  1.00  0.00     0.275 C 
ATOM      5  O   UNL A   1      33.538  29.134  24.656  1.00  0.00    -0.269 OA
ATOM      6  H   UNL A   1      34.721  30.738  25.912  1.00  0.00     0.163 HD
BRANCH   4   7
ATOM      7  C   UNL A   1      33.563  27.621  26.539  1.00  0.00     0.363 C 
BRANCH   7   8
ATOM      8  N   UNL A   1      32.128  27.299  26.636  1.00  0.00    -0.322 N 
ATOM      9  C   UNL A   1      31.407  27.958  27.707  1.00  0.00     0.333 C 
ATOM     10  H   UNL A   1      31.776  27.723  25.779  1.00  0.00     0.348 HD
BRANCH   8  11
ATOM     11  C   UNL A   1      31.789  25.872  26.528  1.00  0.00     0.363 C 
BRANCH  11  12
ATOM     12  C   UNL A   1      30.548  25.641  25.653  1.00  0.00     0.278 C 
ATOM     13  O   UNL A   1      29.444  25.488  26.190  1.00  0.00    -0.268 OA
BRANCH  12  14
ATOM     14  N   UNL A   1      30.668  25.670  24.260  1.00  0.00    -0.333 N 
BRANCH  14  15
ATOM     15  C   UNL A   1      30.475  24.412  23.544  1.00  0.00     0.116 C 
ATOM     16  C   UNL A   1      31.297  23.280  24.150  1.00  0.00     0.027 C 
ENDBRANCH  14  15
BRANCH  14  17
ATOM     17  C   UNL A   1      31.034  26.853  23.471  1.00  0.00     0.166 C 
BRANCH  17  18
ATOM     18  C   UNL A   1      29.853  27.766  23.279  1.00  0.00     0.025 A 
ATOM     19  C   UNL A   1      28.496  27.484  23.292  1.00  0.00     0.018 A 
ATOM     20  S   UNL A   1      30.122  29.447  23.017  1.00  0.00    -0.131 S 
ATOM     21  C   UNL A   1      27.694  28.665  23.273  1.00  0.00     0.028 A 
ATOM     22  C   UNL A   1      28.473  29.790  23.178  1.00  0.00     0.070 A 
ATOM     23  Br  UNL A   1      27.786  31.532  23.223  1.00  0.00    -0.039 Br
ENDBRANCH  17  18
ENDBRANCH  14  17
ENDBRANCH  12  14
ENDBRANCH  11  12
ENDBRANCH   8  11
ENDBRANCH   7   8
ENDBRANCH   4   7
ENDBRANCH   2   3
ENDBRANCH   1   2
BRANCH   1  24
ATOM     24  C   UNL A   1      34.367  32.002  28.694  1.00  0.00     0.002 C 
BRANCH  24  25
ATOM     25  C   UNL A   1      33.629  32.863  27.667  1.00  0.00     0.002 C 
BRANCH  25  26
ATOM     26  C   UNL A   1      32.968  34.122  28.234  1.00  0.00     0.021 C 
BRANCH  26  27
ATOM     27  C   UNL A   1      33.900  35.010  29.053  1.00  0.00     0.116 C 
BRANCH  27  28
ATOM     28  N   UNL A   1      33.282  35.428  30.302  1.00  0.00    -0.352 N 
ATOM     29  C   UNL A   1      33.530  34.988  31.579  1.00  0.00     0.251 C 
ATOM     30  H   UNL A   1      32.591  36.124  30.221  1.00  0.00     0.163 HD
ATOM     31  O   UNL A   1      32.756  35.267  32.488  1.00  0.00    -0.269 OA
BRANCH  29  32
ATOM     32  C   UNL A   1      34.732  34.172  31.846  1.00  0.00     0.039 A 
ATOM     33  C   UNL A   1      35.994  34.708  31.581  1.00  0.00     0.014 A 
ATOM     34  C   UNL A   1      34.607  32.872  32.347  1.00  0.00     0.014 A 
ATOM     35  C   UNL A   1      37.136  33.956  31.864  1.00  0.00     0.010 A 
ATOM     36  C   UNL A   1      35.746  32.154  32.696  1.00  0.00     0.010 A 
ATOM     37  C   UNL A   1      37.022  32.682  32.445  1.00  0.00    -0.014 A 
BRANCH  37  38
ATOM     38  C   UNL A   1      38.220  31.876  32.791  1.00  0.00     0.031 A 
ATOM     39  C   UNL A   1      38.984  32.173  34.053  1.00  0.00     0.074 A 
ATOM     40  C   UNL A   1      38.671  30.945  31.929  1.00  0.00     0.049 A 
ATOM     41  N   UNL A   1      40.099  31.643  34.486  1.00  0.00    -0.248 NA
ATOM     42  C   UNL A   1      38.441  33.223  34.933  1.00  0.00     0.031 C 
ATOM     43  C   UNL A   1      38.058  30.616  30.639  1.00  0.00     0.029 A 
ATOM     44  N   UNL A   1      39.770  30.124  31.990  1.00  0.00    -0.354 N 
ATOM     45  C   UNL A   1      40.411  32.320  35.659  1.00  0.00     0.074 A 
ATOM     46  C   UNL A   1      39.386  33.320  35.858  1.00  0.00     0.031 C 
ATOM     47  C   UNL A   1      38.792  29.669  30.032  1.00  0.00     0.029 A 
ATOM     48  C   UNL A   1      39.941  29.344  30.870  1.00  0.00     0.049 A 
ATOM     49  H   UNL A   1      40.379  30.097  32.764  1.00  0.00     0.167 HD
ATOM     50  C   UNL A   1      41.444  32.112  36.509  1.00  0.00     0.034 A 
ATOM     51  C   UNL A   1      40.920  28.475  30.549  1.00  0.00     0.034 A 
ATOM     52  C   UNL A   1      42.433  31.082  36.334  1.00  0.00     0.049 A 
ATOM     53  C   UNL A   1      42.033  28.232  31.535  1.00  0.00     0.074 A 
ATOM     54  C   UNL A   1      43.465  30.729  37.185  1.00  0.00     0.029 A 
ATOM     55  N   UNL A   1      42.515  30.243  35.235  1.00  0.00    -0.354 N 
ATOM     56  N   UNL A   1      42.224  28.774  32.713  1.00  0.00    -0.248 NA
ATOM     57  C   UNL A   1      43.043  27.230  31.166  1.00  0.00     0.031 C 
ATOM     58  C   UNL A   1      44.187  29.692  36.588  1.00  0.00     0.029 A 
ATOM     59  C   UNL A   1      43.585  29.378  35.381  1.00  0.00     0.049 A 
ATOM     60  H   UNL A   1      41.903  30.260  34.464  1.00  0.00     0.167 HD
ATOM     61  C   UNL A   1      43.347  28.149  33.242  1.00  0.00     0.074 A 
ATOM     62  C   UNL A   1      43.784  27.176  32.264  1.00  0.00     0.031 C 
ATOM     63  C   UNL A   1      43.968  28.370  34.427  1.00  0.00     0.034 A 
BRANCH  50  64
ATOM     64  C   UNL A   1      41.534  32.978  37.738  1.00  0.00     0.023 A 
ATOM     65  C   UNL A   1      40.867  32.586  38.917  1.00  0.00     0.012 A 
ATOM     66  C   UNL A   1      42.339  34.133  37.751  1.00  0.00     0.148 A 
ATOM     67  C   UNL A   1      40.976  33.346  40.080  1.00  0.00     0.002 A 
ATOM     68  C   UNL A   1      42.480  34.861  38.927  1.00  0.00     0.091 A 
ATOM     69  F   UNL A   1      42.950  34.500  36.614  1.00  0.00    -0.205 F 
ATOM     70  C   UNL A   1      41.790  34.476  40.088  1.00  0.00     0.022 A 
BRANCH  68  71
ATOM     71  S   UNL A   1      43.570  36.282  39.066  1.00  0.00     0.127 S 
ATOM     72  O   UNL A   1      44.672  35.896  38.185  1.00  0.00    -0.237 OA
ATOM     73  O   UNL A   1      42.730  37.364  38.552  1.00  0.00    -0.237 OA
ATOM     74  O   UNL A   1      43.910  36.393  40.477  1.00  0.00    -0.744 OA
ENDBRANCH  68  71
ENDBRANCH  50  64
BRANCH  51  75
ATOM     75  C   UNL A   1      40.868  27.726  29.261  1.00  0.00     0.023 A 
ATOM     76  C   UNL A   1      39.916  26.702  29.094  1.00  0.00     0.012 A 
ATOM     77  C   UNL A   1      41.745  28.026  28.201  1.00  0.00     0.148 A 
ATOM     78  C   UNL A   1      39.865  25.961  27.913  1.00  0.00     0.002 A 
ATOM     79  C   UNL A   1      41.653  27.322  27.006  1.00  0.00     0.091 A 
ATOM     80  F   UNL A   1      42.653  28.995  28.381  1.00  0.00    -0.205 F 
ATOM     81  C   UNL A   1      40.728  26.276  26.866  1.00  0.00     0.022 A 
BRANCH  79  82
ATOM     82  S   UNL A   1      42.633  27.749  25.563  1.00  0.00     0.127 S 
ATOM     83  O   UNL A   1      41.947  28.945  25.079  1.00  0.00    -0.237 OA
ATOM     84  O   UNL A   1      43.951  27.990  26.150  1.00  0.00    -0.237 OA
ATOM     85  O   UNL A   1      42.571  26.585  24.689  1.00  0.00    -0.744 OA
ENDBRANCH  79  82
ENDBRANCH  51  75
BRANCH  63  86
ATOM     86  C   UNL A   1      45.154  27.508  34.770  1.00  0.00     0.023 A 
ATOM     87  C   UNL A   1      46.460  28.003  34.588  1.00  0.00     0.012 A 
ATOM     88  C   UNL A   1      44.968  26.241  35.357  1.00  0.00     0.148 A 
ATOM     89  C   UNL A   1      47.565  27.235  34.957  1.00  0.00     0.002 A 
ATOM     90  C   UNL A   1      46.071  25.504  35.770  1.00  0.00     0.091 A 
ATOM     91  F   UNL A   1      43.717  25.781  35.505  1.00  0.00    -0.205 F 
ATOM     92  C   UNL A   1      47.371  25.995  35.560  1.00  0.00     0.022 A 
BRANCH  90  93
ATOM     93  S   UNL A   1      45.915  23.943  36.645  1.00  0.00     0.127 S 
ATOM     94  O   UNL A   1      47.294  23.696  37.060  1.00  0.00    -0.237 OA
ATOM     95  O   UNL A   1      45.002  24.289  37.734  1.00  0.00    -0.237 OA
ATOM     96  O   UNL A   1      45.374  22.995  35.681  1.00  0.00    -0.744 OA
ENDBRANCH  90  93
ENDBRANCH  63  86
ENDBRANCH  37  38
ENDBRANCH  29  32
ENDBRANCH  27  28
ENDBRANCH  26  27
ENDBRANCH  25  26
ENDBRANCH  24  25
ENDBRANCH   1  24
TORSDOF 23
ENDMDL
MODEL 3
REMARK VINA RESULT:      -9.2      5.824      9.578
REMARK SMILES CCN(Cc1ccc(Br)s1)C(=O)C[N@@H+](C)CC(=O)NCCCCCCNC(=O)c1ccc(-c2c3nc(c(-c4cccc(S(=O)(=O)[O-])c4F)c4ccc([nH]4)c(-c4cccc(S(=O)(=O)[O-])c4F)c4nc(c(-c5cccc(S(=O)(=O)[O-])c5F)c5ccc2[nH]5)C=C4)C=C3)cc1
REMARK SMILES IDX 21 1 20 2 19 3 17 4 18 5 16 7 14 8 15 9 13 11 11 12 12 13
REMARK SMILES IDX 3 14 2 15 1 16 4 17 5 18 6 19 10 20 7 21 8 22 9 23 22 24
REMARK SMILES IDX 23 25 24 26 25 27 26 28 27 29 28 31 29 32 30 33 91 34 31 35
REMARK SMILES IDX 90 36 32 37 33 38 34 39 84 40 35 41 89 42 83 43 85 44 36 45
REMARK SMILES IDX 88 46 82 47 81 48 37 50 69 51 49 52 68 53 50 54 53 55 67 56
REMARK SMILES IDX 86 57 51 58 52 59 66 61 87 62 54 63 38 64 39 65 47 66 40 67
REMARK SMILES IDX 42 68 48 69 41 70 43 71 44 72 45 73 46 74 70 75 71 76 79 77
REMARK SMILES IDX 72 78 74 79 80 80 73 81 75 82 76 83 77 84 78 85 55 86 56 87
REMARK SMILES IDX 64 88 57 89 59 90 65 91 58 92 60 93 61 94 62 95 63 96
REMARK H PARENT 19 6 14 10 26 30 85 49 53 60
REMARK Flexibility Score: inf
ROOT
ATOM      1  C   UNL A   1      36.305  20.930  24.689  1.00  0.00     0.021 C 
ENDROOT
BRANCH   1   2
ATOM      2  C   UNL A   1      35.088  21.138  25.594  1.00  0.00     0.116 C 
BRANCH   2   3
ATOM      3  N   UNL A   1      34.146  20.055  25.415  1.00  0.00    -0.351 N 
ATOM      4  C   UNL A   1      32.790  20.092  25.310  1.00  0.00     0.275 C 
ATOM      5  O   UNL A   1      32.195  19.010  25.295  1.00  0.00    -0.269 OA
ATOM      6  H   UNL A   1      34.546  19.157  25.361  1.00  0.00     0.163 HD
BRANCH   4   7
ATOM      7  C   UNL A   1      32.036  21.417  25.153  1.00  0.00     0.363 C 
BRANCH   7   8
ATOM      8  N   UNL A   1      31.569  22.067  26.390  1.00  0.00    -0.322 N 
ATOM      9  C   UNL A   1      30.159  22.406  26.429  1.00  0.00     0.333 C 
ATOM     10  H   UNL A   1      31.677  21.308  27.061  1.00  0.00     0.348 HD
BRANCH   8  11
ATOM     11  C   UNL A   1      32.420  23.154  26.896  1.00  0.00     0.363 C 
BRANCH  11  12
ATOM     12  C   UNL A   1      32.024  24.517  26.307  1.00  0.00     0.278 C 
ATOM     13  O   UNL A   1      31.481  25.360  27.031  1.00  0.00    -0.268 OA
BRANCH  12  14
ATOM     14  N   UNL A   1      32.339  24.813  24.977  1.00  0.00    -0.333 N 
BRANCH  14  15
ATOM     15  C   UNL A   1      33.728  25.149  24.676  1.00  0.00     0.116 C 
ATOM     16  C   UNL A   1      34.349  24.172  23.685  1.00  0.00     0.027 C 
ENDBRANCH  14  15
BRANCH  14  17
ATOM     17  C   UNL A   1      31.371  24.871  23.874  1.00  0.00     0.166 C 
BRANCH  17  18
ATOM     18  C   UNL A   1      31.165  26.287  23.407  1.00  0.00     0.025 A 
ATOM     19  C   UNL A   1      31.475  26.880  22.193  1.00  0.00     0.018 A 
ATOM     20  S   UNL A   1      30.416  27.423  24.463  1.00  0.00    -0.131 S 
ATOM     21  C   UNL A   1      30.933  28.196  22.075  1.00  0.00     0.028 A 
ATOM     22  C   UNL A   1      30.293  28.572  23.228  1.00  0.00     0.070 A 
ATOM     23  Br  UNL A   1      29.373  30.191  23.420  1.00  0.00    -0.039 Br
ENDBRANCH  17  18
ENDBRANCH  14  17
ENDBRANCH  12  14
ENDBRANCH  11  12
ENDBRANCH   8  11
ENDBRANCH   7   8
ENDBRANCH   4   7
ENDBRANCH   2   3
ENDBRANCH   1   2
BRANCH   1  24
ATOM     24  C   UNL A   1      37.411  21.969  24.881  1.00  0.00     0.002 C 
BRANCH  24  25
ATOM     25  C   UNL A   1      38.617  21.479  25.684  1.00  0.00     0.002 C 
BRANCH  25  26
ATOM     26  C   UNL A   1      39.343  22.562  26.486  1.00  0.00     0.021 C 
BRANCH  26  27
ATOM     27  C   UNL A   1      40.653  22.105  27.123  1.00  0.00     0.116 C 
BRANCH  27  28
ATOM     28  N   UNL A   1      41.704  21.945  26.131  1.00  0.00    -0.352 N 
ATOM     29  C   UNL A   1      42.525  22.898  25.579  1.00  0.00     0.251 C 
ATOM     30  H   UNL A   1      41.848  21.026  25.811  1.00  0.00     0.163 HD
ATOM     31  O   UNL A   1      43.191  22.636  24.584  1.00  0.00    -0.269 OA
BRANCH  29  32
ATOM     32  C   UNL A   1      42.593  24.240  26.192  1.00  0.00     0.039 A 
ATOM     33  C   UNL A   1      43.021  24.366  27.516  1.00  0.00     0.014 A 
ATOM     34  C   UNL A   1      42.224  25.372  25.458  1.00  0.00     0.014 A 
ATOM     35  C   UNL A   1      43.122  25.635  28.090  1.00  0.00     0.010 A 
ATOM     36  C   UNL A   1      42.396  26.638  26.008  1.00  0.00     0.010 A 
ATOM     37  C   UNL A   1      42.832  26.782  27.333  1.00  0.00    -0.014 A 
BRANCH  37  38
ATOM     38  C   UNL A   1      42.968  28.145  27.908  1.00  0.00     0.031 A 
ATOM     39  C   UNL A   1      44.317  28.811  27.946  1.00  0.00     0.074 A 
ATOM     40  C   UNL A   1      41.901  28.742  28.473  1.00  0.00     0.049 A 
ATOM     41  N   UNL A   1      44.656  29.955  28.482  1.00  0.00    -0.248 NA
ATOM     42  C   UNL A   1      45.440  28.085  27.329  1.00  0.00     0.031 C 
ATOM     43  C   UNL A   1      40.556  28.166  28.562  1.00  0.00     0.029 A 
ATOM     44  N   UNL A   1      41.784  29.952  29.111  1.00  0.00    -0.354 N 
ATOM     45  C   UNL A   1      46.030  30.066  28.304  1.00  0.00     0.074 A 
ATOM     46  C   UNL A   1      46.470  28.860  27.637  1.00  0.00     0.031 C 
ATOM     47  C   UNL A   1      39.754  29.020  29.219  1.00  0.00     0.029 A 
ATOM     48  C   UNL A   1      40.530  30.187  29.625  1.00  0.00     0.049 A 
ATOM     49  H   UNL A   1      42.529  30.591  29.194  1.00  0.00     0.167 HD
ATOM     50  C   UNL A   1      46.849  31.090  28.640  1.00  0.00     0.034 A 
ATOM     51  C   UNL A   1      40.062  31.221  30.353  1.00  0.00     0.034 A 
ATOM     52  C   UNL A   1      46.399  32.309  29.256  1.00  0.00     0.049 A 
ATOM     53  C   UNL A   1      40.987  32.366  30.674  1.00  0.00     0.074 A 
ATOM     54  C   UNL A   1      47.134  33.443  29.553  1.00  0.00     0.029 A 
ATOM     55  N   UNL A   1      45.100  32.553  29.672  1.00  0.00    -0.354 N 
ATOM     56  N   UNL A   1      42.249  32.519  30.359  1.00  0.00    -0.248 NA
ATOM     57  C   UNL A   1      40.412  33.497  31.417  1.00  0.00     0.031 C 
ATOM     58  C   UNL A   1      46.283  34.364  30.172  1.00  0.00     0.029 A 
ATOM     59  C   UNL A   1      45.012  33.816  30.230  1.00  0.00     0.049 A 
ATOM     60  H   UNL A   1      44.351  31.920  29.583  1.00  0.00     0.167 HD
ATOM     61  C   UNL A   1      42.608  33.779  30.824  1.00  0.00     0.074 A 
ATOM     62  C   UNL A   1      41.424  34.354  31.429  1.00  0.00     0.031 C 
ATOM     63  C   UNL A   1      43.812  34.400  30.768  1.00  0.00     0.034 A 
BRANCH  50  64
ATOM     64  C   UNL A   1      48.312  30.965  28.304  1.00  0.00     0.023 A 
ATOM     65  C   UNL A   1      48.816  31.593  27.147  1.00  0.00     0.012 A 
ATOM     66  C   UNL A   1      49.199  30.297  29.170  1.00  0.00     0.148 A 
ATOM     67  C   UNL A   1      50.176  31.533  26.841  1.00  0.00     0.002 A 
ATOM     68  C   UNL A   1      50.558  30.279  28.883  1.00  0.00     0.091 A 
ATOM     69  F   UNL A   1      48.697  29.689  30.255  1.00  0.00    -0.205 F 
ATOM     70  C   UNL A   1      51.046  30.886  27.714  1.00  0.00     0.022 A 
BRANCH  68  71
ATOM     71  S   UNL A   1      51.775  29.547  29.984  1.00  0.00     0.127 S 
ATOM     72  O   UNL A   1      51.522  30.273  31.228  1.00  0.00    -0.237 OA
ATOM     73  O   UNL A   1      51.365  28.143  30.003  1.00  0.00    -0.237 OA
ATOM     74  O   UNL A   1      53.073  29.794  29.372  1.00  0.00    -0.744 OA
ENDBRANCH  68  71
ENDBRANCH  50  64
BRANCH  51  75
ATOM     75  C   UNL A   1      38.634  31.252  30.782  1.00  0.00     0.023 A 
ATOM     76  C   UNL A   1      38.256  30.604  31.974  1.00  0.00     0.012 A 
ATOM     77  C   UNL A   1      37.654  31.923  30.026  1.00  0.00     0.148 A 
ATOM     78  C   UNL A   1      36.923  30.586  32.384  1.00  0.00     0.002 A 
ATOM     79  C   UNL A   1      36.336  31.949  30.468  1.00  0.00     0.091 A 
ATOM     80  F   UNL A   1      38.030  32.524  28.888  1.00  0.00    -0.205 F 
ATOM     81  C   UNL A   1      35.965  31.266  31.636  1.00  0.00     0.022 A 
BRANCH  79  82
ATOM     82  S   UNL A   1      35.066  32.910  29.639  1.00  0.00     0.127 S 
ATOM     83  O   UNL A   1      34.684  32.021  28.545  1.00  0.00    -0.237 OA
ATOM     84  O   UNL A   1      34.061  33.060  30.692  1.00  0.00    -0.237 OA
ATOM     85  O   UNL A   1      35.711  34.157  29.249  1.00  0.00    -0.744 OA
ENDBRANCH  79  82
ENDBRANCH  51  75
BRANCH  63  86
ATOM     86  C   UNL A   1      43.909  35.798  31.319  1.00  0.00     0.023 A 
ATOM     87  C   UNL A   1      44.227  36.000  32.676  1.00  0.00     0.012 A 
ATOM     88  C   UNL A   1      43.771  36.910  30.466  1.00  0.00     0.148 A 
ATOM     89  C   UNL A   1      44.377  37.291  33.182  1.00  0.00     0.002 A 
ATOM     90  C   UNL A   1      43.973  38.191  30.965  1.00  0.00     0.091 A 
ATOM     91  F   UNL A   1      43.450  36.696  29.182  1.00  0.00    -0.205 F 
ATOM     92  C   UNL A   1      44.264  38.383  32.326  1.00  0.00     0.022 A 
BRANCH  90  93
ATOM     93  S   UNL A   1      43.947  39.649  29.917  1.00  0.00     0.127 S 
ATOM     94  O   UNL A   1      45.117  39.427  29.070  1.00  0.00    -0.237 OA
ATOM     95  O   UNL A   1      42.662  39.515  29.231  1.00  0.00    -0.237 OA
ATOM     96  O   UNL A   1      44.035  40.791  30.817  1.00  0.00    -0.744 OA
ENDBRANCH  90  93
ENDBRANCH  63  86
ENDBRANCH  37  38
ENDBRANCH  29  32
ENDBRANCH  27  28
ENDBRANCH  26  27
ENDBRANCH  25  26
ENDBRANCH  24  25
ENDBRANCH   1  24
TORSDOF 23
ENDMDL
