MODEL 1
REMARK VINA RESULT:     -11.4      0.000      0.000
REMARK SMILES CC(C)c1nc(N2C[C@H](C)OC(C)(C)C2)sc1C(=O)NCCCCCCNC(=O)c1ccc(-c2c3nc(c(-c4cccc(S(=O)(=O)[O-])c4F)c4ccc([nH]4)c(-c4cccc(S(=O)(=O)[O-])c4F)c4nc(c(-c5cccc(S(=O)(=O)[O-])c5F)c5ccc2[nH]5)C=C4)C=C3)cc1
REMARK SMILES IDX 24 1 23 2 22 3 21 4 20 5 18 6 19 7 17 9 4 10 5 11 6 12 16 13
REMARK SMILES IDX 2 14 1 15 3 16 7 17 8 18 15 19 9 20 12 21 11 22 10 23 13 24
REMARK SMILES IDX 14 25 25 26 26 27 27 28 28 29 29 31 30 32 31 33 92 34 32 35
REMARK SMILES IDX 91 36 33 37 34 38 35 39 85 40 36 41 90 42 84 43 86 44 37 45
REMARK SMILES IDX 89 46 83 47 82 48 38 50 70 51 50 52 69 53 51 54 54 55 68 56
REMARK SMILES IDX 87 57 52 58 53 59 67 61 88 62 55 63 39 64 40 65 48 66 41 67
REMARK SMILES IDX 43 68 49 69 42 70 44 71 45 72 46 73 47 74 71 75 72 76 80 77
REMARK SMILES IDX 73 78 75 79 81 80 74 81 76 82 77 83 78 84 79 85 56 86 57 87
REMARK SMILES IDX 65 88 58 89 60 90 66 91 59 92 61 93 62 94 63 95 64 96
REMARK H PARENT 20 8 27 30 86 49 54 60
REMARK Flexibility Score: inf
ROOT
ATOM      1  C   UNL A   1      36.594  19.070  24.924  1.00  0.00     0.002 C 
ENDROOT
BRANCH   1   2
ATOM      2  C   UNL A   1      35.360  19.952  24.688  1.00  0.00     0.002 C 
BRANCH   2   3
ATOM      3  C   UNL A   1      34.024  19.242  24.917  1.00  0.00     0.021 C 
BRANCH   3   4
ATOM      4  C   UNL A   1      32.913  20.223  25.281  1.00  0.00     0.116 C 
BRANCH   4   5
ATOM      5  N   UNL A   1      33.153  20.863  26.540  1.00  0.00    -0.351 N 
ATOM      6  C   UNL A   1      33.472  22.116  26.961  1.00  0.00     0.263 C 
ATOM      7  O   UNL A   1      33.390  22.188  28.199  1.00  0.00    -0.268 OA
ATOM      8  H   UNL A   1      33.063  20.235  27.293  1.00  0.00     0.163 HD
BRANCH   6   9
ATOM      9  C   UNL A   1      33.872  23.260  26.142  1.00  0.00     0.117 A 
ATOM     10  C   UNL A   1      34.942  23.736  25.375  1.00  0.00     0.069 A 
ATOM     11  N   UNL A   1      34.692  24.956  24.733  1.00  0.00    -0.224 NA
ATOM     12  C   UNL A   1      33.563  25.495  25.107  1.00  0.00     0.186 A 
ATOM     13  S   UNL A   1      32.635  24.495  26.120  1.00  0.00    -0.091 S 
BRANCH  10  14
ATOM     14  C   UNL A   1      36.325  23.184  25.106  1.00  0.00     0.034 C 
ATOM     15  C   UNL A   1      36.661  23.192  23.610  1.00  0.00     0.014 C 
ATOM     16  C   UNL A   1      37.438  23.946  25.850  1.00  0.00     0.014 C 
ENDBRANCH  10  14
BRANCH  12  17
ATOM     17  N   UNL A   1      33.128  26.712  24.709  1.00  0.00    -0.343 N 
ATOM     18  C   UNL A   1      32.169  26.878  23.623  1.00  0.00     0.150 C 
ATOM     19  C   UNL A   1      33.377  27.898  25.523  1.00  0.00     0.153 C 
ATOM     20  C   UNL A   1      30.862  27.462  24.193  1.00  0.00     0.135 C 
ATOM     21  C   UNL A   1      32.056  28.584  25.964  1.00  0.00     0.081 C 
ATOM     22  O   UNL A   1      31.113  28.707  24.869  1.00  0.00    -0.369 OA
ATOM     23  C   UNL A   1      29.861  27.730  23.076  1.00  0.00     0.040 C 
ATOM     24  C   UNL A   1      31.412  27.856  27.151  1.00  0.00     0.044 C 
ATOM     25  C   UNL A   1      32.375  30.025  26.387  1.00  0.00     0.044 C 
ENDBRANCH  12  17
ENDBRANCH   6   9
ENDBRANCH   4   5
ENDBRANCH   3   4
ENDBRANCH   2   3
ENDBRANCH   1   2
BRANCH   1  26
ATOM     26  C   UNL A   1      37.930  19.729  24.576  1.00  0.00     0.021 C 
BRANCH  26  27
ATOM     27  C   UNL A   1      38.740  20.175  25.789  1.00  0.00     0.116 C 
BRANCH  27  28
ATOM     28  N   UNL A   1      39.870  19.292  26.035  1.00  0.00    -0.352 N 
ATOM     29  C   UNL A   1      41.190  19.596  26.249  1.00  0.00     0.251 C 
ATOM     30  H   UNL A   1      39.655  18.331  26.049  1.00  0.00     0.163 HD
ATOM     31  O   UNL A   1      42.040  18.716  26.189  1.00  0.00    -0.269 OA
BRANCH  29  32
ATOM     32  C   UNL A   1      41.575  20.988  26.556  1.00  0.00     0.039 A 
ATOM     33  C   UNL A   1      41.907  21.327  27.870  1.00  0.00     0.014 A 
ATOM     34  C   UNL A   1      41.592  21.957  25.550  1.00  0.00     0.014 A 
ATOM     35  C   UNL A   1      42.303  22.632  28.163  1.00  0.00     0.010 A 
ATOM     36  C   UNL A   1      42.063  23.234  25.829  1.00  0.00     0.010 A 
ATOM     37  C   UNL A   1      42.411  23.589  27.140  1.00  0.00    -0.014 A 
BRANCH  37  38
ATOM     38  C   UNL A   1      42.888  24.965  27.419  1.00  0.00     0.031 A 
ATOM     39  C   UNL A   1      41.962  25.974  28.041  1.00  0.00     0.074 A 
ATOM     40  C   UNL A   1      44.128  25.327  27.033  1.00  0.00     0.049 A 
ATOM     41  N   UNL A   1      42.179  27.237  28.305  1.00  0.00    -0.248 NA
ATOM     42  C   UNL A   1      40.607  25.515  28.389  1.00  0.00     0.031 C 
ATOM     43  C   UNL A   1      45.088  24.457  26.349  1.00  0.00     0.029 A 
ATOM     44  N   UNL A   1      44.782  26.528  27.133  1.00  0.00    -0.354 N 
ATOM     45  C   UNL A   1      40.982  27.730  28.811  1.00  0.00     0.074 A 
ATOM     46  C   UNL A   1      40.031  26.640  28.787  1.00  0.00     0.031 C 
ATOM     47  C   UNL A   1      46.209  25.152  26.097  1.00  0.00     0.029 A 
ATOM     48  C   UNL A   1      46.035  26.521  26.568  1.00  0.00     0.049 A 
ATOM     49  H   UNL A   1      44.392  27.320  27.570  1.00  0.00     0.167 HD
ATOM     50  C   UNL A   1      40.707  28.970  29.280  1.00  0.00     0.034 A 
ATOM     51  C   UNL A   1      46.939  27.512  26.431  1.00  0.00     0.034 A 
ATOM     52  C   UNL A   1      41.668  30.038  29.337  1.00  0.00     0.049 A 
ATOM     53  C   UNL A   1      46.618  28.871  26.992  1.00  0.00     0.074 A 
ATOM     54  C   UNL A   1      41.517  31.303  29.873  1.00  0.00     0.029 A 
ATOM     55  N   UNL A   1      42.957  29.970  28.830  1.00  0.00    -0.354 N 
ATOM     56  N   UNL A   1      45.535  29.275  27.610  1.00  0.00    -0.248 NA
ATOM     57  C   UNL A   1      47.660  29.902  26.871  1.00  0.00     0.031 C 
ATOM     58  C   UNL A   1      42.703  32.012  29.662  1.00  0.00     0.029 A 
ATOM     59  C   UNL A   1      43.608  31.175  29.029  1.00  0.00     0.049 A 
ATOM     60  H   UNL A   1      43.351  29.181  28.392  1.00  0.00     0.167 HD
ATOM     61  C   UNL A   1      45.778  30.591  27.985  1.00  0.00     0.074 A 
ATOM     62  C   UNL A   1      47.121  30.910  27.543  1.00  0.00     0.031 C 
ATOM     63  C   UNL A   1      44.962  31.460  28.630  1.00  0.00     0.034 A 
BRANCH  50  64
ATOM     64  C   UNL A   1      39.322  29.229  29.813  1.00  0.00     0.023 A 
ATOM     65  C   UNL A   1      39.019  28.915  31.154  1.00  0.00     0.012 A 
ATOM     66  C   UNL A   1      38.341  29.843  29.010  1.00  0.00     0.148 A 
ATOM     67  C   UNL A   1      37.753  29.173  31.677  1.00  0.00     0.002 A 
ATOM     68  C   UNL A   1      37.097  30.142  29.552  1.00  0.00     0.091 A 
ATOM     69  F   UNL A   1      38.641  30.116  27.733  1.00  0.00    -0.205 F 
ATOM     70  C   UNL A   1      36.797  29.796  30.880  1.00  0.00     0.022 A 
BRANCH  68  71
ATOM     71  S   UNL A   1      35.824  31.017  28.636  1.00  0.00     0.127 S 
ATOM     72  O   UNL A   1      36.569  32.166  28.121  1.00  0.00    -0.237 OA
ATOM     73  O   UNL A   1      35.444  30.033  27.622  1.00  0.00    -0.237 OA
ATOM     74  O   UNL A   1      34.779  31.334  29.599  1.00  0.00    -0.744 OA
ENDBRANCH  68  71
ENDBRANCH  50  64
BRANCH  51  75
ATOM     75  C   UNL A   1      48.253  27.240  25.785  1.00  0.00     0.023 A 
ATOM     76  C   UNL A   1      49.322  26.757  26.563  1.00  0.00     0.012 A 
ATOM     77  C   UNL A   1      48.443  27.438  24.403  1.00  0.00     0.148 A 
ATOM     78  C   UNL A   1      50.569  26.513  25.986  1.00  0.00     0.002 A 
ATOM     79  C   UNL A   1      49.671  27.138  23.824  1.00  0.00     0.091 A 
ATOM     80  F   UNL A   1      47.416  27.906  23.681  1.00  0.00    -0.205 F 
ATOM     81  C   UNL A   1      50.740  26.695  24.617  1.00  0.00     0.022 A 
BRANCH  79  82
ATOM     82  S   UNL A   1      49.942  27.214  22.050  1.00  0.00     0.127 S 
ATOM     83  O   UNL A   1      49.748  28.636  21.779  1.00  0.00    -0.237 OA
ATOM     84  O   UNL A   1      51.324  26.746  21.936  1.00  0.00    -0.237 OA
ATOM     85  O   UNL A   1      48.955  26.317  21.462  1.00  0.00    -0.744 OA
ENDBRANCH  79  82
ENDBRANCH  51  75
BRANCH  63  86
ATOM     86  C   UNL A   1      45.506  32.829  28.945  1.00  0.00     0.023 A 
ATOM     87  C   UNL A   1      46.107  33.081  30.193  1.00  0.00     0.012 A 
ATOM     88  C   UNL A   1      45.485  33.846  27.969  1.00  0.00     0.148 A 
ATOM     89  C   UNL A   1      46.649  34.334  30.478  1.00  0.00     0.002 A 
ATOM     90  C   UNL A   1      46.075  35.074  28.239  1.00  0.00     0.091 A 
ATOM     91  F   UNL A   1      44.893  33.591  26.793  1.00  0.00    -0.205 F 
ATOM     92  C   UNL A   1      46.645  35.324  29.499  1.00  0.00     0.022 A 
BRANCH  90  93
ATOM     93  S   UNL A   1      46.206  36.372  27.006  1.00  0.00     0.127 S 
ATOM     94  O   UNL A   1      44.936  37.076  27.179  1.00  0.00    -0.237 OA
ATOM     95  O   UNL A   1      47.382  37.114  27.463  1.00  0.00    -0.237 OA
ATOM     96  O   UNL A   1      46.376  35.698  25.726  1.00  0.00    -0.744 OA
ENDBRANCH  90  93
ENDBRANCH  63  86
ENDBRANCH  37  38
ENDBRANCH  29  32
ENDBRANCH  27  28
ENDBRANCH  26  27
ENDBRANCH   1  26
TORSDOF 18
ENDMDL
MODEL 2
REMARK VINA RESULT:     -11.2      6.025      9.920
REMARK SMILES CC(C)c1nc(N2C[C@H](C)OC(C)(C)C2)sc1C(=O)NCCCCCCNC(=O)c1ccc(-c2c3nc(c(-c4cccc(S(=O)(=O)[O-])c4F)c4ccc([nH]4)c(-c4cccc(S(=O)(=O)[O-])c4F)c4nc(c(-c5cccc(S(=O)(=O)[O-])c5F)c5ccc2[nH]5)C=C4)C=C3)cc1
REMARK SMILES IDX 24 1 23 2 22 3 21 4 20 5 18 6 19 7 17 9 4 10 5 11 6 12 16 13
REMARK SMILES IDX 2 14 1 15 3 16 7 17 8 18 15 19 9 20 12 21 11 22 10 23 13 24
REMARK SMILES IDX 14 25 25 26 26 27 27 28 28 29 29 31 30 32 31 33 92 34 32 35
REMARK SMILES IDX 91 36 33 37 34 38 35 39 85 40 36 41 90 42 84 43 86 44 37 45
REMARK SMILES IDX 89 46 83 47 82 48 38 50 70 51 50 52 69 53 51 54 54 55 68 56
REMARK SMILES IDX 87 57 52 58 53 59 67 61 88 62 55 63 39 64 40 65 48 66 41 67
REMARK SMILES IDX 43 68 49 69 42 70 44 71 45 72 46 73 47 74 71 75 72 76 80 77
REMARK SMILES IDX 73 78 75 79 81 80 74 81 76 82 77 83 78 84 79 85 56 86 57 87
REMARK SMILES IDX 65 88 58 89 60 90 66 91 59 92 61 93 62 94 63 95 64 96
REMARK H PARENT 20 8 27 30 86 49 54 60
REMARK Flexibility Score: inf
ROOT
ATOM      1  C   UNL A   1      31.553  30.802  25.810  1.00  0.00     0.002 C 
ENDROOT
BRANCH   1   2
ATOM      2  C   UNL A   1      30.608  30.596  24.618  1.00  0.00     0.002 C 
BRANCH   2   3
ATOM      3  C   UNL A   1      30.383  29.131  24.238  1.00  0.00     0.021 C 
BRANCH   3   4
ATOM      4  C   UNL A   1      30.928  28.812  22.849  1.00  0.00     0.116 C 
BRANCH   4   5
ATOM      5  N   UNL A   1      32.340  29.036  22.762  1.00  0.00    -0.351 N 
ATOM      6  C   UNL A   1      33.467  28.326  23.036  1.00  0.00     0.263 C 
ATOM      7  O   UNL A   1      34.468  28.925  22.606  1.00  0.00    -0.268 OA
ATOM      8  H   UNL A   1      32.548  29.933  22.413  1.00  0.00     0.163 HD
BRANCH   6   9
ATOM      9  C   UNL A   1      33.571  27.047  23.736  1.00  0.00     0.117 A 
ATOM     10  C   UNL A   1      33.544  26.499  25.024  1.00  0.00     0.069 A 
ATOM     11  N   UNL A   1      33.638  25.101  25.057  1.00  0.00    -0.224 NA
ATOM     12  C   UNL A   1      33.897  24.590  23.884  1.00  0.00     0.186 A 
ATOM     13  S   UNL A   1      33.871  25.731  22.624  1.00  0.00    -0.091 S 
BRANCH  10  14
ATOM     14  C   UNL A   1      33.434  27.130  26.395  1.00  0.00     0.034 C 
ATOM     15  C   UNL A   1      34.147  28.487  26.457  1.00  0.00     0.014 C 
ATOM     16  C   UNL A   1      31.978  27.334  26.854  1.00  0.00     0.014 C 
ENDBRANCH  10  14
BRANCH  12  17
ATOM     17  N   UNL A   1      34.127  23.278  23.655  1.00  0.00    -0.343 N 
ATOM     18  C   UNL A   1      35.475  22.720  23.613  1.00  0.00     0.150 C 
ATOM     19  C   UNL A   1      33.040  22.305  23.718  1.00  0.00     0.153 C 
ATOM     20  C   UNL A   1      35.651  21.744  24.792  1.00  0.00     0.135 C 
ATOM     21  C   UNL A   1      33.295  21.222  24.800  1.00  0.00     0.081 C 
ATOM     22  O   UNL A   1      34.651  20.710  24.751  1.00  0.00    -0.369 OA
ATOM     23  C   UNL A   1      37.018  21.076  24.737  1.00  0.00     0.040 C 
ATOM     24  C   UNL A   1      32.966  21.741  26.206  1.00  0.00     0.044 C 
ATOM     25  C   UNL A   1      32.396  20.014  24.499  1.00  0.00     0.044 C 
ENDBRANCH  12  17
ENDBRANCH   6   9
ENDBRANCH   4   5
ENDBRANCH   3   4
ENDBRANCH   2   3
ENDBRANCH   1   2
BRANCH   1  26
ATOM     26  C   UNL A   1      31.361  32.121  26.560  1.00  0.00     0.021 C 
BRANCH  26  27
ATOM     27  C   UNL A   1      32.604  32.606  27.297  1.00  0.00     0.116 C 
BRANCH  27  28
ATOM     28  N   UNL A   1      32.496  34.010  27.669  1.00  0.00    -0.352 N 
ATOM     29  C   UNL A   1      33.115  34.699  28.679  1.00  0.00     0.251 C 
ATOM     30  H   UNL A   1      31.885  34.545  27.110  1.00  0.00     0.163 HD
ATOM     31  O   UNL A   1      32.714  35.812  28.997  1.00  0.00    -0.269 OA
BRANCH  29  32
ATOM     32  C   UNL A   1      34.267  34.092  29.375  1.00  0.00     0.039 A 
ATOM     33  C   UNL A   1      34.035  33.252  30.466  1.00  0.00     0.014 A 
ATOM     34  C   UNL A   1      35.572  34.368  28.959  1.00  0.00     0.014 A 
ATOM     35  C   UNL A   1      35.117  32.651  31.112  1.00  0.00     0.010 A 
ATOM     36  C   UNL A   1      36.640  33.706  29.550  1.00  0.00     0.010 A 
ATOM     37  C   UNL A   1      36.425  32.850  30.641  1.00  0.00    -0.014 A 
BRANCH  37  38
ATOM     38  C   UNL A   1      37.582  32.172  31.273  1.00  0.00     0.031 A 
ATOM     39  C   UNL A   1      38.163  32.705  32.554  1.00  0.00     0.074 A 
ATOM     40  C   UNL A   1      38.162  31.129  30.646  1.00  0.00     0.049 A 
ATOM     41  N   UNL A   1      39.207  32.285  33.222  1.00  0.00    -0.248 NA
ATOM     42  C   UNL A   1      37.504  33.878  33.151  1.00  0.00     0.031 C 
ATOM     43  C   UNL A   1      37.736  30.574  29.358  1.00  0.00     0.029 A 
ATOM     44  N   UNL A   1      39.250  30.369  30.990  1.00  0.00    -0.354 N 
ATOM     45  C   UNL A   1      39.351  33.161  34.291  1.00  0.00     0.074 A 
ATOM     46  C   UNL A   1      38.309  34.156  34.166  1.00  0.00     0.031 C 
ATOM     47  C   UNL A   1      38.550  29.559  29.026  1.00  0.00     0.029 A 
ATOM     48  C   UNL A   1      39.574  29.415  30.055  1.00  0.00     0.049 A 
ATOM     49  H   UNL A   1      39.752  30.494  31.829  1.00  0.00     0.167 HD
ATOM     50  C   UNL A   1      40.252  33.123  35.302  1.00  0.00     0.034 A 
ATOM     51  C   UNL A   1      40.591  28.531  30.023  1.00  0.00     0.034 A 
ATOM     52  C   UNL A   1      41.260  32.108  35.440  1.00  0.00     0.049 A 
ATOM     53  C   UNL A   1      41.557  28.491  31.176  1.00  0.00     0.074 A 
ATOM     54  C   UNL A   1      42.164  31.929  36.472  1.00  0.00     0.029 A 
ATOM     55  N   UNL A   1      41.506  31.106  34.515  1.00  0.00    -0.354 N 
ATOM     56  N   UNL A   1      41.581  29.230  32.258  1.00  0.00    -0.248 NA
ATOM     57  C   UNL A   1      42.614  27.470  31.122  1.00  0.00     0.031 C 
ATOM     58  C   UNL A   1      42.978  30.838  36.155  1.00  0.00     0.029 A 
ATOM     59  C   UNL A   1      42.556  30.312  34.944  1.00  0.00     0.049 A 
ATOM     60  H   UNL A   1      41.008  30.977  33.676  1.00  0.00     0.167 HD
ATOM     61  C   UNL A   1      42.627  28.739  33.031  1.00  0.00     0.074 A 
ATOM     62  C   UNL A   1      43.199  27.626  32.301  1.00  0.00     0.031 C 
ATOM     63  C   UNL A   1      43.080  29.175  34.232  1.00  0.00     0.034 A 
BRANCH  50  64
ATOM     64  C   UNL A   1      40.160  34.186  36.365  1.00  0.00     0.023 A 
ATOM     65  C   UNL A   1      40.504  35.518  36.055  1.00  0.00     0.012 A 
ATOM     66  C   UNL A   1      39.674  33.882  37.651  1.00  0.00     0.148 A 
ATOM     67  C   UNL A   1      40.398  36.524  37.014  1.00  0.00     0.002 A 
ATOM     68  C   UNL A   1      39.525  34.898  38.589  1.00  0.00     0.091 A 
ATOM     69  F   UNL A   1      39.371  32.608  37.935  1.00  0.00    -0.205 F 
ATOM     70  C   UNL A   1      39.899  36.215  38.277  1.00  0.00     0.022 A 
BRANCH  68  71
ATOM     71  S   UNL A   1      38.814  34.621  40.215  1.00  0.00     0.127 S 
ATOM     72  O   UNL A   1      39.930  33.993  40.922  1.00  0.00    -0.237 OA
ATOM     73  O   UNL A   1      38.505  35.983  40.650  1.00  0.00    -0.237 OA
ATOM     74  O   UNL A   1      37.651  33.769  40.007  1.00  0.00    -0.744 OA
ENDBRANCH  68  71
ENDBRANCH  50  64
BRANCH  51  75
ATOM     75  C   UNL A   1      40.714  27.576  28.886  1.00  0.00     0.023 A 
ATOM     76  C   UNL A   1      39.845  26.471  28.812  1.00  0.00     0.012 A 
ATOM     77  C   UNL A   1      41.672  27.766  27.871  1.00  0.00     0.148 A 
ATOM     78  C   UNL A   1      39.953  25.550  27.769  1.00  0.00     0.002 A 
ATOM     79  C   UNL A   1      41.735  26.877  26.805  1.00  0.00     0.091 A 
ATOM     80  F   UNL A   1      42.495  28.819  27.964  1.00  0.00    -0.205 F 
ATOM     81  C   UNL A   1      40.890  25.758  26.762  1.00  0.00     0.022 A 
BRANCH  79  82
ATOM     82  S   UNL A   1      42.819  27.140  25.396  1.00  0.00     0.127 S 
ATOM     83  O   UNL A   1      44.111  27.340  26.047  1.00  0.00    -0.237 OA
ATOM     84  O   UNL A   1      42.682  25.877  24.671  1.00  0.00    -0.237 OA
ATOM     85  O   UNL A   1      42.278  28.296  24.693  1.00  0.00    -0.744 OA
ENDBRANCH  79  82
ENDBRANCH  51  75
BRANCH  63  86
ATOM     86  C   UNL A   1      44.221  28.423  34.866  1.00  0.00     0.023 A 
ATOM     87  C   UNL A   1      45.551  28.748  34.536  1.00  0.00     0.012 A 
ATOM     88  C   UNL A   1      43.970  27.444  35.847  1.00  0.00     0.148 A 
ATOM     89  C   UNL A   1      46.614  28.085  35.149  1.00  0.00     0.002 A 
ATOM     90  C   UNL A   1      45.033  26.826  36.493  1.00  0.00     0.091 A 
ATOM     91  F   UNL A   1      42.696  27.137  36.135  1.00  0.00    -0.205 F 
ATOM     92  C   UNL A   1      46.356  27.135  36.135  1.00  0.00     0.022 A 
BRANCH  90  93
ATOM     93  S   UNL A   1      44.798  25.665  37.843  1.00  0.00     0.127 S 
ATOM     94  O   UNL A   1      44.100  26.491  38.827  1.00  0.00    -0.237 OA
ATOM     95  O   UNL A   1      43.972  24.630  37.220  1.00  0.00    -0.237 OA
ATOM     96  O   UNL A   1      46.130  25.223  38.231  1.00  0.00    -0.744 OA
ENDBRANCH  90  93
ENDBRANCH  63  86
ENDBRANCH  37  38
ENDBRANCH  29  32
ENDBRANCH  27  28
ENDBRANCH  26  27
ENDBRANCH   1  26
TORSDOF 18
ENDMDL
MODEL 3
REMARK VINA RESULT:     -11.1      4.917      8.897
REMARK SMILES CC(C)c1nc(N2C[C@H](C)OC(C)(C)C2)sc1C(=O)NCCCCCCNC(=O)c1ccc(-c2c3nc(c(-c4cccc(S(=O)(=O)[O-])c4F)c4ccc([nH]4)c(-c4cccc(S(=O)(=O)[O-])c4F)c4nc(c(-c5cccc(S(=O)(=O)[O-])c5F)c5ccc2[nH]5)C=C4)C=C3)cc1
REMARK SMILES IDX 24 1 23 2 22 3 21 4 20 5 18 6 19 7 17 9 4 10 5 11 6 12 16 13
REMARK SMILES IDX 2 14 1 15 3 16 7 17 8 18 15 19 9 20 12 21 11 22 10 23 13 24
REMARK SMILES IDX 14 25 25 26 26 27 27 28 28 29 29 31 30 32 31 33 92 34 32 35
REMARK SMILES IDX 91 36 33 37 34 38 35 39 85 40 36 41 90 42 84 43 86 44 37 45
REMARK SMILES IDX 89 46 83 47 82 48 38 50 70 51 50 52 69 53 51 54 54 55 68 56
REMARK SMILES IDX 87 57 52 58 53 59 67 61 88 62 55 63 39 64 40 65 48 66 41 67
REMARK SMILES IDX 43 68 49 69 42 70 44 71 45 72 46 73 47 74 71 75 72 76 80 77
REMARK SMILES IDX 73 78 75 79 81 80 74 81 76 82 77 83 78 84 79 85 56 86 57 87
REMARK SMILES IDX 65 88 58 89 60 90 66 91 59 92 61 93 62 94 63 95 64 96
REMARK H PARENT 20 8 27 30 86 49 54 60
REMARK Flexibility Score: inf
ROOT
ATOM      1  C   UNL A   1      32.939  29.412  24.129  1.00  0.00     0.002 C 
ENDROOT
BRANCH   1   2
ATOM      2  C   UNL A   1      31.436  29.343  24.434  1.00  0.00     0.002 C 
BRANCH   2   3
ATOM      3  C   UNL A   1      30.539  29.385  23.194  1.00  0.00     0.021 C 
BRANCH   3   4
ATOM      4  C   UNL A   1      30.029  27.998  22.812  1.00  0.00     0.116 C 
BRANCH   4   5
ATOM      5  N   UNL A   1      30.982  27.274  22.025  1.00  0.00    -0.351 N 
ATOM      6  C   UNL A   1      31.771  26.180  22.198  1.00  0.00     0.263 C 
ATOM      7  O   UNL A   1      32.295  25.853  21.120  1.00  0.00    -0.268 OA
ATOM      8  H   UNL A   1      31.094  27.669  21.130  1.00  0.00     0.163 HD
BRANCH   6   9
ATOM      9  C   UNL A   1      32.025  25.446  23.437  1.00  0.00     0.117 A 
ATOM     10  C   UNL A   1      31.556  25.320  24.750  1.00  0.00     0.069 A 
ATOM     11  N   UNL A   1      32.207  24.334  25.502  1.00  0.00    -0.224 NA
ATOM     12  C   UNL A   1      33.239  23.832  24.880  1.00  0.00     0.186 A 
ATOM     13  S   UNL A   1      33.399  24.378  23.278  1.00  0.00    -0.091 S 
BRANCH  10  14
ATOM     14  C   UNL A   1      30.476  26.052  25.518  1.00  0.00     0.034 C 
ATOM     15  C   UNL A   1      29.431  25.086  26.092  1.00  0.00     0.014 C 
ATOM     16  C   UNL A   1      31.026  26.903  26.677  1.00  0.00     0.014 C 
ENDBRANCH  10  14
BRANCH  12  17
ATOM     17  N   UNL A   1      34.092  22.931  25.418  1.00  0.00    -0.343 N 
ATOM     18  C   UNL A   1      33.759  21.516  25.531  1.00  0.00     0.150 C 
ATOM     19  C   UNL A   1      35.491  23.274  25.654  1.00  0.00     0.153 C 
ATOM     20  C   UNL A   1      34.705  20.704  24.627  1.00  0.00     0.135 C 
ATOM     21  C   UNL A   1      36.455  22.347  24.866  1.00  0.00     0.081 C 
ATOM     22  O   UNL A   1      36.079  20.951  24.975  1.00  0.00    -0.369 OA
ATOM     23  C   UNL A   1      34.445  19.211  24.781  1.00  0.00     0.040 C 
ATOM     24  C   UNL A   1      36.561  22.764  23.393  1.00  0.00     0.044 C 
ATOM     25  C   UNL A   1      37.849  22.441  25.504  1.00  0.00     0.044 C 
ENDBRANCH  12  17
ENDBRANCH   6   9
ENDBRANCH   4   5
ENDBRANCH   3   4
ENDBRANCH   2   3
ENDBRANCH   1   2
BRANCH   1  26
ATOM     26  C   UNL A   1      33.781  28.330  24.806  1.00  0.00     0.021 C 
BRANCH  26  27
ATOM     27  C   UNL A   1      34.131  28.630  26.260  1.00  0.00     0.116 C 
BRANCH  27  28
ATOM     28  N   UNL A   1      33.988  30.046  26.566  1.00  0.00    -0.352 N 
ATOM     29  C   UNL A   1      34.668  30.820  27.469  1.00  0.00     0.251 C 
ATOM     30  H   UNL A   1      33.298  30.519  26.045  1.00  0.00     0.163 HD
ATOM     31  O   UNL A   1      34.244  31.931  27.767  1.00  0.00    -0.269 OA
BRANCH  29  32
ATOM     32  C   UNL A   1      35.914  30.309  28.074  1.00  0.00     0.039 A 
ATOM     33  C   UNL A   1      35.856  29.685  29.322  1.00  0.00     0.014 A 
ATOM     34  C   UNL A   1      37.137  30.462  27.415  1.00  0.00     0.014 A 
ATOM     35  C   UNL A   1      37.024  29.172  29.888  1.00  0.00     0.010 A 
ATOM     36  C   UNL A   1      38.282  29.879  27.943  1.00  0.00     0.010 A 
ATOM     37  C   UNL A   1      38.241  29.240  29.190  1.00  0.00    -0.014 A 
BRANCH  37  38
ATOM     38  C   UNL A   1      39.481  28.646  29.745  1.00  0.00     0.031 A 
ATOM     39  C   UNL A   1      40.152  29.273  30.937  1.00  0.00     0.074 A 
ATOM     40  C   UNL A   1      40.048  27.594  29.122  1.00  0.00     0.049 A 
ATOM     41  N   UNL A   1      41.270  28.935  31.525  1.00  0.00    -0.248 NA
ATOM     42  C   UNL A   1      39.497  30.451  31.531  1.00  0.00     0.031 C 
ATOM     43  C   UNL A   1      39.531  26.950  27.911  1.00  0.00     0.029 A 
ATOM     44  N   UNL A   1      41.197  26.900  29.402  1.00  0.00    -0.354 N 
ATOM     45  C   UNL A   1      41.472  29.875  32.528  1.00  0.00     0.074 A 
ATOM     46  C   UNL A   1      40.378  30.818  32.450  1.00  0.00     0.031 C 
ATOM     47  C   UNL A   1      40.358  25.952  27.558  1.00  0.00     0.029 A 
ATOM     48  C   UNL A   1      41.477  25.908  28.491  1.00  0.00     0.049 A 
ATOM     49  H   UNL A   1      41.767  27.092  30.182  1.00  0.00     0.167 HD
ATOM     50  C   UNL A   1      42.462  29.931  33.450  1.00  0.00     0.034 A 
ATOM     51  C   UNL A   1      42.526  25.066  28.410  1.00  0.00     0.034 A 
ATOM     52  C   UNL A   1      43.524  28.967  33.546  1.00  0.00     0.049 A 
ATOM     53  C   UNL A   1      43.594  25.131  29.469  1.00  0.00     0.074 A 
ATOM     54  C   UNL A   1      44.525  28.884  34.497  1.00  0.00     0.029 A 
ATOM     55  N   UNL A   1      43.730  27.925  32.656  1.00  0.00    -0.354 N 
ATOM     56  N   UNL A   1      43.684  25.929  30.503  1.00  0.00    -0.248 NA
ATOM     57  C   UNL A   1      44.687  24.152  29.369  1.00  0.00     0.031 C 
ATOM     58  C   UNL A   1      45.356  27.811  34.162  1.00  0.00     0.029 A 
ATOM     59  C   UNL A   1      44.850  27.200  33.026  1.00  0.00     0.049 A 
ATOM     60  H   UNL A   1      43.163  27.729  31.875  1.00  0.00     0.167 HD
ATOM     61  C   UNL A   1      44.818  25.526  31.200  1.00  0.00     0.074 A 
ATOM     62  C   UNL A   1      45.371  24.398  30.478  1.00  0.00     0.031 C 
ATOM     63  C   UNL A   1      45.358  26.048  32.328  1.00  0.00     0.034 A 
BRANCH  50  64
ATOM     64  C   UNL A   1      42.419  31.048  34.460  1.00  0.00     0.023 A 
ATOM     65  C   UNL A   1      41.776  30.847  35.699  1.00  0.00     0.012 A 
ATOM     66  C   UNL A   1      43.070  32.272  34.212  1.00  0.00     0.148 A 
ATOM     67  C   UNL A   1      41.750  31.856  36.660  1.00  0.00     0.002 A 
ATOM     68  C   UNL A   1      43.081  33.256  35.193  1.00  0.00     0.091 A 
ATOM     69  F   UNL A   1      43.659  32.453  33.022  1.00  0.00    -0.205 F 
ATOM     70  C   UNL A   1      42.411  33.055  36.411  1.00  0.00     0.022 A 
BRANCH  68  71
ATOM     71  S   UNL A   1      43.974  34.803  35.006  1.00  0.00     0.127 S 
ATOM     72  O   UNL A   1      45.359  34.337  34.928  1.00  0.00    -0.237 OA
ATOM     73  O   UNL A   1      43.432  35.320  33.749  1.00  0.00    -0.237 OA
ATOM     74  O   UNL A   1      43.652  35.601  36.181  1.00  0.00    -0.744 OA
ENDBRANCH  68  71
ENDBRANCH  50  64
BRANCH  51  75
ATOM     75  C   UNL A   1      42.589  24.054  27.319  1.00  0.00     0.023 A 
ATOM     76  C   UNL A   1      43.256  24.367  26.120  1.00  0.00     0.012 A 
ATOM     77  C   UNL A   1      42.008  22.779  27.469  1.00  0.00     0.148 A 
ATOM     78  C   UNL A   1      43.311  23.445  25.074  1.00  0.00     0.002 A 
ATOM     79  C   UNL A   1      42.117  21.845  26.446  1.00  0.00     0.091 A 
ATOM     80  F   UNL A   1      41.371  22.503  28.615  1.00  0.00    -0.205 F 
ATOM     81  C   UNL A   1      42.751  22.182  25.240  1.00  0.00     0.022 A 
BRANCH  79  82
ATOM     82  S   UNL A   1      41.543  20.152  26.625  1.00  0.00     0.127 S 
ATOM     83  O   UNL A   1      41.931  19.569  25.343  1.00  0.00    -0.237 OA
ATOM     84  O   UNL A   1      42.322  19.689  27.774  1.00  0.00    -0.237 OA
ATOM     85  O   UNL A   1      40.110  20.246  26.870  1.00  0.00    -0.744 OA
ENDBRANCH  79  82
ENDBRANCH  51  75
BRANCH  63  86
ATOM     86  C   UNL A   1      46.585  25.380  32.891  1.00  0.00     0.023 A 
ATOM     87  C   UNL A   1      47.867  25.810  32.497  1.00  0.00     0.012 A 
ATOM     88  C   UNL A   1      46.463  24.372  33.868  1.00  0.00     0.148 A 
ATOM     89  C   UNL A   1      49.009  25.225  33.044  1.00  0.00     0.002 A 
ATOM     90  C   UNL A   1      47.603  23.832  34.449  1.00  0.00     0.091 A 
ATOM     91  F   UNL A   1      45.233  23.964  34.217  1.00  0.00    -0.205 F 
ATOM     92  C   UNL A   1      48.877  24.247  34.027  1.00  0.00     0.022 A 
BRANCH  90  93
ATOM     93  S   UNL A   1      47.530  22.642  35.791  1.00  0.00     0.127 S 
ATOM     94  O   UNL A   1      48.934  22.556  36.190  1.00  0.00    -0.237 OA
ATOM     95  O   UNL A   1      46.662  23.318  36.756  1.00  0.00    -0.237 OA
ATOM     96  O   UNL A   1      46.968  21.425  35.221  1.00  0.00    -0.744 OA
ENDBRANCH  90  93
ENDBRANCH  63  86
ENDBRANCH  37  38
ENDBRANCH  29  32
ENDBRANCH  27  28
ENDBRANCH  26  27
ENDBRANCH   1  26
TORSDOF 18
ENDMDL
