MODEL 1
REMARK VINA RESULT:     -11.8      0.000      0.000
REMARK SMILES Cc1cnn(C2(C(=O)NCCCCCCNC(=O)c3ccc(-c4c5nc(c(-c6cccc(S(=O)(=O)[O-])c6F)c6ccc([nH]6)c(-c6cccc(S(=O)(=O)[O-])c6F)c6nc(c(-c7cccc(S(=O)(=O)[O-])c7F)c7ccc4[nH]7)C=C6)C=C5)cc3)CCN(C(=O)c3cscn3)CC2)c1
REMARK SMILES IDX 13 1 12 2 11 3 10 4 9 5 7 6 8 7 6 9 82 10 93 11 83 12 92 13
REMARK SMILES IDX 84 14 85 15 86 16 5 17 1 18 2 19 3 20 94 21 4 22 87 23 88 24
REMARK SMILES IDX 91 25 89 26 90 27 14 28 15 29 16 30 17 31 18 33 19 34 20 35
REMARK SMILES IDX 81 36 21 37 80 38 22 39 23 40 24 41 74 42 25 43 79 44 73 45
REMARK SMILES IDX 75 46 26 47 78 48 72 49 71 50 27 52 59 53 39 54 58 55 40 56
REMARK SMILES IDX 43 57 57 58 76 59 41 60 42 61 56 63 77 64 44 65 28 66 29 67
REMARK SMILES IDX 37 68 30 69 32 70 38 71 31 72 33 73 34 74 35 75 36 76 60 77
REMARK SMILES IDX 61 78 69 79 62 80 64 81 70 82 63 83 65 84 66 85 67 86 68 87
REMARK SMILES IDX 45 88 46 89 54 90 47 91 49 92 55 93 48 94 50 95 51 96 52 97
REMARK SMILES IDX 53 98
REMARK H PARENT 9 8 16 32 75 51 43 62
REMARK Flexibility Score: inf
ROOT
ATOM      1  C   UNL A   1      38.477  20.719  25.380  1.00  0.00     0.002 C 
ENDROOT
BRANCH   1   2
ATOM      2  C   UNL A   1      36.993  20.801  24.995  1.00  0.00     0.002 C 
BRANCH   2   3
ATOM      3  C   UNL A   1      36.607  21.915  24.012  1.00  0.00     0.021 C 
BRANCH   3   4
ATOM      4  C   UNL A   1      35.835  23.070  24.645  1.00  0.00     0.116 C 
BRANCH   4   5
ATOM      5  N   UNL A   1      35.452  22.737  26.009  1.00  0.00    -0.354 N 
ATOM      6  C   UNL A   1      34.231  22.693  26.622  1.00  0.00     0.248 C 
ATOM      7  O   UNL A   1      34.284  22.866  27.843  1.00  0.00    -0.272 OA
ATOM      8  H   UNL A   1      36.208  22.503  26.595  1.00  0.00     0.163 HD
BRANCH   6   9
ATOM      9  C   UNL A   1      32.913  22.486  25.803  1.00  0.00     0.144 C 
ATOM     10  C   UNL A   1      31.746  22.641  26.824  1.00  0.00     0.062 C 
ATOM     11  C   UNL A   1      32.905  23.491  24.613  1.00  0.00     0.062 C 
ATOM     12  C   UNL A   1      30.456  23.235  26.267  1.00  0.00     0.123 C 
ATOM     13  C   UNL A   1      31.520  23.944  24.176  1.00  0.00     0.123 C 
ATOM     14  N   UNL A   1      30.715  24.316  25.326  1.00  0.00    -0.337 N 
ATOM     15  C   UNL A   1      30.255  25.602  25.646  1.00  0.00     0.273 C 
ATOM     16  O   UNL A   1      29.735  25.845  26.732  1.00  0.00    -0.267 OA
BRANCH   9  17
ATOM     17  N   UNL A   1      32.878  21.119  25.199  1.00  0.00    -0.257 N 
ATOM     18  C   UNL A   1      32.286  18.552  22.663  1.00  0.00     0.048 C 
ATOM     19  C   UNL A   1      32.610  19.406  23.824  1.00  0.00    -0.013 A 
ATOM     20  C   UNL A   1      33.015  19.006  25.109  1.00  0.00     0.138 A 
ATOM     21  C   UNL A   1      32.600  20.784  23.895  1.00  0.00     0.113 A 
ATOM     22  N   UNL A   1      33.336  20.043  25.880  1.00  0.00    -0.180 NA
ENDBRANCH   9  17
BRANCH  15  23
ATOM     23  C   UNL A   1      30.418  26.683  24.667  1.00  0.00     0.139 A 
ATOM     24  C   UNL A   1      29.655  26.843  23.522  1.00  0.00     0.100 A 
ATOM     25  N   UNL A   1      31.312  27.730  24.906  1.00  0.00    -0.240 NA
ATOM     26  S   UNL A   1      30.049  28.320  22.741  1.00  0.00    -0.130 S 
ATOM     27  C   UNL A   1      31.161  28.665  23.998  1.00  0.00     0.176 A 
ENDBRANCH  15  23
ENDBRANCH   6   9
ENDBRANCH   4   5
ENDBRANCH   3   4
ENDBRANCH   2   3
ENDBRANCH   1   2
BRANCH   1  28
ATOM     28  C   UNL A   1      39.063  21.908  26.154  1.00  0.00     0.021 C 
BRANCH  28  29
ATOM     29  C   UNL A   1      40.351  21.599  26.897  1.00  0.00     0.116 C 
BRANCH  29  30
ATOM     30  N   UNL A   1      41.543  21.748  26.055  1.00  0.00    -0.352 N 
ATOM     31  C   UNL A   1      42.234  22.910  25.744  1.00  0.00     0.251 C 
ATOM     32  H   UNL A   1      41.897  20.918  25.660  1.00  0.00     0.163 HD
ATOM     33  O   UNL A   1      42.960  22.974  24.770  1.00  0.00    -0.269 OA
BRANCH  31  34
ATOM     34  C   UNL A   1      42.069  24.064  26.647  1.00  0.00     0.039 A 
ATOM     35  C   UNL A   1      42.793  24.205  27.832  1.00  0.00     0.014 A 
ATOM     36  C   UNL A   1      41.196  25.055  26.223  1.00  0.00     0.014 A 
ATOM     37  C   UNL A   1      42.679  25.403  28.538  1.00  0.00     0.010 A 
ATOM     38  C   UNL A   1      41.281  26.300  26.773  1.00  0.00     0.010 A 
ATOM     39  C   UNL A   1      41.929  26.453  27.987  1.00  0.00    -0.014 A 
BRANCH  39  40
ATOM     40  C   UNL A   1      41.797  27.742  28.644  1.00  0.00     0.031 A 
ATOM     41  C   UNL A   1      42.754  28.788  28.217  1.00  0.00     0.074 A 
ATOM     42  C   UNL A   1      40.761  28.033  29.461  1.00  0.00     0.049 A 
ATOM     43  N   UNL A   1      43.793  29.196  28.865  1.00  0.00    -0.248 NA
ATOM     44  C   UNL A   1      42.623  29.360  26.871  1.00  0.00     0.031 C 
ATOM     45  C   UNL A   1      39.559  27.236  29.758  1.00  0.00     0.029 A 
ATOM     46  N   UNL A   1      40.514  29.194  30.116  1.00  0.00    -0.354 N 
ATOM     47  C   UNL A   1      44.310  30.253  28.121  1.00  0.00     0.074 A 
ATOM     48  C   UNL A   1      43.685  30.171  26.826  1.00  0.00     0.031 C 
ATOM     49  C   UNL A   1      38.616  28.028  30.311  1.00  0.00     0.029 A 
ATOM     50  C   UNL A   1      39.218  29.312  30.599  1.00  0.00     0.049 A 
ATOM     51  H   UNL A   1      41.195  29.894  30.239  1.00  0.00     0.167 HD
ATOM     52  C   UNL A   1      45.024  31.250  28.716  1.00  0.00     0.034 A 
ATOM     53  C   UNL A   1      38.681  30.403  31.186  1.00  0.00     0.034 A 
ATOM     54  C   UNL A   1      45.360  30.915  30.080  1.00  0.00     0.049 A 
ATOM     55  C   UNL A   1      39.811  31.190  31.731  1.00  0.00     0.074 A 
ATOM     56  C   UNL A   1      46.067  29.904  30.700  1.00  0.00     0.029 A 
ATOM     57  N   UNL A   1      44.588  31.488  31.064  1.00  0.00    -0.354 N 
ATOM     58  N   UNL A   1      40.591  30.754  32.683  1.00  0.00    -0.248 NA
ATOM     59  C   UNL A   1      40.356  32.264  30.918  1.00  0.00     0.031 C 
ATOM     60  C   UNL A   1      45.326  29.614  31.885  1.00  0.00     0.029 A 
ATOM     61  C   UNL A   1      44.247  30.500  31.948  1.00  0.00     0.049 A 
ATOM     62  H   UNL A   1      44.328  32.436  31.121  1.00  0.00     0.167 HD
ATOM     63  C   UNL A   1      41.864  31.163  32.304  1.00  0.00     0.074 A 
ATOM     64  C   UNL A   1      41.640  32.185  31.283  1.00  0.00     0.031 C 
ATOM     65  C   UNL A   1      42.974  30.436  32.640  1.00  0.00     0.034 A 
BRANCH  52  66
ATOM     66  C   UNL A   1      45.126  32.676  28.229  1.00  0.00     0.023 A 
ATOM     67  C   UNL A   1      46.425  33.203  28.049  1.00  0.00     0.012 A 
ATOM     68  C   UNL A   1      44.052  33.594  28.203  1.00  0.00     0.148 A 
ATOM     69  C   UNL A   1      46.650  34.576  27.910  1.00  0.00     0.002 A 
ATOM     70  C   UNL A   1      44.275  34.951  27.987  1.00  0.00     0.091 A 
ATOM     71  F   UNL A   1      42.819  33.193  28.522  1.00  0.00    -0.205 F 
ATOM     72  C   UNL A   1      45.574  35.452  27.872  1.00  0.00     0.022 A 
BRANCH  70  73
ATOM     73  S   UNL A   1      42.917  36.122  27.884  1.00  0.00     0.127 S 
ATOM     74  O   UNL A   1      43.631  37.384  27.719  1.00  0.00    -0.237 OA
ATOM     75  O   UNL A   1      42.205  35.652  26.694  1.00  0.00    -0.237 OA
ATOM     76  O   UNL A   1      42.170  35.958  29.125  1.00  0.00    -0.744 OA
ENDBRANCH  70  73
ENDBRANCH  52  66
BRANCH  53  77
ATOM     77  C   UNL A   1      37.299  30.917  31.086  1.00  0.00     0.023 A 
ATOM     78  C   UNL A   1      36.614  31.311  32.248  1.00  0.00     0.012 A 
ATOM     79  C   UNL A   1      36.755  31.274  29.829  1.00  0.00     0.148 A 
ATOM     80  C   UNL A   1      35.440  32.070  32.165  1.00  0.00     0.002 A 
ATOM     81  C   UNL A   1      35.587  32.026  29.751  1.00  0.00     0.091 A 
ATOM     82  F   UNL A   1      37.432  30.952  28.718  1.00  0.00    -0.205 F 
ATOM     83  C   UNL A   1      34.934  32.437  30.920  1.00  0.00     0.022 A 
BRANCH  81  84
ATOM     84  S   UNL A   1      34.884  32.557  28.183  1.00  0.00     0.127 S 
ATOM     85  O   UNL A   1      34.558  31.278  27.549  1.00  0.00    -0.237 OA
ATOM     86  O   UNL A   1      33.726  33.334  28.616  1.00  0.00    -0.237 OA
ATOM     87  O   UNL A   1      35.934  33.306  27.505  1.00  0.00    -0.744 OA
ENDBRANCH  81  84
ENDBRANCH  53  77
BRANCH  65  88
ATOM     88  C   UNL A   1      42.804  29.289  33.613  1.00  0.00     0.023 A 
ATOM     89  C   UNL A   1      42.199  28.072  33.230  1.00  0.00     0.012 A 
ATOM     90  C   UNL A   1      43.421  29.366  34.872  1.00  0.00     0.148 A 
ATOM     91  C   UNL A   1      42.189  26.968  34.087  1.00  0.00     0.002 A 
ATOM     92  C   UNL A   1      43.444  28.253  35.708  1.00  0.00     0.091 A 
ATOM     93  F   UNL A   1      44.009  30.521  35.219  1.00  0.00    -0.205 F 
ATOM     94  C   UNL A   1      42.821  27.055  35.322  1.00  0.00     0.022 A 
BRANCH  92  95
ATOM     95  S   UNL A   1      44.339  28.253  37.263  1.00  0.00     0.127 S 
ATOM     96  O   UNL A   1      43.770  27.092  37.944  1.00  0.00    -0.237 OA
ATOM     97  O   UNL A   1      45.727  28.084  36.826  1.00  0.00    -0.237 OA
ATOM     98  O   UNL A   1      44.065  29.540  37.888  1.00  0.00    -0.744 OA
ENDBRANCH  92  95
ENDBRANCH  65  88
ENDBRANCH  39  40
ENDBRANCH  31  34
ENDBRANCH  29  30
ENDBRANCH  28  29
ENDBRANCH   1  28
TORSDOF 18
ENDMDL
MODEL 2
REMARK VINA RESULT:     -11.8      3.290      8.489
REMARK SMILES Cc1cnn(C2(C(=O)NCCCCCCNC(=O)c3ccc(-c4c5nc(c(-c6cccc(S(=O)(=O)[O-])c6F)c6ccc([nH]6)c(-c6cccc(S(=O)(=O)[O-])c6F)c6nc(c(-c7cccc(S(=O)(=O)[O-])c7F)c7ccc4[nH]7)C=C6)C=C5)cc3)CCN(C(=O)c3cscn3)CC2)c1
REMARK SMILES IDX 13 1 12 2 11 3 10 4 9 5 7 6 8 7 6 9 82 10 93 11 83 12 92 13
REMARK SMILES IDX 84 14 85 15 86 16 5 17 1 18 2 19 3 20 94 21 4 22 87 23 88 24
REMARK SMILES IDX 91 25 89 26 90 27 14 28 15 29 16 30 17 31 18 33 19 34 20 35
REMARK SMILES IDX 81 36 21 37 80 38 22 39 23 40 24 41 74 42 25 43 79 44 73 45
REMARK SMILES IDX 75 46 26 47 78 48 72 49 71 50 27 52 59 53 39 54 58 55 40 56
REMARK SMILES IDX 43 57 57 58 76 59 41 60 42 61 56 63 77 64 44 65 28 66 29 67
REMARK SMILES IDX 37 68 30 69 32 70 38 71 31 72 33 73 34 74 35 75 36 76 60 77
REMARK SMILES IDX 61 78 69 79 62 80 64 81 70 82 63 83 65 84 66 85 67 86 68 87
REMARK SMILES IDX 45 88 46 89 54 90 47 91 49 92 55 93 48 94 50 95 51 96 52 97
REMARK SMILES IDX 53 98
REMARK H PARENT 9 8 16 32 75 51 43 62
REMARK Flexibility Score: inf
ROOT
ATOM      1  C   UNL A   1      35.810  30.452  27.568  1.00  0.00     0.002 C 
ENDROOT
BRANCH   1   2
ATOM      2  C   UNL A   1      34.942  29.199  27.384  1.00  0.00     0.002 C 
BRANCH   2   3
ATOM      3  C   UNL A   1      34.131  29.120  26.084  1.00  0.00     0.021 C 
BRANCH   3   4
ATOM      4  C   UNL A   1      33.736  27.703  25.676  1.00  0.00     0.116 C 
BRANCH   4   5
ATOM      5  N   UNL A   1      32.646  27.220  26.510  1.00  0.00    -0.354 N 
ATOM      6  C   UNL A   1      31.336  26.953  26.224  1.00  0.00     0.248 C 
ATOM      7  O   UNL A   1      30.588  27.043  27.201  1.00  0.00    -0.272 OA
ATOM      8  H   UNL A   1      32.897  27.057  27.448  1.00  0.00     0.163 HD
BRANCH   6   9
ATOM      9  C   UNL A   1      30.871  26.615  24.767  1.00  0.00     0.144 C 
ATOM     10  C   UNL A   1      29.377  26.189  24.883  1.00  0.00     0.062 C 
ATOM     11  C   UNL A   1      31.151  27.848  23.858  1.00  0.00     0.062 C 
ATOM     12  C   UNL A   1      28.496  26.537  23.687  1.00  0.00     0.123 C 
ATOM     13  C   UNL A   1      30.184  28.010  22.694  1.00  0.00     0.123 C 
ATOM     14  N   UNL A   1      28.812  27.849  23.141  1.00  0.00    -0.337 N 
ATOM     15  C   UNL A   1      27.820  28.841  23.174  1.00  0.00     0.273 C 
ATOM     16  O   UNL A   1      26.744  28.654  23.736  1.00  0.00    -0.267 OA
BRANCH   9  17
ATOM     17  N   UNL A   1      31.676  25.488  24.206  1.00  0.00    -0.257 N 
ATOM     18  C   UNL A   1      33.321  23.440  21.662  1.00  0.00     0.048 C 
ATOM     19  C   UNL A   1      32.750  24.109  22.849  1.00  0.00    -0.013 A 
ATOM     20  C   UNL A   1      32.738  23.654  24.179  1.00  0.00     0.138 A 
ATOM     21  C   UNL A   1      32.117  25.333  22.913  1.00  0.00     0.113 A 
ATOM     22  N   UNL A   1      32.240  24.562  25.016  1.00  0.00    -0.180 NA
ENDBRANCH   9  17
BRANCH  15  23
ATOM     23  C   UNL A   1      28.085  30.138  22.539  1.00  0.00     0.139 A 
ATOM     24  C   UNL A   1      28.017  30.387  21.179  1.00  0.00     0.100 A 
ATOM     25  N   UNL A   1      28.313  31.277  23.317  1.00  0.00    -0.240 NA
ATOM     26  S   UNL A   1      28.228  32.062  20.866  1.00  0.00    -0.130 S 
ATOM     27  C   UNL A   1      28.344  32.342  22.552  1.00  0.00     0.176 A 
ENDBRANCH  15  23
ENDBRANCH   6   9
ENDBRANCH   4   5
ENDBRANCH   3   4
ENDBRANCH   2   3
ENDBRANCH   1   2
BRANCH   1  28
ATOM     28  C   UNL A   1      35.076  31.789  27.739  1.00  0.00     0.021 C 
BRANCH  28  29
ATOM     29  C   UNL A   1      35.870  32.851  28.479  1.00  0.00     0.116 C 
BRANCH  29  30
ATOM     30  N   UNL A   1      35.332  33.138  29.813  1.00  0.00    -0.352 N 
ATOM     31  C   UNL A   1      35.482  32.397  30.976  1.00  0.00     0.251 C 
ATOM     32  H   UNL A   1      34.796  33.960  29.892  1.00  0.00     0.163 HD
ATOM     33  O   UNL A   1      34.710  32.519  31.909  1.00  0.00    -0.269 OA
BRANCH  31  34
ATOM     34  C   UNL A   1      36.620  31.463  31.048  1.00  0.00     0.039 A 
ATOM     35  C   UNL A   1      36.470  30.079  30.938  1.00  0.00     0.014 A 
ATOM     36  C   UNL A   1      37.879  32.037  31.162  1.00  0.00     0.014 A 
ATOM     37  C   UNL A   1      37.619  29.293  30.863  1.00  0.00     0.010 A 
ATOM     38  C   UNL A   1      38.980  31.299  30.840  1.00  0.00     0.010 A 
ATOM     39  C   UNL A   1      38.874  29.919  30.799  1.00  0.00    -0.014 A 
BRANCH  39  40
ATOM     40  C   UNL A   1      40.112  29.168  30.681  1.00  0.00     0.031 A 
ATOM     41  C   UNL A   1      40.758  28.780  31.955  1.00  0.00     0.074 A 
ATOM     42  C   UNL A   1      40.558  28.695  29.497  1.00  0.00     0.049 A 
ATOM     43  N   UNL A   1      41.799  29.324  32.491  1.00  0.00    -0.248 NA
ATOM     44  C   UNL A   1      40.115  27.761  32.793  1.00  0.00     0.031 C 
ATOM     45  C   UNL A   1      39.899  28.712  28.180  1.00  0.00     0.029 A 
ATOM     46  N   UNL A   1      41.679  27.970  29.255  1.00  0.00    -0.354 N 
ATOM     47  C   UNL A   1      42.090  28.555  33.614  1.00  0.00     0.074 A 
ATOM     48  C   UNL A   1      40.919  27.752  33.861  1.00  0.00     0.031 C 
ATOM     49  C   UNL A   1      40.501  27.824  27.361  1.00  0.00     0.029 A 
ATOM     50  C   UNL A   1      41.698  27.345  28.017  1.00  0.00     0.049 A 
ATOM     51  H   UNL A   1      42.416  27.895  29.903  1.00  0.00     0.167 HD
ATOM     52  C   UNL A   1      43.361  28.469  34.098  1.00  0.00     0.034 A 
ATOM     53  C   UNL A   1      42.636  26.481  27.573  1.00  0.00     0.034 A 
ATOM     54  C   UNL A   1      44.229  29.439  33.473  1.00  0.00     0.049 A 
ATOM     55  C   UNL A   1      43.869  26.762  28.346  1.00  0.00     0.074 A 
ATOM     56  C   UNL A   1      44.256  30.815  33.372  1.00  0.00     0.029 A 
ATOM     57  N   UNL A   1      45.054  28.974  32.474  1.00  0.00    -0.354 N 
ATOM     58  N   UNL A   1      44.517  27.893  28.270  1.00  0.00    -0.248 NA
ATOM     59  C   UNL A   1      44.130  25.969  29.535  1.00  0.00     0.031 C 
ATOM     60  C   UNL A   1      44.692  31.075  32.038  1.00  0.00     0.029 A 
ATOM     61  C   UNL A   1      44.960  29.849  31.424  1.00  0.00     0.049 A 
ATOM     62  H   UNL A   1      45.609  28.162  32.509  1.00  0.00     0.167 HD
ATOM     63  C   UNL A   1      44.895  28.164  29.580  1.00  0.00     0.074 A 
ATOM     64  C   UNL A   1      44.738  26.893  30.285  1.00  0.00     0.031 C 
ATOM     65  C   UNL A   1      45.022  29.450  30.031  1.00  0.00     0.034 A 
BRANCH  52  66
ATOM     66  C   UNL A   1      43.939  27.299  34.859  1.00  0.00     0.023 A 
ATOM     67  C   UNL A   1      44.747  27.596  35.980  1.00  0.00     0.012 A 
ATOM     68  C   UNL A   1      43.962  25.967  34.387  1.00  0.00     0.148 A 
ATOM     69  C   UNL A   1      45.579  26.636  36.564  1.00  0.00     0.002 A 
ATOM     70  C   UNL A   1      44.733  24.997  35.020  1.00  0.00     0.091 A 
ATOM     71  F   UNL A   1      43.351  25.650  33.243  1.00  0.00    -0.205 F 
ATOM     72  C   UNL A   1      45.568  25.332  36.088  1.00  0.00     0.022 A 
BRANCH  70  73
ATOM     73  S   UNL A   1      44.721  23.284  34.476  1.00  0.00     0.127 S 
ATOM     74  O   UNL A   1      45.584  22.656  35.471  1.00  0.00    -0.237 OA
ATOM     75  O   UNL A   1      43.301  22.945  34.582  1.00  0.00    -0.237 OA
ATOM     76  O   UNL A   1      45.225  23.311  33.108  1.00  0.00    -0.744 OA
ENDBRANCH  70  73
ENDBRANCH  52  66
BRANCH  53  77
ATOM     77  C   UNL A   1      42.461  25.290  26.717  1.00  0.00     0.023 A 
ATOM     78  C   UNL A   1      43.362  25.044  25.666  1.00  0.00     0.012 A 
ATOM     79  C   UNL A   1      41.575  24.254  27.100  1.00  0.00     0.148 A 
ATOM     80  C   UNL A   1      43.407  23.794  25.037  1.00  0.00     0.002 A 
ATOM     81  C   UNL A   1      41.621  23.015  26.470  1.00  0.00     0.091 A 
ATOM     82  F   UNL A   1      40.752  24.460  28.138  1.00  0.00    -0.205 F 
ATOM     83  C   UNL A   1      42.546  22.778  25.446  1.00  0.00     0.022 A 
BRANCH  81  84
ATOM     84  S   UNL A   1      40.558  21.647  26.955  1.00  0.00     0.127 S 
ATOM     85  O   UNL A   1      41.045  20.567  26.094  1.00  0.00    -0.237 OA
ATOM     86  O   UNL A   1      40.886  21.493  28.369  1.00  0.00    -0.237 OA
ATOM     87  O   UNL A   1      39.196  22.072  26.662  1.00  0.00    -0.744 OA
ENDBRANCH  81  84
ENDBRANCH  53  77
BRANCH  65  88
ATOM     88  C   UNL A   1      44.945  30.570  29.016  1.00  0.00     0.023 A 
ATOM     89  C   UNL A   1      43.750  31.285  28.786  1.00  0.00     0.012 A 
ATOM     90  C   UNL A   1      46.130  31.031  28.419  1.00  0.00     0.148 A 
ATOM     91  C   UNL A   1      43.729  32.416  27.965  1.00  0.00     0.002 A 
ATOM     92  C   UNL A   1      46.114  32.180  27.633  1.00  0.00     0.091 A 
ATOM     93  F   UNL A   1      47.263  30.356  28.658  1.00  0.00    -0.205 F 
ATOM     94  C   UNL A   1      44.914  32.870  27.397  1.00  0.00     0.022 A 
BRANCH  92  95
ATOM     95  S   UNL A   1      47.619  32.892  26.963  1.00  0.00     0.127 S 
ATOM     96  O   UNL A   1      48.333  31.708  26.489  1.00  0.00    -0.237 OA
ATOM     97  O   UNL A   1      47.109  33.764  25.903  1.00  0.00    -0.237 OA
ATOM     98  O   UNL A   1      48.255  33.604  28.065  1.00  0.00    -0.744 OA
ENDBRANCH  92  95
ENDBRANCH  65  88
ENDBRANCH  39  40
ENDBRANCH  31  34
ENDBRANCH  29  30
ENDBRANCH  28  29
ENDBRANCH   1  28
TORSDOF 18
ENDMDL
MODEL 3
REMARK VINA RESULT:     -11.5      2.256      3.807
REMARK SMILES Cc1cnn(C2(C(=O)NCCCCCCNC(=O)c3ccc(-c4c5nc(c(-c6cccc(S(=O)(=O)[O-])c6F)c6ccc([nH]6)c(-c6cccc(S(=O)(=O)[O-])c6F)c6nc(c(-c7cccc(S(=O)(=O)[O-])c7F)c7ccc4[nH]7)C=C6)C=C5)cc3)CCN(C(=O)c3cscn3)CC2)c1
REMARK SMILES IDX 13 1 12 2 11 3 10 4 9 5 7 6 8 7 6 9 82 10 93 11 83 12 92 13
REMARK SMILES IDX 84 14 85 15 86 16 5 17 1 18 2 19 3 20 94 21 4 22 87 23 88 24
REMARK SMILES IDX 91 25 89 26 90 27 14 28 15 29 16 30 17 31 18 33 19 34 20 35
REMARK SMILES IDX 81 36 21 37 80 38 22 39 23 40 24 41 74 42 25 43 79 44 73 45
REMARK SMILES IDX 75 46 26 47 78 48 72 49 71 50 27 52 59 53 39 54 58 55 40 56
REMARK SMILES IDX 43 57 57 58 76 59 41 60 42 61 56 63 77 64 44 65 28 66 29 67
REMARK SMILES IDX 37 68 30 69 32 70 38 71 31 72 33 73 34 74 35 75 36 76 60 77
REMARK SMILES IDX 61 78 69 79 62 80 64 81 70 82 63 83 65 84 66 85 67 86 68 87
REMARK SMILES IDX 45 88 46 89 54 90 47 91 49 92 55 93 48 94 50 95 51 96 52 97
REMARK SMILES IDX 53 98
REMARK H PARENT 9 8 16 32 75 51 43 62
REMARK Flexibility Score: inf
ROOT
ATOM      1  C   UNL A   1      39.601  21.375  26.468  1.00  0.00     0.002 C 
ENDROOT
BRANCH   1   2
ATOM      2  C   UNL A   1      38.470  21.995  25.634  1.00  0.00     0.002 C 
BRANCH   2   3
ATOM      3  C   UNL A   1      37.957  23.365  26.098  1.00  0.00     0.021 C 
BRANCH   3   4
ATOM      4  C   UNL A   1      36.460  23.579  25.884  1.00  0.00     0.116 C 
BRANCH   4   5
ATOM      5  N   UNL A   1      36.171  23.765  24.471  1.00  0.00    -0.354 N 
ATOM      6  C   UNL A   1      35.177  23.265  23.676  1.00  0.00     0.248 C 
ATOM      7  O   UNL A   1      35.483  23.201  22.483  1.00  0.00    -0.272 OA
ATOM      8  H   UNL A   1      36.804  24.356  24.003  1.00  0.00     0.163 HD
BRANCH   6   9
ATOM      9  C   UNL A   1      33.813  22.788  24.279  1.00  0.00     0.144 C 
ATOM     10  C   UNL A   1      32.906  22.441  23.060  1.00  0.00     0.062 C 
ATOM     11  C   UNL A   1      34.089  21.617  25.268  1.00  0.00     0.062 C 
ATOM     12  C   UNL A   1      31.908  21.307  23.281  1.00  0.00     0.123 C 
ATOM     13  C   UNL A   1      32.960  20.602  25.379  1.00  0.00     0.123 C 
ATOM     14  N   UNL A   1      32.482  20.221  24.062  1.00  0.00    -0.337 N 
ATOM     15  C   UNL A   1      32.601  18.959  23.461  1.00  0.00     0.273 C 
ATOM     16  O   UNL A   1      32.326  18.784  22.277  1.00  0.00    -0.267 OA
BRANCH   9  17
ATOM     17  N   UNL A   1      33.182  23.878  25.083  1.00  0.00    -0.257 N 
ATOM     18  C   UNL A   1      32.580  27.274  26.298  1.00  0.00     0.048 C 
ATOM     19  C   UNL A   1      32.642  25.838  25.957  1.00  0.00    -0.013 A 
ATOM     20  C   UNL A   1      31.964  24.770  26.569  1.00  0.00     0.138 A 
ATOM     21  C   UNL A   1      33.369  25.234  24.952  1.00  0.00     0.113 A 
ATOM     22  N   UNL A   1      32.162  23.618  25.933  1.00  0.00    -0.180 NA
ENDBRANCH   9  17
BRANCH  15  23
ATOM     23  C   UNL A   1      33.083  17.828  24.262  1.00  0.00     0.139 A 
ATOM     24  C   UNL A   1      32.287  17.008  25.044  1.00  0.00     0.100 A 
ATOM     25  N   UNL A   1      34.418  17.420  24.185  1.00  0.00    -0.240 NA
ATOM     26  S   UNL A   1      33.208  15.707  25.680  1.00  0.00    -0.130 S 
ATOM     27  C   UNL A   1      34.580  16.293  24.837  1.00  0.00     0.176 A 
ENDBRANCH  15  23
ENDBRANCH   6   9
ENDBRANCH   4   5
ENDBRANCH   3   4
ENDBRANCH   2   3
ENDBRANCH   1   2
BRANCH   1  28
ATOM     28  C   UNL A   1      40.263  22.275  27.521  1.00  0.00     0.021 C 
BRANCH  28  29
ATOM     29  C   UNL A   1      41.718  21.942  27.804  1.00  0.00     0.116 C 
BRANCH  29  30
ATOM     30  N   UNL A   1      42.546  21.934  26.594  1.00  0.00    -0.352 N 
ATOM     31  C   UNL A   1      42.790  22.979  25.715  1.00  0.00     0.251 C 
ATOM     32  H   UNL A   1      42.984  21.078  26.377  1.00  0.00     0.163 HD
ATOM     33  O   UNL A   1      43.173  22.775  24.578  1.00  0.00    -0.269 OA
BRANCH  31  34
ATOM     34  C   UNL A   1      42.581  24.352  26.212  1.00  0.00     0.039 A 
ATOM     35  C   UNL A   1      41.492  25.136  25.829  1.00  0.00     0.014 A 
ATOM     36  C   UNL A   1      43.496  24.811  27.149  1.00  0.00     0.014 A 
ATOM     37  C   UNL A   1      41.299  26.359  26.471  1.00  0.00     0.010 A 
ATOM     38  C   UNL A   1      43.167  25.874  27.938  1.00  0.00     0.010 A 
ATOM     39  C   UNL A   1      42.138  26.711  27.540  1.00  0.00    -0.014 A 
BRANCH  39  40
ATOM     40  C   UNL A   1      41.974  27.950  28.281  1.00  0.00     0.031 A 
ATOM     41  C   UNL A   1      42.888  29.053  27.910  1.00  0.00     0.074 A 
ATOM     42  C   UNL A   1      40.942  28.151  29.129  1.00  0.00     0.049 A 
ATOM     43  N   UNL A   1      43.924  29.454  28.569  1.00  0.00    -0.248 NA
ATOM     44  C   UNL A   1      42.718  29.705  26.606  1.00  0.00     0.031 C 
ATOM     45  C   UNL A   1      39.771  27.296  29.390  1.00  0.00     0.029 A 
ATOM     46  N   UNL A   1      40.666  29.258  29.861  1.00  0.00    -0.354 N 
ATOM     47  C   UNL A   1      44.393  30.573  27.888  1.00  0.00     0.074 A 
ATOM     48  C   UNL A   1      43.751  30.553  26.599  1.00  0.00     0.031 C 
ATOM     49  C   UNL A   1      38.812  28.019  30.006  1.00  0.00     0.029 A 
ATOM     50  C   UNL A   1      39.375  29.301  30.369  1.00  0.00     0.049 A 
ATOM     51  H   UNL A   1      41.326  29.972  30.020  1.00  0.00     0.167 HD
ATOM     52  C   UNL A   1      45.083  31.553  28.537  1.00  0.00     0.034 A 
ATOM     53  C   UNL A   1      38.811  30.333  31.032  1.00  0.00     0.034 A 
ATOM     54  C   UNL A   1      45.452  31.143  29.872  1.00  0.00     0.049 A 
ATOM     55  C   UNL A   1      39.924  31.121  31.612  1.00  0.00     0.074 A 
ATOM     56  C   UNL A   1      46.201  30.118  30.415  1.00  0.00     0.029 A 
ATOM     57  N   UNL A   1      44.676  31.625  30.901  1.00  0.00    -0.354 N 
ATOM     58  N   UNL A   1      40.733  30.652  32.523  1.00  0.00    -0.248 NA
ATOM     59  C   UNL A   1      40.420  32.263  30.864  1.00  0.00     0.031 C 
ATOM     60  C   UNL A   1      45.489  29.727  31.588  1.00  0.00     0.029 A 
ATOM     61  C   UNL A   1      44.382  30.570  31.724  1.00  0.00     0.049 A 
ATOM     62  H   UNL A   1      44.386  32.557  31.023  1.00  0.00     0.167 HD
ATOM     63  C   UNL A   1      41.985  31.127  32.154  1.00  0.00     0.074 A 
ATOM     64  C   UNL A   1      41.711  32.205  31.205  1.00  0.00     0.031 C 
ATOM     65  C   UNL A   1      43.124  30.419  32.427  1.00  0.00     0.034 A 
BRANCH  52  66
ATOM     66  C   UNL A   1      45.130  33.010  28.142  1.00  0.00     0.023 A 
ATOM     67  C   UNL A   1      43.917  33.734  28.210  1.00  0.00     0.012 A 
ATOM     68  C   UNL A   1      46.206  33.624  27.463  1.00  0.00     0.148 A 
ATOM     69  C   UNL A   1      43.764  34.976  27.585  1.00  0.00     0.002 A 
ATOM     70  C   UNL A   1      46.071  34.894  26.908  1.00  0.00     0.091 A 
ATOM     71  F   UNL A   1      47.326  32.938  27.223  1.00  0.00    -0.205 F 
ATOM     72  C   UNL A   1      44.844  35.560  26.938  1.00  0.00     0.022 A 
BRANCH  70  73
ATOM     73  S   UNL A   1      47.449  35.717  26.100  1.00  0.00     0.127 S 
ATOM     74  O   UNL A   1      47.710  34.818  24.981  1.00  0.00    -0.237 OA
ATOM     75  O   UNL A   1      46.857  37.006  25.737  1.00  0.00    -0.237 OA
ATOM     76  O   UNL A   1      48.493  35.808  27.114  1.00  0.00    -0.744 OA
ENDBRANCH  70  73
ENDBRANCH  52  66
BRANCH  53  77
ATOM     77  C   UNL A   1      37.412  30.804  30.985  1.00  0.00     0.023 A 
ATOM     78  C   UNL A   1      36.749  31.147  32.176  1.00  0.00     0.012 A 
ATOM     79  C   UNL A   1      36.821  31.177  29.753  1.00  0.00     0.148 A 
ATOM     80  C   UNL A   1      35.550  31.870  32.146  1.00  0.00     0.002 A 
ATOM     81  C   UNL A   1      35.629  31.892  29.729  1.00  0.00     0.091 A 
ATOM     82  F   UNL A   1      37.475  30.904  28.616  1.00  0.00    -0.205 F 
ATOM     83  C   UNL A   1      34.997  32.252  30.925  1.00  0.00     0.022 A 
BRANCH  81  84
ATOM     84  S   UNL A   1      34.864  32.440  28.195  1.00  0.00     0.127 S 
ATOM     85  O   UNL A   1      35.936  33.229  27.588  1.00  0.00    -0.237 OA
ATOM     86  O   UNL A   1      34.585  31.173  27.524  1.00  0.00    -0.237 OA
ATOM     87  O   UNL A   1      33.697  33.221  28.585  1.00  0.00    -0.744 OA
ENDBRANCH  81  84
ENDBRANCH  53  77
BRANCH  65  88
ATOM     88  C   UNL A   1      43.007  29.206  33.326  1.00  0.00     0.023 A 
ATOM     89  C   UNL A   1      42.659  27.935  32.819  1.00  0.00     0.012 A 
ATOM     90  C   UNL A   1      43.429  29.304  34.662  1.00  0.00     0.148 A 
ATOM     91  C   UNL A   1      42.708  26.795  33.626  1.00  0.00     0.002 A 
ATOM     92  C   UNL A   1      43.514  28.162  35.453  1.00  0.00     0.091 A 
ATOM     93  F   UNL A   1      43.774  30.513  35.128  1.00  0.00    -0.205 F 
ATOM     94  C   UNL A   1      43.146  26.907  34.941  1.00  0.00     0.022 A 
BRANCH  92  95
ATOM     95  S   UNL A   1      44.180  28.210  37.119  1.00  0.00     0.127 S 
ATOM     96  O   UNL A   1      43.632  26.988  37.703  1.00  0.00    -0.237 OA
ATOM     97  O   UNL A   1      45.625  28.178  36.880  1.00  0.00    -0.237 OA
ATOM     98  O   UNL A   1      43.702  29.453  37.710  1.00  0.00    -0.744 OA
ENDBRANCH  92  95
ENDBRANCH  65  88
ENDBRANCH  39  40
ENDBRANCH  31  34
ENDBRANCH  29  30
ENDBRANCH  28  29
ENDBRANCH   1  28
TORSDOF 18
ENDMDL
