MODEL 1
REMARK VINA RESULT:     -12.5      0.000      0.000
REMARK SMILES NC(=O)COc1ccc(/C=C2\SC(=S)N(CCC(=O)NCCCCCCNC(=O)c3ccc(-c4c5nc(c(-c6cccc(S(=O)(=O)[O-])c6F)c6ccc([nH]6)c(-c6cccc(S(=O)(=O)[O-])c6F)c6nc(c(-c7cccc(S(=O)(=O)[O-])c7F)c7ccc4[nH]7)C=C6)C=C5)cc3)C2=O)cc1
REMARK SMILES IDX 22 1 21 2 20 3 18 4 19 5 17 7 16 8 15 9 10 10 11 11 12 12
REMARK SMILES IDX 93 13 13 14 94 15 14 16 9 17 6 18 7 19 96 20 8 21 95 22 5 23
REMARK SMILES IDX 4 24 2 25 1 26 3 29 23 30 24 31 25 32 26 33 27 34 28 35
REMARK SMILES IDX 29 37 30 38 31 39 92 40 32 41 91 42 33 43 34 44 35 45 85 46
REMARK SMILES IDX 36 47 90 48 84 49 86 50 37 51 89 52 83 53 82 54 38 56 70 57
REMARK SMILES IDX 50 58 69 59 51 60 54 61 68 62 87 63 52 64 53 65 67 67 88 68
REMARK SMILES IDX 55 69 39 70 40 71 48 72 41 73 43 74 49 75 42 76 44 77 45 78
REMARK SMILES IDX 46 79 47 80 71 81 72 82 80 83 73 84 75 85 81 86 74 87 76 88
REMARK SMILES IDX 77 89 78 90 79 91 56 92 57 93 65 94 58 95 60 96 66 97 59 98
REMARK SMILES IDX 61 99 62 100 63 101 64 102
REMARK H PARENT 20 6 1 27 1 28 27 36 86 55 54 66
REMARK Flexibility Score: inf
ROOT
ATOM      1  C   UNL A   1      37.754  23.653  25.670  1.00  0.00     0.021 C 
ENDROOT
BRANCH   1   2
ATOM      2  C   UNL A   1      36.228  23.740  25.597  1.00  0.00     0.116 C 
BRANCH   2   3
ATOM      3  N   UNL A   1      35.601  22.980  26.683  1.00  0.00    -0.356 N 
ATOM      4  C   UNL A   1      34.634  22.016  26.672  1.00  0.00     0.221 C 
ATOM      5  O   UNL A   1      34.183  21.624  27.750  1.00  0.00    -0.275 OA
ATOM      6  H   UNL A   1      35.938  23.205  27.581  1.00  0.00     0.163 HD
BRANCH   4   7
ATOM      7  C   UNL A   1      34.152  21.401  25.379  1.00  0.00     0.122 C 
BRANCH   7   8
ATOM      8  C   UNL A   1      32.666  21.026  25.427  1.00  0.00     0.137 C 
BRANCH   8   9
ATOM      9  N   UNL A   1      31.816  22.126  24.994  1.00  0.00    -0.292 N 
ATOM     10  C   UNL A   1      30.741  25.314  26.014  1.00  0.00     0.029 C 
ATOM     11  C   UNL A   1      30.699  24.163  25.306  1.00  0.00     0.081 C 
ATOM     12  S   UNL A   1      30.661  23.895  23.603  1.00  0.00    -0.054 SA
ATOM     13  C   UNL A   1      31.130  22.886  25.942  1.00  0.00     0.266 C 
ATOM     14  C   UNL A   1      31.687  22.503  23.675  1.00  0.00     0.148 C 
ATOM     15  O   UNL A   1      30.973  22.626  27.123  1.00  0.00    -0.268 OA
ATOM     16  S   UNL A   1      32.379  21.841  22.311  1.00  0.00    -0.052 S 
BRANCH  10  17
ATOM     17  C   UNL A   1      30.873  26.674  25.440  1.00  0.00    -0.024 A 
ATOM     18  C   UNL A   1      30.436  30.073  24.161  1.00  0.00     0.120 A 
ATOM     19  C   UNL A   1      31.763  29.736  25.366  1.00  0.00     0.047 A 
ATOM     20  C   UNL A   1      29.508  28.726  23.516  1.00  0.00     0.047 A 
ATOM     21  C   UNL A   1      31.944  28.032  26.084  1.00  0.00     0.012 A 
ATOM     22  C   UNL A   1      29.641  27.105  24.197  1.00  0.00     0.012 A 
BRANCH  18  23
ATOM     23  O   UNL A   1      29.585  31.400  24.009  1.00  0.00    -0.484 OA
BRANCH  23  24
ATOM     24  C   UNL A   1      28.776  32.769  22.762  1.00  0.00     0.329 C 
BRANCH  24  25
ATOM     25  C   UNL A   1      28.014  32.637  21.189  1.00  0.00     0.255 C 
ATOM     26  N   UNL A   1      28.119  31.497  20.435  1.00  0.00    -0.367 N 
ATOM     27  H   UNL A   1      27.682  31.447  19.555  1.00  0.00     0.159 HD
ATOM     28  H   UNL A   1      28.632  30.729  20.774  1.00  0.00     0.159 HD
ATOM     29  O   UNL A   1      27.349  33.570  20.730  1.00  0.00    -0.271 OA
ENDBRANCH  24  25
ENDBRANCH  23  24
ENDBRANCH  18  23
ENDBRANCH  10  17
ENDBRANCH   8   9
ENDBRANCH   7   8
ENDBRANCH   4   7
ENDBRANCH   2   3
ENDBRANCH   1   2
BRANCH   1  30
ATOM     30  C   UNL A   1      38.463  24.372  26.827  1.00  0.00     0.002 C 
BRANCH  30  31
ATOM     31  C   UNL A   1      39.908  23.869  27.213  1.00  0.00     0.002 C 
BRANCH  31  32
ATOM     32  C   UNL A   1      40.481  22.163  27.490  1.00  0.00     0.021 C 
BRANCH  32  33
ATOM     33  C   UNL A   1      40.644  20.419  26.177  1.00  0.00     0.116 C 
BRANCH  33  34
ATOM     34  N   UNL A   1      41.977  19.597  25.606  1.00  0.00    -0.352 N 
ATOM     35  C   UNL A   1      43.229  20.076  25.320  1.00  0.00     0.251 C 
ATOM     36  H   UNL A   1      41.847  18.633  25.454  1.00  0.00     0.163 HD
ATOM     37  O   UNL A   1      44.049  19.508  24.618  1.00  0.00    -0.269 OA
BRANCH  35  38
ATOM     38  C   UNL A   1      43.428  21.416  25.822  1.00  0.00     0.039 A 
ATOM     39  C   UNL A   1      43.893  21.761  27.543  1.00  0.00     0.014 A 
ATOM     40  C   UNL A   1      43.613  22.718  24.565  1.00  0.00     0.014 A 
ATOM     41  C   UNL A   1      44.444  23.421  27.978  1.00  0.00     0.010 A 
ATOM     42  C   UNL A   1      44.230  24.339  25.044  1.00  0.00     0.010 A 
ATOM     43  C   UNL A   1      44.610  24.710  26.733  1.00  0.00    -0.014 A 
BRANCH  43  44
ATOM     44  C   UNL A   1      44.700  26.184  27.070  1.00  0.00     0.031 A 
ATOM     45  C   UNL A   1      46.014  26.962  26.958  1.00  0.00     0.074 A 
ATOM     46  C   UNL A   1      43.642  26.843  27.563  1.00  0.00     0.049 A 
ATOM     47  N   UNL A   1      46.459  27.997  27.633  1.00  0.00    -0.248 NA
ATOM     48  C   UNL A   1      46.999  26.477  25.996  1.00  0.00     0.031 C 
ATOM     49  C   UNL A   1      42.310  26.286  27.754  1.00  0.00     0.029 A 
ATOM     50  N   UNL A   1      43.548  28.134  28.022  1.00  0.00    -0.354 N 
ATOM     51  C   UNL A   1      47.812  28.138  27.293  1.00  0.00     0.074 A 
ATOM     52  C   UNL A   1      48.120  27.053  26.401  1.00  0.00     0.031 C 
ATOM     53  C   UNL A   1      41.521  27.232  28.292  1.00  0.00     0.029 A 
ATOM     54  C   UNL A   1      42.309  28.443  28.524  1.00  0.00     0.049 A 
ATOM     55  H   UNL A   1      44.295  28.774  27.993  1.00  0.00     0.167 HD
ATOM     56  C   UNL A   1      48.701  29.123  27.584  1.00  0.00     0.034 A 
ATOM     57  C   UNL A   1      41.873  29.572  29.117  1.00  0.00     0.034 A 
ATOM     58  C   UNL A   1      48.293  30.390  28.126  1.00  0.00     0.049 A 
ATOM     59  C   UNL A   1      42.817  30.736  29.286  1.00  0.00     0.074 A 
ATOM     60  C   UNL A   1      49.045  31.537  28.306  1.00  0.00     0.029 A 
ATOM     61  N   UNL A   1      46.990  30.706  28.473  1.00  0.00    -0.354 N 
ATOM     62  N   UNL A   1      44.096  30.814  29.005  1.00  0.00    -0.248 NA
ATOM     63  C   UNL A   1      42.244  31.980  29.820  1.00  0.00     0.031 C 
ATOM     64  C   UNL A   1      48.191  32.552  28.749  1.00  0.00     0.029 A 
ATOM     65  C   UNL A   1      46.906  32.036  28.831  1.00  0.00     0.049 A 
ATOM     66  H   UNL A   1      46.234  30.074  28.466  1.00  0.00     0.167 HD
ATOM     67  C   UNL A   1      44.471  32.124  29.293  1.00  0.00     0.074 A 
ATOM     68  C   UNL A   1      43.277  32.808  29.747  1.00  0.00     0.031 C 
ATOM     69  C   UNL A   1      45.692  32.710  29.209  1.00  0.00     0.034 A 
BRANCH  56  70
ATOM     70  C   UNL A   1      50.172  28.944  27.228  1.00  0.00     0.023 A 
ATOM     71  C   UNL A   1      50.693  29.397  25.998  1.00  0.00     0.012 A 
ATOM     72  C   UNL A   1      51.066  28.373  28.164  1.00  0.00     0.148 A 
ATOM     73  C   UNL A   1      52.036  29.203  25.666  1.00  0.00     0.002 A 
ATOM     74  C   UNL A   1      52.420  28.253  27.858  1.00  0.00     0.091 A 
ATOM     75  F   UNL A   1      50.577  27.950  29.339  1.00  0.00    -0.205 F 
ATOM     76  C   UNL A   1      52.901  28.640  26.599  1.00  0.00     0.022 A 
BRANCH  74  77
ATOM     77  S   UNL A   1      53.641  27.666  29.041  1.00  0.00     0.127 S 
ATOM     78  O   UNL A   1      54.893  28.015  28.372  1.00  0.00    -0.237 OA
ATOM     79  O   UNL A   1      53.336  28.472  30.223  1.00  0.00    -0.237 OA
ATOM     80  O   UNL A   1      53.392  26.240  29.199  1.00  0.00    -0.744 OA
ENDBRANCH  74  77
ENDBRANCH  56  70
BRANCH  57  81
ATOM     81  C   UNL A   1      40.442  29.673  29.515  1.00  0.00     0.023 A 
ATOM     82  C   UNL A   1      39.477  29.974  28.536  1.00  0.00     0.012 A 
ATOM     83  C   UNL A   1      40.028  29.401  30.832  1.00  0.00     0.148 A 
ATOM     84  C   UNL A   1      38.123  30.026  28.865  1.00  0.00     0.002 A 
ATOM     85  C   UNL A   1      38.673  29.394  31.140  1.00  0.00     0.091 A 
ATOM     86  F   UNL A   1      40.966  29.124  31.748  1.00  0.00    -0.205 F 
ATOM     87  C   UNL A   1      37.721  29.723  30.163  1.00  0.00     0.022 A 
BRANCH  85  88
ATOM     88  S   UNL A   1      38.055  28.871  32.744  1.00  0.00     0.127 S 
ATOM     89  O   UNL A   1      36.653  29.272  32.669  1.00  0.00    -0.237 OA
ATOM     90  O   UNL A   1      38.288  27.427  32.699  1.00  0.00    -0.237 OA
ATOM     91  O   UNL A   1      38.865  29.578  33.727  1.00  0.00    -0.744 OA
ENDBRANCH  85  88
ENDBRANCH  57  81
BRANCH  69  92
ATOM     92  C   UNL A   1      45.795  34.170  29.555  1.00  0.00     0.023 A 
ATOM     93  C   UNL A   1      46.155  34.556  30.860  1.00  0.00     0.012 A 
ATOM     94  C   UNL A   1      45.618  35.155  28.562  1.00  0.00     0.148 A 
ATOM     95  C   UNL A   1      46.299  35.904  31.183  1.00  0.00     0.002 A 
ATOM     96  C   UNL A   1      45.812  36.493  28.879  1.00  0.00     0.091 A 
ATOM     97  F   UNL A   1      45.266  34.763  27.329  1.00  0.00    -0.205 F 
ATOM     98  C   UNL A   1      46.140  36.870  30.192  1.00  0.00     0.022 A 
BRANCH  96  99
ATOM     99  S   UNL A   1      45.728  37.797  27.648  1.00  0.00     0.127 S 
ATOM    100  O   UNL A   1      46.634  37.293  26.618  1.00  0.00    -0.237 OA
ATOM    101  O   UNL A   1      44.313  37.780  27.276  1.00  0.00    -0.237 OA
ATOM    102  O   UNL A   1      46.162  39.014  28.320  1.00  0.00    -0.744 OA
ENDBRANCH  96  99
ENDBRANCH  69  92
ENDBRANCH  43  44
ENDBRANCH  35  38
ENDBRANCH  33  34
ENDBRANCH  32  33
ENDBRANCH  31  32
ENDBRANCH  30  31
ENDBRANCH   1  30
TORSDOF 22
ENDMDL
MODEL 2
REMARK VINA RESULT:     -12.3      2.888      3.316
REMARK SMILES NC(=O)COc1ccc(/C=C2\SC(=S)N(CCC(=O)NCCCCCCNC(=O)c3ccc(-c4c5nc(c(-c6cccc(S(=O)(=O)[O-])c6F)c6ccc([nH]6)c(-c6cccc(S(=O)(=O)[O-])c6F)c6nc(c(-c7cccc(S(=O)(=O)[O-])c7F)c7ccc4[nH]7)C=C6)C=C5)cc3)C2=O)cc1
REMARK SMILES IDX 22 1 21 2 20 3 18 4 19 5 17 7 16 8 15 9 10 10 11 11 12 12
REMARK SMILES IDX 93 13 13 14 94 15 14 16 9 17 6 18 7 19 96 20 8 21 95 22 5 23
REMARK SMILES IDX 4 24 2 25 1 26 3 29 23 30 24 31 25 32 26 33 27 34 28 35
REMARK SMILES IDX 29 37 30 38 31 39 92 40 32 41 91 42 33 43 34 44 35 45 85 46
REMARK SMILES IDX 36 47 90 48 84 49 86 50 37 51 89 52 83 53 82 54 38 56 70 57
REMARK SMILES IDX 50 58 69 59 51 60 54 61 68 62 87 63 52 64 53 65 67 67 88 68
REMARK SMILES IDX 55 69 39 70 40 71 48 72 41 73 43 74 49 75 42 76 44 77 45 78
REMARK SMILES IDX 46 79 47 80 71 81 72 82 80 83 73 84 75 85 81 86 74 87 76 88
REMARK SMILES IDX 77 89 78 90 79 91 56 92 57 93 65 94 58 95 60 96 66 97 59 98
REMARK SMILES IDX 61 99 62 100 63 101 64 102
REMARK H PARENT 20 6 1 27 1 28 27 36 86 55 54 66
REMARK Flexibility Score: inf
ROOT
ATOM      1  C   UNL A   1      37.221  22.374  24.761  1.00  0.00     0.021 C 
ENDROOT
BRANCH   1   2
ATOM      2  C   UNL A   1      35.960  23.127  25.189  1.00  0.00     0.116 C 
BRANCH   2   3
ATOM      3  N   UNL A   1      35.364  22.525  26.386  1.00  0.00    -0.356 N 
ATOM      4  C   UNL A   1      34.335  21.641  26.537  1.00  0.00     0.221 C 
ATOM      5  O   UNL A   1      33.938  21.390  27.677  1.00  0.00    -0.275 OA
ATOM      6  H   UNL A   1      35.780  22.810  27.232  1.00  0.00     0.163 HD
BRANCH   4   7
ATOM      7  C   UNL A   1      33.718  20.942  25.348  1.00  0.00     0.122 C 
BRANCH   7   8
ATOM      8  C   UNL A   1      32.202  21.157  25.263  1.00  0.00     0.137 C 
BRANCH   8   9
ATOM      9  N   UNL A   1      31.866  22.553  25.025  1.00  0.00    -0.292 N 
ATOM     10  C   UNL A   1      31.593  25.625  26.714  1.00  0.00     0.029 C 
ATOM     11  C   UNL A   1      31.383  24.742  25.711  1.00  0.00     0.081 C 
ATOM     12  S   UNL A   1      31.698  24.869  24.021  1.00  0.00    -0.054 SA
ATOM     13  C   UNL A   1      31.228  23.293  26.021  1.00  0.00     0.266 C 
ATOM     14  C   UNL A   1      32.197  23.219  23.865  1.00  0.00     0.148 C 
ATOM     15  O   UNL A   1      30.705  22.865  27.037  1.00  0.00    -0.268 OA
ATOM     16  S   UNL A   1      32.977  22.654  22.504  1.00  0.00    -0.052 S 
BRANCH  10  17
ATOM     17  C   UNL A   1      32.274  26.934  26.580  1.00  0.00    -0.024 A 
ATOM     18  C   UNL A   1      33.750  30.256  26.991  1.00  0.00     0.120 A 
ATOM     19  C   UNL A   1      34.756  28.914  26.276  1.00  0.00     0.047 A 
ATOM     20  C   UNL A   1      32.045  29.966  27.310  1.00  0.00     0.047 A 
ATOM     21  C   UNL A   1      34.045  27.203  26.136  1.00  0.00     0.012 A 
ATOM     22  C   UNL A   1      31.351  28.348  27.211  1.00  0.00     0.012 A 
BRANCH  18  23
ATOM     23  O   UNL A   1      34.245  31.452  27.905  1.00  0.00    -0.484 OA
BRANCH  23  24
ATOM     24  C   UNL A   1      34.830  33.383  28.010  1.00  0.00     0.329 C 
BRANCH  24  25
ATOM     25  C   UNL A   1      33.965  34.869  28.346  1.00  0.00     0.255 C 
ATOM     26  N   UNL A   1      34.491  36.093  28.023  1.00  0.00    -0.367 N 
ATOM     27  H   UNL A   1      33.985  36.914  28.222  1.00  0.00     0.159 HD
ATOM     28  H   UNL A   1      35.374  36.151  27.593  1.00  0.00     0.159 HD
ATOM     29  O   UNL A   1      32.848  34.844  28.870  1.00  0.00    -0.271 OA
ENDBRANCH  24  25
ENDBRANCH  23  24
ENDBRANCH  18  23
ENDBRANCH  10  17
ENDBRANCH   8   9
ENDBRANCH   7   8
ENDBRANCH   4   7
ENDBRANCH   2   3
ENDBRANCH   1   2
BRANCH   1  30
ATOM     30  C   UNL A   1      38.240  21.998  25.848  1.00  0.00     0.002 C 
BRANCH  30  31
ATOM     31  C   UNL A   1      39.169  23.150  26.396  1.00  0.00     0.002 C 
BRANCH  31  32
ATOM     32  C   UNL A   1      40.874  23.033  27.025  1.00  0.00     0.021 C 
BRANCH  32  33
ATOM     33  C   UNL A   1      42.292  21.372  27.174  1.00  0.00     0.116 C 
BRANCH  33  34
ATOM     34  N   UNL A   1      43.553  20.915  26.185  1.00  0.00    -0.352 N 
ATOM     35  C   UNL A   1      44.520  21.694  25.605  1.00  0.00     0.251 C 
ATOM     36  H   UNL A   1      43.613  19.952  25.992  1.00  0.00     0.163 HD
ATOM     37  O   UNL A   1      45.209  21.359  24.655  1.00  0.00    -0.269 OA
BRANCH  35  38
ATOM     38  C   UNL A   1      44.540  23.033  26.146  1.00  0.00     0.039 A 
ATOM     39  C   UNL A   1      45.324  23.440  27.732  1.00  0.00     0.014 A 
ATOM     40  C   UNL A   1      44.126  24.369  24.982  1.00  0.00     0.014 A 
ATOM     41  C   UNL A   1      45.591  25.173  28.151  1.00  0.00     0.010 A 
ATOM     42  C   UNL A   1      44.474  26.078  25.425  1.00  0.00     0.010 A 
ATOM     43  C   UNL A   1      45.164  26.491  27.003  1.00  0.00    -0.014 A 
BRANCH  43  44
ATOM     44  C   UNL A   1      45.010  27.939  27.419  1.00  0.00     0.031 A 
ATOM     45  C   UNL A   1      46.180  28.926  27.364  1.00  0.00     0.074 A 
ATOM     46  C   UNL A   1      43.858  28.389  27.935  1.00  0.00     0.049 A 
ATOM     47  N   UNL A   1      46.448  29.981  28.099  1.00  0.00    -0.248 NA
ATOM     48  C   UNL A   1      47.233  28.662  26.388  1.00  0.00     0.031 C 
ATOM     49  C   UNL A   1      42.634  27.613  28.080  1.00  0.00     0.029 A 
ATOM     50  N   UNL A   1      43.553  29.620  28.461  1.00  0.00    -0.354 N 
ATOM     51  C   UNL A   1      47.761  30.359  27.782  1.00  0.00     0.074 A 
ATOM     52  C   UNL A   1      48.244  29.390  26.836  1.00  0.00     0.031 C 
ATOM     53  C   UNL A   1      41.701  28.386  28.660  1.00  0.00     0.029 A 
ATOM     54  C   UNL A   1      42.279  29.695  28.965  1.00  0.00     0.049 A 
ATOM     55  H   UNL A   1      44.186  30.374  28.475  1.00  0.00     0.167 HD
ATOM     56  C   UNL A   1      48.476  31.459  28.135  1.00  0.00     0.034 A 
ATOM     57  C   UNL A   1      41.663  30.703  29.614  1.00  0.00     0.034 A 
ATOM     58  C   UNL A   1      47.865  32.611  28.740  1.00  0.00     0.049 A 
ATOM     59  C   UNL A   1      42.404  31.994  29.856  1.00  0.00     0.074 A 
ATOM     60  C   UNL A   1      48.419  33.854  28.990  1.00  0.00     0.029 A 
ATOM     61  N   UNL A   1      46.527  32.690  29.089  1.00  0.00    -0.354 N 
ATOM     62  N   UNL A   1      43.653  32.295  29.594  1.00  0.00    -0.248 NA
ATOM     63  C   UNL A   1      41.634  33.097  30.449  1.00  0.00     0.031 C 
ATOM     64  C   UNL A   1      47.409  34.690  29.478  1.00  0.00     0.029 A 
ATOM     65  C   UNL A   1      46.227  33.968  29.517  1.00  0.00     0.049 A 
ATOM     66  H   UNL A   1      45.885  31.945  29.040  1.00  0.00     0.167 HD
ATOM     67  C   UNL A   1      43.808  33.631  29.956  1.00  0.00     0.074 A 
ATOM     68  C   UNL A   1      42.518  34.085  30.432  1.00  0.00     0.031 C 
ATOM     69  C   UNL A   1      44.917  34.412  29.917  1.00  0.00     0.034 A 
BRANCH  56  70
ATOM     70  C   UNL A   1      49.957  31.542  27.787  1.00  0.00     0.023 A 
ATOM     71  C   UNL A   1      50.928  30.830  28.523  1.00  0.00     0.012 A 
ATOM     72  C   UNL A   1      50.384  32.291  26.666  1.00  0.00     0.148 A 
ATOM     73  C   UNL A   1      52.287  30.933  28.216  1.00  0.00     0.002 A 
ATOM     74  C   UNL A   1      51.734  32.327  26.318  1.00  0.00     0.091 A 
ATOM     75  F   UNL A   1      49.464  32.961  25.957  1.00  0.00    -0.205 F 
ATOM     76  C   UNL A   1      52.689  31.674  27.110  1.00  0.00     0.022 A 
BRANCH  74  77
ATOM     77  S   UNL A   1      52.338  33.141  24.833  1.00  0.00     0.127 S 
ATOM     78  O   UNL A   1      53.748  32.757  24.838  1.00  0.00    -0.237 OA
ATOM     79  O   UNL A   1      51.536  32.506  23.787  1.00  0.00    -0.237 OA
ATOM     80  O   UNL A   1      52.076  34.561  25.020  1.00  0.00    -0.744 OA
ENDBRANCH  74  77
ENDBRANCH  56  70
BRANCH  57  81
ATOM     81  C   UNL A   1      40.234  30.547  30.000  1.00  0.00     0.023 A 
ATOM     82  C   UNL A   1      39.252  30.492  28.993  1.00  0.00     0.012 A 
ATOM     83  C   UNL A   1      39.854  30.379  31.344  1.00  0.00     0.148 A 
ATOM     84  C   UNL A   1      37.911  30.296  29.318  1.00  0.00     0.002 A 
ATOM     85  C   UNL A   1      38.525  30.124  31.657  1.00  0.00     0.091 A 
ATOM     86  F   UNL A   1      40.806  30.443  32.286  1.00  0.00    -0.205 F 
ATOM     87  C   UNL A   1      37.549  30.098  30.648  1.00  0.00     0.022 A 
BRANCH  85  88
ATOM     88  S   UNL A   1      37.992  29.709  33.322  1.00  0.00     0.127 S 
ATOM     89  O   UNL A   1      37.345  30.949  33.746  1.00  0.00    -0.237 OA
ATOM     90  O   UNL A   1      37.081  28.590  33.077  1.00  0.00    -0.237 OA
ATOM     91  O   UNL A   1      39.204  29.349  34.044  1.00  0.00    -0.744 OA
ENDBRANCH  85  88
ENDBRANCH  57  81
BRANCH  69  92
ATOM     92  C   UNL A   1      44.779  35.848  30.342  1.00  0.00     0.023 A 
ATOM     93  C   UNL A   1      45.016  36.207  31.683  1.00  0.00     0.012 A 
ATOM     94  C   UNL A   1      44.498  36.851  29.393  1.00  0.00     0.148 A 
ATOM     95  C   UNL A   1      44.938  37.540  32.081  1.00  0.00     0.002 A 
ATOM     96  C   UNL A   1      44.470  38.182  29.788  1.00  0.00     0.091 A 
ATOM     97  F   UNL A   1      44.266  36.484  28.125  1.00  0.00    -0.205 F 
ATOM     98  C   UNL A   1      44.677  38.528  31.134  1.00  0.00     0.022 A 
BRANCH  96  99
ATOM     99  S   UNL A   1      44.242  39.529  28.622  1.00  0.00     0.127 S 
ATOM    100  O   UNL A   1      45.246  39.218  27.607  1.00  0.00    -0.237 OA
ATOM    101  O   UNL A   1      42.858  39.333  28.190  1.00  0.00    -0.237 OA
ATOM    102  O   UNL A   1      44.474  40.755  29.374  1.00  0.00    -0.744 OA
ENDBRANCH  96  99
ENDBRANCH  69  92
ENDBRANCH  43  44
ENDBRANCH  35  38
ENDBRANCH  33  34
ENDBRANCH  32  33
ENDBRANCH  31  32
ENDBRANCH  30  31
ENDBRANCH   1  30
TORSDOF 22
ENDMDL
MODEL 3
REMARK VINA RESULT:     -12.1      5.559      9.740
REMARK SMILES NC(=O)COc1ccc(/C=C2\SC(=S)N(CCC(=O)NCCCCCCNC(=O)c3ccc(-c4c5nc(c(-c6cccc(S(=O)(=O)[O-])c6F)c6ccc([nH]6)c(-c6cccc(S(=O)(=O)[O-])c6F)c6nc(c(-c7cccc(S(=O)(=O)[O-])c7F)c7ccc4[nH]7)C=C6)C=C5)cc3)C2=O)cc1
REMARK SMILES IDX 22 1 21 2 20 3 18 4 19 5 17 7 16 8 15 9 10 10 11 11 12 12
REMARK SMILES IDX 93 13 13 14 94 15 14 16 9 17 6 18 7 19 96 20 8 21 95 22 5 23
REMARK SMILES IDX 4 24 2 25 1 26 3 29 23 30 24 31 25 32 26 33 27 34 28 35
REMARK SMILES IDX 29 37 30 38 31 39 92 40 32 41 91 42 33 43 34 44 35 45 85 46
REMARK SMILES IDX 36 47 90 48 84 49 86 50 37 51 89 52 83 53 82 54 38 56 70 57
REMARK SMILES IDX 50 58 69 59 51 60 54 61 68 62 87 63 52 64 53 65 67 67 88 68
REMARK SMILES IDX 55 69 39 70 40 71 48 72 41 73 43 74 49 75 42 76 44 77 45 78
REMARK SMILES IDX 46 79 47 80 71 81 72 82 80 83 73 84 75 85 81 86 74 87 76 88
REMARK SMILES IDX 77 89 78 90 79 91 56 92 57 93 65 94 58 95 60 96 66 97 59 98
REMARK SMILES IDX 61 99 62 100 63 101 64 102
REMARK H PARENT 20 6 1 27 1 28 27 36 86 55 54 66
REMARK Flexibility Score: inf
ROOT
ATOM      1  C   UNL A   1      40.433  24.927  26.679  1.00  0.00     0.021 C 
ENDROOT
BRANCH   1   2
ATOM      2  C   UNL A   1      39.177  24.054  26.732  1.00  0.00     0.116 C 
BRANCH   2   3
ATOM      3  N   UNL A   1      39.483  22.665  26.376  1.00  0.00    -0.356 N 
ATOM      4  C   UNL A   1      38.742  21.710  25.741  1.00  0.00     0.221 C 
ATOM      5  O   UNL A   1      39.189  20.563  25.680  1.00  0.00    -0.275 OA
ATOM      6  H   UNL A   1      40.383  22.367  26.643  1.00  0.00     0.163 HD
BRANCH   4   7
ATOM      7  C   UNL A   1      37.425  22.047  25.081  1.00  0.00     0.122 C 
BRANCH   7   8
ATOM      8  C   UNL A   1      36.290  21.120  25.531  1.00  0.00     0.137 C 
BRANCH   8   9
ATOM      9  N   UNL A   1      35.028  21.834  25.663  1.00  0.00    -0.292 N 
ATOM     10  C   UNL A   1      33.704  25.089  25.538  1.00  0.00     0.029 C 
ATOM     11  C   UNL A   1      33.723  23.773  25.848  1.00  0.00     0.081 C 
ATOM     12  S   UNL A   1      32.599  22.518  25.483  1.00  0.00    -0.054 SA
ATOM     13  C   UNL A   1      35.011  23.117  26.211  1.00  0.00     0.266 C 
ATOM     14  C   UNL A   1      33.826  21.327  25.217  1.00  0.00     0.148 C 
ATOM     15  O   UNL A   1      35.915  23.675  26.811  1.00  0.00    -0.268 OA
ATOM     16  S   UNL A   1      33.497  19.861  24.496  1.00  0.00    -0.052 S 
BRANCH  10  17
ATOM     17  C   UNL A   1      32.699  25.756  24.677  1.00  0.00    -0.024 A 
ATOM     18  C   UNL A   1      30.530  28.054  22.833  1.00  0.00     0.120 A 
ATOM     19  C   UNL A   1      31.380  26.714  21.935  1.00  0.00     0.047 A 
ATOM     20  C   UNL A   1      30.640  28.107  24.588  1.00  0.00     0.047 A 
ATOM     21  C   UNL A   1      32.547  25.590  22.845  1.00  0.00     0.012 A 
ATOM     22  C   UNL A   1      31.758  27.071  25.474  1.00  0.00     0.012 A 
BRANCH  18  23
ATOM     23  O   UNL A   1      30.178  29.503  22.298  1.00  0.00    -0.484 OA
BRANCH  23  24
ATOM     24  C   UNL A   1      29.155  31.221  22.587  1.00  0.00     0.329 C 
BRANCH  24  25
ATOM     25  C   UNL A   1      28.378  32.339  21.483  1.00  0.00     0.255 C 
ATOM     26  N   UNL A   1      28.293  32.077  20.140  1.00  0.00    -0.367 N 
ATOM     27  H   UNL A   1      27.852  32.721  19.540  1.00  0.00     0.159 HD
ATOM     28  H   UNL A   1      28.673  31.245  19.776  1.00  0.00     0.159 HD
ATOM     29  O   UNL A   1      27.875  33.387  21.898  1.00  0.00    -0.271 OA
ENDBRANCH  24  25
ENDBRANCH  23  24
ENDBRANCH  18  23
ENDBRANCH  10  17
ENDBRANCH   8   9
ENDBRANCH   7   8
ENDBRANCH   4   7
ENDBRANCH   2   3
ENDBRANCH   1   2
BRANCH   1  30
ATOM     30  C   UNL A   1      40.575  26.052  27.716  1.00  0.00     0.002 C 
BRANCH  30  31
ATOM     31  C   UNL A   1      39.245  26.695  28.270  1.00  0.00     0.002 C 
BRANCH  31  32
ATOM     32  C   UNL A   1      38.838  28.457  28.483  1.00  0.00     0.021 C 
BRANCH  32  33
ATOM     33  C   UNL A   1      36.941  29.529  28.702  1.00  0.00     0.116 C 
BRANCH  33  34
ATOM     34  N   UNL A   1      36.203  30.188  30.042  1.00  0.00    -0.352 N 
ATOM     35  C   UNL A   1      36.621  30.182  31.348  1.00  0.00     0.251 C 
ATOM     36  H   UNL A   1      35.348  30.645  29.873  1.00  0.00     0.163 HD
ATOM     37  O   UNL A   1      35.903  30.393  32.311  1.00  0.00    -0.269 OA
BRANCH  35  38
ATOM     38  C   UNL A   1      37.993  29.748  31.480  1.00  0.00     0.039 A 
ATOM     39  C   UNL A   1      39.387  30.907  31.555  1.00  0.00     0.014 A 
ATOM     40  C   UNL A   1      38.234  28.019  31.995  1.00  0.00     0.014 A 
ATOM     41  C   UNL A   1      41.005  30.290  32.057  1.00  0.00     0.010 A 
ATOM     42  C   UNL A   1      39.856  27.472  32.549  1.00  0.00     0.010 A 
ATOM     43  C   UNL A   1      41.242  28.575  32.550  1.00  0.00    -0.014 A 
BRANCH  43  44
ATOM     44  C   UNL A   1      42.601  27.910  32.618  1.00  0.00     0.031 A 
ATOM     45  C   UNL A   1      43.283  27.596  33.952  1.00  0.00     0.074 A 
ATOM     46  C   UNL A   1      43.296  27.649  31.502  1.00  0.00     0.049 A 
ATOM     47  N   UNL A   1      44.555  27.533  34.271  1.00  0.00    -0.248 NA
ATOM     48  C   UNL A   1      42.421  27.381  35.110  1.00  0.00     0.031 C 
ATOM     49  C   UNL A   1      42.832  27.879  30.141  1.00  0.00     0.029 A 
ATOM     50  N   UNL A   1      44.569  27.154  31.356  1.00  0.00    -0.354 N 
ATOM     51  C   UNL A   1      44.607  27.459  35.671  1.00  0.00     0.074 A 
ATOM     52  C   UNL A   1      43.248  27.542  36.132  1.00  0.00     0.031 C 
ATOM     53  C   UNL A   1      43.808  27.524  29.288  1.00  0.00     0.029 A 
ATOM     54  C   UNL A   1      44.979  27.086  30.049  1.00  0.00     0.049 A 
ATOM     55  H   UNL A   1      45.131  26.876  32.115  1.00  0.00     0.167 HD
ATOM     56  C   UNL A   1      45.653  27.229  36.508  1.00  0.00     0.034 A 
ATOM     57  C   UNL A   1      46.171  26.726  29.533  1.00  0.00     0.034 A 
ATOM     58  C   UNL A   1      46.923  26.749  36.037  1.00  0.00     0.049 A 
ATOM     59  C   UNL A   1      47.284  26.304  30.458  1.00  0.00     0.074 A 
ATOM     60  C   UNL A   1      48.008  26.306  36.772  1.00  0.00     0.029 A 
ATOM     61  N   UNL A   1      47.234  26.548  34.702  1.00  0.00    -0.354 N 
ATOM     62  N   UNL A   1      47.316  26.299  31.769  1.00  0.00    -0.248 NA
ATOM     63  C   UNL A   1      48.512  25.799  29.827  1.00  0.00     0.031 C 
ATOM     64  C   UNL A   1      48.970  25.823  35.879  1.00  0.00     0.029 A 
ATOM     65  C   UNL A   1      48.475  25.955  34.591  1.00  0.00     0.049 A 
ATOM     66  H   UNL A   1      46.654  26.793  33.944  1.00  0.00     0.167 HD
ATOM     67  C   UNL A   1      48.550  25.758  32.119  1.00  0.00     0.074 A 
ATOM     68  C   UNL A   1      49.225  25.426  30.881  1.00  0.00     0.031 C 
ATOM     69  C   UNL A   1      49.091  25.568  33.349  1.00  0.00     0.034 A 
BRANCH  56  70
ATOM     70  C   UNL A   1      45.462  27.371  38.013  1.00  0.00     0.023 A 
ATOM     71  C   UNL A   1      45.069  26.277  38.812  1.00  0.00     0.012 A 
ATOM     72  C   UNL A   1      45.744  28.600  38.654  1.00  0.00     0.148 A 
ATOM     73  C   UNL A   1      44.867  26.421  40.188  1.00  0.00     0.002 A 
ATOM     74  C   UNL A   1      45.615  28.717  40.037  1.00  0.00     0.091 A 
ATOM     75  F   UNL A   1      46.128  29.640  37.900  1.00  0.00    -0.205 F 
ATOM     76  C   UNL A   1      45.149  27.637  40.800  1.00  0.00     0.022 A 
BRANCH  74  77
ATOM     77  S   UNL A   1      46.083  30.200  40.940  1.00  0.00     0.127 S 
ATOM     78  O   UNL A   1      47.490  30.340  40.569  1.00  0.00    -0.237 OA
ATOM     79  O   UNL A   1      45.196  31.207  40.357  1.00  0.00    -0.237 OA
ATOM     80  O   UNL A   1      45.832  29.910  42.344  1.00  0.00    -0.744 OA
ENDBRANCH  74  77
ENDBRANCH  56  70
BRANCH  57  81
ATOM     81  C   UNL A   1      46.332  26.674  28.054  1.00  0.00     0.023 A 
ATOM     82  C   UNL A   1      46.877  27.785  27.383  1.00  0.00     0.012 A 
ATOM     83  C   UNL A   1      46.021  25.512  27.325  1.00  0.00     0.148 A 
ATOM     84  C   UNL A   1      47.088  27.749  26.005  1.00  0.00     0.002 A 
ATOM     85  C   UNL A   1      46.290  25.460  25.963  1.00  0.00     0.091 A 
ATOM     86  F   UNL A   1      45.496  24.469  27.985  1.00  0.00    -0.205 F 
ATOM     87  C   UNL A   1      46.808  26.583  25.298  1.00  0.00     0.022 A 
BRANCH  85  88
ATOM     88  S   UNL A   1      46.102  23.954  25.002  1.00  0.00     0.127 S 
ATOM     89  O   UNL A   1      44.669  23.959  24.717  1.00  0.00    -0.237 OA
ATOM     90  O   UNL A   1      46.962  24.224  23.849  1.00  0.00    -0.237 OA
ATOM     91  O   UNL A   1      46.572  22.878  25.863  1.00  0.00    -0.744 OA
ENDBRANCH  85  88
ENDBRANCH  57  81
BRANCH  69  92
ATOM     92  C   UNL A   1      50.447  24.921  33.428  1.00  0.00     0.023 A 
ATOM     93  C   UNL A   1      51.600  25.722  33.533  1.00  0.00     0.012 A 
ATOM     94  C   UNL A   1      50.568  23.518  33.482  1.00  0.00     0.148 A 
ATOM     95  C   UNL A   1      52.858  25.136  33.653  1.00  0.00     0.002 A 
ATOM     96  C   UNL A   1      51.820  22.942  33.652  1.00  0.00     0.091 A 
ATOM     97  F   UNL A   1      49.457  22.776  33.370  1.00  0.00    -0.205 F 
ATOM     98  C   UNL A   1      52.968  23.749  33.724  1.00  0.00     0.022 A 
BRANCH  96  99
ATOM     99  S   UNL A   1      52.049  21.173  33.855  1.00  0.00     0.127 S 
ATOM    100  O   UNL A   1      50.958  20.637  33.042  1.00  0.00    -0.237 OA
ATOM    101  O   UNL A   1      53.385  20.967  33.295  1.00  0.00    -0.237 OA
ATOM    102  O   UNL A   1      51.945  20.915  35.285  1.00  0.00    -0.744 OA
ENDBRANCH  96  99
ENDBRANCH  69  92
ENDBRANCH  43  44
ENDBRANCH  35  38
ENDBRANCH  33  34
ENDBRANCH  32  33
ENDBRANCH  31  32
ENDBRANCH  30  31
ENDBRANCH   1  30
TORSDOF 22
ENDMDL
