MODEL 1
REMARK VINA RESULT:     -12.5      0.000      0.000
REMARK SMILES CCc1cc(OC(F)(F)F)cc2c1O[C@@H](C(F)(F)F)C(C(=O)NCCCCCCNC(=O)c1ccc(-c3c4nc(c(-c5cccc(S(=O)(=O)[O-])c5F)c5ccc([nH]5)c(-c5cccc(S(=O)(=O)[O-])c5F)c5nc(c(-c6cccc(S(=O)(=O)[O-])c6F)c6ccc3[nH]6)C=C5)C=C4)cc1)=C2
REMARK SMILES IDX 27 1 26 2 25 3 24 4 23 5 21 6 22 7 20 9 3 10 4 11 13 12 5 13
REMARK SMILES IDX 12 14 14 15 11 16 96 17 15 18 2 19 1 20 6 21 7 22 8 23 9 24
REMARK SMILES IDX 10 25 16 26 17 27 18 28 19 29 28 30 29 31 30 32 31 33 32 35
REMARK SMILES IDX 33 36 34 37 95 38 35 39 94 40 36 41 37 42 38 43 88 44 39 45
REMARK SMILES IDX 93 46 87 47 89 48 40 49 92 50 86 51 85 52 41 54 73 55 53 56
REMARK SMILES IDX 72 57 54 58 57 59 71 60 90 61 55 62 56 63 70 65 91 66 58 67
REMARK SMILES IDX 42 68 43 69 51 70 44 71 46 72 52 73 45 74 47 75 48 76 49 77
REMARK SMILES IDX 50 78 74 79 75 80 83 81 76 82 78 83 84 84 77 85 79 86 80 87
REMARK SMILES IDX 81 88 82 89 59 90 60 91 68 92 61 93 63 94 69 95 62 96 64 97
REMARK SMILES IDX 65 98 66 99 67 100
REMARK H PARENT 23 8 30 34 89 53 57 64
REMARK Flexibility Score: inf
ROOT
ATOM      1  C   UNL A   1      32.234  28.412  23.268  1.00  0.00     0.002 C 
ENDROOT
BRANCH   1   2
ATOM      2  C   UNL A   1      31.278  27.346  23.816  1.00  0.00     0.002 C 
BRANCH   2   3
ATOM      3  C   UNL A   1      30.890  26.260  22.803  1.00  0.00     0.021 C 
BRANCH   3   4
ATOM      4  C   UNL A   1      30.869  24.855  23.417  1.00  0.00     0.116 C 
BRANCH   4   5
ATOM      5  N   UNL A   1      30.752  24.969  24.862  1.00  0.00    -0.352 N 
ATOM      6  C   UNL A   1      31.136  24.164  25.885  1.00  0.00     0.251 C 
ATOM      7  O   UNL A   1      30.676  24.400  27.001  1.00  0.00    -0.270 OA
ATOM      8  H   UNL A   1      30.306  25.795  25.158  1.00  0.00     0.163 HD
BRANCH   6   9
ATOM      9  C   UNL A   1      32.148  23.083  25.735  1.00  0.00     0.067 C 
ATOM     10  C   UNL A   1      35.235  20.318  24.950  1.00  0.00    -0.002 A 
ATOM     11  C   UNL A   1      34.877  19.011  24.569  1.00  0.00     0.054 A 
ATOM     12  C   UNL A   1      34.210  21.234  25.256  1.00  0.00     0.131 A 
ATOM     13  C   UNL A   1      33.538  18.618  24.506  1.00  0.00     0.130 A 
ATOM     14  C   UNL A   1      32.874  20.841  25.221  1.00  0.00     0.021 A 
ATOM     15  O   UNL A   1      34.583  22.521  25.521  1.00  0.00    -0.475 OA
ATOM     16  C   UNL A   1      32.544  19.537  24.842  1.00  0.00     0.058 A 
ATOM     17  C   UNL A   1      31.821  21.808  25.487  1.00  0.00     0.025 C 
ATOM     18  C   UNL A   1      33.596  23.464  26.028  1.00  0.00     0.314 C 
BRANCH  10  19
ATOM     19  C   UNL A   1      36.677  20.776  25.044  1.00  0.00     0.036 C 
ATOM     20  C   UNL A   1      37.757  19.721  24.837  1.00  0.00     0.009 C 
ENDBRANCH  10  19
BRANCH  13  21
ATOM     21  O   UNL A   1      33.063  17.395  24.130  1.00  0.00    -0.406 OA
BRANCH  21  22
ATOM     22  C   UNL A   1      33.443  16.265  24.896  1.00  0.00     0.573 C 
ATOM     23  F   UNL A   1      32.557  15.255  24.753  1.00  0.00    -0.132 F 
ATOM     24  F   UNL A   1      34.671  15.832  24.532  1.00  0.00    -0.132 F 
ATOM     25  F   UNL A   1      33.491  16.611  26.198  1.00  0.00    -0.132 F 
ENDBRANCH  21  22
ENDBRANCH  13  21
BRANCH  18  26
ATOM     26  C   UNL A   1      34.057  24.877  25.599  1.00  0.00     0.429 C 
ATOM     27  F   UNL A   1      33.761  25.158  24.309  1.00  0.00    -0.167 F 
ATOM     28  F   UNL A   1      33.415  25.837  26.323  1.00  0.00    -0.167 F 
ATOM     29  F   UNL A   1      35.382  25.077  25.785  1.00  0.00    -0.167 F 
ENDBRANCH  18  26
ENDBRANCH   6   9
ENDBRANCH   4   5
ENDBRANCH   3   4
ENDBRANCH   2   3
ENDBRANCH   1   2
BRANCH   1  30
ATOM     30  C   UNL A   1      33.283  28.903  24.268  1.00  0.00     0.021 C 
BRANCH  30  31
ATOM     31  C   UNL A   1      32.769  29.010  25.701  1.00  0.00     0.116 C 
BRANCH  31  32
ATOM     32  N   UNL A   1      32.355  30.370  26.016  1.00  0.00    -0.352 N 
ATOM     33  C   UNL A   1      32.895  31.248  26.923  1.00  0.00     0.251 C 
ATOM     34  H   UNL A   1      31.583  30.707  25.507  1.00  0.00     0.163 HD
ATOM     35  O   UNL A   1      32.277  32.253  27.254  1.00  0.00    -0.269 OA
BRANCH  33  36
ATOM     36  C   UNL A   1      34.224  30.961  27.502  1.00  0.00     0.039 A 
ATOM     37  C   UNL A   1      35.140  32.003  27.656  1.00  0.00     0.014 A 
ATOM     38  C   UNL A   1      34.551  29.662  27.903  1.00  0.00     0.014 A 
ATOM     39  C   UNL A   1      36.364  31.753  28.280  1.00  0.00     0.010 A 
ATOM     40  C   UNL A   1      35.740  29.432  28.588  1.00  0.00     0.010 A 
ATOM     41  C   UNL A   1      36.657  30.475  28.785  1.00  0.00    -0.014 A 
BRANCH  41  42
ATOM     42  C   UNL A   1      37.897  30.216  29.559  1.00  0.00     0.031 A 
ATOM     43  C   UNL A   1      38.948  29.284  29.019  1.00  0.00     0.074 A 
ATOM     44  C   UNL A   1      38.029  30.743  30.792  1.00  0.00     0.049 A 
ATOM     45  N   UNL A   1      40.053  28.875  29.586  1.00  0.00    -0.248 NA
ATOM     46  C   UNL A   1      38.716  28.718  27.681  1.00  0.00     0.031 C 
ATOM     47  C   UNL A   1      37.044  31.604  31.452  1.00  0.00     0.029 A 
ATOM     48  N   UNL A   1      39.028  30.610  31.723  1.00  0.00    -0.354 N 
ATOM     49  C   UNL A   1      40.631  27.984  28.691  1.00  0.00     0.074 A 
ATOM     50  C   UNL A   1      39.739  27.885  27.557  1.00  0.00     0.031 C 
ATOM     51  C   UNL A   1      37.488  31.920  32.679  1.00  0.00     0.029 A 
ATOM     52  C   UNL A   1      38.765  31.255  32.910  1.00  0.00     0.049 A 
ATOM     53  H   UNL A   1      39.855  30.101  31.557  1.00  0.00     0.167 HD
ATOM     54  C   UNL A   1      41.811  27.325  28.794  1.00  0.00     0.034 A 
ATOM     55  C   UNL A   1      39.464  31.289  34.062  1.00  0.00     0.034 A 
ATOM     56  C   UNL A   1      42.707  27.449  29.911  1.00  0.00     0.049 A 
ATOM     57  C   UNL A   1      40.773  30.553  34.146  1.00  0.00     0.074 A 
ATOM     58  C   UNL A   1      43.965  26.893  30.069  1.00  0.00     0.029 A 
ATOM     59  N   UNL A   1      42.438  28.165  31.067  1.00  0.00    -0.354 N 
ATOM     60  N   UNL A   1      41.380  29.844  33.225  1.00  0.00    -0.248 NA
ATOM     61  C   UNL A   1      41.507  30.643  35.416  1.00  0.00     0.031 C 
ATOM     62  C   UNL A   1      44.440  27.241  31.336  1.00  0.00     0.029 A 
ATOM     63  C   UNL A   1      43.496  28.046  31.953  1.00  0.00     0.049 A 
ATOM     64  H   UNL A   1      41.618  28.682  31.234  1.00  0.00     0.167 HD
ATOM     65  C   UNL A   1      42.580  29.430  33.793  1.00  0.00     0.074 A 
ATOM     66  C   UNL A   1      42.625  29.989  35.128  1.00  0.00     0.031 C 
ATOM     67  C   UNL A   1      43.549  28.645  33.263  1.00  0.00     0.034 A 
BRANCH  54  68
ATOM     68  C   UNL A   1      42.224  26.439  27.647  1.00  0.00     0.023 A 
ATOM     69  C   UNL A   1      43.103  26.937  26.664  1.00  0.00     0.012 A 
ATOM     70  C   UNL A   1      41.802  25.097  27.581  1.00  0.00     0.148 A 
ATOM     71  C   UNL A   1      43.532  26.123  25.615  1.00  0.00     0.002 A 
ATOM     72  C   UNL A   1      42.269  24.279  26.559  1.00  0.00     0.091 A 
ATOM     73  F   UNL A   1      40.952  24.648  28.514  1.00  0.00    -0.205 F 
ATOM     74  C   UNL A   1      43.124  24.793  25.570  1.00  0.00     0.022 A 
BRANCH  72  75
ATOM     75  S   UNL A   1      41.869  22.531  26.454  1.00  0.00     0.127 S 
ATOM     76  O   UNL A   1      42.522  22.156  25.201  1.00  0.00    -0.237 OA
ATOM     77  O   UNL A   1      42.508  21.998  27.657  1.00  0.00    -0.237 OA
ATOM     78  O   UNL A   1      40.416  22.449  26.447  1.00  0.00    -0.744 OA
ENDBRANCH  72  75
ENDBRANCH  54  68
BRANCH  55  79
ATOM     79  C   UNL A   1      38.955  32.079  35.220  1.00  0.00     0.023 A 
ATOM     80  C   UNL A   1      39.017  33.485  35.182  1.00  0.00     0.012 A 
ATOM     81  C   UNL A   1      38.402  31.446  36.350  1.00  0.00     0.148 A 
ATOM     82  C   UNL A   1      38.569  34.246  36.262  1.00  0.00     0.002 A 
ATOM     83  C   UNL A   1      37.904  32.211  37.398  1.00  0.00     0.091 A 
ATOM     84  F   UNL A   1      38.362  30.106  36.373  1.00  0.00    -0.205 F 
ATOM     85  C   UNL A   1      38.005  33.611  37.366  1.00  0.00     0.022 A 
BRANCH  83  86
ATOM     86  S   UNL A   1      37.040  31.484  38.795  1.00  0.00     0.127 S 
ATOM     87  O   UNL A   1      37.999  31.685  39.877  1.00  0.00    -0.237 OA
ATOM     88  O   UNL A   1      35.838  32.315  38.872  1.00  0.00    -0.237 OA
ATOM     89  O   UNL A   1      36.787  30.098  38.423  1.00  0.00    -0.744 OA
ENDBRANCH  83  86
ENDBRANCH  55  79
BRANCH  67  90
ATOM     90  C   UNL A   1      44.761  28.359  34.110  1.00  0.00     0.023 A 
ATOM     91  C   UNL A   1      45.803  29.304  34.187  1.00  0.00     0.012 A 
ATOM     92  C   UNL A   1      44.828  27.190  34.895  1.00  0.00     0.148 A 
ATOM     93  C   UNL A   1      46.906  29.077  35.008  1.00  0.00     0.002 A 
ATOM     94  C   UNL A   1      45.905  26.995  35.750  1.00  0.00     0.091 A 
ATOM     95  F   UNL A   1      43.833  26.297  34.796  1.00  0.00    -0.205 F 
ATOM     96  C   UNL A   1      46.951  27.932  35.798  1.00  0.00     0.022 A 
BRANCH  94  97
ATOM     97  S   UNL A   1      46.007  25.601  36.877  1.00  0.00     0.127 S 
ATOM     98  O   UNL A   1      46.330  24.504  35.966  1.00  0.00    -0.237 OA
ATOM     99  O   UNL A   1      47.100  26.000  37.764  1.00  0.00    -0.237 OA
ATOM    100  O   UNL A   1      44.705  25.507  37.523  1.00  0.00    -0.744 OA
ENDBRANCH  94  97
ENDBRANCH  67  90
ENDBRANCH  41  42
ENDBRANCH  33  36
ENDBRANCH  31  32
ENDBRANCH  30  31
ENDBRANCH   1  30
TORSDOF 20
ENDMDL
MODEL 2
REMARK VINA RESULT:     -12.1      2.263      7.603
REMARK SMILES CCc1cc(OC(F)(F)F)cc2c1O[C@@H](C(F)(F)F)C(C(=O)NCCCCCCNC(=O)c1ccc(-c3c4nc(c(-c5cccc(S(=O)(=O)[O-])c5F)c5ccc([nH]5)c(-c5cccc(S(=O)(=O)[O-])c5F)c5nc(c(-c6cccc(S(=O)(=O)[O-])c6F)c6ccc3[nH]6)C=C5)C=C4)cc1)=C2
REMARK SMILES IDX 27 1 26 2 25 3 24 4 23 5 21 6 22 7 20 9 3 10 4 11 13 12 5 13
REMARK SMILES IDX 12 14 14 15 11 16 96 17 15 18 2 19 1 20 6 21 7 22 8 23 9 24
REMARK SMILES IDX 10 25 16 26 17 27 18 28 19 29 28 30 29 31 30 32 31 33 32 35
REMARK SMILES IDX 33 36 34 37 95 38 35 39 94 40 36 41 37 42 38 43 88 44 39 45
REMARK SMILES IDX 93 46 87 47 89 48 40 49 92 50 86 51 85 52 41 54 73 55 53 56
REMARK SMILES IDX 72 57 54 58 57 59 71 60 90 61 55 62 56 63 70 65 91 66 58 67
REMARK SMILES IDX 42 68 43 69 51 70 44 71 46 72 52 73 45 74 47 75 48 76 49 77
REMARK SMILES IDX 50 78 74 79 75 80 83 81 76 82 78 83 84 84 77 85 79 86 80 87
REMARK SMILES IDX 81 88 82 89 59 90 60 91 68 92 61 93 63 94 69 95 62 96 64 97
REMARK SMILES IDX 65 98 66 99 67 100
REMARK H PARENT 23 8 30 34 89 53 57 64
REMARK Flexibility Score: inf
ROOT
ATOM      1  C   UNL A   1      31.886  28.134  27.299  1.00  0.00     0.002 C 
ENDROOT
BRANCH   1   2
ATOM      2  C   UNL A   1      31.221  26.900  26.678  1.00  0.00     0.002 C 
BRANCH   2   3
ATOM      3  C   UNL A   1      30.490  27.172  25.356  1.00  0.00     0.021 C 
BRANCH   3   4
ATOM      4  C   UNL A   1      29.864  25.908  24.752  1.00  0.00     0.116 C 
BRANCH   4   5
ATOM      5  N   UNL A   1      30.293  25.781  23.368  1.00  0.00    -0.352 N 
ATOM      6  C   UNL A   1      31.320  25.119  22.778  1.00  0.00     0.251 C 
ATOM      7  O   UNL A   1      31.585  25.400  21.610  1.00  0.00    -0.270 OA
ATOM      8  H   UNL A   1      29.725  26.272  22.732  1.00  0.00     0.163 HD
BRANCH   6   9
ATOM      9  C   UNL A   1      32.067  24.017  23.442  1.00  0.00     0.067 C 
ATOM     10  C   UNL A   1      34.606  21.089  25.106  1.00  0.00    -0.002 A 
ATOM     11  C   UNL A   1      34.321  19.734  24.847  1.00  0.00     0.054 A 
ATOM     12  C   UNL A   1      33.737  22.070  24.590  1.00  0.00     0.131 A 
ATOM     13  C   UNL A   1      33.195  19.362  24.108  1.00  0.00     0.130 A 
ATOM     14  C   UNL A   1      32.600  21.704  23.875  1.00  0.00     0.021 A 
ATOM     15  O   UNL A   1      34.097  23.375  24.768  1.00  0.00    -0.475 OA
ATOM     16  C   UNL A   1      32.336  20.353  23.633  1.00  0.00     0.058 A 
ATOM     17  C   UNL A   1      31.738  22.725  23.301  1.00  0.00     0.025 C 
ATOM     18  C   UNL A   1      33.153  24.432  24.430  1.00  0.00     0.314 C 
BRANCH  10  19
ATOM     19  C   UNL A   1      35.809  21.529  25.917  1.00  0.00     0.036 C 
ATOM     20  C   UNL A   1      37.167  21.486  25.229  1.00  0.00     0.009 C 
ENDBRANCH  10  19
BRANCH  13  21
ATOM     21  O   UNL A   1      32.824  18.092  23.770  1.00  0.00    -0.406 OA
BRANCH  21  22
ATOM     22  C   UNL A   1      33.686  17.026  24.127  1.00  0.00     0.573 C 
ATOM     23  F   UNL A   1      34.966  17.298  23.795  1.00  0.00    -0.132 F 
ATOM     24  F   UNL A   1      33.614  16.778  25.455  1.00  0.00    -0.132 F 
ATOM     25  F   UNL A   1      33.301  15.911  23.473  1.00  0.00    -0.132 F 
ENDBRANCH  21  22
ENDBRANCH  13  21
BRANCH  18  26
ATOM     26  C   UNL A   1      33.985  25.688  24.081  1.00  0.00     0.429 C 
ATOM     27  F   UNL A   1      33.244  26.820  24.057  1.00  0.00    -0.167 F 
ATOM     28  F   UNL A   1      34.940  25.914  25.026  1.00  0.00    -0.167 F 
ATOM     29  F   UNL A   1      34.632  25.578  22.898  1.00  0.00    -0.167 F 
ENDBRANCH  18  26
ENDBRANCH   6   9
ENDBRANCH   4   5
ENDBRANCH   3   4
ENDBRANCH   2   3
ENDBRANCH   1   2
BRANCH   1  30
ATOM     30  C   UNL A   1      33.410  28.172  27.165  1.00  0.00     0.021 C 
BRANCH  30  31
ATOM     31  C   UNL A   1      33.916  29.183  26.140  1.00  0.00     0.116 C 
BRANCH  31  32
ATOM     32  N   UNL A   1      33.904  30.536  26.680  1.00  0.00    -0.352 N 
ATOM     33  C   UNL A   1      34.695  31.080  27.662  1.00  0.00     0.251 C 
ATOM     34  H   UNL A   1      33.237  31.144  26.287  1.00  0.00     0.163 HD
ATOM     35  O   UNL A   1      34.390  32.147  28.182  1.00  0.00    -0.269 OA
BRANCH  33  36
ATOM     36  C   UNL A   1      35.912  30.360  28.089  1.00  0.00     0.039 A 
ATOM     37  C   UNL A   1      37.044  30.391  27.273  1.00  0.00     0.014 A 
ATOM     38  C   UNL A   1      35.931  29.669  29.304  1.00  0.00     0.014 A 
ATOM     39  C   UNL A   1      38.223  29.783  27.712  1.00  0.00     0.010 A 
ATOM     40  C   UNL A   1      37.125  29.128  29.770  1.00  0.00     0.010 A 
ATOM     41  C   UNL A   1      38.283  29.182  28.980  1.00  0.00    -0.014 A 
BRANCH  41  42
ATOM     42  C   UNL A   1      39.556  28.638  29.518  1.00  0.00     0.031 A 
ATOM     43  C   UNL A   1      40.276  29.350  30.631  1.00  0.00     0.074 A 
ATOM     44  C   UNL A   1      40.111  27.557  28.934  1.00  0.00     0.049 A 
ATOM     45  N   UNL A   1      41.433  29.070  31.171  1.00  0.00    -0.248 NA
ATOM     46  C   UNL A   1      39.624  30.544  31.193  1.00  0.00     0.031 C 
ATOM     47  C   UNL A   1      39.543  26.825  27.800  1.00  0.00     0.029 A 
ATOM     48  N   UNL A   1      41.291  26.905  29.192  1.00  0.00    -0.354 N 
ATOM     49  C   UNL A   1      41.663  30.067  32.111  1.00  0.00     0.074 A 
ATOM     50  C   UNL A   1      40.540  30.977  32.046  1.00  0.00     0.031 C 
ATOM     51  C   UNL A   1      40.373  25.827  27.461  1.00  0.00     0.029 A 
ATOM     52  C   UNL A   1      41.549  25.871  28.322  1.00  0.00     0.049 A 
ATOM     53  H   UNL A   1      41.894  27.154  29.929  1.00  0.00     0.167 HD
ATOM     54  C   UNL A   1      42.704  30.199  32.968  1.00  0.00     0.034 A 
ATOM     55  C   UNL A   1      42.622  25.062  28.216  1.00  0.00     0.034 A 
ATOM     56  C   UNL A   1      43.802  29.275  33.050  1.00  0.00     0.049 A 
ATOM     57  C   UNL A   1      43.761  25.228  29.186  1.00  0.00     0.074 A 
ATOM     58  C   UNL A   1      44.859  29.273  33.943  1.00  0.00     0.029 A 
ATOM     59  N   UNL A   1      43.997  28.200  32.197  1.00  0.00    -0.354 N 
ATOM     60  N   UNL A   1      43.883  26.080  30.175  1.00  0.00    -0.248 NA
ATOM     61  C   UNL A   1      44.896  24.305  29.044  1.00  0.00     0.031 C 
ATOM     62  C   UNL A   1      45.713  28.219  33.608  1.00  0.00     0.029 A 
ATOM     63  C   UNL A   1      45.170  27.540  32.529  1.00  0.00     0.049 A 
ATOM     64  H   UNL A   1      43.393  27.942  31.465  1.00  0.00     0.167 HD
ATOM     65  C   UNL A   1      45.092  25.776  30.791  1.00  0.00     0.074 A 
ATOM     66  C   UNL A   1      45.651  24.645  30.080  1.00  0.00     0.031 C 
ATOM     67  C   UNL A   1      45.693  26.388  31.841  1.00  0.00     0.034 A 
BRANCH  54  68
ATOM     68  C   UNL A   1      42.685  31.365  33.923  1.00  0.00     0.023 A 
ATOM     69  C   UNL A   1      43.323  32.570  33.563  1.00  0.00     0.012 A 
ATOM     70  C   UNL A   1      41.978  31.294  35.139  1.00  0.00     0.148 A 
ATOM     71  C   UNL A   1      43.285  33.676  34.412  1.00  0.00     0.002 A 
ATOM     72  C   UNL A   1      41.906  32.414  35.959  1.00  0.00     0.091 A 
ATOM     73  F   UNL A   1      41.395  30.134  35.472  1.00  0.00    -0.205 F 
ATOM     74  C   UNL A   1      42.567  33.601  35.603  1.00  0.00     0.022 A 
BRANCH  72  75
ATOM     75  S   UNL A   1      40.942  32.448  37.474  1.00  0.00     0.127 S 
ATOM     76  O   UNL A   1      41.778  31.653  38.372  1.00  0.00    -0.237 OA
ATOM     77  O   UNL A   1      40.905  33.877  37.781  1.00  0.00    -0.237 OA
ATOM     78  O   UNL A   1      39.651  31.860  37.144  1.00  0.00    -0.744 OA
ENDBRANCH  72  75
ENDBRANCH  54  68
BRANCH  55  79
ATOM     79  C   UNL A   1      42.655  23.998  27.173  1.00  0.00     0.023 A 
ATOM     80  C   UNL A   1      43.288  24.253  25.942  1.00  0.00     0.012 A 
ATOM     81  C   UNL A   1      42.077  22.734  27.399  1.00  0.00     0.148 A 
ATOM     82  C   UNL A   1      43.313  23.282  24.939  1.00  0.00     0.002 A 
ATOM     83  C   UNL A   1      42.155  21.751  26.420  1.00  0.00     0.091 A 
ATOM     84  F   UNL A   1      41.469  22.513  28.573  1.00  0.00    -0.205 F 
ATOM     85  C   UNL A   1      42.755  22.029  25.181  1.00  0.00     0.022 A 
BRANCH  83  86
ATOM     86  S   UNL A   1      41.585  20.071  26.695  1.00  0.00     0.127 S 
ATOM     87  O   UNL A   1      40.154  20.271  26.906  1.00  0.00    -0.237 OA
ATOM     88  O   UNL A   1      41.938  19.421  25.432  1.00  0.00    -0.237 OA
ATOM     89  O   UNL A   1      42.332  19.584  27.848  1.00  0.00    -0.744 OA
ENDBRANCH  83  86
ENDBRANCH  55  79
BRANCH  67  90
ATOM     90  C   UNL A   1      47.014  25.837  32.311  1.00  0.00     0.023 A 
ATOM     91  C   UNL A   1      48.205  26.229  31.669  1.00  0.00     0.012 A 
ATOM     92  C   UNL A   1      47.080  24.998  33.441  1.00  0.00     0.148 A 
ATOM     93  C   UNL A   1      49.440  25.770  32.125  1.00  0.00     0.002 A 
ATOM     94  C   UNL A   1      48.317  24.587  33.921  1.00  0.00     0.091 A 
ATOM     95  F   UNL A   1      45.934  24.626  34.028  1.00  0.00    -0.205 F 
ATOM     96  C   UNL A   1      49.497  24.961  33.257  1.00  0.00     0.022 A 
BRANCH  94  97
ATOM     97  S   UNL A   1      48.500  23.625  35.428  1.00  0.00     0.127 S 
ATOM     98  O   UNL A   1      47.877  24.503  36.418  1.00  0.00    -0.237 OA
ATOM     99  O   UNL A   1      47.737  22.417  35.116  1.00  0.00    -0.237 OA
ATOM    100  O   UNL A   1      49.930  23.412  35.600  1.00  0.00    -0.744 OA
ENDBRANCH  94  97
ENDBRANCH  67  90
ENDBRANCH  41  42
ENDBRANCH  33  36
ENDBRANCH  31  32
ENDBRANCH  30  31
ENDBRANCH   1  30
TORSDOF 20
ENDMDL
MODEL 3
REMARK VINA RESULT:     -12.0      1.414      7.389
REMARK SMILES CCc1cc(OC(F)(F)F)cc2c1O[C@@H](C(F)(F)F)C(C(=O)NCCCCCCNC(=O)c1ccc(-c3c4nc(c(-c5cccc(S(=O)(=O)[O-])c5F)c5ccc([nH]5)c(-c5cccc(S(=O)(=O)[O-])c5F)c5nc(c(-c6cccc(S(=O)(=O)[O-])c6F)c6ccc3[nH]6)C=C5)C=C4)cc1)=C2
REMARK SMILES IDX 27 1 26 2 25 3 24 4 23 5 21 6 22 7 20 9 3 10 4 11 13 12 5 13
REMARK SMILES IDX 12 14 14 15 11 16 96 17 15 18 2 19 1 20 6 21 7 22 8 23 9 24
REMARK SMILES IDX 10 25 16 26 17 27 18 28 19 29 28 30 29 31 30 32 31 33 32 35
REMARK SMILES IDX 33 36 34 37 95 38 35 39 94 40 36 41 37 42 38 43 88 44 39 45
REMARK SMILES IDX 93 46 87 47 89 48 40 49 92 50 86 51 85 52 41 54 73 55 53 56
REMARK SMILES IDX 72 57 54 58 57 59 71 60 90 61 55 62 56 63 70 65 91 66 58 67
REMARK SMILES IDX 42 68 43 69 51 70 44 71 46 72 52 73 45 74 47 75 48 76 49 77
REMARK SMILES IDX 50 78 74 79 75 80 83 81 76 82 78 83 84 84 77 85 79 86 80 87
REMARK SMILES IDX 81 88 82 89 59 90 60 91 68 92 61 93 63 94 69 95 62 96 64 97
REMARK SMILES IDX 65 98 66 99 67 100
REMARK H PARENT 23 8 30 34 89 53 57 64
REMARK Flexibility Score: inf
ROOT
ATOM      1  C   UNL A   1      31.664  28.251  24.126  1.00  0.00     0.002 C 
ENDROOT
BRANCH   1   2
ATOM      2  C   UNL A   1      30.422  27.476  23.671  1.00  0.00     0.002 C 
BRANCH   2   3
ATOM      3  C   UNL A   1      30.719  26.294  22.738  1.00  0.00     0.021 C 
BRANCH   3   4
ATOM      4  C   UNL A   1      30.392  24.937  23.374  1.00  0.00     0.116 C 
BRANCH   4   5
ATOM      5  N   UNL A   1      30.288  25.101  24.815  1.00  0.00    -0.352 N 
ATOM      6  C   UNL A   1      30.720  24.352  25.862  1.00  0.00     0.251 C 
ATOM      7  O   UNL A   1      30.264  24.610  26.975  1.00  0.00    -0.270 OA
ATOM      8  H   UNL A   1      29.810  25.917  25.086  1.00  0.00     0.163 HD
BRANCH   6   9
ATOM      9  C   UNL A   1      31.776  23.312  25.738  1.00  0.00     0.067 C 
ATOM     10  C   UNL A   1      34.985  20.667  25.032  1.00  0.00    -0.002 A 
ATOM     11  C   UNL A   1      34.687  19.346  24.645  1.00  0.00     0.054 A 
ATOM     12  C   UNL A   1      33.918  21.543  25.312  1.00  0.00     0.131 A 
ATOM     13  C   UNL A   1      33.367  18.902  24.552  1.00  0.00     0.130 A 
ATOM     14  C   UNL A   1      32.600  21.099  25.246  1.00  0.00     0.021 A 
ATOM     15  O   UNL A   1      34.236  22.844  25.582  1.00  0.00    -0.475 OA
ATOM     16  C   UNL A   1      32.330  19.782  24.862  1.00  0.00     0.058 A 
ATOM     17  C   UNL A   1      31.505  22.024  25.485  1.00  0.00     0.025 C 
ATOM     18  C   UNL A   1      33.201  23.749  26.065  1.00  0.00     0.314 C 
BRANCH  10  19
ATOM     19  C   UNL A   1      36.406  21.181  25.159  1.00  0.00     0.036 C 
ATOM     20  C   UNL A   1      36.791  22.384  24.307  1.00  0.00     0.009 C 
ENDBRANCH  10  19
BRANCH  13  21
ATOM     21  O   UNL A   1      32.948  17.661  24.167  1.00  0.00    -0.406 OA
BRANCH  21  22
ATOM     22  C   UNL A   1      33.345  16.548  24.950  1.00  0.00     0.573 C 
ATOM     23  F   UNL A   1      34.627  16.668  25.357  1.00  0.00    -0.132 F 
ATOM     24  F   UNL A   1      32.546  16.416  26.032  1.00  0.00    -0.132 F 
ATOM     25  F   UNL A   1      33.234  15.426  24.209  1.00  0.00    -0.132 F 
ENDBRANCH  21  22
ENDBRANCH  13  21
BRANCH  18  26
ATOM     26  C   UNL A   1      33.617  25.178  25.644  1.00  0.00     0.429 C 
ATOM     27  F   UNL A   1      34.946  25.397  25.771  1.00  0.00    -0.167 F 
ATOM     28  F   UNL A   1      33.352  25.390  24.324  1.00  0.00    -0.167 F 
ATOM     29  F   UNL A   1      32.959  26.140  26.329  1.00  0.00    -0.167 F 
ENDBRANCH  18  26
ENDBRANCH   6   9
ENDBRANCH   4   5
ENDBRANCH   3   4
ENDBRANCH   2   3
ENDBRANCH   1   2
BRANCH   1  30
ATOM     30  C   UNL A   1      31.413  29.251  25.256  1.00  0.00     0.021 C 
BRANCH  30  31
ATOM     31  C   UNL A   1      32.687  29.847  25.849  1.00  0.00     0.116 C 
BRANCH  31  32
ATOM     32  N   UNL A   1      32.487  31.233  26.249  1.00  0.00    -0.352 N 
ATOM     33  C   UNL A   1      33.150  31.958  27.208  1.00  0.00     0.251 C 
ATOM     34  H   UNL A   1      31.778  31.716  25.766  1.00  0.00     0.163 HD
ATOM     35  O   UNL A   1      32.693  33.024  27.603  1.00  0.00    -0.269 OA
BRANCH  33  36
ATOM     36  C   UNL A   1      34.415  31.434  27.762  1.00  0.00     0.039 A 
ATOM     37  C   UNL A   1      35.482  32.309  27.973  1.00  0.00     0.014 A 
ATOM     38  C   UNL A   1      34.533  30.079  28.086  1.00  0.00     0.014 A 
ATOM     39  C   UNL A   1      36.650  31.834  28.575  1.00  0.00     0.010 A 
ATOM     40  C   UNL A   1      35.668  29.626  28.751  1.00  0.00     0.010 A 
ATOM     41  C   UNL A   1      36.736  30.500  29.004  1.00  0.00    -0.014 A 
BRANCH  41  42
ATOM     42  C   UNL A   1      37.917  30.005  29.756  1.00  0.00     0.031 A 
ATOM     43  C   UNL A   1      38.197  30.504  31.146  1.00  0.00     0.074 A 
ATOM     44  C   UNL A   1      38.790  29.180  29.144  1.00  0.00     0.049 A 
ATOM     45  N   UNL A   1      39.219  30.248  31.921  1.00  0.00    -0.248 NA
ATOM     46  C   UNL A   1      37.217  31.431  31.734  1.00  0.00     0.031 C 
ATOM     47  C   UNL A   1      38.664  28.684  27.771  1.00  0.00     0.029 A 
ATOM     48  N   UNL A   1      39.972  28.638  29.584  1.00  0.00    -0.354 N 
ATOM     49  C   UNL A   1      39.022  31.003  33.071  1.00  0.00     0.074 A 
ATOM     50  C   UNL A   1      37.799  31.752  32.880  1.00  0.00     0.031 C 
ATOM     51  C   UNL A   1      39.724  27.913  27.482  1.00  0.00     0.029 A 
ATOM     52  C   UNL A   1      40.624  27.891  28.630  1.00  0.00     0.049 A 
ATOM     53  H   UNL A   1      40.320  28.771  30.495  1.00  0.00     0.167 HD
ATOM     54  C   UNL A   1      39.778  31.049  34.194  1.00  0.00     0.034 A 
ATOM     55  C   UNL A   1      41.823  27.275  28.667  1.00  0.00     0.034 A 
ATOM     56  C   UNL A   1      40.976  30.279  34.391  1.00  0.00     0.049 A 
ATOM     57  C   UNL A   1      42.638  27.338  29.930  1.00  0.00     0.074 A 
ATOM     58  C   UNL A   1      41.763  30.190  35.525  1.00  0.00     0.029 A 
ATOM     59  N   UNL A   1      41.571  29.481  33.426  1.00  0.00    -0.354 N 
ATOM     60  N   UNL A   1      42.353  27.928  31.066  1.00  0.00    -0.248 NA
ATOM     61  C   UNL A   1      43.925  26.629  29.927  1.00  0.00     0.031 C 
ATOM     62  C   UNL A   1      42.855  29.367  35.235  1.00  0.00     0.029 A 
ATOM     63  C   UNL A   1      42.729  28.913  33.932  1.00  0.00     0.049 A 
ATOM     64  H   UNL A   1      41.224  29.338  32.517  1.00  0.00     0.167 HD
ATOM     65  C   UNL A   1      43.410  27.636  31.921  1.00  0.00     0.074 A 
ATOM     66  C   UNL A   1      44.327  26.795  31.180  1.00  0.00     0.031 C 
ATOM     67  C   UNL A   1      43.610  28.041  33.199  1.00  0.00     0.034 A 
BRANCH  54  68
ATOM     68  C   UNL A   1      39.309  31.932  35.322  1.00  0.00     0.023 A 
ATOM     69  C   UNL A   1      38.448  31.406  36.307  1.00  0.00     0.012 A 
ATOM     70  C   UNL A   1      39.776  33.254  35.448  1.00  0.00     0.148 A 
ATOM     71  C   UNL A   1      38.032  32.192  37.382  1.00  0.00     0.002 A 
ATOM     72  C   UNL A   1      39.395  34.017  36.545  1.00  0.00     0.091 A 
ATOM     73  F   UNL A   1      40.579  33.742  34.492  1.00  0.00    -0.205 F 
ATOM     74  C   UNL A   1      38.515  33.492  37.507  1.00  0.00     0.022 A 
BRANCH  72  75
ATOM     75  S   UNL A   1      40.023  35.673  36.842  1.00  0.00     0.127 S 
ATOM     76  O   UNL A   1      39.362  36.016  38.101  1.00  0.00    -0.237 OA
ATOM     77  O   UNL A   1      41.462  35.440  36.953  1.00  0.00    -0.237 OA
ATOM     78  O   UNL A   1      39.620  36.470  35.692  1.00  0.00    -0.744 OA
ENDBRANCH  72  75
ENDBRANCH  54  68
BRANCH  55  79
ATOM     79  C   UNL A   1      42.308  26.513  27.481  1.00  0.00     0.023 A 
ATOM     80  C   UNL A   1      43.058  27.176  26.491  1.00  0.00     0.012 A 
ATOM     81  C   UNL A   1      42.043  25.138  27.336  1.00  0.00     0.148 A 
ATOM     82  C   UNL A   1      43.504  26.492  25.359  1.00  0.00     0.002 A 
ATOM     83  C   UNL A   1      42.540  24.449  26.236  1.00  0.00     0.091 A 
ATOM     84  F   UNL A   1      41.318  24.527  28.283  1.00  0.00    -0.205 F 
ATOM     85  C   UNL A   1      43.254  25.127  25.236  1.00  0.00     0.022 A 
BRANCH  83  86
ATOM     86  S   UNL A   1      42.381  22.668  26.064  1.00  0.00     0.127 S 
ATOM     87  O   UNL A   1      43.017  22.434  24.771  1.00  0.00    -0.237 OA
ATOM     88  O   UNL A   1      43.136  22.185  27.221  1.00  0.00    -0.237 OA
ATOM     89  O   UNL A   1      40.951  22.393  26.125  1.00  0.00    -0.744 OA
ENDBRANCH  83  86
ENDBRANCH  55  79
BRANCH  67  90
ATOM     90  C   UNL A   1      44.856  27.562  33.899  1.00  0.00     0.023 A 
ATOM     91  C   UNL A   1      46.024  28.349  33.868  1.00  0.00     0.012 A 
ATOM     92  C   UNL A   1      44.841  26.373  34.655  1.00  0.00     0.148 A 
ATOM     93  C   UNL A   1      47.168  27.945  34.555  1.00  0.00     0.002 A 
ATOM     94  C   UNL A   1      45.968  26.004  35.379  1.00  0.00     0.091 A 
ATOM     95  F   UNL A   1      43.724  25.632  34.658  1.00  0.00    -0.205 F 
ATOM     96  C   UNL A   1      47.136  26.782  35.319  1.00  0.00     0.022 A 
BRANCH  94  97
ATOM     97  S   UNL A   1      45.995  24.576  36.468  1.00  0.00     0.127 S 
ATOM     98  O   UNL A   1      45.525  23.515  35.579  1.00  0.00    -0.237 OA
ATOM     99  O   UNL A   1      47.410  24.489  36.829  1.00  0.00    -0.237 OA
ATOM    100  O   UNL A   1      45.104  24.897  37.576  1.00  0.00    -0.744 OA
ENDBRANCH  94  97
ENDBRANCH  67  90
ENDBRANCH  41  42
ENDBRANCH  33  36
ENDBRANCH  31  32
ENDBRANCH  30  31
ENDBRANCH   1  30
TORSDOF 20
ENDMDL
