MODEL 1
REMARK VINA RESULT:     -11.4      0.000      0.000
REMARK SMILES CC(C)[NH2+][C@@H](C(=O)NCCCCCCNC(=O)c1ccc(-c2c3nc(c(-c4cccc(S(=O)(=O)[O-])c4F)c4ccc([nH]4)c(-c4cccc(S(=O)(=O)[O-])c4F)c4nc(c(-c5cccc(S(=O)(=O)[O-])c5F)c5ccc2[nH]5)C=C4)C=C3)cc1)c1c[nH]c2ccc(Br)cc12
REMARK SMILES IDX 12 1 11 2 10 3 9 4 8 5 6 6 7 7 5 9 4 10 2 13 1 14 3 15 81 16
REMARK SMILES IDX 82 17 90 18 83 19 84 20 89 21 85 23 87 24 86 25 88 26 13 27
REMARK SMILES IDX 14 28 15 29 16 30 17 32 18 33 19 34 80 35 20 36 79 37 21 38
REMARK SMILES IDX 22 39 23 40 73 41 24 42 78 43 72 44 74 45 25 46 77 47 71 48
REMARK SMILES IDX 70 49 26 51 58 52 38 53 57 54 39 55 42 56 56 57 75 58 40 59
REMARK SMILES IDX 41 60 55 62 76 63 43 64 27 65 28 66 36 67 29 68 31 69 37 70
REMARK SMILES IDX 30 71 32 72 33 73 34 74 35 75 59 76 60 77 68 78 61 79 63 80
REMARK SMILES IDX 69 81 62 82 64 83 65 84 66 85 67 86 44 87 45 88 53 89 46 90
REMARK SMILES IDX 48 91 54 92 47 93 49 94 50 95 51 96 52 97
REMARK H PARENT 8 8 4 11 4 12 83 22 15 31 74 50 42 61
REMARK Flexibility Score: inf
ROOT
ATOM      1  C   UNL A   1      34.843  22.543  24.342  1.00  0.00     0.002 C 
ENDROOT
BRANCH   1   2
ATOM      2  C   UNL A   1      34.252  22.345  25.734  1.00  0.00     0.002 C 
BRANCH   2   3
ATOM      3  C   UNL A   1      33.333  21.131  25.887  1.00  0.00     0.021 C 
BRANCH   3   4
ATOM      4  C   UNL A   1      31.895  21.273  25.348  1.00  0.00     0.116 C 
BRANCH   4   5
ATOM      5  N   UNL A   1      30.981  21.883  26.304  1.00  0.00    -0.351 N 
ATOM      6  C   UNL A   1      30.605  23.166  26.600  1.00  0.00     0.283 C 
ATOM      7  O   UNL A   1      29.691  23.236  27.435  1.00  0.00    -0.268 OA
ATOM      8  H   UNL A   1      30.530  21.217  26.871  1.00  0.00     0.163 HD
BRANCH   6   9
ATOM      9  C   UNL A   1      31.143  24.427  25.876  1.00  0.00     0.306 C 
BRANCH   9  10
ATOM     10  N   UNL A   1      31.075  25.739  26.560  1.00  0.00    -0.330 N 
ATOM     11  H   UNL A   1      30.122  26.072  26.412  1.00  0.00     0.347 HD
ATOM     12  H   UNL A   1      31.418  25.480  27.485  1.00  0.00     0.347 HD
BRANCH  10  13
ATOM     13  C   UNL A   1      31.926  26.872  26.275  1.00  0.00     0.176 C 
ATOM     14  C   UNL A   1      31.677  27.986  27.299  1.00  0.00     0.075 C 
ATOM     15  C   UNL A   1      33.431  26.654  26.132  1.00  0.00     0.075 C 
ENDBRANCH  10  13
ENDBRANCH   9  10
BRANCH   9  16
ATOM     16  C   UNL A   1      30.632  24.708  24.449  1.00  0.00     0.044 A 
ATOM     17  C   UNL A   1      31.259  24.169  23.310  1.00  0.00     0.094 A 
ATOM     18  C   UNL A   1      30.040  25.886  23.871  1.00  0.00     0.010 A 
ATOM     19  N   UNL A   1      31.962  25.330  22.927  1.00  0.00    -0.361 N 
ATOM     20  C   UNL A   1      31.035  26.357  23.000  1.00  0.00     0.046 A 
ATOM     21  C   UNL A   1      28.874  26.661  24.017  1.00  0.00     0.026 A 
ATOM     22  H   UNL A   1      32.908  25.397  22.666  1.00  0.00     0.166 HD
ATOM     23  C   UNL A   1      31.036  27.633  22.437  1.00  0.00     0.028 A 
ATOM     24  C   UNL A   1      28.771  27.849  23.278  1.00  0.00     0.018 A 
ATOM     25  C   UNL A   1      29.851  28.360  22.555  1.00  0.00     0.018 A 
ATOM     26  Br  UNL A   1      27.114  28.769  23.209  1.00  0.00    -0.051 Br
ENDBRANCH   9  16
ENDBRANCH   6   9
ENDBRANCH   4   5
ENDBRANCH   3   4
ENDBRANCH   2   3
ENDBRANCH   1   2
BRANCH   1  27
ATOM     27  C   UNL A   1      36.110  23.405  24.266  1.00  0.00     0.021 C 
BRANCH  27  28
ATOM     28  C   UNL A   1      36.804  23.689  25.599  1.00  0.00     0.116 C 
BRANCH  28  29
ATOM     29  N   UNL A   1      37.732  22.631  25.968  1.00  0.00    -0.352 N 
ATOM     30  C   UNL A   1      39.010  22.740  26.462  1.00  0.00     0.251 C 
ATOM     31  H   UNL A   1      37.399  21.712  25.848  1.00  0.00     0.163 HD
ATOM     32  O   UNL A   1      39.740  21.753  26.508  1.00  0.00    -0.269 OA
BRANCH  30  33
ATOM     33  C   UNL A   1      39.509  24.051  26.931  1.00  0.00     0.039 A 
ATOM     34  C   UNL A   1      40.101  24.924  26.015  1.00  0.00     0.014 A 
ATOM     35  C   UNL A   1      39.405  24.411  28.279  1.00  0.00     0.014 A 
ATOM     36  C   UNL A   1      40.544  26.179  26.442  1.00  0.00     0.010 A 
ATOM     37  C   UNL A   1      39.795  25.684  28.690  1.00  0.00     0.010 A 
ATOM     38  C   UNL A   1      40.376  26.579  27.778  1.00  0.00    -0.014 A 
BRANCH  38  39
ATOM     39  C   UNL A   1      40.801  27.929  28.236  1.00  0.00     0.031 A 
ATOM     40  C   UNL A   1      42.262  28.292  28.279  1.00  0.00     0.074 A 
ATOM     41  C   UNL A   1      39.877  28.805  28.678  1.00  0.00     0.049 A 
ATOM     42  N   UNL A   1      42.823  29.403  28.680  1.00  0.00    -0.248 NA
ATOM     43  C   UNL A   1      43.218  27.265  27.835  1.00  0.00     0.031 C 
ATOM     44  C   UNL A   1      38.438  28.546  28.764  1.00  0.00     0.029 A 
ATOM     45  N   UNL A   1      40.012  30.082  29.164  1.00  0.00    -0.354 N 
ATOM     46  C   UNL A   1      44.194  29.203  28.560  1.00  0.00     0.074 A 
ATOM     47  C   UNL A   1      44.381  27.847  28.089  1.00  0.00     0.031 C 
ATOM     48  C   UNL A   1      37.825  29.628  29.272  1.00  0.00     0.029 A 
ATOM     49  C   UNL A   1      38.826  30.649  29.568  1.00  0.00     0.049 A 
ATOM     50  H   UNL A   1      40.878  30.549  29.219  1.00  0.00     0.167 HD
ATOM     51  C   UNL A   1      45.205  30.077  28.784  1.00  0.00     0.034 A 
ATOM     52  C   UNL A   1      38.572  31.854  30.117  1.00  0.00     0.034 A 
ATOM     53  C   UNL A   1      45.016  31.435  29.217  1.00  0.00     0.049 A 
ATOM     54  C   UNL A   1      39.709  32.821  30.316  1.00  0.00     0.074 A 
ATOM     55  C   UNL A   1      45.971  32.418  29.411  1.00  0.00     0.029 A 
ATOM     56  N   UNL A   1      43.790  32.005  29.520  1.00  0.00    -0.354 N 
ATOM     57  N   UNL A   1      40.983  32.663  30.049  1.00  0.00    -0.248 NA
ATOM     58  C   UNL A   1      39.369  34.147  30.851  1.00  0.00     0.031 C 
ATOM     59  C   UNL A   1      45.322  33.580  29.843  1.00  0.00     0.029 A 
ATOM     60  C   UNL A   1      43.962  33.326  29.899  1.00  0.00     0.049 A 
ATOM     61  H   UNL A   1      42.924  31.540  29.474  1.00  0.00     0.167 HD
ATOM     62  C   UNL A   1      41.589  33.878  30.349  1.00  0.00     0.074 A 
ATOM     63  C   UNL A   1      40.538  34.769  30.793  1.00  0.00     0.031 C 
ATOM     64  C   UNL A   1      42.899  34.220  30.280  1.00  0.00     0.034 A 
BRANCH  51  65
ATOM     65  C   UNL A   1      46.608  29.609  28.493  1.00  0.00     0.023 A 
ATOM     66  C   UNL A   1      47.139  29.788  27.198  1.00  0.00     0.012 A 
ATOM     67  C   UNL A   1      47.421  29.055  29.501  1.00  0.00     0.148 A 
ATOM     68  C   UNL A   1      48.441  29.392  26.900  1.00  0.00     0.002 A 
ATOM     69  C   UNL A   1      48.735  28.701  29.207  1.00  0.00     0.091 A 
ATOM     70  F   UNL A   1      46.896  28.875  30.721  1.00  0.00    -0.205 F 
ATOM     71  C   UNL A   1      49.241  28.858  27.907  1.00  0.00     0.022 A 
BRANCH  69  72
ATOM     72  S   UNL A   1      49.874  28.075  30.448  1.00  0.00     0.127 S 
ATOM     73  O   UNL A   1      51.168  28.351  29.827  1.00  0.00    -0.237 OA
ATOM     74  O   UNL A   1      49.559  28.912  31.605  1.00  0.00    -0.237 OA
ATOM     75  O   UNL A   1      49.549  26.663  30.613  1.00  0.00    -0.744 OA
ENDBRANCH  69  72
ENDBRANCH  51  65
BRANCH  52  76
ATOM     76  C   UNL A   1      37.172  32.244  30.451  1.00  0.00     0.023 A 
ATOM     77  C   UNL A   1      36.677  32.005  31.748  1.00  0.00     0.012 A 
ATOM     78  C   UNL A   1      36.336  32.860  29.501  1.00  0.00     0.148 A 
ATOM     79  C   UNL A   1      35.363  32.337  32.082  1.00  0.00     0.002 A 
ATOM     80  C   UNL A   1      35.046  33.240  29.855  1.00  0.00     0.091 A 
ATOM     81  F   UNL A   1      36.817  33.065  28.267  1.00  0.00    -0.205 F 
ATOM     82  C   UNL A   1      34.551  32.963  31.139  1.00  0.00     0.022 A 
BRANCH  80  83
ATOM     83  S   UNL A   1      33.986  34.171  28.745  1.00  0.00     0.127 S 
ATOM     84  O   UNL A   1      33.639  33.165  27.746  1.00  0.00    -0.237 OA
ATOM     85  O   UNL A   1      32.889  34.569  29.628  1.00  0.00    -0.237 OA
ATOM     86  O   UNL A   1      34.802  35.284  28.274  1.00  0.00    -0.744 OA
ENDBRANCH  80  83
ENDBRANCH  52  76
BRANCH  64  87
ATOM     87  C   UNL A   1      43.273  35.629  30.660  1.00  0.00     0.023 A 
ATOM     88  C   UNL A   1      43.683  35.913  31.977  1.00  0.00     0.012 A 
ATOM     89  C   UNL A   1      43.281  36.657  29.696  1.00  0.00     0.148 A 
ATOM     90  C   UNL A   1      44.063  37.205  32.338  1.00  0.00     0.002 A 
ATOM     91  C   UNL A   1      43.707  37.930  30.051  1.00  0.00     0.091 A 
ATOM     92  F   UNL A   1      42.868  36.370  28.453  1.00  0.00    -0.205 F 
ATOM     93  C   UNL A   1      44.086  38.210  31.374  1.00  0.00     0.022 A 
BRANCH  91  94
ATOM     94  S   UNL A   1      43.858  39.262  28.854  1.00  0.00     0.127 S 
ATOM     95  O   UNL A   1      44.483  40.313  29.654  1.00  0.00    -0.237 OA
ATOM     96  O   UNL A   1      44.727  38.669  27.837  1.00  0.00    -0.237 OA
ATOM     97  O   UNL A   1      42.503  39.544  28.398  1.00  0.00    -0.744 OA
ENDBRANCH  91  94
ENDBRANCH  64  87
ENDBRANCH  38  39
ENDBRANCH  30  33
ENDBRANCH  28  29
ENDBRANCH  27  28
ENDBRANCH   1  27
TORSDOF 19
ENDMDL
MODEL 2
REMARK VINA RESULT:     -11.3      1.438      2.354
REMARK SMILES CC(C)[NH2+][C@@H](C(=O)NCCCCCCNC(=O)c1ccc(-c2c3nc(c(-c4cccc(S(=O)(=O)[O-])c4F)c4ccc([nH]4)c(-c4cccc(S(=O)(=O)[O-])c4F)c4nc(c(-c5cccc(S(=O)(=O)[O-])c5F)c5ccc2[nH]5)C=C4)C=C3)cc1)c1c[nH]c2ccc(Br)cc12
REMARK SMILES IDX 12 1 11 2 10 3 9 4 8 5 6 6 7 7 5 9 4 10 2 13 1 14 3 15 81 16
REMARK SMILES IDX 82 17 90 18 83 19 84 20 89 21 85 23 87 24 86 25 88 26 13 27
REMARK SMILES IDX 14 28 15 29 16 30 17 32 18 33 19 34 80 35 20 36 79 37 21 38
REMARK SMILES IDX 22 39 23 40 73 41 24 42 78 43 72 44 74 45 25 46 77 47 71 48
REMARK SMILES IDX 70 49 26 51 58 52 38 53 57 54 39 55 42 56 56 57 75 58 40 59
REMARK SMILES IDX 41 60 55 62 76 63 43 64 27 65 28 66 36 67 29 68 31 69 37 70
REMARK SMILES IDX 30 71 32 72 33 73 34 74 35 75 59 76 60 77 68 78 61 79 63 80
REMARK SMILES IDX 69 81 62 82 64 83 65 84 66 85 67 86 44 87 45 88 53 89 46 90
REMARK SMILES IDX 48 91 54 92 47 93 49 94 50 95 51 96 52 97
REMARK H PARENT 8 8 4 11 4 12 83 22 15 31 74 50 42 61
REMARK Flexibility Score: inf
ROOT
ATOM      1  C   UNL A   1      35.329  22.042  24.372  1.00  0.00     0.002 C 
ENDROOT
BRANCH   1   2
ATOM      2  C   UNL A   1      33.851  21.840  24.694  1.00  0.00     0.002 C 
BRANCH   2   3
ATOM      3  C   UNL A   1      32.981  21.397  23.516  1.00  0.00     0.021 C 
BRANCH   3   4
ATOM      4  C   UNL A   1      32.018  22.448  22.927  1.00  0.00     0.116 C 
BRANCH   4   5
ATOM      5  N   UNL A   1      32.702  23.520  22.216  1.00  0.00    -0.351 N 
ATOM      6  C   UNL A   1      32.710  24.887  22.302  1.00  0.00     0.283 C 
ATOM      7  O   UNL A   1      33.543  25.426  21.559  1.00  0.00    -0.268 OA
ATOM      8  H   UNL A   1      33.297  23.183  21.508  1.00  0.00     0.163 HD
BRANCH   6   9
ATOM      9  C   UNL A   1      31.877  25.706  23.321  1.00  0.00     0.306 C 
BRANCH   9  10
ATOM     10  N   UNL A   1      31.579  27.129  23.035  1.00  0.00    -0.330 N 
ATOM     11  H   UNL A   1      32.371  27.652  23.407  1.00  0.00     0.347 HD
ATOM     12  H   UNL A   1      31.389  27.076  22.034  1.00  0.00     0.347 HD
BRANCH  10  13
ATOM     13  C   UNL A   1      30.404  27.840  23.486  1.00  0.00     0.176 C 
ATOM     14  C   UNL A   1      30.248  29.147  22.699  1.00  0.00     0.075 C 
ATOM     15  C   UNL A   1      29.060  27.114  23.517  1.00  0.00     0.075 C 
ENDBRANCH  10  13
ENDBRANCH   9  10
BRANCH   9  16
ATOM     16  C   UNL A   1      32.334  25.697  24.794  1.00  0.00     0.044 A 
ATOM     17  C   UNL A   1      31.800  24.798  25.737  1.00  0.00     0.094 A 
ATOM     18  C   UNL A   1      32.728  26.770  25.670  1.00  0.00     0.010 A 
ATOM     19  N   UNL A   1      30.919  25.703  26.365  1.00  0.00    -0.361 N 
ATOM     20  C   UNL A   1      31.668  26.847  26.588  1.00  0.00     0.046 A 
ATOM     21  C   UNL A   1      33.754  27.728  25.769  1.00  0.00     0.026 A 
ATOM     22  H   UNL A   1      29.974  25.553  26.594  1.00  0.00     0.166 HD
ATOM     23  C   UNL A   1      31.461  27.924  27.448  1.00  0.00     0.028 A 
ATOM     24  C   UNL A   1      33.663  28.694  26.782  1.00  0.00     0.018 A 
ATOM     25  C   UNL A   1      32.513  28.832  27.563  1.00  0.00     0.018 A 
ATOM     26  Br  UNL A   1      35.150  29.813  27.146  1.00  0.00    -0.051 Br
ENDBRANCH   9  16
ENDBRANCH   6   9
ENDBRANCH   4   5
ENDBRANCH   3   4
ENDBRANCH   2   3
ENDBRANCH   1   2
BRANCH   1  27
ATOM     27  C   UNL A   1      35.879  23.454  24.607  1.00  0.00     0.021 C 
BRANCH  27  28
ATOM     28  C   UNL A   1      36.667  23.657  25.901  1.00  0.00     0.116 C 
BRANCH  28  29
ATOM     29  N   UNL A   1      37.663  22.616  26.104  1.00  0.00    -0.352 N 
ATOM     30  C   UNL A   1      38.986  22.746  26.453  1.00  0.00     0.251 C 
ATOM     31  H   UNL A   1      37.345  21.693  25.974  1.00  0.00     0.163 HD
ATOM     32  O   UNL A   1      39.745  21.785  26.362  1.00  0.00    -0.269 OA
BRANCH  30  33
ATOM     33  C   UNL A   1      39.496  24.050  26.933  1.00  0.00     0.039 A 
ATOM     34  C   UNL A   1      40.022  24.957  26.010  1.00  0.00     0.014 A 
ATOM     35  C   UNL A   1      39.469  24.367  28.294  1.00  0.00     0.014 A 
ATOM     36  C   UNL A   1      40.476  26.205  26.448  1.00  0.00     0.010 A 
ATOM     37  C   UNL A   1      39.867  25.633  28.720  1.00  0.00     0.010 A 
ATOM     38  C   UNL A   1      40.383  26.562  27.804  1.00  0.00    -0.014 A 
BRANCH  38  39
ATOM     39  C   UNL A   1      40.819  27.904  28.276  1.00  0.00     0.031 A 
ATOM     40  C   UNL A   1      42.282  28.257  28.317  1.00  0.00     0.074 A 
ATOM     41  C   UNL A   1      39.903  28.780  28.734  1.00  0.00     0.049 A 
ATOM     42  N   UNL A   1      42.853  29.359  28.730  1.00  0.00    -0.248 NA
ATOM     43  C   UNL A   1      43.230  27.229  27.855  1.00  0.00     0.031 C 
ATOM     44  C   UNL A   1      38.463  28.529  28.825  1.00  0.00     0.029 A 
ATOM     45  N   UNL A   1      40.048  30.050  29.236  1.00  0.00    -0.354 N 
ATOM     46  C   UNL A   1      44.222  29.152  28.600  1.00  0.00     0.074 A 
ATOM     47  C   UNL A   1      44.398  27.801  28.111  1.00  0.00     0.031 C 
ATOM     48  C   UNL A   1      37.859  29.608  29.350  1.00  0.00     0.029 A 
ATOM     49  C   UNL A   1      38.868  30.618  29.653  1.00  0.00     0.049 A 
ATOM     50  H   UNL A   1      40.918  30.510  29.293  1.00  0.00     0.167 HD
ATOM     51  C   UNL A   1      45.239  30.016  28.830  1.00  0.00     0.034 A 
ATOM     52  C   UNL A   1      38.624  31.818  30.219  1.00  0.00     0.034 A 
ATOM     53  C   UNL A   1      45.061  31.370  29.282  1.00  0.00     0.049 A 
ATOM     54  C   UNL A   1      39.768  32.775  30.425  1.00  0.00     0.074 A 
ATOM     55  C   UNL A   1      46.024  32.344  29.484  1.00  0.00     0.029 A 
ATOM     56  N   UNL A   1      43.840  31.944  29.599  1.00  0.00    -0.354 N 
ATOM     57  N   UNL A   1      41.040  32.612  30.150  1.00  0.00    -0.248 NA
ATOM     58  C   UNL A   1      39.439  34.096  30.979  1.00  0.00     0.031 C 
ATOM     59  C   UNL A   1      45.384  33.504  29.934  1.00  0.00     0.029 A 
ATOM     60  C   UNL A   1      44.022  33.258  29.993  1.00  0.00     0.049 A 
ATOM     61  H   UNL A   1      42.971  31.485  29.550  1.00  0.00     0.167 HD
ATOM     62  C   UNL A   1      41.655  33.819  30.462  1.00  0.00     0.074 A 
ATOM     63  C   UNL A   1      40.612  34.712  30.924  1.00  0.00     0.031 C 
ATOM     64  C   UNL A   1      42.967  34.154  30.392  1.00  0.00     0.034 A 
BRANCH  51  65
ATOM     65  C   UNL A   1      46.638  29.544  28.527  1.00  0.00     0.023 A 
ATOM     66  C   UNL A   1      47.196  29.816  27.260  1.00  0.00     0.012 A 
ATOM     67  C   UNL A   1      47.421  28.892  29.500  1.00  0.00     0.148 A 
ATOM     68  C   UNL A   1      48.496  29.417  26.953  1.00  0.00     0.002 A 
ATOM     69  C   UNL A   1      48.732  28.535  29.201  1.00  0.00     0.091 A 
ATOM     70  F   UNL A   1      46.869  28.625  30.692  1.00  0.00    -0.205 F 
ATOM     71  C   UNL A   1      49.266  28.785  27.926  1.00  0.00     0.022 A 
BRANCH  69  72
ATOM     72  S   UNL A   1      49.834  27.785  30.406  1.00  0.00     0.127 S 
ATOM     73  O   UNL A   1      49.050  26.634  30.848  1.00  0.00    -0.237 OA
ATOM     74  O   UNL A   1      51.001  27.452  29.589  1.00  0.00    -0.237 OA
ATOM     75  O   UNL A   1      50.074  28.805  31.419  1.00  0.00    -0.744 OA
ENDBRANCH  69  72
ENDBRANCH  51  65
BRANCH  52  76
ATOM     76  C   UNL A   1      37.228  32.212  30.566  1.00  0.00     0.023 A 
ATOM     77  C   UNL A   1      36.758  32.015  31.879  1.00  0.00     0.012 A 
ATOM     78  C   UNL A   1      36.372  32.791  29.610  1.00  0.00     0.148 A 
ATOM     79  C   UNL A   1      35.448  32.351  32.224  1.00  0.00     0.002 A 
ATOM     80  C   UNL A   1      35.087  33.178  29.975  1.00  0.00     0.091 A 
ATOM     81  F   UNL A   1      36.830  32.957  28.362  1.00  0.00    -0.205 F 
ATOM     82  C   UNL A   1      34.616  32.941  31.276  1.00  0.00     0.022 A 
BRANCH  80  83
ATOM     83  S   UNL A   1      34.002  34.066  28.853  1.00  0.00     0.127 S 
ATOM     84  O   UNL A   1      32.951  34.529  29.754  1.00  0.00    -0.237 OA
ATOM     85  O   UNL A   1      34.883  35.116  28.340  1.00  0.00    -0.237 OA
ATOM     86  O   UNL A   1      33.599  33.087  27.850  1.00  0.00    -0.744 OA
ENDBRANCH  80  83
ENDBRANCH  52  76
BRANCH  64  87
ATOM     87  C   UNL A   1      43.352  35.556  30.788  1.00  0.00     0.023 A 
ATOM     88  C   UNL A   1      43.718  35.831  32.120  1.00  0.00     0.012 A 
ATOM     89  C   UNL A   1      43.414  36.584  29.827  1.00  0.00     0.148 A 
ATOM     90  C   UNL A   1      44.107  37.115  32.497  1.00  0.00     0.002 A 
ATOM     91  C   UNL A   1      43.849  37.850  30.200  1.00  0.00     0.091 A 
ATOM     92  F   UNL A   1      43.042  36.307  28.568  1.00  0.00    -0.205 F 
ATOM     93  C   UNL A   1      44.184  38.121  31.536  1.00  0.00     0.022 A 
BRANCH  91  94
ATOM     94  S   UNL A   1      44.067  39.180  29.011  1.00  0.00     0.127 S 
ATOM     95  O   UNL A   1      44.099  40.355  29.881  1.00  0.00    -0.237 OA
ATOM     96  O   UNL A   1      45.351  38.841  28.396  1.00  0.00    -0.237 OA
ATOM     97  O   UNL A   1      42.927  39.100  28.109  1.00  0.00    -0.744 OA
ENDBRANCH  91  94
ENDBRANCH  64  87
ENDBRANCH  38  39
ENDBRANCH  30  33
ENDBRANCH  28  29
ENDBRANCH  27  28
ENDBRANCH   1  27
TORSDOF 19
ENDMDL
MODEL 3
REMARK VINA RESULT:     -11.3      4.601      9.505
REMARK SMILES CC(C)[NH2+][C@@H](C(=O)NCCCCCCNC(=O)c1ccc(-c2c3nc(c(-c4cccc(S(=O)(=O)[O-])c4F)c4ccc([nH]4)c(-c4cccc(S(=O)(=O)[O-])c4F)c4nc(c(-c5cccc(S(=O)(=O)[O-])c5F)c5ccc2[nH]5)C=C4)C=C3)cc1)c1c[nH]c2ccc(Br)cc12
REMARK SMILES IDX 12 1 11 2 10 3 9 4 8 5 6 6 7 7 5 9 4 10 2 13 1 14 3 15 81 16
REMARK SMILES IDX 82 17 90 18 83 19 84 20 89 21 85 23 87 24 86 25 88 26 13 27
REMARK SMILES IDX 14 28 15 29 16 30 17 32 18 33 19 34 80 35 20 36 79 37 21 38
REMARK SMILES IDX 22 39 23 40 73 41 24 42 78 43 72 44 74 45 25 46 77 47 71 48
REMARK SMILES IDX 70 49 26 51 58 52 38 53 57 54 39 55 42 56 56 57 75 58 40 59
REMARK SMILES IDX 41 60 55 62 76 63 43 64 27 65 28 66 36 67 29 68 31 69 37 70
REMARK SMILES IDX 30 71 32 72 33 73 34 74 35 75 59 76 60 77 68 78 61 79 63 80
REMARK SMILES IDX 69 81 62 82 64 83 65 84 66 85 67 86 44 87 45 88 53 89 46 90
REMARK SMILES IDX 48 91 54 92 47 93 49 94 50 95 51 96 52 97
REMARK H PARENT 8 8 4 11 4 12 83 22 15 31 74 50 42 61
REMARK Flexibility Score: inf
ROOT
ATOM      1  C   UNL A   1      32.361  28.141  27.374  1.00  0.00     0.002 C 
ENDROOT
BRANCH   1   2
ATOM      2  C   UNL A   1      31.067  27.403  27.049  1.00  0.00     0.002 C 
BRANCH   2   3
ATOM      3  C   UNL A   1      30.901  26.992  25.584  1.00  0.00     0.021 C 
BRANCH   3   4
ATOM      4  C   UNL A   1      30.070  25.723  25.306  1.00  0.00     0.116 C 
BRANCH   4   5
ATOM      5  N   UNL A   1      30.224  24.700  26.332  1.00  0.00    -0.351 N 
ATOM      6  C   UNL A   1      30.948  23.543  26.444  1.00  0.00     0.283 C 
ATOM      7  O   UNL A   1      30.870  23.014  27.562  1.00  0.00    -0.268 OA
ATOM      8  H   UNL A   1      29.678  24.882  27.131  1.00  0.00     0.163 HD
BRANCH   6   9
ATOM      9  C   UNL A   1      31.900  22.995  25.349  1.00  0.00     0.306 C 
BRANCH   9  10
ATOM     10  N   UNL A   1      32.583  21.698  25.566  1.00  0.00    -0.330 N 
ATOM     11  H   UNL A   1      33.391  21.914  26.150  1.00  0.00     0.347 HD
ATOM     12  H   UNL A   1      31.804  21.138  25.909  1.00  0.00     0.347 HD
BRANCH  10  13
ATOM     13  C   UNL A   1      33.083  20.835  24.520  1.00  0.00     0.176 C 
ATOM     14  C   UNL A   1      34.415  20.208  24.949  1.00  0.00     0.075 C 
ATOM     15  C   UNL A   1      32.175  19.742  23.960  1.00  0.00     0.075 C 
ENDBRANCH  10  13
ENDBRANCH   9  10
BRANCH   9  16
ATOM     16  C   UNL A   1      33.007  23.931  24.826  1.00  0.00     0.044 A 
ATOM     17  C   UNL A   1      32.856  24.681  23.644  1.00  0.00     0.094 A 
ATOM     18  C   UNL A   1      34.441  23.815  24.863  1.00  0.00     0.010 A 
ATOM     19  N   UNL A   1      33.628  23.849  22.806  1.00  0.00    -0.361 N 
ATOM     20  C   UNL A   1      34.785  23.585  23.521  1.00  0.00     0.046 A 
ATOM     21  C   UNL A   1      35.472  23.778  25.821  1.00  0.00     0.026 A 
ATOM     22  H   UNL A   1      33.394  23.525  21.907  1.00  0.00     0.166 HD
ATOM     23  C   UNL A   1      36.032  23.120  23.106  1.00  0.00     0.028 A 
ATOM     24  C   UNL A   1      36.779  23.525  25.378  1.00  0.00     0.018 A 
ATOM     25  C   UNL A   1      37.046  23.139  24.063  1.00  0.00     0.018 A 
ATOM     26  Br  UNL A   1      38.234  23.758  26.572  1.00  0.00    -0.051 Br
ENDBRANCH   9  16
ENDBRANCH   6   9
ENDBRANCH   4   5
ENDBRANCH   3   4
ENDBRANCH   2   3
ENDBRANCH   1   2
BRANCH   1  27
ATOM     27  C   UNL A   1      33.558  27.832  26.465  1.00  0.00     0.021 C 
BRANCH  27  28
ATOM     28  C   UNL A   1      34.318  29.045  25.927  1.00  0.00     0.116 C 
BRANCH  28  29
ATOM     29  N   UNL A   1      34.012  30.257  26.672  1.00  0.00    -0.352 N 
ATOM     30  C   UNL A   1      34.647  30.773  27.775  1.00  0.00     0.251 C 
ATOM     31  H   UNL A   1      33.245  30.778  26.338  1.00  0.00     0.163 HD
ATOM     32  O   UNL A   1      34.126  31.680  28.418  1.00  0.00    -0.269 OA
BRANCH  30  33
ATOM     33  C   UNL A   1      35.957  30.227  28.194  1.00  0.00     0.039 A 
ATOM     34  C   UNL A   1      37.075  30.438  27.383  1.00  0.00     0.014 A 
ATOM     35  C   UNL A   1      36.076  29.493  29.378  1.00  0.00     0.014 A 
ATOM     36  C   UNL A   1      38.323  29.955  27.786  1.00  0.00     0.010 A 
ATOM     37  C   UNL A   1      37.331  29.064  29.806  1.00  0.00     0.010 A 
ATOM     38  C   UNL A   1      38.467  29.283  29.011  1.00  0.00    -0.014 A 
BRANCH  38  39
ATOM     39  C   UNL A   1      39.797  28.805  29.473  1.00  0.00     0.031 A 
ATOM     40  C   UNL A   1      40.527  29.536  30.569  1.00  0.00     0.074 A 
ATOM     41  C   UNL A   1      40.380  27.756  28.861  1.00  0.00     0.049 A 
ATOM     42  N   UNL A   1      41.707  29.290  31.079  1.00  0.00    -0.248 NA
ATOM     43  C   UNL A   1      39.856  30.708  31.154  1.00  0.00     0.031 C 
ATOM     44  C   UNL A   1      39.814  27.014  27.733  1.00  0.00     0.029 A 
ATOM     45  N   UNL A   1      41.591  27.147  29.082  1.00  0.00    -0.354 N 
ATOM     46  C   UNL A   1      41.929  30.286  32.025  1.00  0.00     0.074 A 
ATOM     47  C   UNL A   1      40.780  31.165  31.986  1.00  0.00     0.031 C 
ATOM     48  C   UNL A   1      40.675  26.052  27.361  1.00  0.00     0.029 A 
ATOM     49  C   UNL A   1      41.862  26.121  28.207  1.00  0.00     0.049 A 
ATOM     50  H   UNL A   1      42.208  27.421  29.799  1.00  0.00     0.167 HD
ATOM     51  C   UNL A   1      42.974  30.437  32.873  1.00  0.00     0.034 A 
ATOM     52  C   UNL A   1      42.946  25.326  28.098  1.00  0.00     0.034 A 
ATOM     53  C   UNL A   1      44.099  29.542  32.935  1.00  0.00     0.049 A 
ATOM     54  C   UNL A   1      44.074  25.488  29.080  1.00  0.00     0.074 A 
ATOM     55  C   UNL A   1      45.176  29.573  33.803  1.00  0.00     0.029 A 
ATOM     56  N   UNL A   1      44.290  28.454  32.099  1.00  0.00    -0.354 N 
ATOM     57  N   UNL A   1      44.192  26.343  30.068  1.00  0.00    -0.248 NA
ATOM     58  C   UNL A   1      45.200  24.550  28.962  1.00  0.00     0.031 C 
ATOM     59  C   UNL A   1      46.026  28.508  33.483  1.00  0.00     0.029 A 
ATOM     60  C   UNL A   1      45.467  27.804  32.429  1.00  0.00     0.049 A 
ATOM     61  H   UNL A   1      43.679  28.183  31.377  1.00  0.00     0.167 HD
ATOM     62  C   UNL A   1      45.383  26.023  30.709  1.00  0.00     0.074 A 
ATOM     63  C   UNL A   1      45.938  24.880  30.013  1.00  0.00     0.031 C 
ATOM     64  C   UNL A   1      45.975  26.630  31.767  1.00  0.00     0.034 A 
BRANCH  51  65
ATOM     65  C   UNL A   1      42.914  31.577  33.858  1.00  0.00     0.023 A 
ATOM     66  C   UNL A   1      43.415  32.840  33.478  1.00  0.00     0.012 A 
ATOM     67  C   UNL A   1      42.315  31.424  35.123  1.00  0.00     0.148 A 
ATOM     68  C   UNL A   1      43.353  33.923  34.352  1.00  0.00     0.002 A 
ATOM     69  C   UNL A   1      42.218  32.521  35.974  1.00  0.00     0.091 A 
ATOM     70  F   UNL A   1      41.862  30.213  35.475  1.00  0.00    -0.205 F 
ATOM     71  C   UNL A   1      42.746  33.766  35.596  1.00  0.00     0.022 A 
BRANCH  69  72
ATOM     72  S   UNL A   1      41.389  32.445  37.567  1.00  0.00     0.127 S 
ATOM     73  O   UNL A   1      42.197  31.453  38.274  1.00  0.00    -0.237 OA
ATOM     74  O   UNL A   1      41.538  33.815  38.056  1.00  0.00    -0.237 OA
ATOM     75  O   UNL A   1      40.016  32.046  37.285  1.00  0.00    -0.744 OA
ENDBRANCH  69  72
ENDBRANCH  51  65
BRANCH  52  76
ATOM     76  C   UNL A   1      42.986  24.255  27.060  1.00  0.00     0.023 A 
ATOM     77  C   UNL A   1      43.734  24.457  25.884  1.00  0.00     0.012 A 
ATOM     78  C   UNL A   1      42.302  23.038  27.237  1.00  0.00     0.148 A 
ATOM     79  C   UNL A   1      43.769  23.482  24.885  1.00  0.00     0.002 A 
ATOM     80  C   UNL A   1      42.386  22.047  26.265  1.00  0.00     0.091 A 
ATOM     81  F   UNL A   1      41.581  22.868  28.354  1.00  0.00    -0.205 F 
ATOM     82  C   UNL A   1      43.104  22.274  25.080  1.00  0.00     0.022 A 
BRANCH  80  83
ATOM     83  S   UNL A   1      41.673  20.416  26.498  1.00  0.00     0.127 S 
ATOM     84  O   UNL A   1      40.243  20.711  26.509  1.00  0.00    -0.237 OA
ATOM     85  O   UNL A   1      42.148  19.700  25.313  1.00  0.00    -0.237 OA
ATOM     86  O   UNL A   1      42.233  19.925  27.752  1.00  0.00    -0.744 OA
ENDBRANCH  80  83
ENDBRANCH  52  76
BRANCH  64  87
ATOM     87  C   UNL A   1      47.275  26.054  32.265  1.00  0.00     0.023 A 
ATOM     88  C   UNL A   1      48.495  26.517  31.735  1.00  0.00     0.012 A 
ATOM     89  C   UNL A   1      47.289  25.102  33.304  1.00  0.00     0.148 A 
ATOM     90  C   UNL A   1      49.708  26.017  32.207  1.00  0.00     0.002 A 
ATOM     91  C   UNL A   1      48.502  24.645  33.802  1.00  0.00     0.091 A 
ATOM     92  F   UNL A   1      46.117  24.659  33.782  1.00  0.00    -0.205 F 
ATOM     93  C   UNL A   1      49.712  25.091  33.247  1.00  0.00     0.022 A 
BRANCH  91  94
ATOM     94  S   UNL A   1      48.605  23.522  35.202  1.00  0.00     0.127 S 
ATOM     95  O   UNL A   1      50.046  23.299  35.300  1.00  0.00    -0.237 OA
ATOM     96  O   UNL A   1      48.037  24.324  36.286  1.00  0.00    -0.237 OA
ATOM     97  O   UNL A   1      47.813  22.356  34.837  1.00  0.00    -0.744 OA
ENDBRANCH  91  94
ENDBRANCH  64  87
ENDBRANCH  38  39
ENDBRANCH  30  33
ENDBRANCH  28  29
ENDBRANCH  27  28
ENDBRANCH   1  27
TORSDOF 19
ENDMDL
