MODEL 1
REMARK VINA RESULT:     -10.5      0.000      0.000
REMARK SMILES O=C(CCC(=O)Nc1ccccc1C(=O)N1CCN(c2ccc(Cl)cc2)CC1)NCCCCCCNC(=O)c1ccc(-c2c3nc(c(-c4cccc(S(=O)(=O)[O-])c4F)c4ccc([nH]4)c(-c4cccc(S(=O)(=O)[O-])c4F)c4nc(c(-c5cccc(S(=O)(=O)[O-])c5F)c5ccc2[nH]5)C=C4)C=C3)cc1
REMARK SMILES IDX 31 1 30 2 29 3 1 4 2 5 3 7 4 8 5 9 6 10 7 11 8 13 9 14 13 15
REMARK SMILES IDX 10 16 12 17 11 18 14 19 15 20 16 21 17 22 28 23 18 24 27 25
REMARK SMILES IDX 19 26 20 27 21 28 26 29 22 30 25 31 23 32 24 33 32 34 33 35
REMARK SMILES IDX 34 36 35 37 36 38 37 39 38 41 39 42 40 43 101 44 41 45
REMARK SMILES IDX 100 46 42 47 43 48 44 49 94 50 45 51 99 52 93 53 95 54 46 55
REMARK SMILES IDX 98 56 92 57 91 58 47 60 79 61 59 62 78 63 60 64 63 65 77 66
REMARK SMILES IDX 96 67 61 68 62 69 76 71 97 72 64 73 48 74 49 75 57 76 50 77
REMARK SMILES IDX 52 78 58 79 51 80 53 81 54 82 55 83 56 84 80 85 81 86 89 87
REMARK SMILES IDX 82 88 84 89 90 90 83 91 85 92 86 93 87 94 88 95 65 96 66 97
REMARK SMILES IDX 74 98 67 99 69 100 75 101 68 102 70 103 71 104 72 105 73 106
REMARK H PARENT 29 6 7 12 36 40 95 59 63 70
REMARK Flexibility Score: inf
ROOT
ATOM      1  C   UNL A   1      43.272  24.234  30.032  1.00  0.00     0.021 C 
ENDROOT
BRANCH   1   2
ATOM      2  C   UNL A   1      44.192  23.481  31.084  1.00  0.00     0.116 C 
BRANCH   2   3
ATOM      3  N   UNL A   1      44.210  23.376  32.697  1.00  0.00    -0.356 N 
ATOM      4  O   UNL A   1      44.133  25.380  34.137  1.00  0.00    -0.275 OA
ATOM      5  C   UNL A   1      43.976  24.185  33.877  1.00  0.00     0.220 C 
ATOM      6  H   UNL A   1      44.461  22.462  32.967  1.00  0.00     0.163 HD
BRANCH   5   7
ATOM      7  C   UNL A   1      43.308  23.533  35.037  1.00  0.00     0.110 C 
BRANCH   7   8
ATOM      8  C   UNL A   1      41.950  24.132  35.156  1.00  0.00     0.110 C 
BRANCH   8   9
ATOM      9  C   UNL A   1      41.724  24.851  36.456  1.00  0.00     0.224 C 
ATOM     10  O   UNL A   1      40.589  25.308  36.663  1.00  0.00    -0.275 OA
ATOM     11  N   UNL A   1      42.650  25.018  37.443  1.00  0.00    -0.325 N 
ATOM     12  H   UNL A   1      42.152  25.006  38.292  1.00  0.00     0.169 HD
BRANCH  11  13
ATOM     13  C   UNL A   1      44.079  25.208  37.802  1.00  0.00     0.054 A 
ATOM     14  C   UNL A   1      44.244  26.593  37.473  1.00  0.00     0.027 A 
ATOM     15  C   UNL A   1      45.330  24.364  38.152  1.00  0.00     0.063 A 
ATOM     16  C   UNL A   1      45.448  27.254  37.507  1.00  0.00     0.002 A 
ATOM     17  C   UNL A   1      46.493  25.184  38.259  1.00  0.00     0.016 A 
ATOM     18  C   UNL A   1      46.556  26.561  37.939  1.00  0.00     0.001 A 
BRANCH  15  19
ATOM     19  C   UNL A   1      45.930  22.665  38.423  1.00  0.00     0.256 C 
ATOM     20  O   UNL A   1      45.481  22.082  39.428  1.00  0.00    -0.269 OA
ATOM     21  N   UNL A   1      47.000  21.855  37.714  1.00  0.00    -0.335 N 
ATOM     22  C   UNL A   1      46.686  20.789  36.718  1.00  0.00     0.141 C 
ATOM     23  C   UNL A   1      48.324  21.453  38.288  1.00  0.00     0.141 C 
ATOM     24  C   UNL A   1      47.762  20.713  35.565  1.00  0.00     0.138 C 
ATOM     25  C   UNL A   1      49.468  21.573  37.223  1.00  0.00     0.138 C 
ATOM     26  N   UNL A   1      49.174  20.799  35.998  1.00  0.00    -0.368 N 
BRANCH  26  27
ATOM     27  C   UNL A   1      50.186  20.717  35.031  1.00  0.00     0.037 A 
ATOM     28  C   UNL A   1      51.045  19.612  34.868  1.00  0.00     0.027 A 
ATOM     29  C   UNL A   1      50.410  21.817  34.189  1.00  0.00     0.027 A 
ATOM     30  C   UNL A   1      52.121  19.639  33.960  1.00  0.00     0.022 A 
ATOM     31  C   UNL A   1      51.491  21.861  33.296  1.00  0.00     0.022 A 
ATOM     32  C   UNL A   1      52.356  20.778  33.198  1.00  0.00     0.041 A 
ATOM     33  Cl  UNL A   1      53.722  20.860  32.154  1.00  0.00    -0.084 Cl
ENDBRANCH  26  27
ENDBRANCH  15  19
ENDBRANCH  11  13
ENDBRANCH   8   9
ENDBRANCH   7   8
ENDBRANCH   5   7
ENDBRANCH   2   3
ENDBRANCH   1   2
BRANCH   1  34
ATOM     34  C   UNL A   1      43.599  23.861  28.572  1.00  0.00     0.002 C 
BRANCH  34  35
ATOM     35  C   UNL A   1      43.387  22.375  28.292  1.00  0.00     0.002 C 
BRANCH  35  36
ATOM     36  C   UNL A   1      42.363  22.085  27.194  1.00  0.00     0.021 C 
BRANCH  36  37
ATOM     37  C   UNL A   1      41.046  21.490  27.690  1.00  0.00     0.116 C 
BRANCH  37  38
ATOM     38  N   UNL A   1      39.990  21.609  26.693  1.00  0.00    -0.352 N 
ATOM     39  C   UNL A   1      39.167  22.670  26.404  1.00  0.00     0.251 C 
ATOM     40  H   UNL A   1      39.845  20.807  26.142  1.00  0.00     0.163 HD
ATOM     41  O   UNL A   1      38.141  22.493  25.770  1.00  0.00    -0.269 OA
BRANCH  39  42
ATOM     42  C   UNL A   1      39.551  24.025  26.851  1.00  0.00     0.039 A 
ATOM     43  C   UNL A   1      39.232  24.430  28.148  1.00  0.00     0.014 A 
ATOM     44  C   UNL A   1      40.189  24.901  25.970  1.00  0.00     0.014 A 
ATOM     45  C   UNL A   1      39.595  25.708  28.574  1.00  0.00     0.010 A 
ATOM     46  C   UNL A   1      40.628  26.138  26.424  1.00  0.00     0.010 A 
ATOM     47  C   UNL A   1      40.318  26.562  27.724  1.00  0.00    -0.014 A 
BRANCH  47  48
ATOM     48  C   UNL A   1      40.762  27.900  28.178  1.00  0.00     0.031 A 
ATOM     49  C   UNL A   1      42.226  28.243  28.206  1.00  0.00     0.074 A 
ATOM     50  C   UNL A   1      39.848  28.775  28.640  1.00  0.00     0.049 A 
ATOM     51  N   UNL A   1      42.804  29.344  28.607  1.00  0.00    -0.248 NA
ATOM     52  C   UNL A   1      43.167  27.206  27.751  1.00  0.00     0.031 C 
ATOM     53  C   UNL A   1      38.408  28.520  28.738  1.00  0.00     0.029 A 
ATOM     54  N   UNL A   1      39.995  30.043  29.138  1.00  0.00    -0.354 N 
ATOM     55  C   UNL A   1      44.170  29.120  28.491  1.00  0.00     0.074 A 
ATOM     56  C   UNL A   1      44.338  27.767  28.012  1.00  0.00     0.031 C 
ATOM     57  C   UNL A   1      37.805  29.601  29.252  1.00  0.00     0.029 A 
ATOM     58  C   UNL A   1      38.815  30.610  29.557  1.00  0.00     0.049 A 
ATOM     59  H   UNL A   1      40.863  30.506  29.189  1.00  0.00     0.167 HD
ATOM     60  C   UNL A   1      45.192  29.974  28.737  1.00  0.00     0.034 A 
ATOM     61  C   UNL A   1      38.573  31.802  30.136  1.00  0.00     0.034 A 
ATOM     62  C   UNL A   1      45.013  31.330  29.182  1.00  0.00     0.049 A 
ATOM     63  C   UNL A   1      39.723  32.745  30.363  1.00  0.00     0.074 A 
ATOM     64  C   UNL A   1      45.975  32.305  29.369  1.00  0.00     0.029 A 
ATOM     65  N   UNL A   1      43.795  31.895  29.526  1.00  0.00    -0.354 N 
ATOM     66  N   UNL A   1      40.994  32.572  30.098  1.00  0.00    -0.248 NA
ATOM     67  C   UNL A   1      39.400  34.059  30.935  1.00  0.00     0.031 C 
ATOM     68  C   UNL A   1      45.344  33.448  29.871  1.00  0.00     0.029 A 
ATOM     69  C   UNL A   1      43.982  33.202  29.944  1.00  0.00     0.049 A 
ATOM     70  H   UNL A   1      42.926  31.437  29.480  1.00  0.00     0.167 HD
ATOM     71  C   UNL A   1      41.619  33.768  30.436  1.00  0.00     0.074 A 
ATOM     72  C   UNL A   1      40.580  34.661  30.905  1.00  0.00     0.031 C 
ATOM     73  C   UNL A   1      42.934  34.093  30.371  1.00  0.00     0.034 A 
BRANCH  60  74
ATOM     74  C   UNL A   1      46.596  29.480  28.503  1.00  0.00     0.023 A 
ATOM     75  C   UNL A   1      47.177  29.589  27.223  1.00  0.00     0.012 A 
ATOM     76  C   UNL A   1      47.361  28.964  29.567  1.00  0.00     0.148 A 
ATOM     77  C   UNL A   1      48.485  29.163  26.997  1.00  0.00     0.002 A 
ATOM     78  C   UNL A   1      48.680  28.589  29.346  1.00  0.00     0.091 A 
ATOM     79  F   UNL A   1      46.785  28.847  30.772  1.00  0.00    -0.205 F 
ATOM     80  C   UNL A   1      49.239  28.674  28.060  1.00  0.00     0.022 A 
BRANCH  78  81
ATOM     81  S   UNL A   1      49.763  28.028  30.665  1.00  0.00     0.127 S 
ATOM     82  O   UNL A   1      50.394  29.279  31.081  1.00  0.00    -0.237 OA
ATOM     83  O   UNL A   1      48.810  27.475  31.627  1.00  0.00    -0.237 OA
ATOM     84  O   UNL A   1      50.659  27.049  30.062  1.00  0.00    -0.744 OA
ENDBRANCH  78  81
ENDBRANCH  60  74
BRANCH  61  85
ATOM     85  C   UNL A   1      37.180  32.185  30.493  1.00  0.00     0.023 A 
ATOM     86  C   UNL A   1      36.720  31.991  31.810  1.00  0.00     0.012 A 
ATOM     87  C   UNL A   1      36.319  32.769  29.543  1.00  0.00     0.148 A 
ATOM     88  C   UNL A   1      35.417  32.340  32.166  1.00  0.00     0.002 A 
ATOM     89  C   UNL A   1      35.044  33.169  29.919  1.00  0.00     0.091 A 
ATOM     90  F   UNL A   1      36.776  32.940  28.295  1.00  0.00    -0.205 F 
ATOM     91  C   UNL A   1      34.583  32.938  31.225  1.00  0.00     0.022 A 
BRANCH  89  92
ATOM     92  S   UNL A   1      33.950  34.067  28.813  1.00  0.00     0.127 S 
ATOM     93  O   UNL A   1      32.923  34.549  29.733  1.00  0.00    -0.237 OA
ATOM     94  O   UNL A   1      34.840  35.101  28.285  1.00  0.00    -0.237 OA
ATOM     95  O   UNL A   1      33.503  33.095  27.823  1.00  0.00    -0.744 OA
ENDBRANCH  89  92
ENDBRANCH  61  85
BRANCH  73  96
ATOM     96  C   UNL A   1      43.328  35.489  30.774  1.00  0.00     0.023 A 
ATOM     97  C   UNL A   1      43.756  35.754  32.090  1.00  0.00     0.012 A 
ATOM     98  C   UNL A   1      43.340  36.528  29.821  1.00  0.00     0.148 A 
ATOM     99  C   UNL A   1      44.152  37.038  32.461  1.00  0.00     0.002 A 
ATOM    100  C   UNL A   1      43.789  37.791  30.183  1.00  0.00     0.091 A 
ATOM    101  F   UNL A   1      42.914  36.260  28.578  1.00  0.00    -0.205 F 
ATOM    102  C   UNL A   1      44.180  38.053  31.506  1.00  0.00     0.022 A 
BRANCH 100 103
ATOM    103  S   UNL A   1      43.956  39.130  28.998  1.00  0.00     0.127 S 
ATOM    104  O   UNL A   1      44.467  40.210  29.840  1.00  0.00    -0.237 OA
ATOM    105  O   UNL A   1      44.927  38.583  28.051  1.00  0.00    -0.237 OA
ATOM    106  O   UNL A   1      42.627  39.347  28.444  1.00  0.00    -0.744 OA
ENDBRANCH 100 103
ENDBRANCH  73  96
ENDBRANCH  47  48
ENDBRANCH  39  42
ENDBRANCH  37  38
ENDBRANCH  36  37
ENDBRANCH  35  36
ENDBRANCH  34  35
ENDBRANCH   1  34
TORSDOF 21
ENDMDL
MODEL 2
REMARK VINA RESULT:     -10.5      5.066      9.175
REMARK SMILES O=C(CCC(=O)Nc1ccccc1C(=O)N1CCN(c2ccc(Cl)cc2)CC1)NCCCCCCNC(=O)c1ccc(-c2c3nc(c(-c4cccc(S(=O)(=O)[O-])c4F)c4ccc([nH]4)c(-c4cccc(S(=O)(=O)[O-])c4F)c4nc(c(-c5cccc(S(=O)(=O)[O-])c5F)c5ccc2[nH]5)C=C4)C=C3)cc1
REMARK SMILES IDX 31 1 30 2 29 3 1 4 2 5 3 7 4 8 5 9 6 10 7 11 8 13 9 14 13 15
REMARK SMILES IDX 10 16 12 17 11 18 14 19 15 20 16 21 17 22 28 23 18 24 27 25
REMARK SMILES IDX 19 26 20 27 21 28 26 29 22 30 25 31 23 32 24 33 32 34 33 35
REMARK SMILES IDX 34 36 35 37 36 38 37 39 38 41 39 42 40 43 101 44 41 45
REMARK SMILES IDX 100 46 42 47 43 48 44 49 94 50 45 51 99 52 93 53 95 54 46 55
REMARK SMILES IDX 98 56 92 57 91 58 47 60 79 61 59 62 78 63 60 64 63 65 77 66
REMARK SMILES IDX 96 67 61 68 62 69 76 71 97 72 64 73 48 74 49 75 57 76 50 77
REMARK SMILES IDX 52 78 58 79 51 80 53 81 54 82 55 83 56 84 80 85 81 86 89 87
REMARK SMILES IDX 82 88 84 89 90 90 83 91 85 92 86 93 87 94 88 95 65 96 66 97
REMARK SMILES IDX 74 98 67 99 69 100 75 101 68 102 70 103 71 104 72 105 73 106
REMARK H PARENT 29 6 7 12 36 40 95 59 63 70
REMARK Flexibility Score: inf
ROOT
ATOM      1  C   UNL A   1      43.582  24.545  26.465  1.00  0.00     0.021 C 
ENDROOT
BRANCH   1   2
ATOM      2  C   UNL A   1      45.094  24.724  26.916  1.00  0.00     0.116 C 
BRANCH   2   3
ATOM      3  N   UNL A   1      46.435  25.254  26.185  1.00  0.00    -0.356 N 
ATOM      4  O   UNL A   1      47.145  24.398  23.980  1.00  0.00    -0.275 OA
ATOM      5  C   UNL A   1      47.097  25.223  24.895  1.00  0.00     0.220 C 
ATOM      6  H   UNL A   1      46.980  25.766  26.825  1.00  0.00     0.163 HD
BRANCH   5   7
ATOM      7  C   UNL A   1      47.809  26.456  24.458  1.00  0.00     0.110 C 
BRANCH   7   8
ATOM      8  C   UNL A   1      47.069  27.616  25.028  1.00  0.00     0.110 C 
BRANCH   8   9
ATOM      9  C   UNL A   1      47.949  28.578  25.776  1.00  0.00     0.224 C 
ATOM     10  O   UNL A   1      49.160  28.316  25.830  1.00  0.00    -0.275 OA
ATOM     11  N   UNL A   1      47.536  29.731  26.375  1.00  0.00    -0.325 N 
ATOM     12  H   UNL A   1      48.284  30.366  26.294  1.00  0.00     0.169 HD
BRANCH  11  13
ATOM     13  C   UNL A   1      46.454  30.452  27.095  1.00  0.00     0.054 A 
ATOM     14  C   UNL A   1      45.333  29.619  26.774  1.00  0.00     0.027 A 
ATOM     15  C   UNL A   1      46.205  31.812  27.794  1.00  0.00     0.063 A 
ATOM     16  C   UNL A   1      44.033  29.918  27.105  1.00  0.00     0.002 A 
ATOM     17  C   UNL A   1      44.838  31.953  28.178  1.00  0.00     0.016 A 
ATOM     18  C   UNL A   1      43.796  31.057  27.840  1.00  0.00     0.001 A 
BRANCH  15  19
ATOM     19  C   UNL A   1      46.989  33.386  28.273  1.00  0.00     0.256 C 
ATOM     20  O   UNL A   1      48.042  33.292  28.933  1.00  0.00    -0.269 OA
ATOM     21  N   UNL A   1      46.522  34.823  28.131  1.00  0.00    -0.335 N 
ATOM     22  C   UNL A   1      47.038  35.745  27.078  1.00  0.00     0.141 C 
ATOM     23  C   UNL A   1      46.105  35.727  29.250  1.00  0.00     0.141 C 
ATOM     24  C   UNL A   1      45.931  36.747  26.565  1.00  0.00     0.138 C 
ATOM     25  C   UNL A   1      44.860  36.592  28.852  1.00  0.00     0.138 C 
ATOM     26  N   UNL A   1      45.091  37.367  27.614  1.00  0.00    -0.368 N 
BRANCH  26  27
ATOM     27  C   UNL A   1      44.100  38.283  27.235  1.00  0.00     0.037 A 
ATOM     28  C   UNL A   1      42.752  37.946  26.997  1.00  0.00     0.027 A 
ATOM     29  C   UNL A   1      44.459  39.623  27.024  1.00  0.00     0.027 A 
ATOM     30  C   UNL A   1      41.831  38.888  26.501  1.00  0.00     0.022 A 
ATOM     31  C   UNL A   1      43.553  40.563  26.511  1.00  0.00     0.022 A 
ATOM     32  C   UNL A   1      42.245  40.188  26.233  1.00  0.00     0.041 A 
ATOM     33  Cl  UNL A   1      41.153  41.323  25.538  1.00  0.00    -0.084 Cl
ENDBRANCH  26  27
ENDBRANCH  15  19
ENDBRANCH  11  13
ENDBRANCH   8   9
ENDBRANCH   7   8
ENDBRANCH   5   7
ENDBRANCH   2   3
ENDBRANCH   1   2
BRANCH   1  34
ATOM     34  C   UNL A   1      42.748  23.723  27.469  1.00  0.00     0.002 C 
BRANCH  34  35
ATOM     35  C   UNL A   1      42.871  22.220  27.229  1.00  0.00     0.002 C 
BRANCH  35  36
ATOM     36  C   UNL A   1      41.718  21.618  26.426  1.00  0.00     0.021 C 
BRANCH  36  37
ATOM     37  C   UNL A   1      40.350  21.725  27.095  1.00  0.00     0.116 C 
BRANCH  37  38
ATOM     38  N   UNL A   1      39.324  22.169  26.161  1.00  0.00    -0.352 N 
ATOM     39  C   UNL A   1      38.631  23.353  26.110  1.00  0.00     0.251 C 
ATOM     40  H   UNL A   1      39.092  21.521  25.458  1.00  0.00     0.163 HD
ATOM     41  O   UNL A   1      37.598  23.432  25.469  1.00  0.00    -0.269 OA
BRANCH  39  42
ATOM     42  C   UNL A   1      39.165  24.533  26.824  1.00  0.00     0.039 A 
ATOM     43  C   UNL A   1      39.936  25.461  26.123  1.00  0.00     0.014 A 
ATOM     44  C   UNL A   1      38.931  24.692  28.192  1.00  0.00     0.014 A 
ATOM     45  C   UNL A   1      40.440  26.576  26.793  1.00  0.00     0.010 A 
ATOM     46  C   UNL A   1      39.358  25.846  28.835  1.00  0.00     0.010 A 
ATOM     47  C   UNL A   1      40.132  26.790  28.147  1.00  0.00    -0.014 A 
BRANCH  47  48
ATOM     48  C   UNL A   1      40.611  27.998  28.860  1.00  0.00     0.031 A 
ATOM     49  C   UNL A   1      41.974  28.011  29.495  1.00  0.00     0.074 A 
ATOM     50  C   UNL A   1      39.783  29.050  29.002  1.00  0.00     0.049 A 
ATOM     51  N   UNL A   1      42.547  28.957  30.191  1.00  0.00    -0.248 NA
ATOM     52  C   UNL A   1      42.792  26.794  29.355  1.00  0.00     0.031 C 
ATOM     53  C   UNL A   1      38.407  29.116  28.501  1.00  0.00     0.029 A 
ATOM     54  N   UNL A   1      39.964  30.254  29.632  1.00  0.00    -0.354 N 
ATOM     55  C   UNL A   1      43.769  28.440  30.603  1.00  0.00     0.074 A 
ATOM     56  C   UNL A   1      43.843  27.084  30.108  1.00  0.00     0.031 C 
ATOM     57  C   UNL A   1      37.876  30.302  28.832  1.00  0.00     0.029 A 
ATOM     58  C   UNL A   1      38.854  31.064  29.602  1.00  0.00     0.049 A 
ATOM     59  H   UNL A   1      40.810  30.515  30.064  1.00  0.00     0.167 HD
ATOM     60  C   UNL A   1      44.750  29.048  31.309  1.00  0.00     0.034 A 
ATOM     61  C   UNL A   1      38.642  32.278  30.144  1.00  0.00     0.034 A 
ATOM     62  C   UNL A   1      44.680  30.409  31.769  1.00  0.00     0.049 A 
ATOM     63  C   UNL A   1      39.763  32.945  30.892  1.00  0.00     0.074 A 
ATOM     64  C   UNL A   1      45.657  31.149  32.410  1.00  0.00     0.029 A 
ATOM     65  N   UNL A   1      43.567  31.226  31.656  1.00  0.00    -0.354 N 
ATOM     66  N   UNL A   1      40.971  32.499  31.136  1.00  0.00    -0.248 NA
ATOM     67  C   UNL A   1      39.505  34.296  31.408  1.00  0.00     0.031 C 
ATOM     68  C   UNL A   1      45.119  32.401  32.724  1.00  0.00     0.029 A 
ATOM     69  C   UNL A   1      43.825  32.459  32.232  1.00  0.00     0.049 A 
ATOM     70  H   UNL A   1      42.719  30.970  31.228  1.00  0.00     0.167 HD
ATOM     71  C   UNL A   1      41.630  33.528  31.801  1.00  0.00     0.074 A 
ATOM     72  C   UNL A   1      40.690  34.625  31.902  1.00  0.00     0.031 C 
ATOM     73  C   UNL A   1      42.894  33.557  32.290  1.00  0.00     0.034 A 
BRANCH  60  74
ATOM     74  C   UNL A   1      45.999  28.259  31.604  1.00  0.00     0.023 A 
ATOM     75  C   UNL A   1      46.198  27.707  32.886  1.00  0.00     0.012 A 
ATOM     76  C   UNL A   1      46.947  28.011  30.592  1.00  0.00     0.148 A 
ATOM     77  C   UNL A   1      47.334  26.950  33.167  1.00  0.00     0.002 A 
ATOM     78  C   UNL A   1      48.051  27.213  30.864  1.00  0.00     0.091 A 
ATOM     79  F   UNL A   1      46.752  28.562  29.385  1.00  0.00    -0.205 F 
ATOM     80  C   UNL A   1      48.254  26.694  32.153  1.00  0.00     0.022 A 
BRANCH  78  81
ATOM     81  S   UNL A   1      49.248  26.753  29.607  1.00  0.00     0.127 S 
ATOM     82  O   UNL A   1      48.380  26.279  28.531  1.00  0.00    -0.237 OA
ATOM     83  O   UNL A   1      49.913  28.028  29.338  1.00  0.00    -0.237 OA
ATOM     84  O   UNL A   1      50.099  25.737  30.213  1.00  0.00    -0.744 OA
ENDBRANCH  78  81
ENDBRANCH  60  74
BRANCH  61  85
ATOM     85  C   UNL A   1      37.330  32.956  29.957  1.00  0.00     0.023 A 
ATOM     86  C   UNL A   1      36.895  33.286  28.658  1.00  0.00     0.012 A 
ATOM     87  C   UNL A   1      36.496  33.245  31.055  1.00  0.00     0.148 A 
ATOM     88  C   UNL A   1      35.670  33.923  28.459  1.00  0.00     0.002 A 
ATOM     89  C   UNL A   1      35.252  33.825  30.845  1.00  0.00     0.091 A 
ATOM     90  F   UNL A   1      36.931  32.926  32.281  1.00  0.00    -0.205 F 
ATOM     91  C   UNL A   1      34.845  34.183  29.550  1.00  0.00     0.022 A 
BRANCH  89  92
ATOM     92  S   UNL A   1      34.069  34.074  32.172  1.00  0.00     0.127 S 
ATOM     93  O   UNL A   1      33.701  32.700  32.508  1.00  0.00    -0.237 OA
ATOM     94  O   UNL A   1      34.883  34.759  33.177  1.00  0.00    -0.237 OA
ATOM     95  O   UNL A   1      33.003  34.890  31.605  1.00  0.00    -0.744 OA
ENDBRANCH  89  92
ENDBRANCH  61  85
BRANCH  73  96
ATOM     96  C   UNL A   1      43.360  34.831  32.942  1.00  0.00     0.023 A 
ATOM     97  C   UNL A   1      43.773  35.923  32.153  1.00  0.00     0.012 A 
ATOM     98  C   UNL A   1      43.321  34.968  34.344  1.00  0.00     0.148 A 
ATOM     99  C   UNL A   1      44.177  37.117  32.750  1.00  0.00     0.002 A 
ATOM    100  C   UNL A   1      43.670  36.178  34.929  1.00  0.00     0.091 A 
ATOM    101  F   UNL A   1      42.939  33.913  35.079  1.00  0.00    -0.205 F 
ATOM    102  C   UNL A   1      44.113  37.248  34.136  1.00  0.00     0.022 A 
BRANCH 100 103
ATOM    103  S   UNL A   1      43.522  36.472  36.695  1.00  0.00     0.127 S 
ATOM    104  O   UNL A   1      44.236  37.738  36.847  1.00  0.00    -0.237 OA
ATOM    105  O   UNL A   1      42.072  36.564  36.871  1.00  0.00    -0.237 OA
ATOM    106  O   UNL A   1      44.139  35.326  37.349  1.00  0.00    -0.744 OA
ENDBRANCH 100 103
ENDBRANCH  73  96
ENDBRANCH  47  48
ENDBRANCH  39  42
ENDBRANCH  37  38
ENDBRANCH  36  37
ENDBRANCH  35  36
ENDBRANCH  34  35
ENDBRANCH   1  34
TORSDOF 21
ENDMDL
MODEL 3
REMARK VINA RESULT:      -9.9      7.951     13.366
REMARK SMILES O=C(CCC(=O)Nc1ccccc1C(=O)N1CCN(c2ccc(Cl)cc2)CC1)NCCCCCCNC(=O)c1ccc(-c2c3nc(c(-c4cccc(S(=O)(=O)[O-])c4F)c4ccc([nH]4)c(-c4cccc(S(=O)(=O)[O-])c4F)c4nc(c(-c5cccc(S(=O)(=O)[O-])c5F)c5ccc2[nH]5)C=C4)C=C3)cc1
REMARK SMILES IDX 31 1 30 2 29 3 1 4 2 5 3 7 4 8 5 9 6 10 7 11 8 13 9 14 13 15
REMARK SMILES IDX 10 16 12 17 11 18 14 19 15 20 16 21 17 22 28 23 18 24 27 25
REMARK SMILES IDX 19 26 20 27 21 28 26 29 22 30 25 31 23 32 24 33 32 34 33 35
REMARK SMILES IDX 34 36 35 37 36 38 37 39 38 41 39 42 40 43 101 44 41 45
REMARK SMILES IDX 100 46 42 47 43 48 44 49 94 50 45 51 99 52 93 53 95 54 46 55
REMARK SMILES IDX 98 56 92 57 91 58 47 60 79 61 59 62 78 63 60 64 63 65 77 66
REMARK SMILES IDX 96 67 61 68 62 69 76 71 97 72 64 73 48 74 49 75 57 76 50 77
REMARK SMILES IDX 52 78 58 79 51 80 53 81 54 82 55 83 56 84 80 85 81 86 89 87
REMARK SMILES IDX 82 88 84 89 90 90 83 91 85 92 86 93 87 94 88 95 65 96 66 97
REMARK SMILES IDX 74 98 67 99 69 100 75 101 68 102 70 103 71 104 72 105 73 106
REMARK H PARENT 29 6 7 12 36 40 95 59 63 70
REMARK Flexibility Score: inf
ROOT
ATOM      1  C   UNL A   1      39.560  33.803  30.370  1.00  0.00     0.021 C 
ENDROOT
BRANCH   1   2
ATOM      2  C   UNL A   1      38.600  34.592  31.359  1.00  0.00     0.116 C 
BRANCH   2   3
ATOM      3  N   UNL A   1      37.012  34.556  31.658  1.00  0.00    -0.356 N 
ATOM      4  O   UNL A   1      36.100  34.950  33.919  1.00  0.00    -0.275 OA
ATOM      5  C   UNL A   1      36.056  34.915  32.687  1.00  0.00     0.220 C 
ATOM      6  H   UNL A   1      36.539  34.162  30.890  1.00  0.00     0.163 HD
BRANCH   5   7
ATOM      7  C   UNL A   1      34.746  35.470  32.246  1.00  0.00     0.110 C 
BRANCH   7   8
ATOM      8  C   UNL A   1      34.010  34.369  31.566  1.00  0.00     0.110 C 
BRANCH   8   9
ATOM      9  C   UNL A   1      33.847  34.581  30.087  1.00  0.00     0.224 C 
ATOM     10  O   UNL A   1      33.177  35.560  29.724  1.00  0.00    -0.275 OA
ATOM     11  N   UNL A   1      34.397  33.808  29.108  1.00  0.00    -0.325 N 
ATOM     12  H   UNL A   1      34.592  34.414  28.356  1.00  0.00     0.169 HD
BRANCH  11  13
ATOM     13  C   UNL A   1      34.834  32.455  28.675  1.00  0.00     0.054 A 
ATOM     14  C   UNL A   1      36.220  32.506  29.035  1.00  0.00     0.027 A 
ATOM     15  C   UNL A   1      34.319  31.264  27.830  1.00  0.00     0.063 A 
ATOM     16  C   UNL A   1      37.130  31.523  28.730  1.00  0.00     0.002 A 
ATOM     17  C   UNL A   1      35.328  30.266  27.674  1.00  0.00     0.016 A 
ATOM     18  C   UNL A   1      36.675  30.392  28.092  1.00  0.00     0.001 A 
BRANCH  15  19
ATOM     19  C   UNL A   1      32.902  30.648  26.864  1.00  0.00     0.256 C 
ATOM     20  O   UNL A   1      31.911  31.402  26.808  1.00  0.00    -0.269 OA
ATOM     21  N   UNL A   1      32.643  29.303  26.211  1.00  0.00    -0.335 N 
ATOM     22  C   UNL A   1      32.789  29.071  24.744  1.00  0.00     0.141 C 
ATOM     23  C   UNL A   1      31.631  28.291  26.650  1.00  0.00     0.141 C 
ATOM     24  C   UNL A   1      33.316  27.618  24.417  1.00  0.00     0.138 C 
ATOM     25  C   UNL A   1      32.198  26.833  26.547  1.00  0.00     0.138 C 
ATOM     26  N   UNL A   1      32.690  26.521  25.188  1.00  0.00    -0.368 N 
BRANCH  26  27
ATOM     27  C   UNL A   1      33.093  25.202  24.938  1.00  0.00     0.037 A 
ATOM     28  C   UNL A   1      32.208  24.126  24.724  1.00  0.00     0.027 A 
ATOM     29  C   UNL A   1      34.462  24.897  24.946  1.00  0.00     0.027 A 
ATOM     30  C   UNL A   1      32.671  22.801  24.599  1.00  0.00     0.022 A 
ATOM     31  C   UNL A   1      34.931  23.578  24.842  1.00  0.00     0.022 A 
ATOM     32  C   UNL A   1      34.031  22.532  24.689  1.00  0.00     0.041 A 
ATOM     33  Cl  UNL A   1      34.602  20.908  24.633  1.00  0.00    -0.084 Cl
ENDBRANCH  26  27
ENDBRANCH  15  19
ENDBRANCH  11  13
ENDBRANCH   8   9
ENDBRANCH   7   8
ENDBRANCH   5   7
ENDBRANCH   2   3
ENDBRANCH   1   2
BRANCH   1  34
ATOM     34  C   UNL A   1      39.895  32.381  30.864  1.00  0.00     0.002 C 
BRANCH  34  35
ATOM     35  C   UNL A   1      39.574  32.192  32.344  1.00  0.00     0.002 C 
BRANCH  35  36
ATOM     36  C   UNL A   1      38.498  31.140  32.622  1.00  0.00     0.021 C 
BRANCH  36  37
ATOM     37  C   UNL A   1      38.919  30.038  33.592  1.00  0.00     0.116 C 
BRANCH  37  38
ATOM     38  N   UNL A   1      38.141  30.078  34.824  1.00  0.00    -0.352 N 
ATOM     39  C   UNL A   1      38.332  30.819  35.964  1.00  0.00     0.251 C 
ATOM     40  H   UNL A   1      37.359  29.481  34.841  1.00  0.00     0.163 HD
ATOM     41  O   UNL A   1      37.784  30.497  37.003  1.00  0.00    -0.269 OA
BRANCH  39  42
ATOM     42  C   UNL A   1      39.192  32.021  35.907  1.00  0.00     0.039 A 
ATOM     43  C   UNL A   1      40.569  31.882  36.080  1.00  0.00     0.014 A 
ATOM     44  C   UNL A   1      38.623  33.284  35.724  1.00  0.00     0.014 A 
ATOM     45  C   UNL A   1      41.383  33.013  36.025  1.00  0.00     0.010 A 
ATOM     46  C   UNL A   1      39.442  34.395  35.581  1.00  0.00     0.010 A 
ATOM     47  C   UNL A   1      40.828  34.275  35.749  1.00  0.00    -0.014 A 
BRANCH  47  48
ATOM     48  C   UNL A   1      41.683  35.479  35.631  1.00  0.00     0.031 A 
ATOM     49  C   UNL A   1      42.278  35.857  34.302  1.00  0.00     0.074 A 
ATOM     50  C   UNL A   1      41.985  36.183  36.738  1.00  0.00     0.049 A 
ATOM     51  N   UNL A   1      43.079  36.848  34.013  1.00  0.00    -0.248 NA
ATOM     52  C   UNL A   1      41.956  34.995  33.153  1.00  0.00     0.031 C 
ATOM     53  C   UNL A   1      41.533  35.860  38.095  1.00  0.00     0.029 A 
ATOM     54  N   UNL A   1      42.765  37.298  36.906  1.00  0.00    -0.354 N 
ATOM     55  C   UNL A   1      43.386  36.709  32.666  1.00  0.00     0.074 A 
ATOM     56  C   UNL A   1      42.713  35.518  32.200  1.00  0.00     0.031 C 
ATOM     57  C   UNL A   1      42.033  36.763  38.951  1.00  0.00     0.029 A 
ATOM     58  C   UNL A   1      42.872  37.704  38.214  1.00  0.00     0.049 A 
ATOM     59  H   UNL A   1      43.205  37.765  36.159  1.00  0.00     0.167 HD
ATOM     60  C   UNL A   1      44.142  37.514  31.882  1.00  0.00     0.034 A 
ATOM     61  C   UNL A   1      43.577  38.712  38.763  1.00  0.00     0.034 A 
ATOM     62  C   UNL A   1      44.781  38.714  32.348  1.00  0.00     0.049 A 
ATOM     63  C   UNL A   1      44.378  39.612  37.863  1.00  0.00     0.074 A 
ATOM     64  C   UNL A   1      45.488  39.649  31.615  1.00  0.00     0.029 A 
ATOM     65  N   UNL A   1      44.806  39.136  33.668  1.00  0.00    -0.354 N 
ATOM     66  N   UNL A   1      44.529  39.554  36.563  1.00  0.00    -0.248 NA
ATOM     67  C   UNL A   1      45.076  40.737  38.500  1.00  0.00     0.031 C 
ATOM     68  C   UNL A   1      45.981  40.614  32.500  1.00  0.00     0.029 A 
ATOM     69  C   UNL A   1      45.534  40.309  33.776  1.00  0.00     0.049 A 
ATOM     70  H   UNL A   1      44.370  38.672  34.418  1.00  0.00     0.167 HD
ATOM     71  C   UNL A   1      45.307  40.654  36.220  1.00  0.00     0.074 A 
ATOM     72  C   UNL A   1      45.578  41.370  37.450  1.00  0.00     0.031 C 
ATOM     73  C   UNL A   1      45.762  41.033  35.001  1.00  0.00     0.034 A 
BRANCH  60  74
ATOM     74  C   UNL A   1      44.296  37.141  30.431  1.00  0.00     0.023 A 
ATOM     75  C   UNL A   1      43.405  37.663  29.471  1.00  0.00     0.012 A 
ATOM     76  C   UNL A   1      45.362  36.323  30.009  1.00  0.00     0.148 A 
ATOM     77  C   UNL A   1      43.551  37.351  28.120  1.00  0.00     0.002 A 
ATOM     78  C   UNL A   1      45.532  36.058  28.656  1.00  0.00     0.091 A 
ATOM     79  F   UNL A   1      46.186  35.817  30.938  1.00  0.00    -0.205 F 
ATOM     80  C   UNL A   1      44.621  36.559  27.712  1.00  0.00     0.022 A 
BRANCH  78  81
ATOM     81  S   UNL A   1      46.925  35.119  28.020  1.00  0.00     0.127 S 
ATOM     82  O   UNL A   1      46.925  33.955  28.903  1.00  0.00    -0.237 OA
ATOM     83  O   UNL A   1      46.504  34.844  26.646  1.00  0.00    -0.237 OA
ATOM     84  O   UNL A   1      48.087  35.991  28.138  1.00  0.00    -0.744 OA
ENDBRANCH  78  81
ENDBRANCH  60  74
BRANCH  61  85
ATOM     85  C   UNL A   1      43.516  38.947  40.232  1.00  0.00     0.023 A 
ATOM     86  C   UNL A   1      44.540  38.448  41.061  1.00  0.00     0.012 A 
ATOM     87  C   UNL A   1      42.466  39.689  40.806  1.00  0.00     0.148 A 
ATOM     88  C   UNL A   1      44.500  38.655  42.440  1.00  0.00     0.002 A 
ATOM     89  C   UNL A   1      42.464  39.942  42.172  1.00  0.00     0.091 A 
ATOM     90  F   UNL A   1      41.500  40.150  39.999  1.00  0.00    -0.205 F 
ATOM     91  C   UNL A   1      43.469  39.410  42.994  1.00  0.00     0.022 A 
BRANCH  89  92
ATOM     92  S   UNL A   1      41.253  41.014  42.952  1.00  0.00     0.127 S 
ATOM     93  O   UNL A   1      41.438  42.262  42.215  1.00  0.00    -0.237 OA
ATOM     94  O   UNL A   1      40.002  40.309  42.669  1.00  0.00    -0.237 OA
ATOM     95  O   UNL A   1      41.612  41.056  44.364  1.00  0.00    -0.744 OA
ENDBRANCH  89  92
ENDBRANCH  61  85
BRANCH  73  96
ATOM     96  C   UNL A   1      46.566  42.303  34.919  1.00  0.00     0.023 A 
ATOM     97  C   UNL A   1      45.917  43.548  34.798  1.00  0.00     0.012 A 
ATOM     98  C   UNL A   1      47.970  42.265  35.035  1.00  0.00     0.148 A 
ATOM     99  C   UNL A   1      46.655  44.730  34.753  1.00  0.00     0.002 A 
ATOM    100  C   UNL A   1      48.695  43.449  35.046  1.00  0.00     0.091 A 
ATOM    101  F   UNL A   1      48.571  41.069  35.135  1.00  0.00    -0.205 F 
ATOM    102  C   UNL A   1      48.041  44.682  34.890  1.00  0.00     0.022 A 
BRANCH 100 103
ATOM    103  S   UNL A   1      50.469  43.490  35.320  1.00  0.00     0.127 S 
ATOM    104  O   UNL A   1      50.759  44.916  35.175  1.00  0.00    -0.237 OA
ATOM    105  O   UNL A   1      50.582  42.981  36.686  1.00  0.00    -0.237 OA
ATOM    106  O   UNL A   1      51.055  42.628  34.302  1.00  0.00    -0.744 OA
ENDBRANCH 100 103
ENDBRANCH  73  96
ENDBRANCH  47  48
ENDBRANCH  39  42
ENDBRANCH  37  38
ENDBRANCH  36  37
ENDBRANCH  35  36
ENDBRANCH  34  35
ENDBRANCH   1  34
TORSDOF 21
ENDMDL
