MODEL 1
REMARK VINA RESULT:     -11.7      0.000      0.000
REMARK SMILES Cn1cc(C[C@H](C(=O)NCCCCCCNC(=O)c2ccc(-c3c4nc(c(-c5cccc(S(=O)(=O)[O-])c5F)c5ccc([nH]5)c(-c5cccc(S(=O)(=O)[O-])c5F)c5nc(c(-c6cccc(S(=O)(=O)[O-])c6F)c6ccc3[nH]6)C=C5)C=C4)cc2)c2ccc(F)cc2)cn1
REMARK SMILES IDX 13 1 12 2 11 3 10 4 9 5 7 6 8 7 6 9 5 10 4 11 1 12 2 13 3 14
REMARK SMILES IDX 90 15 89 16 82 17 83 18 88 19 84 20 87 21 85 22 86 23 14 24
REMARK SMILES IDX 15 25 16 26 17 27 18 29 19 30 20 31 81 32 21 33 80 34 22 35
REMARK SMILES IDX 23 36 24 37 74 38 25 39 79 40 73 41 75 42 26 43 78 44 72 45
REMARK SMILES IDX 71 46 27 48 59 49 39 50 58 51 40 52 43 53 57 54 76 55 41 56
REMARK SMILES IDX 42 57 56 59 77 60 44 61 28 62 29 63 37 64 30 65 32 66 38 67
REMARK SMILES IDX 31 68 33 69 34 70 35 71 36 72 60 73 61 74 69 75 62 76 64 77
REMARK SMILES IDX 70 78 63 79 65 80 66 81 67 82 68 83 45 84 46 85 54 86 47 87
REMARK SMILES IDX 49 88 55 89 48 90 50 91 51 92 52 93 53 94
REMARK H PARENT 9 8 16 28 75 47 43 58
REMARK Flexibility Score: inf
ROOT
ATOM      1  C   UNL A   1      35.199  22.897  23.518  1.00  0.00     0.002 C 
ENDROOT
BRANCH   1   2
ATOM      2  C   UNL A   1      33.823  23.160  22.896  1.00  0.00     0.002 C 
BRANCH   2   3
ATOM      3  C   UNL A   1      32.674  22.378  23.546  1.00  0.00     0.021 C 
BRANCH   3   4
ATOM      4  C   UNL A   1      31.312  23.044  23.341  1.00  0.00     0.116 C 
BRANCH   4   5
ATOM      5  N   UNL A   1      30.707  23.321  24.624  1.00  0.00    -0.356 N 
ATOM      6  C   UNL A   1      30.719  24.471  25.353  1.00  0.00     0.227 C 
ATOM      7  O   UNL A   1      30.404  24.365  26.544  1.00  0.00    -0.274 OA
ATOM      8  H   UNL A   1      30.215  22.570  25.029  1.00  0.00     0.163 HD
BRANCH   6   9
ATOM      9  C   UNL A   1      31.032  25.839  24.704  1.00  0.00     0.113 C 
BRANCH   9  10
ATOM     10  C   UNL A   1      29.660  26.438  24.319  1.00  0.00     0.057 C 
BRANCH  10  11
ATOM     11  C   UNL A   1      29.610  27.606  23.394  1.00  0.00    -0.009 A 
ATOM     12  C   UNL A   1      27.977  30.334  21.695  1.00  0.00     0.173 C 
ATOM     13  N   UNL A   1      28.835  29.320  22.255  1.00  0.00    -0.276 N 
ATOM     14  C   UNL A   1      28.505  28.418  23.217  1.00  0.00     0.112 A 
ATOM     15  N   UNL A   1      30.089  29.172  21.797  1.00  0.00    -0.182 NA
ATOM     16  C   UNL A   1      30.562  28.136  22.496  1.00  0.00     0.138 A 
ENDBRANCH  10  11
ENDBRANCH   9  10
BRANCH   9  17
ATOM     17  C   UNL A   1      31.881  26.739  25.605  1.00  0.00    -0.035 A 
ATOM     18  C   UNL A   1      31.274  27.470  26.646  1.00  0.00     0.007 A 
ATOM     19  C   UNL A   1      33.260  26.903  25.401  1.00  0.00     0.007 A 
ATOM     20  C   UNL A   1      31.999  28.397  27.398  1.00  0.00     0.039 A 
ATOM     21  C   UNL A   1      33.995  27.798  26.186  1.00  0.00     0.039 A 
ATOM     22  C   UNL A   1      33.354  28.554  27.158  1.00  0.00     0.123 A 
ATOM     23  F   UNL A   1      34.054  29.447  27.869  1.00  0.00    -0.207 F 
ENDBRANCH   9  17
ENDBRANCH   6   9
ENDBRANCH   4   5
ENDBRANCH   3   4
ENDBRANCH   2   3
ENDBRANCH   1   2
BRANCH   1  24
ATOM     24  C   UNL A   1      35.209  21.856  24.642  1.00  0.00     0.021 C 
BRANCH  24  25
ATOM     25  C   UNL A   1      36.227  22.133  25.745  1.00  0.00     0.116 C 
BRANCH  25  26
ATOM     26  N   UNL A   1      37.229  21.080  25.819  1.00  0.00    -0.352 N 
ATOM     27  C   UNL A   1      38.589  21.188  25.968  1.00  0.00     0.251 C 
ATOM     28  H   UNL A   1      36.882  20.161  25.753  1.00  0.00     0.163 HD
ATOM     29  O   UNL A   1      39.310  20.218  25.750  1.00  0.00    -0.269 OA
BRANCH  27  30
ATOM     30  C   UNL A   1      39.181  22.474  26.389  1.00  0.00     0.039 A 
ATOM     31  C   UNL A   1      40.215  22.473  27.329  1.00  0.00     0.014 A 
ATOM     32  C   UNL A   1      38.701  23.680  25.871  1.00  0.00     0.014 A 
ATOM     33  C   UNL A   1      40.799  23.682  27.714  1.00  0.00     0.010 A 
ATOM     34  C   UNL A   1      39.332  24.876  26.200  1.00  0.00     0.010 A 
ATOM     35  C   UNL A   1      40.379  24.891  27.134  1.00  0.00    -0.014 A 
BRANCH  35  36
ATOM     36  C   UNL A   1      41.022  26.181  27.487  1.00  0.00     0.031 A 
ATOM     37  C   UNL A   1      42.443  26.457  27.074  1.00  0.00     0.074 A 
ATOM     38  C   UNL A   1      40.359  27.064  28.258  1.00  0.00     0.049 A 
ATOM     39  N   UNL A   1      43.189  27.500  27.334  1.00  0.00    -0.248 NA
ATOM     40  C   UNL A   1      43.125  25.413  26.291  1.00  0.00     0.031 C 
ATOM     41  C   UNL A   1      39.007  26.874  28.789  1.00  0.00     0.029 A 
ATOM     42  N   UNL A   1      40.742  28.285  28.753  1.00  0.00    -0.354 N 
ATOM     43  C   UNL A   1      44.435  27.223  26.783  1.00  0.00     0.074 A 
ATOM     44  C   UNL A   1      44.354  25.900  26.204  1.00  0.00     0.031 C 
ATOM     45  C   UNL A   1      38.672  27.943  29.529  1.00  0.00     0.029 A 
ATOM     46  C   UNL A   1      39.792  28.879  29.551  1.00  0.00     0.049 A 
ATOM     47  H   UNL A   1      41.613  28.698  28.555  1.00  0.00     0.167 HD
ATOM     48  C   UNL A   1      45.536  28.009  26.738  1.00  0.00     0.034 A 
ATOM     49  C   UNL A   1      39.821  30.042  30.229  1.00  0.00     0.034 A 
ATOM     50  C   UNL A   1      45.596  29.340  27.277  1.00  0.00     0.049 A 
ATOM     51  C   UNL A   1      41.041  30.917  30.128  1.00  0.00     0.074 A 
ATOM     52  C   UNL A   1      46.629  30.257  27.196  1.00  0.00     0.029 A 
ATOM     53  N   UNL A   1      44.584  29.943  28.009  1.00  0.00    -0.354 N 
ATOM     54  N   UNL A   1      42.150  30.710  29.459  1.00  0.00    -0.248 NA
ATOM     55  C   UNL A   1      41.002  32.199  30.844  1.00  0.00     0.031 C 
ATOM     56  C   UNL A   1      46.252  31.405  27.902  1.00  0.00     0.029 A 
ATOM     57  C   UNL A   1      44.972  31.214  28.398  1.00  0.00     0.049 A 
ATOM     58  H   UNL A   1      43.716  29.529  28.220  1.00  0.00     0.167 HD
ATOM     59  C   UNL A   1      42.925  31.850  29.643  1.00  0.00     0.074 A 
ATOM     60  C   UNL A   1      42.149  32.751  30.470  1.00  0.00     0.031 C 
ATOM     61  C   UNL A   1      44.171  32.120  29.180  1.00  0.00     0.034 A 
BRANCH  48  62
ATOM     62  C   UNL A   1      46.756  27.463  26.039  1.00  0.00     0.023 A 
ATOM     63  C   UNL A   1      46.913  27.667  24.651  1.00  0.00     0.012 A 
ATOM     64  C   UNL A   1      47.766  26.794  26.756  1.00  0.00     0.148 A 
ATOM     65  C   UNL A   1      48.033  27.175  23.982  1.00  0.00     0.002 A 
ATOM     66  C   UNL A   1      48.903  26.348  26.090  1.00  0.00     0.091 A 
ATOM     67  F   UNL A   1      47.591  26.590  28.070  1.00  0.00    -0.205 F 
ATOM     68  C   UNL A   1      49.031  26.526  24.703  1.00  0.00     0.022 A 
BRANCH  66  69
ATOM     69  S   UNL A   1      50.282  25.574  26.942  1.00  0.00     0.127 S 
ATOM     70  O   UNL A   1      51.241  25.398  25.852  1.00  0.00    -0.237 OA
ATOM     71  O   UNL A   1      50.653  26.596  27.921  1.00  0.00    -0.237 OA
ATOM     72  O   UNL A   1      49.755  24.345  27.519  1.00  0.00    -0.744 OA
ENDBRANCH  66  69
ENDBRANCH  48  62
BRANCH  49  73
ATOM     73  C   UNL A   1      38.624  30.481  31.000  1.00  0.00     0.023 A 
ATOM     74  C   UNL A   1      38.547  30.189  32.376  1.00  0.00     0.012 A 
ATOM     75  C   UNL A   1      37.587  31.217  30.395  1.00  0.00     0.148 A 
ATOM     76  C   UNL A   1      37.447  30.598  33.130  1.00  0.00     0.002 A 
ATOM     77  C   UNL A   1      36.520  31.668  31.163  1.00  0.00     0.091 A 
ATOM     78  F   UNL A   1      37.676  31.476  29.082  1.00  0.00    -0.205 F 
ATOM     79  C   UNL A   1      36.439  31.346  32.526  1.00  0.00     0.022 A 
BRANCH  77  80
ATOM     80  S   UNL A   1      35.246  32.749  30.503  1.00  0.00     0.127 S 
ATOM     81  O   UNL A   1      34.317  32.839  31.626  1.00  0.00    -0.237 OA
ATOM     82  O   UNL A   1      36.001  33.972  30.228  1.00  0.00    -0.237 OA
ATOM     83  O   UNL A   1      34.737  32.079  29.314  1.00  0.00    -0.744 OA
ENDBRANCH  77  80
ENDBRANCH  49  73
BRANCH  61  84
ATOM     84  C   UNL A   1      44.769  33.459  29.526  1.00  0.00     0.023 A 
ATOM     85  C   UNL A   1      45.519  33.607  30.709  1.00  0.00     0.012 A 
ATOM     86  C   UNL A   1      44.651  34.548  28.640  1.00  0.00     0.148 A 
ATOM     87  C   UNL A   1      46.116  34.829  31.021  1.00  0.00     0.002 A 
ATOM     88  C   UNL A   1      45.290  35.747  28.934  1.00  0.00     0.091 A 
ATOM     89  F   UNL A   1      43.918  34.393  27.529  1.00  0.00    -0.205 F 
ATOM     90  C   UNL A   1      46.012  35.893  30.129  1.00  0.00     0.022 A 
BRANCH  88  91
ATOM     91  S   UNL A   1      45.293  37.139  27.798  1.00  0.00     0.127 S 
ATOM     92  O   UNL A   1      43.865  37.430  27.680  1.00  0.00    -0.237 OA
ATOM     93  O   UNL A   1      46.061  38.142  28.537  1.00  0.00    -0.237 OA
ATOM     94  O   UNL A   1      45.937  36.663  26.581  1.00  0.00    -0.744 OA
ENDBRANCH  88  91
ENDBRANCH  61  84
ENDBRANCH  35  36
ENDBRANCH  27  30
ENDBRANCH  25  26
ENDBRANCH  24  25
ENDBRANCH   1  24
TORSDOF 19
ENDMDL
MODEL 2
REMARK VINA RESULT:     -11.6      1.871      2.466
REMARK SMILES Cn1cc(C[C@H](C(=O)NCCCCCCNC(=O)c2ccc(-c3c4nc(c(-c5cccc(S(=O)(=O)[O-])c5F)c5ccc([nH]5)c(-c5cccc(S(=O)(=O)[O-])c5F)c5nc(c(-c6cccc(S(=O)(=O)[O-])c6F)c6ccc3[nH]6)C=C5)C=C4)cc2)c2ccc(F)cc2)cn1
REMARK SMILES IDX 13 1 12 2 11 3 10 4 9 5 7 6 8 7 6 9 5 10 4 11 1 12 2 13 3 14
REMARK SMILES IDX 90 15 89 16 82 17 83 18 88 19 84 20 87 21 85 22 86 23 14 24
REMARK SMILES IDX 15 25 16 26 17 27 18 29 19 30 20 31 81 32 21 33 80 34 22 35
REMARK SMILES IDX 23 36 24 37 74 38 25 39 79 40 73 41 75 42 26 43 78 44 72 45
REMARK SMILES IDX 71 46 27 48 59 49 39 50 58 51 40 52 43 53 57 54 76 55 41 56
REMARK SMILES IDX 42 57 56 59 77 60 44 61 28 62 29 63 37 64 30 65 32 66 38 67
REMARK SMILES IDX 31 68 33 69 34 70 35 71 36 72 60 73 61 74 69 75 62 76 64 77
REMARK SMILES IDX 70 78 63 79 65 80 66 81 67 82 68 83 45 84 46 85 54 86 47 87
REMARK SMILES IDX 49 88 55 89 48 90 50 91 51 92 52 93 53 94
REMARK H PARENT 9 8 16 28 75 47 43 58
REMARK Flexibility Score: inf
ROOT
ATOM      1  C   UNL A   1      34.953  23.663  23.767  1.00  0.00     0.002 C 
ENDROOT
BRANCH   1   2
ATOM      2  C   UNL A   1      33.945  22.718  23.104  1.00  0.00     0.002 C 
BRANCH   2   3
ATOM      3  C   UNL A   1      32.680  22.458  23.931  1.00  0.00     0.021 C 
BRANCH   3   4
ATOM      4  C   UNL A   1      32.834  22.871  25.396  1.00  0.00     0.116 C 
BRANCH   4   5
ATOM      5  N   UNL A   1      31.530  23.101  25.978  1.00  0.00    -0.356 N 
ATOM      6  C   UNL A   1      30.827  24.262  26.086  1.00  0.00     0.227 C 
ATOM      7  O   UNL A   1      29.890  24.259  26.893  1.00  0.00    -0.274 OA
ATOM      8  H   UNL A   1      31.088  22.303  26.349  1.00  0.00     0.163 HD
BRANCH   6   9
ATOM      9  C   UNL A   1      31.137  25.485  25.191  1.00  0.00     0.113 C 
BRANCH   9  10
ATOM     10  C   UNL A   1      29.766  25.978  24.675  1.00  0.00     0.057 C 
BRANCH  10  11
ATOM     11  C   UNL A   1      29.718  27.098  23.693  1.00  0.00    -0.009 A 
ATOM     12  C   UNL A   1      28.121  29.810  21.936  1.00  0.00     0.173 C 
ATOM     13  N   UNL A   1      28.962  28.786  22.504  1.00  0.00    -0.276 N 
ATOM     14  C   UNL A   1      28.643  27.952  23.530  1.00  0.00     0.112 A 
ATOM     15  N   UNL A   1      30.181  28.556  21.992  1.00  0.00    -0.182 NA
ATOM     16  C   UNL A   1      30.644  27.536  22.720  1.00  0.00     0.138 A 
ENDBRANCH  10  11
ENDBRANCH   9  10
BRANCH   9  17
ATOM     17  C   UNL A   1      31.958  26.553  25.916  1.00  0.00    -0.035 A 
ATOM     18  C   UNL A   1      31.355  27.357  26.904  1.00  0.00     0.007 A 
ATOM     19  C   UNL A   1      33.303  26.798  25.597  1.00  0.00     0.007 A 
ATOM     20  C   UNL A   1      32.042  28.424  27.487  1.00  0.00     0.039 A 
ATOM     21  C   UNL A   1      34.004  27.839  26.215  1.00  0.00     0.039 A 
ATOM     22  C   UNL A   1      33.361  28.657  27.134  1.00  0.00     0.123 A 
ATOM     23  F   UNL A   1      34.024  29.683  27.683  1.00  0.00    -0.207 F 
ENDBRANCH   9  17
ENDBRANCH   6   9
ENDBRANCH   4   5
ENDBRANCH   3   4
ENDBRANCH   2   3
ENDBRANCH   1   2
BRANCH   1  24
ATOM     24  C   UNL A   1      36.295  23.021  24.129  1.00  0.00     0.021 C 
BRANCH  24  25
ATOM     25  C   UNL A   1      36.786  23.344  25.538  1.00  0.00     0.116 C 
BRANCH  25  26
ATOM     26  N   UNL A   1      37.812  22.407  25.971  1.00  0.00    -0.352 N 
ATOM     27  C   UNL A   1      39.074  22.662  26.446  1.00  0.00     0.251 C 
ATOM     28  H   UNL A   1      37.566  21.455  25.915  1.00  0.00     0.163 HD
ATOM     29  O   UNL A   1      39.899  21.756  26.518  1.00  0.00    -0.269 OA
BRANCH  27  30
ATOM     30  C   UNL A   1      39.435  24.032  26.868  1.00  0.00     0.039 A 
ATOM     31  C   UNL A   1      39.161  24.436  28.177  1.00  0.00     0.014 A 
ATOM     32  C   UNL A   1      40.025  24.920  25.965  1.00  0.00     0.014 A 
ATOM     33  C   UNL A   1      39.523  25.720  28.592  1.00  0.00     0.010 A 
ATOM     34  C   UNL A   1      40.451  26.171  26.400  1.00  0.00     0.010 A 
ATOM     35  C   UNL A   1      40.193  26.588  27.714  1.00  0.00    -0.014 A 
BRANCH  35  36
ATOM     36  C   UNL A   1      40.636  27.936  28.152  1.00  0.00     0.031 A 
ATOM     37  C   UNL A   1      42.100  28.285  28.168  1.00  0.00     0.074 A 
ATOM     38  C   UNL A   1      39.728  28.813  28.621  1.00  0.00     0.049 A 
ATOM     39  N   UNL A   1      42.680  29.388  28.565  1.00  0.00    -0.248 NA
ATOM     40  C   UNL A   1      43.038  27.248  27.704  1.00  0.00     0.031 C 
ATOM     41  C   UNL A   1      38.289  28.562  28.731  1.00  0.00     0.029 A 
ATOM     42  N   UNL A   1      39.882  30.082  29.119  1.00  0.00    -0.354 N 
ATOM     43  C   UNL A   1      44.046  29.166  28.437  1.00  0.00     0.074 A 
ATOM     44  C   UNL A   1      44.210  27.811  27.958  1.00  0.00     0.031 C 
ATOM     45  C   UNL A   1      37.693  29.644  29.257  1.00  0.00     0.029 A 
ATOM     46  C   UNL A   1      38.706  30.653  29.548  1.00  0.00     0.049 A 
ATOM     47  H   UNL A   1      40.751  30.542  29.164  1.00  0.00     0.167 HD
ATOM     48  C   UNL A   1      45.070  30.021  28.670  1.00  0.00     0.034 A 
ATOM     49  C   UNL A   1      38.471  31.851  30.117  1.00  0.00     0.034 A 
ATOM     50  C   UNL A   1      44.899  31.380  29.105  1.00  0.00     0.049 A 
ATOM     51  C   UNL A   1      39.621  32.798  30.327  1.00  0.00     0.074 A 
ATOM     52  C   UNL A   1      45.862  32.359  29.274  1.00  0.00     0.029 A 
ATOM     53  N   UNL A   1      43.684  31.953  29.451  1.00  0.00    -0.354 N 
ATOM     54  N   UNL A   1      40.890  32.631  30.040  1.00  0.00    -0.248 NA
ATOM     55  C   UNL A   1      39.304  34.112  30.903  1.00  0.00     0.031 C 
ATOM     56  C   UNL A   1      45.233  33.515  29.748  1.00  0.00     0.029 A 
ATOM     57  C   UNL A   1      43.874  33.265  29.847  1.00  0.00     0.049 A 
ATOM     58  H   UNL A   1      42.814  31.493  29.421  1.00  0.00     0.167 HD
ATOM     59  C   UNL A   1      41.516  33.828  30.367  1.00  0.00     0.074 A 
ATOM     60  C   UNL A   1      40.482  34.719  30.854  1.00  0.00     0.031 C 
ATOM     61  C   UNL A   1      42.829  34.157  30.283  1.00  0.00     0.034 A 
BRANCH  48  62
ATOM     62  C   UNL A   1      46.470  29.522  28.413  1.00  0.00     0.023 A 
ATOM     63  C   UNL A   1      47.080  29.771  27.165  1.00  0.00     0.012 A 
ATOM     64  C   UNL A   1      47.198  28.851  29.414  1.00  0.00     0.148 A 
ATOM     65  C   UNL A   1      48.373  29.323  26.904  1.00  0.00     0.002 A 
ATOM     66  C   UNL A   1      48.505  28.449  29.163  1.00  0.00     0.091 A 
ATOM     67  F   UNL A   1      46.596  28.604  30.587  1.00  0.00    -0.205 F 
ATOM     68  C   UNL A   1      49.089  28.672  27.905  1.00  0.00     0.022 A 
BRANCH  66  69
ATOM     69  S   UNL A   1      49.538  27.677  30.414  1.00  0.00     0.127 S 
ATOM     70  O   UNL A   1      48.832  26.416  30.642  1.00  0.00    -0.237 OA
ATOM     71  O   UNL A   1      50.817  27.541  29.717  1.00  0.00    -0.237 OA
ATOM     72  O   UNL A   1      49.557  28.599  31.541  1.00  0.00    -0.744 OA
ENDBRANCH  66  69
ENDBRANCH  48  62
BRANCH  49  73
ATOM     73  C   UNL A   1      37.077  32.248  30.458  1.00  0.00     0.023 A 
ATOM     74  C   UNL A   1      36.601  32.040  31.767  1.00  0.00     0.012 A 
ATOM     75  C   UNL A   1      36.236  32.867  29.513  1.00  0.00     0.148 A 
ATOM     76  C   UNL A   1      35.305  32.414  32.123  1.00  0.00     0.002 A 
ATOM     77  C   UNL A   1      34.965  33.288  29.887  1.00  0.00     0.091 A 
ATOM     78  F   UNL A   1      36.705  33.049  28.270  1.00  0.00    -0.205 F 
ATOM     79  C   UNL A   1      34.491  33.046  31.186  1.00  0.00     0.022 A 
BRANCH  77  80
ATOM     80  S   UNL A   1      33.898  34.229  28.791  1.00  0.00     0.127 S 
ATOM     81  O   UNL A   1      33.460  33.205  27.847  1.00  0.00    -0.237 OA
ATOM     82  O   UNL A   1      32.862  34.701  29.711  1.00  0.00    -0.237 OA
ATOM     83  O   UNL A   1      34.734  35.285  28.237  1.00  0.00    -0.744 OA
ENDBRANCH  77  80
ENDBRANCH  49  73
BRANCH  61  84
ATOM     84  C   UNL A   1      43.229  35.549  30.696  1.00  0.00     0.023 A 
ATOM     85  C   UNL A   1      43.609  35.804  32.029  1.00  0.00     0.012 A 
ATOM     86  C   UNL A   1      43.299  36.588  29.746  1.00  0.00     0.148 A 
ATOM     87  C   UNL A   1      44.023  37.078  32.416  1.00  0.00     0.002 A 
ATOM     88  C   UNL A   1      43.761  37.841  30.129  1.00  0.00     0.091 A 
ATOM     89  F   UNL A   1      42.915  36.330  28.488  1.00  0.00    -0.205 F 
ATOM     90  C   UNL A   1      44.111  38.092  31.465  1.00  0.00     0.022 A 
BRANCH  88  91
ATOM     91  S   UNL A   1      43.999  39.179  28.954  1.00  0.00     0.127 S 
ATOM     92  O   UNL A   1      42.736  39.905  29.067  1.00  0.00    -0.237 OA
ATOM     93  O   UNL A   1      45.158  39.879  29.509  1.00  0.00    -0.237 OA
ATOM     94  O   UNL A   1      44.241  38.542  27.665  1.00  0.00    -0.744 OA
ENDBRANCH  88  91
ENDBRANCH  61  84
ENDBRANCH  35  36
ENDBRANCH  27  30
ENDBRANCH  25  26
ENDBRANCH  24  25
ENDBRANCH   1  24
TORSDOF 19
ENDMDL
MODEL 3
REMARK VINA RESULT:     -11.5      1.435      7.619
REMARK SMILES Cn1cc(C[C@H](C(=O)NCCCCCCNC(=O)c2ccc(-c3c4nc(c(-c5cccc(S(=O)(=O)[O-])c5F)c5ccc([nH]5)c(-c5cccc(S(=O)(=O)[O-])c5F)c5nc(c(-c6cccc(S(=O)(=O)[O-])c6F)c6ccc3[nH]6)C=C5)C=C4)cc2)c2ccc(F)cc2)cn1
REMARK SMILES IDX 13 1 12 2 11 3 10 4 9 5 7 6 8 7 6 9 5 10 4 11 1 12 2 13 3 14
REMARK SMILES IDX 90 15 89 16 82 17 83 18 88 19 84 20 87 21 85 22 86 23 14 24
REMARK SMILES IDX 15 25 16 26 17 27 18 29 19 30 20 31 81 32 21 33 80 34 22 35
REMARK SMILES IDX 23 36 24 37 74 38 25 39 79 40 73 41 75 42 26 43 78 44 72 45
REMARK SMILES IDX 71 46 27 48 59 49 39 50 58 51 40 52 43 53 57 54 76 55 41 56
REMARK SMILES IDX 42 57 56 59 77 60 44 61 28 62 29 63 37 64 30 65 32 66 38 67
REMARK SMILES IDX 31 68 33 69 34 70 35 71 36 72 60 73 61 74 69 75 62 76 64 77
REMARK SMILES IDX 70 78 63 79 65 80 66 81 67 82 68 83 45 84 46 85 54 86 47 87
REMARK SMILES IDX 49 88 55 89 48 90 50 91 51 92 52 93 53 94
REMARK H PARENT 9 8 16 28 75 47 43 58
REMARK Flexibility Score: inf
ROOT
ATOM      1  C   UNL A   1      35.133  23.687  23.839  1.00  0.00     0.002 C 
ENDROOT
BRANCH   1   2
ATOM      2  C   UNL A   1      33.735  23.819  23.224  1.00  0.00     0.002 C 
BRANCH   2   3
ATOM      3  C   UNL A   1      32.700  22.836  23.784  1.00  0.00     0.021 C 
BRANCH   3   4
ATOM      4  C   UNL A   1      31.263  23.220  23.429  1.00  0.00     0.116 C 
BRANCH   4   5
ATOM      5  N   UNL A   1      30.534  23.550  24.632  1.00  0.00    -0.356 N 
ATOM      6  C   UNL A   1      30.501  24.722  25.326  1.00  0.00     0.227 C 
ATOM      7  O   UNL A   1      30.060  24.661  26.479  1.00  0.00    -0.274 OA
ATOM      8  H   UNL A   1      29.983  22.824  25.005  1.00  0.00     0.163 HD
BRANCH   6   9
ATOM      9  C   UNL A   1      30.915  26.062  24.674  1.00  0.00     0.113 C 
BRANCH   9  10
ATOM     10  C   UNL A   1      29.592  26.792  24.350  1.00  0.00     0.057 C 
BRANCH  10  11
ATOM     11  C   UNL A   1      29.596  27.894  23.346  1.00  0.00    -0.009 A 
ATOM     12  C   UNL A   1      28.074  30.523  21.405  1.00  0.00     0.173 C 
ATOM     13  N   UNL A   1      28.893  29.537  22.064  1.00  0.00    -0.276 N 
ATOM     14  C   UNL A   1      28.512  28.709  23.073  1.00  0.00     0.112 A 
ATOM     15  N   UNL A   1      30.160  29.340  21.666  1.00  0.00    -0.182 NA
ATOM     16  C   UNL A   1      30.590  28.347  22.451  1.00  0.00     0.138 A 
ENDBRANCH  10  11
ENDBRANCH   9  10
BRANCH   9  17
ATOM     17  C   UNL A   1      31.881  26.867  25.545  1.00  0.00    -0.035 A 
ATOM     18  C   UNL A   1      31.427  28.012  26.231  1.00  0.00     0.007 A 
ATOM     19  C   UNL A   1      33.240  26.530  25.653  1.00  0.00     0.007 A 
ATOM     20  C   UNL A   1      32.312  28.839  26.926  1.00  0.00     0.039 A 
ATOM     21  C   UNL A   1      34.118  27.335  26.387  1.00  0.00     0.039 A 
ATOM     22  C   UNL A   1      33.652  28.493  26.995  1.00  0.00     0.123 A 
ATOM     23  F   UNL A   1      34.508  29.285  27.652  1.00  0.00    -0.207 F 
ENDBRANCH   9  17
ENDBRANCH   6   9
ENDBRANCH   4   5
ENDBRANCH   3   4
ENDBRANCH   2   3
ENDBRANCH   1   2
BRANCH   1  24
ATOM     24  C   UNL A   1      35.547  22.256  24.193  1.00  0.00     0.021 C 
BRANCH  24  25
ATOM     25  C   UNL A   1      36.193  22.111  25.568  1.00  0.00     0.116 C 
BRANCH  25  26
ATOM     26  N   UNL A   1      37.116  20.985  25.605  1.00  0.00    -0.352 N 
ATOM     27  C   UNL A   1      38.478  20.987  25.769  1.00  0.00     0.251 C 
ATOM     28  H   UNL A   1      36.704  20.098  25.497  1.00  0.00     0.163 HD
ATOM     29  O   UNL A   1      39.129  19.978  25.516  1.00  0.00    -0.269 OA
BRANCH  27  30
ATOM     30  C   UNL A   1      39.157  22.209  26.250  1.00  0.00     0.039 A 
ATOM     31  C   UNL A   1      40.219  22.089  27.150  1.00  0.00     0.014 A 
ATOM     32  C   UNL A   1      38.732  23.471  25.826  1.00  0.00     0.014 A 
ATOM     33  C   UNL A   1      40.884  23.236  27.589  1.00  0.00     0.010 A 
ATOM     34  C   UNL A   1      39.441  24.605  26.207  1.00  0.00     0.010 A 
ATOM     35  C   UNL A   1      40.516  24.501  27.102  1.00  0.00    -0.014 A 
BRANCH  35  36
ATOM     36  C   UNL A   1      41.245  25.727  27.513  1.00  0.00     0.031 A 
ATOM     37  C   UNL A   1      40.542  26.797  28.305  1.00  0.00     0.074 A 
ATOM     38  C   UNL A   1      42.511  25.919  27.094  1.00  0.00     0.049 A 
ATOM     39  N   UNL A   1      40.996  27.956  28.709  1.00  0.00    -0.248 NA
ATOM     40  C   UNL A   1      39.138  26.545  28.667  1.00  0.00     0.031 C 
ATOM     41  C   UNL A   1      43.272  24.992  26.253  1.00  0.00     0.029 A 
ATOM     42  N   UNL A   1      43.371  26.968  27.294  1.00  0.00    -0.354 N 
ATOM     43  C   UNL A   1      39.927  28.585  29.334  1.00  0.00     0.074 A 
ATOM     44  C   UNL A   1      38.792  27.694  29.228  1.00  0.00     0.031 C 
ATOM     45  C   UNL A   1      44.487  25.511  26.015  1.00  0.00     0.029 A 
ATOM     46  C   UNL A   1      44.582  26.817  26.659  1.00  0.00     0.049 A 
ATOM     47  H   UNL A   1      43.145  27.755  27.840  1.00  0.00     0.167 HD
ATOM     48  C   UNL A   1      39.898  29.783  29.966  1.00  0.00     0.034 A 
ATOM     49  C   UNL A   1      45.647  27.639  26.598  1.00  0.00     0.034 A 
ATOM     50  C   UNL A   1      41.041  30.644  30.106  1.00  0.00     0.049 A 
ATOM     51  C   UNL A   1      45.605  28.946  27.343  1.00  0.00     0.074 A 
ATOM     52  C   UNL A   1      41.144  31.830  30.812  1.00  0.00     0.029 A 
ATOM     53  N   UNL A   1      42.278  30.419  29.520  1.00  0.00    -0.354 N 
ATOM     54  N   UNL A   1      44.639  29.448  28.073  1.00  0.00    -0.248 NA
ATOM     55  C   UNL A   1      46.812  29.783  27.286  1.00  0.00     0.031 C 
ATOM     56  C   UNL A   1      42.436  32.336  30.631  1.00  0.00     0.029 A 
ATOM     57  C   UNL A   1      43.146  31.450  29.835  1.00  0.00     0.049 A 
ATOM     58  H   UNL A   1      42.505  29.641  28.962  1.00  0.00     0.167 HD
ATOM     59  C   UNL A   1      45.132  30.640  28.592  1.00  0.00     0.074 A 
ATOM     60  C   UNL A   1      46.491  30.773  28.108  1.00  0.00     0.031 C 
ATOM     61  C   UNL A   1      44.512  31.547  29.387  1.00  0.00     0.034 A 
BRANCH  48  62
ATOM     62  C   UNL A   1      38.596  30.211  30.595  1.00  0.00     0.023 A 
ATOM     63  C   UNL A   1      38.251  29.731  31.876  1.00  0.00     0.012 A 
ATOM     64  C   UNL A   1      37.739  31.119  29.945  1.00  0.00     0.148 A 
ATOM     65  C   UNL A   1      37.055  30.114  32.481  1.00  0.00     0.002 A 
ATOM     66  C   UNL A   1      36.571  31.535  30.575  1.00  0.00     0.091 A 
ATOM     67  F   UNL A   1      38.072  31.549  28.719  1.00  0.00    -0.205 F 
ATOM     68  C   UNL A   1      36.221  31.023  31.835  1.00  0.00     0.022 A 
BRANCH  66  69
ATOM     69  S   UNL A   1      35.472  32.764  29.862  1.00  0.00     0.127 S 
ATOM     70  O   UNL A   1      35.070  32.113  28.615  1.00  0.00    -0.237 OA
ATOM     71  O   UNL A   1      34.415  32.854  30.870  1.00  0.00    -0.237 OA
ATOM     72  O   UNL A   1      36.269  33.973  29.711  1.00  0.00    -0.744 OA
ENDBRANCH  66  69
ENDBRANCH  48  62
BRANCH  49  73
ATOM     73  C   UNL A   1      46.871  27.213  25.864  1.00  0.00     0.023 A 
ATOM     74  C   UNL A   1      47.767  26.316  26.479  1.00  0.00     0.012 A 
ATOM     75  C   UNL A   1      47.133  27.652  24.552  1.00  0.00     0.148 A 
ATOM     76  C   UNL A   1      48.914  25.886  25.813  1.00  0.00     0.002 A 
ATOM     77  C   UNL A   1      48.249  27.177  23.872  1.00  0.00     0.091 A 
ATOM     78  F   UNL A   1      46.273  28.512  23.987  1.00  0.00    -0.205 F 
ATOM     79  C   UNL A   1      49.150  26.309  24.507  1.00  0.00     0.022 A 
BRANCH  77  80
ATOM     80  S   UNL A   1      48.563  27.559  22.145  1.00  0.00     0.127 S 
ATOM     81  O   UNL A   1      49.742  28.415  22.237  1.00  0.00    -0.237 OA
ATOM     82  O   UNL A   1      48.807  26.231  21.583  1.00  0.00    -0.237 OA
ATOM     83  O   UNL A   1      47.351  28.203  21.657  1.00  0.00    -0.744 OA
ENDBRANCH  77  80
ENDBRANCH  49  73
BRANCH  61  84
ATOM     84  C   UNL A   1      45.302  32.756  29.816  1.00  0.00     0.023 A 
ATOM     85  C   UNL A   1      46.078  32.706  30.991  1.00  0.00     0.012 A 
ATOM     86  C   UNL A   1      45.335  33.913  29.013  1.00  0.00     0.148 A 
ATOM     87  C   UNL A   1      46.849  33.802  31.378  1.00  0.00     0.002 A 
ATOM     88  C   UNL A   1      46.145  34.982  29.379  1.00  0.00     0.091 A 
ATOM     89  F   UNL A   1      44.576  33.948  27.910  1.00  0.00    -0.205 F 
ATOM     90  C   UNL A   1      46.892  34.934  30.566  1.00  0.00     0.022 A 
BRANCH  88  91
ATOM     91  S   UNL A   1      46.339  36.440  28.347  1.00  0.00     0.127 S 
ATOM     92  O   UNL A   1      47.346  37.198  29.087  1.00  0.00    -0.237 OA
ATOM     93  O   UNL A   1      46.811  35.867  27.085  1.00  0.00    -0.237 OA
ATOM     94  O   UNL A   1      45.021  37.057  28.272  1.00  0.00    -0.744 OA
ENDBRANCH  88  91
ENDBRANCH  61  84
ENDBRANCH  35  36
ENDBRANCH  27  30
ENDBRANCH  25  26
ENDBRANCH  24  25
ENDBRANCH   1  24
TORSDOF 19
ENDMDL
