MODEL 1
REMARK VINA RESULT:     -11.1      0.000      0.000
REMARK SMILES C[C@H]([NH2+][C@@H]1CC(=O)N(C)C1=O)[C@H](C)C(=O)NCCCCCCNC(=O)c1ccc(-c2c3nc(c(-c4cccc(S(=O)(=O)[O-])c4F)c4ccc([nH]4)c(-c4cccc(S(=O)(=O)[O-])c4F)c4nc(c(-c5cccc(S(=O)(=O)[O-])c5F)c5ccc2[nH]5)C=C4)C=C3)cc1
REMARK SMILES IDX 19 1 18 2 17 3 16 4 14 5 15 6 12 8 13 9 2 10 1 11 3 12 4 15
REMARK SMILES IDX 5 16 10 17 6 18 8 19 11 20 7 21 9 22 20 23 21 24 22 25 23 26
REMARK SMILES IDX 24 27 25 29 26 30 27 31 88 32 28 33 87 34 29 35 30 36 31 37
REMARK SMILES IDX 81 38 32 39 86 40 80 41 82 42 33 43 85 44 79 45 78 46 34 48
REMARK SMILES IDX 66 49 46 50 65 51 47 52 50 53 64 54 83 55 48 56 49 57 63 59
REMARK SMILES IDX 84 60 51 61 35 62 36 63 44 64 37 65 39 66 45 67 38 68 40 69
REMARK SMILES IDX 41 70 42 71 43 72 67 73 68 74 76 75 69 76 71 77 77 78 70 79
REMARK SMILES IDX 72 80 73 81 74 82 75 83 52 84 53 85 61 86 54 87 56 88 62 89
REMARK SMILES IDX 55 90 57 91 58 92 59 93 60 94
REMARK H PARENT 16 7 3 13 3 14 23 28 82 47 50 58
REMARK Flexibility Score: inf
ROOT
ATOM      1  C   UNL A   1      33.636  20.135  25.440  1.00  0.00     0.002 C 
ENDROOT
BRANCH   1   2
ATOM      2  C   UNL A   1      32.318  20.298  24.684  1.00  0.00     0.021 C 
BRANCH   2   3
ATOM      3  C   UNL A   1      31.768  21.717  24.706  1.00  0.00     0.116 C 
BRANCH   3   4
ATOM      4  N   UNL A   1      30.877  21.961  25.815  1.00  0.00    -0.356 N 
ATOM      5  C   UNL A   1      30.887  22.930  26.760  1.00  0.00     0.228 C 
ATOM      6  O   UNL A   1      29.898  22.988  27.503  1.00  0.00    -0.275 OA
ATOM      7  H   UNL A   1      30.138  21.316  25.898  1.00  0.00     0.163 HD
BRANCH   5   8
ATOM      8  C   UNL A   1      32.086  23.843  27.039  1.00  0.00     0.133 C 
ATOM      9  C   UNL A   1      33.211  22.984  27.620  1.00  0.00     0.024 C 
BRANCH   8  10
ATOM     10  C   UNL A   1      32.446  25.020  26.059  1.00  0.00     0.192 C 
ATOM     11  C   UNL A   1      33.966  25.007  25.796  1.00  0.00     0.076 C 
BRANCH  10  12
ATOM     12  N   UNL A   1      32.088  26.430  26.275  1.00  0.00    -0.333 N 
ATOM     13  H   UNL A   1      32.946  26.972  26.174  1.00  0.00     0.347 HD
ATOM     14  H   UNL A   1      31.646  26.426  27.194  1.00  0.00     0.347 HD
BRANCH  12  15
ATOM     15  C   UNL A   1      31.094  27.053  25.424  1.00  0.00     0.282 C 
ATOM     16  C   UNL A   1      29.969  26.227  24.839  1.00  0.00     0.176 C 
ATOM     17  C   UNL A   1      31.650  27.718  24.175  1.00  0.00     0.287 C 
ATOM     18  C   UNL A   1      29.476  27.199  23.797  1.00  0.00     0.235 C 
ATOM     19  N   UNL A   1      30.553  27.937  23.379  1.00  0.00    -0.280 N 
ATOM     20  O   UNL A   1      32.787  28.126  23.992  1.00  0.00    -0.267 OA
ATOM     21  O   UNL A   1      28.318  27.293  23.426  1.00  0.00    -0.274 OA
ATOM     22  C   UNL A   1      30.520  28.953  22.357  1.00  0.00     0.156 C 
ENDBRANCH  12  15
ENDBRANCH  10  12
ENDBRANCH   8  10
ENDBRANCH   5   8
ENDBRANCH   3   4
ENDBRANCH   2   3
ENDBRANCH   1   2
BRANCH   1  23
ATOM     23  C   UNL A   1      34.864  20.701  24.718  1.00  0.00     0.002 C 
BRANCH  23  24
ATOM     24  C   UNL A   1      35.826  21.500  25.603  1.00  0.00     0.021 C 
BRANCH  24  25
ATOM     25  C   UNL A   1      37.232  21.646  25.032  1.00  0.00     0.116 C 
BRANCH  25  26
ATOM     26  N   UNL A   1      38.092  20.542  25.434  1.00  0.00    -0.352 N 
ATOM     27  C   UNL A   1      39.333  20.580  26.017  1.00  0.00     0.251 C 
ATOM     28  H   UNL A   1      37.733  19.640  25.264  1.00  0.00     0.163 HD
ATOM     29  O   UNL A   1      40.023  19.566  26.073  1.00  0.00    -0.269 OA
BRANCH  27  30
ATOM     30  C   UNL A   1      39.832  21.854  26.567  1.00  0.00     0.039 A 
ATOM     31  C   UNL A   1      40.786  21.830  27.587  1.00  0.00     0.014 A 
ATOM     32  C   UNL A   1      39.367  23.071  26.060  1.00  0.00     0.014 A 
ATOM     33  C   UNL A   1      41.325  23.031  28.051  1.00  0.00     0.010 A 
ATOM     34  C   UNL A   1      39.957  24.259  26.472  1.00  0.00     0.010 A 
ATOM     35  C   UNL A   1      40.944  24.251  27.469  1.00  0.00    -0.014 A 
BRANCH  35  36
ATOM     36  C   UNL A   1      41.594  25.528  27.856  1.00  0.00     0.031 A 
ATOM     37  C   UNL A   1      40.809  26.597  28.562  1.00  0.00     0.074 A 
ATOM     38  C   UNL A   1      42.866  25.761  27.474  1.00  0.00     0.049 A 
ATOM     39  N   UNL A   1      41.180  27.803  28.902  1.00  0.00    -0.248 NA
ATOM     40  C   UNL A   1      39.413  26.279  28.910  1.00  0.00     0.031 C 
ATOM     41  C   UNL A   1      43.706  24.828  26.718  1.00  0.00     0.029 A 
ATOM     42  N   UNL A   1      43.663  26.866  27.637  1.00  0.00    -0.354 N 
ATOM     43  C   UNL A   1      40.062  28.400  29.471  1.00  0.00     0.074 A 
ATOM     44  C   UNL A   1      38.988  27.433  29.405  1.00  0.00     0.031 C 
ATOM     45  C   UNL A   1      44.897  25.399  26.483  1.00  0.00     0.029 A 
ATOM     46  C   UNL A   1      44.893  26.751  27.033  1.00  0.00     0.049 A 
ATOM     47  H   UNL A   1      43.382  27.665  28.139  1.00  0.00     0.167 HD
ATOM     48  C   UNL A   1      39.948  29.632  30.019  1.00  0.00     0.034 A 
ATOM     49  C   UNL A   1      45.898  27.641  26.914  1.00  0.00     0.034 A 
ATOM     50  C   UNL A   1      41.028  30.578  30.106  1.00  0.00     0.049 A 
ATOM     51  C   UNL A   1      45.747  29.000  27.541  1.00  0.00     0.074 A 
ATOM     52  C   UNL A   1      41.038  31.815  30.723  1.00  0.00     0.029 A 
ATOM     53  N   UNL A   1      42.283  30.401  29.545  1.00  0.00    -0.354 N 
ATOM     54  N   UNL A   1      44.737  29.487  28.219  1.00  0.00    -0.248 NA
ATOM     55  C   UNL A   1      46.883  29.923  27.411  1.00  0.00     0.031 C 
ATOM     56  C   UNL A   1      42.287  32.403  30.501  1.00  0.00     0.029 A 
ATOM     57  C   UNL A   1      43.069  31.516  29.780  1.00  0.00     0.049 A 
ATOM     58  H   UNL A   1      42.573  29.599  29.051  1.00  0.00     0.167 HD
ATOM     59  C   UNL A   1      45.126  30.759  28.623  1.00  0.00     0.074 A 
ATOM     60  C   UNL A   1      46.474  30.957  28.133  1.00  0.00     0.031 C 
ATOM     61  C   UNL A   1      44.425  31.684  29.324  1.00  0.00     0.034 A 
BRANCH  48  62
ATOM     62  C   UNL A   1      38.614  30.020  30.604  1.00  0.00     0.023 A 
ATOM     63  C   UNL A   1      38.293  29.638  31.923  1.00  0.00     0.012 A 
ATOM     64  C   UNL A   1      37.708  30.816  29.875  1.00  0.00     0.148 A 
ATOM     65  C   UNL A   1      37.077  30.012  32.494  1.00  0.00     0.002 A 
ATOM     66  C   UNL A   1      36.519  31.223  30.469  1.00  0.00     0.091 A 
ATOM     67  F   UNL A   1      38.022  31.152  28.616  1.00  0.00    -0.205 F 
ATOM     68  C   UNL A   1      36.196  30.812  31.772  1.00  0.00     0.022 A 
BRANCH  66  69
ATOM     69  S   UNL A   1      35.354  32.321  29.652  1.00  0.00     0.127 S 
ATOM     70  O   UNL A   1      34.954  31.518  28.497  1.00  0.00    -0.237 OA
ATOM     71  O   UNL A   1      34.317  32.479  30.672  1.00  0.00    -0.237 OA
ATOM     72  O   UNL A   1      36.093  33.535  29.341  1.00  0.00    -0.744 OA
ENDBRANCH  66  69
ENDBRANCH  48  62
BRANCH  49  73
ATOM     73  C   UNL A   1      47.153  27.258  26.206  1.00  0.00     0.023 A 
ATOM     74  C   UNL A   1      47.329  27.629  24.860  1.00  0.00     0.012 A 
ATOM     75  C   UNL A   1      48.180  26.552  26.864  1.00  0.00     0.148 A 
ATOM     76  C   UNL A   1      48.490  27.277  24.171  1.00  0.00     0.002 A 
ATOM     77  C   UNL A   1      49.357  26.253  26.189  1.00  0.00     0.091 A 
ATOM     78  F   UNL A   1      47.988  26.199  28.142  1.00  0.00    -0.205 F 
ATOM     79  C   UNL A   1      49.507  26.598  24.837  1.00  0.00     0.022 A 
BRANCH  77  80
ATOM     80  S   UNL A   1      50.770  25.497  27.000  1.00  0.00     0.127 S 
ATOM     81  O   UNL A   1      51.171  26.543  27.937  1.00  0.00    -0.237 OA
ATOM     82  O   UNL A   1      50.166  24.315  27.616  1.00  0.00    -0.237 OA
ATOM     83  O   UNL A   1      51.723  25.201  25.938  1.00  0.00    -0.744 OA
ENDBRANCH  77  80
ENDBRANCH  49  73
BRANCH  61  84
ATOM     84  C   UNL A   1      45.107  32.991  29.636  1.00  0.00     0.023 A 
ATOM     85  C   UNL A   1      45.876  33.118  30.809  1.00  0.00     0.012 A 
ATOM     86  C   UNL A   1      45.054  34.063  28.724  1.00  0.00     0.148 A 
ATOM     87  C   UNL A   1      46.558  34.303  31.085  1.00  0.00     0.002 A 
ATOM     88  C   UNL A   1      45.777  35.222  28.979  1.00  0.00     0.091 A 
ATOM     89  F   UNL A   1      44.303  33.927  27.620  1.00  0.00    -0.205 F 
ATOM     90  C   UNL A   1      46.520  35.347  30.164  1.00  0.00     0.022 A 
BRANCH  88  91
ATOM     91  S   UNL A   1      45.869  36.582  27.810  1.00  0.00     0.127 S 
ATOM     92  O   UNL A   1      44.612  37.282  28.068  1.00  0.00    -0.237 OA
ATOM     93  O   UNL A   1      47.066  37.294  28.259  1.00  0.00    -0.237 OA
ATOM     94  O   UNL A   1      45.982  35.976  26.490  1.00  0.00    -0.744 OA
ENDBRANCH  88  91
ENDBRANCH  61  84
ENDBRANCH  35  36
ENDBRANCH  27  30
ENDBRANCH  25  26
ENDBRANCH  24  25
ENDBRANCH  23  24
ENDBRANCH   1  23
TORSDOF 19
ENDMDL
MODEL 2
REMARK VINA RESULT:     -11.0      2.162      3.877
REMARK SMILES C[C@H]([NH2+][C@@H]1CC(=O)N(C)C1=O)[C@H](C)C(=O)NCCCCCCNC(=O)c1ccc(-c2c3nc(c(-c4cccc(S(=O)(=O)[O-])c4F)c4ccc([nH]4)c(-c4cccc(S(=O)(=O)[O-])c4F)c4nc(c(-c5cccc(S(=O)(=O)[O-])c5F)c5ccc2[nH]5)C=C4)C=C3)cc1
REMARK SMILES IDX 19 1 18 2 17 3 16 4 14 5 15 6 12 8 13 9 2 10 1 11 3 12 4 15
REMARK SMILES IDX 5 16 10 17 6 18 8 19 11 20 7 21 9 22 20 23 21 24 22 25 23 26
REMARK SMILES IDX 24 27 25 29 26 30 27 31 88 32 28 33 87 34 29 35 30 36 31 37
REMARK SMILES IDX 81 38 32 39 86 40 80 41 82 42 33 43 85 44 79 45 78 46 34 48
REMARK SMILES IDX 66 49 46 50 65 51 47 52 50 53 64 54 83 55 48 56 49 57 63 59
REMARK SMILES IDX 84 60 51 61 35 62 36 63 44 64 37 65 39 66 45 67 38 68 40 69
REMARK SMILES IDX 41 70 42 71 43 72 67 73 68 74 76 75 69 76 71 77 77 78 70 79
REMARK SMILES IDX 72 80 73 81 74 82 75 83 52 84 53 85 61 86 54 87 56 88 62 89
REMARK SMILES IDX 55 90 57 91 58 92 59 93 60 94
REMARK H PARENT 16 7 3 13 3 14 23 28 82 47 50 58
REMARK Flexibility Score: inf
ROOT
ATOM      1  C   UNL A   1      36.552  22.715  25.645  1.00  0.00     0.002 C 
ENDROOT
BRANCH   1   2
ATOM      2  C   UNL A   1      35.926  24.040  25.212  1.00  0.00     0.021 C 
BRANCH   2   3
ATOM      3  C   UNL A   1      34.544  24.288  25.797  1.00  0.00     0.116 C 
BRANCH   3   4
ATOM      4  N   UNL A   1      33.751  25.204  25.011  1.00  0.00    -0.356 N 
ATOM      5  C   UNL A   1      32.786  24.972  24.091  1.00  0.00     0.228 C 
ATOM      6  O   UNL A   1      32.158  25.960  23.686  1.00  0.00    -0.275 OA
ATOM      7  H   UNL A   1      33.945  26.156  25.171  1.00  0.00     0.163 HD
BRANCH   5   8
ATOM      8  C   UNL A   1      32.531  23.608  23.441  1.00  0.00     0.133 C 
ATOM      9  C   UNL A   1      33.701  23.304  22.502  1.00  0.00     0.024 C 
BRANCH   8  10
ATOM     10  C   UNL A   1      31.881  22.434  24.262  1.00  0.00     0.192 C 
ATOM     11  C   UNL A   1      30.926  23.028  25.318  1.00  0.00     0.076 C 
BRANCH  10  12
ATOM     12  N   UNL A   1      32.634  21.375  24.951  1.00  0.00    -0.333 N 
ATOM     13  H   UNL A   1      32.118  21.150  25.802  1.00  0.00     0.347 HD
ATOM     14  H   UNL A   1      33.564  21.778  25.064  1.00  0.00     0.347 HD
BRANCH  12  15
ATOM     15  C   UNL A   1      32.890  20.121  24.272  1.00  0.00     0.282 C 
ATOM     16  C   UNL A   1      32.131  19.773  23.009  1.00  0.00     0.176 C 
ATOM     17  C   UNL A   1      32.644  18.878  25.113  1.00  0.00     0.287 C 
ATOM     18  C   UNL A   1      32.465  18.305  22.927  1.00  0.00     0.235 C 
ATOM     19  N   UNL A   1      32.621  17.845  24.209  1.00  0.00    -0.280 N 
ATOM     20  O   UNL A   1      32.644  18.792  26.331  1.00  0.00    -0.267 OA
ATOM     21  O   UNL A   1      32.581  17.674  21.889  1.00  0.00    -0.274 OA
ATOM     22  C   UNL A   1      32.906  16.480  24.576  1.00  0.00     0.156 C 
ENDBRANCH  12  15
ENDBRANCH  10  12
ENDBRANCH   8  10
ENDBRANCH   5   8
ENDBRANCH   3   4
ENDBRANCH   2   3
ENDBRANCH   1   2
BRANCH   1  23
ATOM     23  C   UNL A   1      36.482  21.601  24.595  1.00  0.00     0.002 C 
BRANCH  23  24
ATOM     24  C   UNL A   1      37.546  20.508  24.738  1.00  0.00     0.021 C 
BRANCH  24  25
ATOM     25  C   UNL A   1      38.612  20.801  25.789  1.00  0.00     0.116 C 
BRANCH  25  26
ATOM     26  N   UNL A   1      39.564  19.706  25.909  1.00  0.00    -0.352 N 
ATOM     27  C   UNL A   1      40.924  19.757  26.076  1.00  0.00     0.251 C 
ATOM     28  H   UNL A   1      39.177  18.801  25.864  1.00  0.00     0.163 HD
ATOM     29  O   UNL A   1      41.606  18.748  25.919  1.00  0.00    -0.269 OA
BRANCH  27  30
ATOM     30  C   UNL A   1      41.560  21.038  26.436  1.00  0.00     0.039 A 
ATOM     31  C   UNL A   1      42.114  21.832  25.430  1.00  0.00     0.014 A 
ATOM     32  C   UNL A   1      41.588  21.459  27.769  1.00  0.00     0.014 A 
ATOM     33  C   UNL A   1      42.639  23.084  25.755  1.00  0.00     0.010 A 
ATOM     34  C   UNL A   1      42.045  22.734  28.078  1.00  0.00     0.010 A 
ATOM     35  C   UNL A   1      42.571  23.561  27.074  1.00  0.00    -0.014 A 
BRANCH  35  36
ATOM     36  C   UNL A   1      43.006  24.937  27.422  1.00  0.00     0.031 A 
ATOM     37  C   UNL A   1      42.039  25.904  28.045  1.00  0.00     0.074 A 
ATOM     38  C   UNL A   1      44.244  25.343  27.077  1.00  0.00     0.049 A 
ATOM     39  N   UNL A   1      42.211  27.166  28.340  1.00  0.00    -0.248 NA
ATOM     40  C   UNL A   1      40.693  25.393  28.356  1.00  0.00     0.031 C 
ATOM     41  C   UNL A   1      45.246  24.516  26.400  1.00  0.00     0.029 A 
ATOM     42  N   UNL A   1      44.860  26.561  27.216  1.00  0.00    -0.354 N 
ATOM     43  C   UNL A   1      40.992  27.610  28.836  1.00  0.00     0.074 A 
ATOM     44  C   UNL A   1      40.079  26.491  28.778  1.00  0.00     0.031 C 
ATOM     45  C   UNL A   1      46.348  25.250  26.181  1.00  0.00     0.029 A 
ATOM     46  C   UNL A   1      46.119  26.608  26.664  1.00  0.00     0.049 A 
ATOM     47  H   UNL A   1      44.440  27.330  27.667  1.00  0.00     0.167 HD
ATOM     48  C   UNL A   1      40.671  28.834  29.319  1.00  0.00     0.034 A 
ATOM     49  C   UNL A   1      46.984  27.633  26.540  1.00  0.00     0.034 A 
ATOM     50  C   UNL A   1      41.593  29.934  29.401  1.00  0.00     0.049 A 
ATOM     51  C   UNL A   1      46.603  28.980  27.093  1.00  0.00     0.074 A 
ATOM     52  C   UNL A   1      41.391  31.185  29.956  1.00  0.00     0.029 A 
ATOM     53  N   UNL A   1      42.884  29.925  28.896  1.00  0.00    -0.354 N 
ATOM     54  N   UNL A   1      45.503  29.337  27.709  1.00  0.00    -0.248 NA
ATOM     55  C   UNL A   1      47.594  30.057  26.961  1.00  0.00     0.031 C 
ATOM     56  C   UNL A   1      42.547  31.945  29.752  1.00  0.00     0.029 A 
ATOM     57  C   UNL A   1      43.484  31.156  29.105  1.00  0.00     0.049 A 
ATOM     58  H   UNL A   1      43.312  29.156  28.452  1.00  0.00     0.167 HD
ATOM     59  C   UNL A   1      45.680  30.669  28.064  1.00  0.00     0.074 A 
ATOM     60  C   UNL A   1      47.004  31.048  27.616  1.00  0.00     0.031 C 
ATOM     61  C   UNL A   1      44.819  31.507  28.692  1.00  0.00     0.034 A 
BRANCH  48  62
ATOM     62  C   UNL A   1      39.271  29.040  29.834  1.00  0.00     0.023 A 
ATOM     63  C   UNL A   1      38.949  28.661  31.154  1.00  0.00     0.012 A 
ATOM     64  C   UNL A   1      38.291  29.667  29.038  1.00  0.00     0.148 A 
ATOM     65  C   UNL A   1      37.667  28.870  31.661  1.00  0.00     0.002 A 
ATOM     66  C   UNL A   1      37.030  29.915  29.567  1.00  0.00     0.091 A 
ATOM     67  F   UNL A   1      38.610  30.003  27.780  1.00  0.00    -0.205 F 
ATOM     68  C   UNL A   1      36.712  29.506  30.872  1.00  0.00     0.022 A 
BRANCH  66  69
ATOM     69  S   UNL A   1      35.755  30.799  28.660  1.00  0.00     0.127 S 
ATOM     70  O   UNL A   1      34.973  31.384  29.748  1.00  0.00    -0.237 OA
ATOM     71  O   UNL A   1      36.541  31.761  27.889  1.00  0.00    -0.237 OA
ATOM     72  O   UNL A   1      35.061  29.799  27.862  1.00  0.00    -0.744 OA
ENDBRANCH  66  69
ENDBRANCH  48  62
BRANCH  49  73
ATOM     73  C   UNL A   1      48.312  27.415  25.899  1.00  0.00     0.023 A 
ATOM     74  C   UNL A   1      49.408  27.029  26.692  1.00  0.00     0.012 A 
ATOM     75  C   UNL A   1      48.488  27.562  24.508  1.00  0.00     0.148 A 
ATOM     76  C   UNL A   1      50.665  26.825  26.120  1.00  0.00     0.002 A 
ATOM     77  C   UNL A   1      49.727  27.303  23.937  1.00  0.00     0.091 A 
ATOM     78  F   UNL A   1      47.434  27.939  23.772  1.00  0.00    -0.205 F 
ATOM     79  C   UNL A   1      50.822  26.953  24.742  1.00  0.00     0.022 A 
BRANCH  77  80
ATOM     80  S   UNL A   1      49.993  27.316  22.160  1.00  0.00     0.127 S 
ATOM     81  O   UNL A   1      49.756  28.720  21.833  1.00  0.00    -0.237 OA
ATOM     82  O   UNL A   1      51.388  26.887  22.061  1.00  0.00    -0.237 OA
ATOM     83  O   UNL A   1      49.032  26.369  21.610  1.00  0.00    -0.744 OA
ENDBRANCH  77  80
ENDBRANCH  49  73
BRANCH  61  84
ATOM     84  C   UNL A   1      45.283  32.914  28.965  1.00  0.00     0.023 A 
ATOM     85  C   UNL A   1      46.036  33.191  30.123  1.00  0.00     0.012 A 
ATOM     86  C   UNL A   1      45.046  33.941  28.031  1.00  0.00     0.148 A 
ATOM     87  C   UNL A   1      46.520  34.477  30.362  1.00  0.00     0.002 A 
ATOM     88  C   UNL A   1      45.576  35.207  28.250  1.00  0.00     0.091 A 
ATOM     89  F   UNL A   1      44.315  33.659  26.942  1.00  0.00    -0.205 F 
ATOM     90  C   UNL A   1      46.302  35.479  29.419  1.00  0.00     0.022 A 
BRANCH  88  91
ATOM     91  S   UNL A   1      45.432  36.536  27.050  1.00  0.00     0.127 S 
ATOM     92  O   UNL A   1      46.026  37.658  27.775  1.00  0.00    -0.237 OA
ATOM     93  O   UNL A   1      46.237  36.035  25.936  1.00  0.00    -0.237 OA
ATOM     94  O   UNL A   1      44.010  36.668  26.760  1.00  0.00    -0.744 OA
ENDBRANCH  88  91
ENDBRANCH  61  84
ENDBRANCH  35  36
ENDBRANCH  27  30
ENDBRANCH  25  26
ENDBRANCH  24  25
ENDBRANCH  23  24
ENDBRANCH   1  23
TORSDOF 19
ENDMDL
MODEL 3
REMARK VINA RESULT:     -11.0      2.388      8.607
REMARK SMILES C[C@H]([NH2+][C@@H]1CC(=O)N(C)C1=O)[C@H](C)C(=O)NCCCCCCNC(=O)c1ccc(-c2c3nc(c(-c4cccc(S(=O)(=O)[O-])c4F)c4ccc([nH]4)c(-c4cccc(S(=O)(=O)[O-])c4F)c4nc(c(-c5cccc(S(=O)(=O)[O-])c5F)c5ccc2[nH]5)C=C4)C=C3)cc1
REMARK SMILES IDX 19 1 18 2 17 3 16 4 14 5 15 6 12 8 13 9 2 10 1 11 3 12 4 15
REMARK SMILES IDX 5 16 10 17 6 18 8 19 11 20 7 21 9 22 20 23 21 24 22 25 23 26
REMARK SMILES IDX 24 27 25 29 26 30 27 31 88 32 28 33 87 34 29 35 30 36 31 37
REMARK SMILES IDX 81 38 32 39 86 40 80 41 82 42 33 43 85 44 79 45 78 46 34 48
REMARK SMILES IDX 66 49 46 50 65 51 47 52 50 53 64 54 83 55 48 56 49 57 63 59
REMARK SMILES IDX 84 60 51 61 35 62 36 63 44 64 37 65 39 66 45 67 38 68 40 69
REMARK SMILES IDX 41 70 42 71 43 72 67 73 68 74 76 75 69 76 71 77 77 78 70 79
REMARK SMILES IDX 72 80 73 81 74 82 75 83 52 84 53 85 61 86 54 87 56 88 62 89
REMARK SMILES IDX 55 90 57 91 58 92 59 93 60 94
REMARK H PARENT 16 7 3 13 3 14 23 28 82 47 50 58
REMARK Flexibility Score: inf
ROOT
ATOM      1  C   UNL A   1      37.454  22.420  25.453  1.00  0.00     0.002 C 
ENDROOT
BRANCH   1   2
ATOM      2  C   UNL A   1      36.195  23.134  25.946  1.00  0.00     0.021 C 
BRANCH   2   3
ATOM      3  C   UNL A   1      34.977  22.229  26.056  1.00  0.00     0.116 C 
BRANCH   3   4
ATOM      4  N   UNL A   1      33.921  22.796  26.862  1.00  0.00    -0.356 N 
ATOM      5  C   UNL A   1      32.579  22.801  26.684  1.00  0.00     0.228 C 
ATOM      6  O   UNL A   1      31.898  23.228  27.626  1.00  0.00    -0.275 OA
ATOM      7  H   UNL A   1      34.229  23.254  27.677  1.00  0.00     0.163 HD
BRANCH   5   8
ATOM      8  C   UNL A   1      31.889  22.447  25.363  1.00  0.00     0.133 C 
ATOM      9  C   UNL A   1      31.252  23.721  24.803  1.00  0.00     0.024 C 
BRANCH   8  10
ATOM     10  C   UNL A   1      32.533  21.411  24.370  1.00  0.00     0.192 C 
ATOM     11  C   UNL A   1      32.691  22.074  22.985  1.00  0.00     0.076 C 
BRANCH  10  12
ATOM     12  N   UNL A   1      32.012  20.061  24.111  1.00  0.00    -0.333 N 
ATOM     13  H   UNL A   1      31.455  20.116  23.258  1.00  0.00     0.347 HD
ATOM     14  H   UNL A   1      31.520  19.826  24.973  1.00  0.00     0.347 HD
BRANCH  12  15
ATOM     15  C   UNL A   1      32.937  18.958  23.939  1.00  0.00     0.282 C 
ATOM     16  C   UNL A   1      32.842  18.072  22.716  1.00  0.00     0.176 C 
ATOM     17  C   UNL A   1      32.909  17.924  25.053  1.00  0.00     0.287 C 
ATOM     18  C   UNL A   1      33.713  16.931  23.180  1.00  0.00     0.235 C 
ATOM     19  N   UNL A   1      33.586  16.843  24.542  1.00  0.00    -0.280 N 
ATOM     20  O   UNL A   1      32.528  18.078  26.203  1.00  0.00    -0.267 OA
ATOM     21  O   UNL A   1      34.403  16.240  22.449  1.00  0.00    -0.274 OA
ATOM     22  C   UNL A   1      34.223  15.855  25.376  1.00  0.00     0.156 C 
ENDBRANCH  12  15
ENDBRANCH  10  12
ENDBRANCH   8  10
ENDBRANCH   5   8
ENDBRANCH   3   4
ENDBRANCH   2   3
ENDBRANCH   1   2
BRANCH   1  23
ATOM     23  C   UNL A   1      37.190  21.137  24.656  1.00  0.00     0.002 C 
BRANCH  23  24
ATOM     24  C   UNL A   1      38.115  19.964  24.993  1.00  0.00     0.021 C 
BRANCH  24  25
ATOM     25  C   UNL A   1      39.108  20.247  26.115  1.00  0.00     0.116 C 
BRANCH  25  26
ATOM     26  N   UNL A   1      40.179  19.261  26.147  1.00  0.00    -0.352 N 
ATOM     27  C   UNL A   1      41.536  19.456  26.126  1.00  0.00     0.251 C 
ATOM     28  H   UNL A   1      39.888  18.320  26.190  1.00  0.00     0.163 HD
ATOM     29  O   UNL A   1      42.295  18.514  25.917  1.00  0.00    -0.269 OA
BRANCH  27  30
ATOM     30  C   UNL A   1      42.073  20.812  26.348  1.00  0.00     0.039 A 
ATOM     31  C   UNL A   1      42.292  21.648  25.251  1.00  0.00     0.014 A 
ATOM     32  C   UNL A   1      42.342  21.259  27.645  1.00  0.00     0.014 A 
ATOM     33  C   UNL A   1      42.718  22.960  25.462  1.00  0.00     0.010 A 
ATOM     34  C   UNL A   1      42.695  22.586  27.856  1.00  0.00     0.010 A 
ATOM     35  C   UNL A   1      42.883  23.450  26.768  1.00  0.00    -0.014 A 
BRANCH  35  36
ATOM     36  C   UNL A   1      43.211  24.875  27.022  1.00  0.00     0.031 A 
ATOM     37  C   UNL A   1      44.591  25.400  26.739  1.00  0.00     0.074 A 
ATOM     38  C   UNL A   1      42.292  25.668  27.608  1.00  0.00     0.049 A 
ATOM     39  N   UNL A   1      45.085  26.587  26.974  1.00  0.00    -0.248 NA
ATOM     40  C   UNL A   1      45.550  24.460  26.133  1.00  0.00     0.031 C 
ATOM     41  C   UNL A   1      40.943  25.250  27.999  1.00  0.00     0.029 A 
ATOM     42  N   UNL A   1      42.362  26.978  28.010  1.00  0.00    -0.354 N 
ATOM     43  C   UNL A   1      46.416  26.529  26.581  1.00  0.00     0.074 A 
ATOM     44  C   UNL A   1      46.662  25.182  26.117  1.00  0.00     0.031 C 
ATOM     45  C   UNL A   1      40.315  26.281  28.585  1.00  0.00     0.029 A 
ATOM     46  C   UNL A   1      41.226  27.419  28.648  1.00  0.00     0.049 A 
ATOM     47  H   UNL A   1      43.150  27.548  27.856  1.00  0.00     0.167 HD
ATOM     48  C   UNL A   1      47.342  27.517  26.583  1.00  0.00     0.034 A 
ATOM     49  C   UNL A   1      40.956  28.600  29.239  1.00  0.00     0.034 A 
ATOM     50  C   UNL A   1      47.083  28.862  27.020  1.00  0.00     0.049 A 
ATOM     51  C   UNL A   1      42.001  29.682  29.219  1.00  0.00     0.074 A 
ATOM     52  C   UNL A   1      47.927  29.957  26.977  1.00  0.00     0.029 A 
ATOM     53  N   UNL A   1      45.898  29.294  27.596  1.00  0.00    -0.354 N 
ATOM     54  N   UNL A   1      43.201  29.659  28.694  1.00  0.00    -0.248 NA
ATOM     55  C   UNL A   1      41.645  30.962  29.848  1.00  0.00     0.031 C 
ATOM     56  C   UNL A   1      47.266  31.041  27.564  1.00  0.00     0.029 A 
ATOM     57  C   UNL A   1      45.996  30.632  27.936  1.00  0.00     0.049 A 
ATOM     58  H   UNL A   1      45.103  28.730  27.743  1.00  0.00     0.167 HD
ATOM     59  C   UNL A   1      43.732  30.927  28.901  1.00  0.00     0.074 A 
ATOM     60  C   UNL A   1      42.713  31.701  29.579  1.00  0.00     0.031 C 
ATOM     61  C   UNL A   1      44.958  31.403  28.572  1.00  0.00     0.034 A 
BRANCH  48  62
ATOM     62  C   UNL A   1      48.719  27.191  26.065  1.00  0.00     0.023 A 
ATOM     63  C   UNL A   1      49.640  26.525  26.900  1.00  0.00     0.012 A 
ATOM     64  C   UNL A   1      49.079  27.483  24.734  1.00  0.00     0.148 A 
ATOM     65  C   UNL A   1      50.909  26.187  26.430  1.00  0.00     0.002 A 
ATOM     66  C   UNL A   1      50.328  27.100  24.260  1.00  0.00     0.091 A 
ATOM     67  F   UNL A   1      48.197  28.133  23.961  1.00  0.00    -0.205 F 
ATOM     68  C   UNL A   1      51.248  26.465  25.109  1.00  0.00     0.022 A 
BRANCH  66  69
ATOM     69  S   UNL A   1      50.832  27.340  22.552  1.00  0.00     0.127 S 
ATOM     70  O   UNL A   1      49.742  26.687  21.829  1.00  0.00    -0.237 OA
ATOM     71  O   UNL A   1      50.849  28.798  22.440  1.00  0.00    -0.237 OA
ATOM     72  O   UNL A   1      52.135  26.704  22.422  1.00  0.00    -0.744 OA
ENDBRANCH  66  69
ENDBRANCH  48  62
BRANCH  49  73
ATOM     73  C   UNL A   1      39.621  28.833  29.862  1.00  0.00     0.023 A 
ATOM     74  C   UNL A   1      39.373  28.358  31.164  1.00  0.00     0.012 A 
ATOM     75  C   UNL A   1      38.609  29.540  29.184  1.00  0.00     0.148 A 
ATOM     76  C   UNL A   1      38.131  28.555  31.768  1.00  0.00     0.002 A 
ATOM     77  C   UNL A   1      37.394  29.782  29.813  1.00  0.00     0.091 A 
ATOM     78  F   UNL A   1      38.862  29.975  27.942  1.00  0.00    -0.205 F 
ATOM     79  C   UNL A   1      37.146  29.275  31.097  1.00  0.00     0.022 A 
BRANCH  77  80
ATOM     80  S   UNL A   1      36.114  30.808  29.080  1.00  0.00     0.127 S 
ATOM     81  O   UNL A   1      36.905  31.816  28.378  1.00  0.00    -0.237 OA
ATOM     82  O   UNL A   1      35.423  29.853  28.213  1.00  0.00    -0.237 OA
ATOM     83  O   UNL A   1      35.313  31.296  30.194  1.00  0.00    -0.744 OA
ENDBRANCH  77  80
ENDBRANCH  49  73
BRANCH  61  84
ATOM     84  C   UNL A   1      45.267  32.839  28.910  1.00  0.00     0.023 A 
ATOM     85  C   UNL A   1      45.870  33.154  30.144  1.00  0.00     0.012 A 
ATOM     86  C   UNL A   1      45.039  33.862  27.970  1.00  0.00     0.148 A 
ATOM     87  C   UNL A   1      46.213  34.471  30.449  1.00  0.00     0.002 A 
ATOM     88  C   UNL A   1      45.431  35.163  28.259  1.00  0.00     0.091 A 
ATOM     89  F   UNL A   1      44.451  33.542  26.808  1.00  0.00    -0.205 F 
ATOM     90  C   UNL A   1      46.007  35.471  29.502  1.00  0.00     0.022 A 
BRANCH  88  91
ATOM     91  S   UNL A   1      45.295  36.501  27.068  1.00  0.00     0.127 S 
ATOM     92  O   UNL A   1      43.849  36.584  26.876  1.00  0.00    -0.237 OA
ATOM     93  O   UNL A   1      45.878  37.626  27.801  1.00  0.00    -0.237 OA
ATOM     94  O   UNL A   1      46.054  36.080  25.898  1.00  0.00    -0.744 OA
ENDBRANCH  88  91
ENDBRANCH  61  84
ENDBRANCH  35  36
ENDBRANCH  27  30
ENDBRANCH  25  26
ENDBRANCH  24  25
ENDBRANCH  23  24
ENDBRANCH   1  23
TORSDOF 19
ENDMDL
