MODEL 1
REMARK VINA RESULT:     -10.0      0.000      0.000
REMARK SMILES NS(=O)(=O)c1ccc(-n2nc(NC(=O)NCCCCCCCCCCC(=O)NCCCCCCNC(=O)c3ccc(-c4c5nc(c(-c6cccc(S(=O)(=O)[O-])c6F)c6ccc([nH]6)c(-c6cccc(S(=O)(=O)[O-])c6F)c6nc(c(-c7cccc(S(=O)(=O)[O-])c7F)c7ccc4[nH]7)C=C6)C=C5)cc3)cc2-c2ccccc2)cc1
REMARK SMILES IDX 24 1 23 2 22 3 21 4 20 5 19 6 18 7 17 8 16 9 15 10 12 11
REMARK SMILES IDX 13 12 14 14 11 16 9 17 10 18 102 19 101 20 8 21 5 22 6 23
REMARK SMILES IDX 110 24 7 25 109 26 2 27 3 28 4 29 1 30 103 33 104 34 108 35
REMARK SMILES IDX 105 36 107 37 106 38 25 39 26 40 27 41 28 42 29 44 30 45
REMARK SMILES IDX 31 46 32 47 33 48 34 49 35 50 36 51 37 53 38 54 39 55 100 56
REMARK SMILES IDX 40 57 99 58 41 59 42 60 43 61 93 62 44 63 98 64 92 65 94 66
REMARK SMILES IDX 45 67 97 68 91 69 90 70 46 72 78 73 58 74 77 75 59 76 62 77
REMARK SMILES IDX 76 78 95 79 60 80 61 81 75 83 96 84 63 85 47 86 48 87 56 88
REMARK SMILES IDX 49 89 51 90 57 91 50 92 52 93 53 94 54 95 55 96 79 97 80 98
REMARK SMILES IDX 88 99 81 100 83 101 89 102 82 103 84 104 85 105 86 106
REMARK SMILES IDX 87 107 64 108 65 109 73 110 66 111 68 112 74 113 67 114
REMARK SMILES IDX 69 115 70 116 71 117 72 118
REMARK H PARENT 12 13 15 15 1 31 1 32 28 43 35 52 94 71 62 82
REMARK Flexibility Score: inf
ROOT
ATOM      1  C   UNL A   1      31.491  22.447  27.264  1.00  0.00     0.010 C 
ENDROOT
BRANCH   1   2
ATOM      2  C   UNL A   1      30.405  23.246  26.544  1.00  0.00     0.001 C 
BRANCH   2   3
ATOM      3  C   UNL A   1      30.815  23.848  25.193  1.00  0.00     0.000 C 
BRANCH   3   4
ATOM      4  C   UNL A   1      30.540  25.333  25.075  1.00  0.00     0.000 C 
BRANCH   4   5
ATOM      5  C   UNL A   1      29.063  25.701  25.168  1.00  0.00     0.000 C 
BRANCH   5   6
ATOM      6  C   UNL A   1      28.481  26.501  23.999  1.00  0.00     0.000 C 
BRANCH   6   7
ATOM      7  C   UNL A   1      27.093  27.114  24.218  1.00  0.00     0.002 C 
BRANCH   7   8
ATOM      8  C   UNL A   1      26.775  28.386  23.435  1.00  0.00     0.021 C 
BRANCH   8   9
ATOM      9  C   UNL A   1      27.765  28.775  22.349  1.00  0.00     0.117 C 
BRANCH   9  10
ATOM     10  N   UNL A   1      27.413  29.921  21.563  1.00  0.00    -0.338 N 
ATOM     11  N   UNL A   1      29.265  31.369  22.010  1.00  0.00    -0.291 N 
ATOM     12  C   UNL A   1      28.076  31.091  21.425  1.00  0.00     0.320 C 
ATOM     13  H   UNL A   1      29.497  32.326  21.971  1.00  0.00     0.173 HD
ATOM     14  O   UNL A   1      27.457  32.006  20.865  1.00  0.00    -0.248 OA
ATOM     15  H   UNL A   1      26.574  29.846  21.054  1.00  0.00     0.165 HD
BRANCH  11  16
ATOM     16  C   UNL A   1      30.225  30.607  22.648  1.00  0.00     0.157 A 
ATOM     17  N   UNL A   1      31.544  28.996  23.106  1.00  0.00    -0.231 N 
ATOM     18  N   UNL A   1      31.033  29.707  22.090  1.00  0.00    -0.149 NA
ATOM     19  C   UNL A   1      31.343  29.630  24.326  1.00  0.00     0.076 A 
ATOM     20  C   UNL A   1      30.480  30.677  24.042  1.00  0.00     0.078 A 
BRANCH  17  21
ATOM     21  C   UNL A   1      32.053  27.687  22.869  1.00  0.00     0.065 A 
ATOM     22  C   UNL A   1      33.085  25.142  22.351  1.00  0.00     0.082 A 
ATOM     23  C   UNL A   1      31.926  25.566  21.695  1.00  0.00     0.024 A 
ATOM     24  C   UNL A   1      33.727  25.981  23.269  1.00  0.00     0.024 A 
ATOM     25  C   UNL A   1      31.402  26.833  21.965  1.00  0.00     0.030 A 
ATOM     26  C   UNL A   1      33.227  27.268  23.505  1.00  0.00     0.030 A 
BRANCH  22  27
ATOM     27  S   UNL A   1      33.756  23.541  22.019  1.00  0.00     0.238 S 
ATOM     28  O   UNL A   1      35.025  23.383  22.696  1.00  0.00    -0.207 OA
ATOM     29  O   UNL A   1      33.541  23.197  20.637  1.00  0.00    -0.207 OA
BRANCH  27  30
ATOM     30  N   UNL A   1      32.736  22.488  22.866  1.00  0.00    -0.225 NA
ATOM     31  H   UNL A   1      33.233  22.106  23.670  1.00  0.00     0.137 HD
ATOM     32  H   UNL A   1      32.449  21.726  22.251  1.00  0.00     0.137 HD
ENDBRANCH  27  30
ENDBRANCH  22  27
ENDBRANCH  17  21
BRANCH  19  33
ATOM     33  C   UNL A   1      31.993  29.210  25.564  1.00  0.00     0.000 A 
ATOM     34  C   UNL A   1      33.301  29.642  25.832  1.00  0.00     0.010 A 
ATOM     35  C   UNL A   1      31.376  28.316  26.444  1.00  0.00     0.010 A 
ATOM     36  C   UNL A   1      34.001  29.155  26.934  1.00  0.00     0.001 A 
ATOM     37  C   UNL A   1      32.078  27.831  27.552  1.00  0.00     0.001 A 
ATOM     38  C   UNL A   1      33.391  28.243  27.789  1.00  0.00     0.000 A 
ENDBRANCH  19  33
ENDBRANCH  11  16
ENDBRANCH   9  10
ENDBRANCH   8   9
ENDBRANCH   7   8
ENDBRANCH   6   7
ENDBRANCH   5   6
ENDBRANCH   4   5
ENDBRANCH   3   4
ENDBRANCH   2   3
ENDBRANCH   1   2
BRANCH   1  39
ATOM     39  C   UNL A   1      32.716  22.032  26.446  1.00  0.00     0.100 C 
BRANCH  39  40
ATOM     40  C   UNL A   1      34.060  22.246  27.121  1.00  0.00     0.219 C 
ATOM     41  O   UNL A   1      34.135  22.774  28.234  1.00  0.00    -0.275 OA
ATOM     42  N   UNL A   1      35.215  21.794  26.556  1.00  0.00    -0.356 N 
ATOM     43  H   UNL A   1      36.033  21.986  27.070  1.00  0.00     0.163 HD
BRANCH  42  44
ATOM     44  C   UNL A   1      35.426  21.075  25.318  1.00  0.00     0.116 C 
BRANCH  44  45
ATOM     45  C   UNL A   1      36.824  21.317  24.742  1.00  0.00     0.021 C 
BRANCH  45  46
ATOM     46  C   UNL A   1      37.775  20.129  24.889  1.00  0.00     0.002 C 
BRANCH  46  47
ATOM     47  C   UNL A   1      39.084  20.411  25.644  1.00  0.00     0.002 C 
BRANCH  47  48
ATOM     48  C   UNL A   1      39.245  21.810  26.260  1.00  0.00     0.021 C 
BRANCH  48  49
ATOM     49  C   UNL A   1      40.550  21.995  27.016  1.00  0.00     0.116 C 
BRANCH  49  50
ATOM     50  N   UNL A   1      41.710  22.150  26.120  1.00  0.00    -0.352 N 
ATOM     51  C   UNL A   1      42.315  23.303  25.643  1.00  0.00     0.251 C 
ATOM     52  H   UNL A   1      42.118  21.307  25.813  1.00  0.00     0.163 HD
ATOM     53  O   UNL A   1      43.057  23.269  24.667  1.00  0.00    -0.269 OA
BRANCH  51  54
ATOM     54  C   UNL A   1      42.060  24.570  26.345  1.00  0.00     0.039 A 
ATOM     55  C   UNL A   1      40.987  25.422  26.069  1.00  0.00     0.014 A 
ATOM     56  C   UNL A   1      42.955  24.883  27.352  1.00  0.00     0.014 A 
ATOM     57  C   UNL A   1      40.845  26.572  26.845  1.00  0.00     0.010 A 
ATOM     58  C   UNL A   1      42.586  25.751  28.321  1.00  0.00     0.010 A 
ATOM     59  C   UNL A   1      41.677  26.723  27.961  1.00  0.00    -0.014 A 
BRANCH  59  60
ATOM     60  C   UNL A   1      41.694  27.890  28.817  1.00  0.00     0.031 A 
ATOM     61  C   UNL A   1      42.647  28.934  28.396  1.00  0.00     0.074 A 
ATOM     62  C   UNL A   1      40.690  28.121  29.697  1.00  0.00     0.049 A 
ATOM     63  N   UNL A   1      43.747  29.272  28.978  1.00  0.00    -0.248 NA
ATOM     64  C   UNL A   1      42.441  29.562  27.083  1.00  0.00     0.031 C 
ATOM     65  C   UNL A   1      39.452  27.351  29.912  1.00  0.00     0.029 A 
ATOM     66  N   UNL A   1      40.487  29.216  30.468  1.00  0.00    -0.354 N 
ATOM     67  C   UNL A   1      44.239  30.336  28.231  1.00  0.00     0.074 A 
ATOM     68  C   UNL A   1      43.553  30.290  26.967  1.00  0.00     0.031 C 
ATOM     69  C   UNL A   1      38.539  28.128  30.536  1.00  0.00     0.029 A 
ATOM     70  C   UNL A   1      39.181  29.370  30.917  1.00  0.00     0.049 A 
ATOM     71  H   UNL A   1      41.205  29.851  30.692  1.00  0.00     0.167 HD
ATOM     72  C   UNL A   1      44.952  31.338  28.813  1.00  0.00     0.034 A 
ATOM     73  C   UNL A   1      38.662  30.485  31.487  1.00  0.00     0.034 A 
ATOM     74  C   UNL A   1      45.332  30.997  30.165  1.00  0.00     0.049 A 
ATOM     75  C   UNL A   1      39.812  31.279  31.990  1.00  0.00     0.074 A 
ATOM     76  C   UNL A   1      46.041  29.964  30.746  1.00  0.00     0.029 A 
ATOM     77  N   UNL A   1      44.590  31.557  31.181  1.00  0.00    -0.354 N 
ATOM     78  N   UNL A   1      40.625  30.854  32.920  1.00  0.00    -0.248 NA
ATOM     79  C   UNL A   1      40.342  32.319  31.123  1.00  0.00     0.031 C 
ATOM     80  C   UNL A   1      45.313  29.645  31.933  1.00  0.00     0.029 A 
ATOM     81  C   UNL A   1      44.250  30.546  32.044  1.00  0.00     0.049 A 
ATOM     82  H   UNL A   1      44.349  32.507  31.272  1.00  0.00     0.167 HD
ATOM     83  C   UNL A   1      41.889  31.228  32.476  1.00  0.00     0.074 A 
ATOM     84  C   UNL A   1      41.641  32.210  31.420  1.00  0.00     0.031 C 
ATOM     85  C   UNL A   1      43.003  30.494  32.781  1.00  0.00     0.034 A 
BRANCH  72  86
ATOM     86  C   UNL A   1      44.996  32.767  28.324  1.00  0.00     0.023 A 
ATOM     87  C   UNL A   1      43.763  33.443  28.211  1.00  0.00     0.012 A 
ATOM     88  C   UNL A   1      46.124  33.383  27.729  1.00  0.00     0.148 A 
ATOM     89  C   UNL A   1      43.647  34.643  27.503  1.00  0.00     0.002 A 
ATOM     90  C   UNL A   1      46.019  34.611  27.085  1.00  0.00     0.091 A 
ATOM     91  F   UNL A   1      47.283  32.725  27.663  1.00  0.00    -0.205 F 
ATOM     92  C   UNL A   1      44.776  35.230  26.944  1.00  0.00     0.022 A 
BRANCH  90  93
ATOM     93  S   UNL A   1      47.435  35.407  26.307  1.00  0.00     0.127 S 
ATOM     94  O   UNL A   1      47.533  34.662  25.054  1.00  0.00    -0.237 OA
ATOM     95  O   UNL A   1      46.972  36.788  26.165  1.00  0.00    -0.237 OA
ATOM     96  O   UNL A   1      48.546  35.223  27.230  1.00  0.00    -0.744 OA
ENDBRANCH  90  93
ENDBRANCH  72  86
BRANCH  73  97
ATOM     97  C   UNL A   1      37.302  31.051  31.309  1.00  0.00     0.023 A 
ATOM     98  C   UNL A   1      36.461  31.240  32.423  1.00  0.00     0.012 A 
ATOM     99  C   UNL A   1      36.922  31.647  30.083  1.00  0.00     0.148 A 
ATOM    100  C   UNL A   1      35.293  32.008  32.321  1.00  0.00     0.002 A 
ATOM    101  C   UNL A   1      35.757  32.400  29.983  1.00  0.00     0.091 A 
ATOM    102  F   UNL A   1      37.752  31.551  29.034  1.00  0.00    -0.205 F 
ATOM    103  C   UNL A   1      34.942  32.592  31.105  1.00  0.00     0.022 A 
BRANCH 101 104
ATOM    104  S   UNL A   1      35.251  33.174  28.437  1.00  0.00     0.127 S 
ATOM    105  O   UNL A   1      36.012  34.422  28.464  1.00  0.00    -0.237 OA
ATOM    106  O   UNL A   1      35.700  32.203  27.442  1.00  0.00    -0.237 OA
ATOM    107  O   UNL A   1      33.807  33.352  28.537  1.00  0.00    -0.744 OA
ENDBRANCH 101 104
ENDBRANCH  73  97
BRANCH  85 108
ATOM    108  C   UNL A   1      42.865  29.353  33.768  1.00  0.00     0.023 A 
ATOM    109  C   UNL A   1      42.294  28.113  33.407  1.00  0.00     0.012 A 
ATOM    110  C   UNL A   1      43.506  29.457  35.014  1.00  0.00     0.148 A 
ATOM    111  C   UNL A   1      42.345  27.012  34.267  1.00  0.00     0.002 A 
ATOM    112  C   UNL A   1      43.592  28.349  35.852  1.00  0.00     0.091 A 
ATOM    113  F   UNL A   1      44.062  30.633  35.342  1.00  0.00    -0.205 F 
ATOM    114  C   UNL A   1      43.005  27.126  35.486  1.00  0.00     0.022 A 
BRANCH 112 115
ATOM    115  S   UNL A   1      44.531  28.386  37.380  1.00  0.00     0.127 S 
ATOM    116  O   UNL A   1      44.039  27.194  38.069  1.00  0.00    -0.237 OA
ATOM    117  O   UNL A   1      45.911  28.291  36.903  1.00  0.00    -0.237 OA
ATOM    118  O   UNL A   1      44.207  29.654  38.023  1.00  0.00    -0.744 OA
ENDBRANCH 112 115
ENDBRANCH  85 108
ENDBRANCH  59  60
ENDBRANCH  51  54
ENDBRANCH  49  50
ENDBRANCH  48  49
ENDBRANCH  47  48
ENDBRANCH  46  47
ENDBRANCH  45  46
ENDBRANCH  44  45
ENDBRANCH  42  44
ENDBRANCH  39  40
ENDBRANCH   1  39
TORSDOF 31
ENDMDL
MODEL 2
REMARK VINA RESULT:      -9.0      2.192      6.671
REMARK SMILES NS(=O)(=O)c1ccc(-n2nc(NC(=O)NCCCCCCCCCCC(=O)NCCCCCCNC(=O)c3ccc(-c4c5nc(c(-c6cccc(S(=O)(=O)[O-])c6F)c6ccc([nH]6)c(-c6cccc(S(=O)(=O)[O-])c6F)c6nc(c(-c7cccc(S(=O)(=O)[O-])c7F)c7ccc4[nH]7)C=C6)C=C5)cc3)cc2-c2ccccc2)cc1
REMARK SMILES IDX 24 1 23 2 22 3 21 4 20 5 19 6 18 7 17 8 16 9 15 10 12 11
REMARK SMILES IDX 13 12 14 14 11 16 9 17 10 18 102 19 101 20 8 21 5 22 6 23
REMARK SMILES IDX 110 24 7 25 109 26 2 27 3 28 4 29 1 30 103 33 104 34 108 35
REMARK SMILES IDX 105 36 107 37 106 38 25 39 26 40 27 41 28 42 29 44 30 45
REMARK SMILES IDX 31 46 32 47 33 48 34 49 35 50 36 51 37 53 38 54 39 55 100 56
REMARK SMILES IDX 40 57 99 58 41 59 42 60 43 61 93 62 44 63 98 64 92 65 94 66
REMARK SMILES IDX 45 67 97 68 91 69 90 70 46 72 78 73 58 74 77 75 59 76 62 77
REMARK SMILES IDX 76 78 95 79 60 80 61 81 75 83 96 84 63 85 47 86 48 87 56 88
REMARK SMILES IDX 49 89 51 90 57 91 50 92 52 93 53 94 54 95 55 96 79 97 80 98
REMARK SMILES IDX 88 99 81 100 83 101 89 102 82 103 84 104 85 105 86 106
REMARK SMILES IDX 87 107 64 108 65 109 73 110 66 111 68 112 74 113 67 114
REMARK SMILES IDX 69 115 70 116 71 117 72 118
REMARK H PARENT 12 13 15 15 1 31 1 32 28 43 35 52 94 71 62 82
REMARK Flexibility Score: inf
ROOT
ATOM      1  C   UNL A   1      32.477  22.758  27.348  1.00  0.00     0.010 C 
ENDROOT
BRANCH   1   2
ATOM      2  C   UNL A   1      31.318  23.731  27.130  1.00  0.00     0.001 C 
BRANCH   2   3
ATOM      3  C   UNL A   1      30.945  23.994  25.664  1.00  0.00     0.000 C 
BRANCH   3   4
ATOM      4  C   UNL A   1      30.547  25.428  25.382  1.00  0.00     0.000 C 
BRANCH   4   5
ATOM      5  C   UNL A   1      29.043  25.646  25.267  1.00  0.00     0.000 C 
BRANCH   5   6
ATOM      6  C   UNL A   1      28.561  26.497  24.090  1.00  0.00     0.000 C 
BRANCH   6   7
ATOM      7  C   UNL A   1      27.106  26.976  24.146  1.00  0.00     0.002 C 
BRANCH   7   8
ATOM      8  C   UNL A   1      26.779  28.267  23.398  1.00  0.00     0.021 C 
BRANCH   8   9
ATOM      9  C   UNL A   1      27.799  28.727  22.369  1.00  0.00     0.117 C 
BRANCH   9  10
ATOM     10  N   UNL A   1      27.430  29.872  21.591  1.00  0.00    -0.338 N 
ATOM     11  N   UNL A   1      29.271  31.337  22.028  1.00  0.00    -0.291 N 
ATOM     12  C   UNL A   1      28.080  31.049  21.452  1.00  0.00     0.320 C 
ATOM     13  H   UNL A   1      29.494  32.296  21.992  1.00  0.00     0.173 HD
ATOM     14  O   UNL A   1      27.448  31.960  20.901  1.00  0.00    -0.248 OA
ATOM     15  H   UNL A   1      26.587  29.791  21.088  1.00  0.00     0.165 HD
BRANCH  11  16
ATOM     16  C   UNL A   1      30.243  30.582  22.656  1.00  0.00     0.157 A 
ATOM     17  N   UNL A   1      31.547  28.961  23.127  1.00  0.00    -0.231 N 
ATOM     18  N   UNL A   1      31.003  29.637  22.104  1.00  0.00    -0.149 NA
ATOM     19  C   UNL A   1      31.419  29.657  24.323  1.00  0.00     0.076 A 
ATOM     20  C   UNL A   1      30.568  30.710  24.031  1.00  0.00     0.078 A 
BRANCH  17  21
ATOM     21  C   UNL A   1      32.013  27.631  22.930  1.00  0.00     0.065 A 
ATOM     22  C   UNL A   1      32.954  25.037  22.482  1.00  0.00     0.082 A 
ATOM     23  C   UNL A   1      31.713  25.422  21.966  1.00  0.00     0.024 A 
ATOM     24  C   UNL A   1      33.724  25.939  23.226  1.00  0.00     0.024 A 
ATOM     25  C   UNL A   1      31.237  26.714  22.203  1.00  0.00     0.030 A 
ATOM     26  C   UNL A   1      33.266  27.249  23.423  1.00  0.00     0.030 A 
BRANCH  22  27
ATOM     27  S   UNL A   1      33.567  23.405  22.192  1.00  0.00     0.238 S 
ATOM     28  O   UNL A   1      32.630  22.424  22.694  1.00  0.00    -0.207 OA
ATOM     29  O   UNL A   1      34.984  23.361  22.452  1.00  0.00    -0.207 OA
BRANCH  27  30
ATOM     30  N   UNL A   1      33.454  23.220  20.513  1.00  0.00    -0.225 NA
ATOM     31  H   UNL A   1      34.282  23.617  20.070  1.00  0.00     0.137 HD
ATOM     32  H   UNL A   1      32.622  23.702  20.174  1.00  0.00     0.137 HD
ENDBRANCH  27  30
ENDBRANCH  22  27
ENDBRANCH  17  21
BRANCH  19  33
ATOM     33  C   UNL A   1      32.120  29.279  25.547  1.00  0.00     0.000 A 
ATOM     34  C   UNL A   1      33.445  29.701  25.738  1.00  0.00     0.010 A 
ATOM     35  C   UNL A   1      31.532  28.434  26.493  1.00  0.00     0.010 A 
ATOM     36  C   UNL A   1      34.188  29.250  26.826  1.00  0.00     0.001 A 
ATOM     37  C   UNL A   1      32.277  27.985  27.587  1.00  0.00     0.001 A 
ATOM     38  C   UNL A   1      33.605  28.385  27.747  1.00  0.00     0.000 A 
ENDBRANCH  19  33
ENDBRANCH  11  16
ENDBRANCH   9  10
ENDBRANCH   8   9
ENDBRANCH   7   8
ENDBRANCH   6   7
ENDBRANCH   5   6
ENDBRANCH   4   5
ENDBRANCH   3   4
ENDBRANCH   2   3
ENDBRANCH   1   2
BRANCH   1  39
ATOM     39  C   UNL A   1      33.304  22.364  26.123  1.00  0.00     0.100 C 
BRANCH  39  40
ATOM     40  C   UNL A   1      34.546  23.201  25.871  1.00  0.00     0.219 C 
ATOM     41  O   UNL A   1      34.545  24.417  26.081  1.00  0.00    -0.275 OA
ATOM     42  N   UNL A   1      35.719  22.628  25.481  1.00  0.00    -0.356 N 
ATOM     43  H   UNL A   1      36.463  23.257  25.341  1.00  0.00     0.163 HD
BRANCH  42  44
ATOM     44  C   UNL A   1      36.040  21.237  25.242  1.00  0.00     0.116 C 
BRANCH  44  45
ATOM     45  C   UNL A   1      37.452  21.061  24.677  1.00  0.00     0.021 C 
BRANCH  45  46
ATOM     46  C   UNL A   1      38.087  19.705  24.989  1.00  0.00     0.002 C 
BRANCH  46  47
ATOM     47  C   UNL A   1      39.459  19.754  25.680  1.00  0.00     0.002 C 
BRANCH  47  48
ATOM     48  C   UNL A   1      39.890  21.102  26.280  1.00  0.00     0.021 C 
BRANCH  48  49
ATOM     49  C   UNL A   1      41.325  21.116  26.776  1.00  0.00     0.116 C 
BRANCH  49  50
ATOM     50  N   UNL A   1      42.293  21.432  25.710  1.00  0.00    -0.352 N 
ATOM     51  C   UNL A   1      42.886  22.642  25.381  1.00  0.00     0.251 C 
ATOM     52  H   UNL A   1      42.560  20.669  25.147  1.00  0.00     0.163 HD
ATOM     53  O   UNL A   1      43.414  22.808  24.287  1.00  0.00    -0.269 OA
BRANCH  51  54
ATOM     54  C   UNL A   1      42.882  23.720  26.381  1.00  0.00     0.039 A 
ATOM     55  C   UNL A   1      41.762  24.102  27.124  1.00  0.00     0.014 A 
ATOM     56  C   UNL A   1      44.098  24.351  26.581  1.00  0.00     0.014 A 
ATOM     57  C   UNL A   1      41.916  25.114  28.071  1.00  0.00     0.010 A 
ATOM     58  C   UNL A   1      44.317  25.016  27.738  1.00  0.00     0.010 A 
ATOM     59  C   UNL A   1      43.211  25.571  28.345  1.00  0.00    -0.014 A 
BRANCH  59  60
ATOM     60  C   UNL A   1      43.521  26.660  29.248  1.00  0.00     0.031 A 
ATOM     61  C   UNL A   1      44.037  26.227  30.561  1.00  0.00     0.074 A 
ATOM     62  C   UNL A   1      43.645  27.928  28.790  1.00  0.00     0.049 A 
ATOM     63  N   UNL A   1      43.436  26.291  31.699  1.00  0.00    -0.248 NA
ATOM     64  C   UNL A   1      45.304  25.480  30.588  1.00  0.00     0.031 C 
ATOM     65  C   UNL A   1      43.564  28.425  27.404  1.00  0.00     0.029 A 
ATOM     66  N   UNL A   1      44.055  29.027  29.467  1.00  0.00    -0.354 N 
ATOM     67  C   UNL A   1      44.362  25.821  32.624  1.00  0.00     0.074 A 
ATOM     68  C   UNL A   1      45.358  25.109  31.868  1.00  0.00     0.031 C 
ATOM     69  C   UNL A   1      44.165  29.633  27.321  1.00  0.00     0.029 A 
ATOM     70  C   UNL A   1      44.508  30.065  28.661  1.00  0.00     0.049 A 
ATOM     71  H   UNL A   1      44.034  29.087  30.449  1.00  0.00     0.167 HD
ATOM     72  C   UNL A   1      44.394  26.300  33.898  1.00  0.00     0.034 A 
ATOM     73  C   UNL A   1      45.190  31.158  29.081  1.00  0.00     0.034 A 
ATOM     74  C   UNL A   1      43.223  27.095  34.191  1.00  0.00     0.049 A 
ATOM     75  C   UNL A   1      44.923  31.293  30.536  1.00  0.00     0.074 A 
ATOM     76  C   UNL A   1      41.860  26.870  34.159  1.00  0.00     0.029 A 
ATOM     77  N   UNL A   1      43.375  28.463  34.162  1.00  0.00    -0.354 N 
ATOM     78  N   UNL A   1      43.733  31.512  31.029  1.00  0.00    -0.248 NA
ATOM     79  C   UNL A   1      45.882  30.700  31.453  1.00  0.00     0.031 C 
ATOM     80  C   UNL A   1      41.307  28.066  33.608  1.00  0.00     0.029 A 
ATOM     81  C   UNL A   1      42.351  28.972  33.405  1.00  0.00     0.049 A 
ATOM     82  H   UNL A   1      44.087  28.980  34.605  1.00  0.00     0.167 HD
ATOM     83  C   UNL A   1      43.660  30.681  32.143  1.00  0.00     0.074 A 
ATOM     84  C   UNL A   1      45.043  30.285  32.408  1.00  0.00     0.031 C 
ATOM     85  C   UNL A   1      42.472  30.144  32.560  1.00  0.00     0.034 A 
BRANCH  72  86
ATOM     86  C   UNL A   1      45.630  26.378  34.762  1.00  0.00     0.023 A 
ATOM     87  C   UNL A   1      46.717  27.123  34.259  1.00  0.00     0.012 A 
ATOM     88  C   UNL A   1      45.878  25.562  35.892  1.00  0.00     0.148 A 
ATOM     89  C   UNL A   1      47.995  27.025  34.819  1.00  0.00     0.002 A 
ATOM     90  C   UNL A   1      47.133  25.519  36.490  1.00  0.00     0.091 A 
ATOM     91  F   UNL A   1      44.939  24.715  36.320  1.00  0.00    -0.205 F 
ATOM     92  C   UNL A   1      48.202  26.227  35.938  1.00  0.00     0.022 A 
BRANCH  90  93
ATOM     93  S   UNL A   1      47.478  24.477  37.918  1.00  0.00     0.127 S 
ATOM     94  O   UNL A   1      47.435  23.144  37.320  1.00  0.00    -0.237 OA
ATOM     95  O   UNL A   1      48.812  24.928  38.313  1.00  0.00    -0.237 OA
ATOM     96  O   UNL A   1      46.422  24.763  38.878  1.00  0.00    -0.744 OA
ENDBRANCH  90  93
ENDBRANCH  72  86
BRANCH  73  97
ATOM     97  C   UNL A   1      46.303  31.857  28.392  1.00  0.00     0.023 A 
ATOM     98  C   UNL A   1      47.576  31.260  28.317  1.00  0.00     0.012 A 
ATOM     99  C   UNL A   1      46.055  32.992  27.584  1.00  0.00     0.148 A 
ATOM    100  C   UNL A   1      48.560  31.766  27.456  1.00  0.00     0.002 A 
ATOM    101  C   UNL A   1      47.037  33.498  26.738  1.00  0.00     0.091 A 
ATOM    102  F   UNL A   1      44.824  33.522  27.577  1.00  0.00    -0.205 F 
ATOM    103  C   UNL A   1      48.291  32.881  26.663  1.00  0.00     0.022 A 
BRANCH 101 104
ATOM    104  S   UNL A   1      46.747  34.938  25.696  1.00  0.00     0.127 S 
ATOM    105  O   UNL A   1      48.068  35.150  25.104  1.00  0.00    -0.237 OA
ATOM    106  O   UNL A   1      45.731  34.450  24.767  1.00  0.00    -0.237 OA
ATOM    107  O   UNL A   1      46.319  36.000  26.597  1.00  0.00    -0.744 OA
ENDBRANCH 101 104
ENDBRANCH  73  97
BRANCH  85 108
ATOM    108  C   UNL A   1      41.196  30.613  31.892  1.00  0.00     0.023 A 
ATOM    109  C   UNL A   1      40.650  31.893  32.132  1.00  0.00     0.012 A 
ATOM    110  C   UNL A   1      40.655  29.840  30.852  1.00  0.00     0.148 A 
ATOM    111  C   UNL A   1      39.585  32.383  31.370  1.00  0.00     0.002 A 
ATOM    112  C   UNL A   1      39.622  30.345  30.068  1.00  0.00     0.091 A 
ATOM    113  F   UNL A   1      41.190  28.632  30.618  1.00  0.00    -0.205 F 
ATOM    114  C   UNL A   1      39.078  31.614  30.329  1.00  0.00     0.022 A 
BRANCH 112 115
ATOM    115  S   UNL A   1      39.000  29.463  28.635  1.00  0.00     0.127 S 
ATOM    116  O   UNL A   1      37.973  30.376  28.136  1.00  0.00    -0.237 OA
ATOM    117  O   UNL A   1      40.190  29.361  27.788  1.00  0.00    -0.237 OA
ATOM    118  O   UNL A   1      38.508  28.182  29.130  1.00  0.00    -0.744 OA
ENDBRANCH 112 115
ENDBRANCH  85 108
ENDBRANCH  59  60
ENDBRANCH  51  54
ENDBRANCH  49  50
ENDBRANCH  48  49
ENDBRANCH  47  48
ENDBRANCH  46  47
ENDBRANCH  45  46
ENDBRANCH  44  45
ENDBRANCH  42  44
ENDBRANCH  39  40
ENDBRANCH   1  39
TORSDOF 31
ENDMDL
MODEL 3
REMARK VINA RESULT:      -8.9      1.849      6.045
REMARK SMILES NS(=O)(=O)c1ccc(-n2nc(NC(=O)NCCCCCCCCCCC(=O)NCCCCCCNC(=O)c3ccc(-c4c5nc(c(-c6cccc(S(=O)(=O)[O-])c6F)c6ccc([nH]6)c(-c6cccc(S(=O)(=O)[O-])c6F)c6nc(c(-c7cccc(S(=O)(=O)[O-])c7F)c7ccc4[nH]7)C=C6)C=C5)cc3)cc2-c2ccccc2)cc1
REMARK SMILES IDX 24 1 23 2 22 3 21 4 20 5 19 6 18 7 17 8 16 9 15 10 12 11
REMARK SMILES IDX 13 12 14 14 11 16 9 17 10 18 102 19 101 20 8 21 5 22 6 23
REMARK SMILES IDX 110 24 7 25 109 26 2 27 3 28 4 29 1 30 103 33 104 34 108 35
REMARK SMILES IDX 105 36 107 37 106 38 25 39 26 40 27 41 28 42 29 44 30 45
REMARK SMILES IDX 31 46 32 47 33 48 34 49 35 50 36 51 37 53 38 54 39 55 100 56
REMARK SMILES IDX 40 57 99 58 41 59 42 60 43 61 93 62 44 63 98 64 92 65 94 66
REMARK SMILES IDX 45 67 97 68 91 69 90 70 46 72 78 73 58 74 77 75 59 76 62 77
REMARK SMILES IDX 76 78 95 79 60 80 61 81 75 83 96 84 63 85 47 86 48 87 56 88
REMARK SMILES IDX 49 89 51 90 57 91 50 92 52 93 53 94 54 95 55 96 79 97 80 98
REMARK SMILES IDX 88 99 81 100 83 101 89 102 82 103 84 104 85 105 86 106
REMARK SMILES IDX 87 107 64 108 65 109 73 110 66 111 68 112 74 113 67 114
REMARK SMILES IDX 69 115 70 116 71 117 72 118
REMARK H PARENT 12 13 15 15 1 31 1 32 28 43 35 52 94 71 62 82
REMARK Flexibility Score: inf
ROOT
ATOM      1  C   UNL A   1      32.648  22.953  27.514  1.00  0.00     0.010 C 
ENDROOT
BRANCH   1   2
ATOM      2  C   UNL A   1      31.610  23.977  27.055  1.00  0.00     0.001 C 
BRANCH   2   3
ATOM      3  C   UNL A   1      30.796  23.581  25.816  1.00  0.00     0.000 C 
BRANCH   3   4
ATOM      4  C   UNL A   1      30.548  24.725  24.855  1.00  0.00     0.000 C 
BRANCH   4   5
ATOM      5  C   UNL A   1      29.353  25.598  25.221  1.00  0.00     0.000 C 
BRANCH   5   6
ATOM      6  C   UNL A   1      28.932  26.650  24.192  1.00  0.00     0.000 C 
BRANCH   6   7
ATOM      7  C   UNL A   1      27.437  26.988  24.136  1.00  0.00     0.002 C 
BRANCH   7   8
ATOM      8  C   UNL A   1      27.052  28.274  23.408  1.00  0.00     0.021 C 
BRANCH   8   9
ATOM      9  C   UNL A   1      27.886  28.636  22.191  1.00  0.00     0.117 C 
BRANCH   9  10
ATOM     10  N   UNL A   1      27.488  29.820  21.489  1.00  0.00    -0.338 N 
ATOM     11  N   UNL A   1      29.231  31.335  22.118  1.00  0.00    -0.291 N 
ATOM     12  C   UNL A   1      28.080  31.035  21.471  1.00  0.00     0.320 C 
ATOM     13  H   UNL A   1      29.404  32.303  22.166  1.00  0.00     0.173 HD
ATOM     14  O   UNL A   1      27.423  31.955  20.965  1.00  0.00    -0.248 OA
ATOM     15  H   UNL A   1      26.671  29.738  20.946  1.00  0.00     0.165 HD
BRANCH  11  16
ATOM     16  C   UNL A   1      30.216  30.581  22.727  1.00  0.00     0.157 A 
ATOM     17  N   UNL A   1      31.563  28.981  23.143  1.00  0.00    -0.231 N 
ATOM     18  N   UNL A   1      31.014  29.687  22.143  1.00  0.00    -0.149 NA
ATOM     19  C   UNL A   1      31.394  29.614  24.368  1.00  0.00     0.076 A 
ATOM     20  C   UNL A   1      30.515  30.653  24.112  1.00  0.00     0.078 A 
BRANCH  17  21
ATOM     21  C   UNL A   1      32.074  27.676  22.891  1.00  0.00     0.065 A 
ATOM     22  C   UNL A   1      33.111  25.139  22.344  1.00  0.00     0.082 A 
ATOM     23  C   UNL A   1      31.954  25.570  21.688  1.00  0.00     0.024 A 
ATOM     24  C   UNL A   1      33.749  25.966  23.276  1.00  0.00     0.024 A 
ATOM     25  C   UNL A   1      31.428  26.832  21.973  1.00  0.00     0.030 A 
ATOM     26  C   UNL A   1      33.246  27.250  23.527  1.00  0.00     0.030 A 
BRANCH  22  27
ATOM     27  S   UNL A   1      33.786  23.543  21.993  1.00  0.00     0.238 S 
ATOM     28  O   UNL A   1      35.069  23.391  22.645  1.00  0.00    -0.207 OA
ATOM     29  O   UNL A   1      33.546  23.202  20.614  1.00  0.00    -0.207 OA
BRANCH  27  30
ATOM     30  N   UNL A   1      32.790  22.481  22.856  1.00  0.00    -0.225 NA
ATOM     31  H   UNL A   1      31.853  22.490  22.454  1.00  0.00     0.137 HD
ATOM     32  H   UNL A   1      32.744  22.775  23.832  1.00  0.00     0.137 HD
ENDBRANCH  27  30
ENDBRANCH  22  27
ENDBRANCH  17  21
BRANCH  19  33
ATOM     33  C   UNL A   1      32.087  29.200  25.585  1.00  0.00     0.000 A 
ATOM     34  C   UNL A   1      33.410  29.616  25.797  1.00  0.00     0.010 A 
ATOM     35  C   UNL A   1      31.493  28.326  26.501  1.00  0.00     0.010 A 
ATOM     36  C   UNL A   1      34.146  29.133  26.876  1.00  0.00     0.001 A 
ATOM     37  C   UNL A   1      32.231  27.845  27.586  1.00  0.00     0.001 A 
ATOM     38  C   UNL A   1      33.558  28.241  27.767  1.00  0.00     0.000 A 
ENDBRANCH  19  33
ENDBRANCH  11  16
ENDBRANCH   9  10
ENDBRANCH   8   9
ENDBRANCH   7   8
ENDBRANCH   6   7
ENDBRANCH   5   6
ENDBRANCH   4   5
ENDBRANCH   3   4
ENDBRANCH   2   3
ENDBRANCH   1   2
BRANCH   1  39
ATOM     39  C   UNL A   1      33.494  22.277  26.432  1.00  0.00     0.100 C 
BRANCH  39  40
ATOM     40  C   UNL A   1      34.691  23.072  25.941  1.00  0.00     0.219 C 
ATOM     41  O   UNL A   1      34.739  24.298  26.080  1.00  0.00    -0.275 OA
ATOM     42  N   UNL A   1      35.780  22.453  25.404  1.00  0.00    -0.356 N 
ATOM     43  H   UNL A   1      36.501  23.057  25.113  1.00  0.00     0.163 HD
BRANCH  42  44
ATOM     44  C   UNL A   1      36.041  21.045  25.197  1.00  0.00     0.116 C 
BRANCH  44  45
ATOM     45  C   UNL A   1      37.450  20.794  24.652  1.00  0.00     0.021 C 
BRANCH  45  46
ATOM     46  C   UNL A   1      38.091  19.498  25.148  1.00  0.00     0.002 C 
BRANCH  46  47
ATOM     47  C   UNL A   1      39.488  19.641  25.774  1.00  0.00     0.002 C 
BRANCH  47  48
ATOM     48  C   UNL A   1      39.886  21.038  26.278  1.00  0.00     0.021 C 
BRANCH  48  49
ATOM     49  C   UNL A   1      41.308  21.111  26.806  1.00  0.00     0.116 C 
BRANCH  49  50
ATOM     50  N   UNL A   1      42.289  21.439  25.755  1.00  0.00    -0.352 N 
ATOM     51  C   UNL A   1      42.790  22.671  25.364  1.00  0.00     0.251 C 
ATOM     52  H   UNL A   1      42.642  20.666  25.257  1.00  0.00     0.163 HD
ATOM     53  O   UNL A   1      43.347  22.809  24.279  1.00  0.00    -0.269 OA
BRANCH  51  54
ATOM     54  C   UNL A   1      42.655  23.808  26.285  1.00  0.00     0.039 A 
ATOM     55  C   UNL A   1      41.687  23.899  27.290  1.00  0.00     0.014 A 
ATOM     56  C   UNL A   1      43.585  24.820  26.124  1.00  0.00     0.014 A 
ATOM     57  C   UNL A   1      41.704  25.019  28.120  1.00  0.00     0.010 A 
ATOM     58  C   UNL A   1      43.833  25.664  27.151  1.00  0.00     0.010 A 
ATOM     59  C   UNL A   1      42.785  25.903  28.015  1.00  0.00    -0.014 A 
BRANCH  59  60
ATOM     60  C   UNL A   1      42.906  27.140  28.757  1.00  0.00     0.031 A 
ATOM     61  C   UNL A   1      43.418  26.972  30.131  1.00  0.00     0.074 A 
ATOM     62  C   UNL A   1      42.878  28.336  28.123  1.00  0.00     0.049 A 
ATOM     63  N   UNL A   1      42.764  27.110  31.233  1.00  0.00    -0.248 NA
ATOM     64  C   UNL A   1      44.771  26.419  30.297  1.00  0.00     0.031 C 
ATOM     65  C   UNL A   1      42.792  28.617  26.679  1.00  0.00     0.029 A 
ATOM     66  N   UNL A   1      43.108  29.566  28.643  1.00  0.00    -0.354 N 
ATOM     67  C   UNL A   1      43.703  26.908  32.238  1.00  0.00     0.074 A 
ATOM     68  C   UNL A   1      44.818  26.243  31.618  1.00  0.00     0.031 C 
ATOM     69  C   UNL A   1      43.229  29.873  26.436  1.00  0.00     0.029 A 
ATOM     70  C   UNL A   1      43.452  30.533  27.707  1.00  0.00     0.049 A 
ATOM     71  H   UNL A   1      43.036  29.759  29.606  1.00  0.00     0.167 HD
ATOM     72  C   UNL A   1      43.615  27.561  33.430  1.00  0.00     0.034 A 
ATOM     73  C   UNL A   1      43.962  31.758  27.980  1.00  0.00     0.034 A 
ATOM     74  C   UNL A   1      42.336  28.218  33.576  1.00  0.00     0.049 A 
ATOM     75  C   UNL A   1      43.616  32.057  29.393  1.00  0.00     0.074 A 
ATOM     76  C   UNL A   1      41.019  27.804  33.544  1.00  0.00     0.029 A 
ATOM     77  N   UNL A   1      42.304  29.576  33.353  1.00  0.00    -0.354 N 
ATOM     78  N   UNL A   1      42.387  32.176  29.821  1.00  0.00    -0.248 NA
ATOM     79  C   UNL A   1      44.605  31.738  30.410  1.00  0.00     0.031 C 
ATOM     80  C   UNL A   1      40.335  28.821  32.812  1.00  0.00     0.029 A 
ATOM     81  C   UNL A   1      41.255  29.827  32.506  1.00  0.00     0.049 A 
ATOM     82  H   UNL A   1      42.920  30.244  33.733  1.00  0.00     0.167 HD
ATOM     83  C   UNL A   1      42.377  31.507  31.041  1.00  0.00     0.074 A 
ATOM     84  C   UNL A   1      43.788  31.348  31.394  1.00  0.00     0.031 C 
ATOM     85  C   UNL A   1      41.255  30.873  31.503  1.00  0.00     0.034 A 
BRANCH  72  86
ATOM     86  C   UNL A   1      44.790  27.930  34.304  1.00  0.00     0.023 A 
ATOM     87  C   UNL A   1      44.796  27.418  35.619  1.00  0.00     0.012 A 
ATOM     88  C   UNL A   1      45.732  28.944  34.004  1.00  0.00     0.148 A 
ATOM     89  C   UNL A   1      45.659  27.921  36.597  1.00  0.00     0.002 A 
ATOM     90  C   UNL A   1      46.637  29.394  34.960  1.00  0.00     0.091 A 
ATOM     91  F   UNL A   1      45.675  29.579  32.831  1.00  0.00    -0.205 F 
ATOM     92  C   UNL A   1      46.584  28.905  36.266  1.00  0.00     0.022 A 
BRANCH  90  93
ATOM     93  S   UNL A   1      47.834  30.692  34.608  1.00  0.00     0.127 S 
ATOM     94  O   UNL A   1      46.963  31.769  34.141  1.00  0.00    -0.237 OA
ATOM     95  O   UNL A   1      48.437  30.919  35.921  1.00  0.00    -0.237 OA
ATOM     96  O   UNL A   1      48.732  30.138  33.605  1.00  0.00    -0.744 OA
ENDBRANCH  90  93
ENDBRANCH  72  86
BRANCH  73  97
ATOM     97  C   UNL A   1      45.001  32.501  27.225  1.00  0.00     0.023 A 
ATOM     98  C   UNL A   1      44.672  33.695  26.554  1.00  0.00     0.012 A 
ATOM     99  C   UNL A   1      46.371  32.181  27.374  1.00  0.00     0.148 A 
ATOM    100  C   UNL A   1      45.674  34.547  26.065  1.00  0.00     0.002 A 
ATOM    101  C   UNL A   1      47.362  33.022  26.878  1.00  0.00     0.091 A 
ATOM    102  F   UNL A   1      46.706  31.094  28.083  1.00  0.00    -0.205 F 
ATOM    103  C   UNL A   1      47.017  34.214  26.230  1.00  0.00     0.022 A 
BRANCH 101 104
ATOM    104  S   UNL A   1      49.113  32.642  27.057  1.00  0.00     0.127 S 
ATOM    105  O   UNL A   1      49.260  32.584  28.512  1.00  0.00    -0.237 OA
ATOM    106  O   UNL A   1      49.223  31.353  26.378  1.00  0.00    -0.237 OA
ATOM    107  O   UNL A   1      49.825  33.747  26.428  1.00  0.00    -0.744 OA
ENDBRANCH 101 104
ENDBRANCH  73  97
BRANCH  85 108
ATOM    108  C   UNL A   1      39.958  31.063  30.743  1.00  0.00     0.023 A 
ATOM    109  C   UNL A   1      39.657  30.325  29.578  1.00  0.00     0.012 A 
ATOM    110  C   UNL A   1      38.942  31.838  31.325  1.00  0.00     0.148 A 
ATOM    111  C   UNL A   1      38.385  30.370  28.997  1.00  0.00     0.002 A 
ATOM    112  C   UNL A   1      37.666  31.851  30.770  1.00  0.00     0.091 A 
ATOM    113  F   UNL A   1      39.231  32.523  32.442  1.00  0.00    -0.205 F 
ATOM    114  C   UNL A   1      37.385  31.124  29.601  1.00  0.00     0.022 A 
BRANCH 112 115
ATOM    115  S   UNL A   1      36.297  32.700  31.559  1.00  0.00     0.127 S 
ATOM    116  O   UNL A   1      35.140  32.036  30.960  1.00  0.00    -0.237 OA
ATOM    117  O   UNL A   1      36.512  32.396  32.974  1.00  0.00    -0.237 OA
ATOM    118  O   UNL A   1      36.448  34.111  31.222  1.00  0.00    -0.744 OA
ENDBRANCH 112 115
ENDBRANCH  85 108
ENDBRANCH  59  60
ENDBRANCH  51  54
ENDBRANCH  49  50
ENDBRANCH  48  49
ENDBRANCH  47  48
ENDBRANCH  46  47
ENDBRANCH  45  46
ENDBRANCH  44  45
ENDBRANCH  42  44
ENDBRANCH  39  40
ENDBRANCH   1  39
TORSDOF 31
ENDMDL
