MODEL 1
REMARK VINA RESULT:     -12.0      0.000      0.000
REMARK SMILES CC(C)c1ccc(NC(=O)C[C@H]2SC[C@@H](C(=O)NCCCCCCNC(=O)c3ccc(-c4c5nc(c(-c6cccc(S(=O)(=O)[O-])c6F)c6ccc([nH]6)c(-c6cccc(S(=O)(=O)[O-])c6F)c6nc(c(-c7cccc(S(=O)(=O)[O-])c7F)c7ccc4[nH]7)C=C6)C=C5)cc3)NC2=O)cc1
REMARK SMILES IDX 21 1 20 2 19 3 18 4 16 5 17 6 15 8 12 9 13 10 92 11 14 12
REMARK SMILES IDX 91 13 93 14 11 16 9 17 8 18 10 20 7 21 4 22 5 23 95 24 6 25
REMARK SMILES IDX 94 26 2 27 1 28 3 29 22 30 23 31 24 32 25 33 26 34 27 36
REMARK SMILES IDX 28 37 29 38 90 39 30 40 89 41 31 42 32 43 33 44 83 45 34 46
REMARK SMILES IDX 88 47 82 48 84 49 35 50 87 51 81 52 80 53 36 55 68 56 48 57
REMARK SMILES IDX 67 58 49 59 52 60 66 61 85 62 50 63 51 64 65 66 86 67 53 68
REMARK SMILES IDX 37 69 38 70 46 71 39 72 41 73 47 74 40 75 42 76 43 77 44 78
REMARK SMILES IDX 45 79 69 80 70 81 78 82 71 83 73 84 79 85 72 86 74 87 75 88
REMARK SMILES IDX 76 89 77 90 54 91 55 92 63 93 56 94 58 95 64 96 57 97 59 98
REMARK SMILES IDX 60 99 61 100 62 101
REMARK H PARENT 18 7 91 15 8 19 25 35 84 54 52 65
REMARK Flexibility Score: inf
ROOT
ATOM      1  C   UNL A   1      31.075  29.695  25.109  1.00  0.00     0.002 C 
ENDROOT
BRANCH   1   2
ATOM      2  C   UNL A   1      31.524  29.289  23.697  1.00  0.00     0.021 C 
BRANCH   2   3
ATOM      3  C   UNL A   1      30.405  28.678  22.853  1.00  0.00     0.116 C 
BRANCH   3   4
ATOM      4  N   UNL A   1      30.991  27.806  21.858  1.00  0.00    -0.354 N 
ATOM      5  C   UNL A   1      31.720  26.673  22.095  1.00  0.00     0.243 C 
ATOM      6  O   UNL A   1      32.601  26.384  21.286  1.00  0.00    -0.273 OA
ATOM      7  H   UNL A   1      30.851  28.052  20.916  1.00  0.00     0.163 HD
BRANCH   5   8
ATOM      8  C   UNL A   1      31.192  25.693  23.164  1.00  0.00     0.181 C 
ATOM      9  C   UNL A   1      33.653  24.055  23.932  1.00  0.00     0.145 C 
ATOM     10  S   UNL A   1      33.461  25.641  24.856  1.00  0.00    -0.145 SA
ATOM     11  C   UNL A   1      32.895  24.031  22.600  1.00  0.00     0.234 C 
ATOM     12  C   UNL A   1      31.696  25.967  24.573  1.00  0.00     0.105 C 
ATOM     13  N   UNL A   1      31.569  24.394  22.626  1.00  0.00    -0.343 N 
ATOM     14  O   UNL A   1      33.327  23.603  21.534  1.00  0.00    -0.274 OA
ATOM     15  H   UNL A   1      30.880  23.780  22.284  1.00  0.00     0.164 HD
BRANCH   9  16
ATOM     16  C   UNL A   1      35.149  23.706  23.910  1.00  0.00     0.124 C 
BRANCH  16  17
ATOM     17  C   UNL A   1      35.877  23.371  25.198  1.00  0.00     0.226 C 
ATOM     18  N   UNL A   1      35.819  22.158  25.808  1.00  0.00    -0.326 N 
ATOM     19  H   UNL A   1      36.371  22.093  26.621  1.00  0.00     0.169 HD
ATOM     20  O   UNL A   1      36.552  24.247  25.755  1.00  0.00    -0.275 OA
BRANCH  18  21
ATOM     21  C   UNL A   1      35.123  20.984  25.503  1.00  0.00     0.041 A 
ATOM     22  C   UNL A   1      33.864  18.616  24.647  1.00  0.00    -0.045 A 
ATOM     23  C   UNL A   1      33.120  19.671  25.193  1.00  0.00     0.006 A 
ATOM     24  C   UNL A   1      35.255  18.745  24.578  1.00  0.00     0.006 A 
ATOM     25  C   UNL A   1      33.747  20.840  25.632  1.00  0.00     0.026 A 
ATOM     26  C   UNL A   1      35.879  19.914  25.017  1.00  0.00     0.026 A 
BRANCH  22  27
ATOM     27  C   UNL A   1      33.199  17.343  24.158  1.00  0.00     0.013 C 
ATOM     28  C   UNL A   1      34.005  16.716  23.020  1.00  0.00     0.012 C 
ATOM     29  C   UNL A   1      32.981  16.344  25.297  1.00  0.00     0.012 C 
ENDBRANCH  22  27
ENDBRANCH  18  21
ENDBRANCH  16  17
ENDBRANCH   9  16
ENDBRANCH   5   8
ENDBRANCH   3   4
ENDBRANCH   2   3
ENDBRANCH   1   2
BRANCH   1  30
ATOM     30  C   UNL A   1      32.168  30.338  25.970  1.00  0.00     0.002 C 
BRANCH  30  31
ATOM     31  C   UNL A   1      31.778  31.679  26.595  1.00  0.00     0.021 C 
BRANCH  31  32
ATOM     32  C   UNL A   1      32.907  32.370  27.348  1.00  0.00     0.116 C 
BRANCH  32  33
ATOM     33  N   UNL A   1      32.597  33.761  27.636  1.00  0.00    -0.352 N 
ATOM     34  C   UNL A   1      33.127  34.572  28.607  1.00  0.00     0.251 C 
ATOM     35  H   UNL A   1      31.917  34.176  27.058  1.00  0.00     0.163 HD
ATOM     36  O   UNL A   1      32.620  35.667  28.843  1.00  0.00    -0.269 OA
BRANCH  34  37
ATOM     37  C   UNL A   1      34.298  34.111  29.381  1.00  0.00     0.039 A 
ATOM     38  C   UNL A   1      34.092  33.379  30.551  1.00  0.00     0.014 A 
ATOM     39  C   UNL A   1      35.597  34.393  28.945  1.00  0.00     0.014 A 
ATOM     40  C   UNL A   1      35.189  32.881  31.257  1.00  0.00     0.010 A 
ATOM     41  C   UNL A   1      36.685  33.834  29.608  1.00  0.00     0.010 A 
ATOM     42  C   UNL A   1      36.495  33.081  30.776  1.00  0.00    -0.014 A 
BRANCH  42  43
ATOM     43  C   UNL A   1      37.670  32.504  31.477  1.00  0.00     0.031 A 
ATOM     44  C   UNL A   1      38.445  31.373  30.852  1.00  0.00     0.074 A 
ATOM     45  C   UNL A   1      37.987  32.936  32.715  1.00  0.00     0.049 A 
ATOM     46  N   UNL A   1      39.464  30.710  31.333  1.00  0.00    -0.248 NA
ATOM     47  C   UNL A   1      38.000  30.908  29.528  1.00  0.00     0.031 C 
ATOM     48  C   UNL A   1      37.266  33.970  33.461  1.00  0.00     0.029 A 
ATOM     49  N   UNL A   1      38.982  32.541  33.575  1.00  0.00    -0.354 N 
ATOM     50  C   UNL A   1      39.752  29.724  30.397  1.00  0.00     0.074 A 
ATOM     51  C   UNL A   1      38.788  29.860  29.328  1.00  0.00     0.031 C 
ATOM     52  C   UNL A   1      37.842  34.128  34.664  1.00  0.00     0.029 A 
ATOM     53  C   UNL A   1      38.953  33.190  34.788  1.00  0.00     0.049 A 
ATOM     54  H   UNL A   1      39.653  31.858  33.345  1.00  0.00     0.167 HD
ATOM     55  C   UNL A   1      40.745  28.804  30.415  1.00  0.00     0.034 A 
ATOM     56  C   UNL A   1      39.728  33.040  35.880  1.00  0.00     0.034 A 
ATOM     57  C   UNL A   1      41.739  28.710  31.449  1.00  0.00     0.049 A 
ATOM     58  C   UNL A   1      40.856  32.042  35.845  1.00  0.00     0.074 A 
ATOM     59  C   UNL A   1      42.853  27.892  31.496  1.00  0.00     0.029 A 
ATOM     60  N   UNL A   1      41.733  29.448  32.620  1.00  0.00    -0.354 N 
ATOM     61  N   UNL A   1      41.225  31.248  34.870  1.00  0.00    -0.248 NA
ATOM     62  C   UNL A   1      41.697  31.947  37.048  1.00  0.00     0.031 C 
ATOM     63  C   UNL A   1      43.505  28.112  32.714  1.00  0.00     0.029 A 
ATOM     64  C   UNL A   1      42.814  29.091  33.409  1.00  0.00     0.049 A 
ATOM     65  H   UNL A   1      41.060  30.126  32.859  1.00  0.00     0.167 HD
ATOM     66  C   UNL A   1      42.363  30.592  35.325  1.00  0.00     0.074 A 
ATOM     67  C   UNL A   1      42.635  31.097  36.655  1.00  0.00     0.031 C 
ATOM     68  C   UNL A   1      43.109  29.645  34.703  1.00  0.00     0.034 A 
BRANCH  55  69
ATOM     69  C   UNL A   1      40.843  27.843  29.258  1.00  0.00     0.023 A 
ATOM     70  C   UNL A   1      39.997  26.718  29.208  1.00  0.00     0.012 A 
ATOM     71  C   UNL A   1      41.709  28.108  28.178  1.00  0.00     0.148 A 
ATOM     72  C   UNL A   1      40.028  25.855  28.113  1.00  0.00     0.002 A 
ATOM     73  C   UNL A   1      41.702  27.270  27.069  1.00  0.00     0.091 A 
ATOM     74  F   UNL A   1      42.520  29.173  28.255  1.00  0.00    -0.205 F 
ATOM     75  C   UNL A   1      40.870  26.138  27.040  1.00  0.00     0.022 A 
BRANCH  73  76
ATOM     76  S   UNL A   1      42.687  27.592  25.603  1.00  0.00     0.127 S 
ATOM     77  O   UNL A   1      42.104  28.847  25.128  1.00  0.00    -0.237 OA
ATOM     78  O   UNL A   1      44.033  27.719  26.160  1.00  0.00    -0.237 OA
ATOM     79  O   UNL A   1      42.494  26.446  24.727  1.00  0.00    -0.744 OA
ENDBRANCH  73  76
ENDBRANCH  55  69
BRANCH  56  80
ATOM     80  C   UNL A   1      39.507  33.892  37.084  1.00  0.00     0.023 A 
ATOM     81  C   UNL A   1      39.954  35.228  37.076  1.00  0.00     0.012 A 
ATOM     82  C   UNL A   1      38.864  33.391  38.232  1.00  0.00     0.148 A 
ATOM     83  C   UNL A   1      39.804  36.036  38.205  1.00  0.00     0.002 A 
ATOM     84  C   UNL A   1      38.666  34.218  39.332  1.00  0.00     0.091 A 
ATOM     85  F   UNL A   1      38.457  32.113  38.227  1.00  0.00    -0.205 F 
ATOM     86  C   UNL A   1      39.153  35.534  39.329  1.00  0.00     0.022 A 
BRANCH  84  87
ATOM     87  S   UNL A   1      37.722  33.692  40.767  1.00  0.00     0.127 S 
ATOM     88  O   UNL A   1      38.636  32.745  41.397  1.00  0.00    -0.237 OA
ATOM     89  O   UNL A   1      37.540  34.951  41.491  1.00  0.00    -0.237 OA
ATOM     90  O   UNL A   1      36.488  33.127  40.235  1.00  0.00    -0.744 OA
ENDBRANCH  84  87
ENDBRANCH  56  80
BRANCH  68  91
ATOM     91  C   UNL A   1      44.321  29.120  35.427  1.00  0.00     0.023 A 
ATOM     92  C   UNL A   1      45.570  29.750  35.259  1.00  0.00     0.012 A 
ATOM     93  C   UNL A   1      44.202  28.050  36.336  1.00  0.00     0.148 A 
ATOM     94  C   UNL A   1      46.689  29.300  35.957  1.00  0.00     0.002 A 
ATOM     95  C   UNL A   1      45.311  27.640  37.068  1.00  0.00     0.091 A 
ATOM     96  F   UNL A   1      43.010  27.452  36.469  1.00  0.00    -0.205 F 
ATOM     97  C   UNL A   1      46.558  28.256  36.870  1.00  0.00     0.022 A 
BRANCH  95  98
ATOM     98  S   UNL A   1      45.212  26.373  38.336  1.00  0.00     0.127 S 
ATOM     99  O   UNL A   1      44.960  25.174  37.541  1.00  0.00    -0.237 OA
ATOM    100  O   UNL A   1      46.543  26.436  38.941  1.00  0.00    -0.237 OA
ATOM    101  O   UNL A   1      44.128  26.776  39.222  1.00  0.00    -0.744 OA
ENDBRANCH  95  98
ENDBRANCH  68  91
ENDBRANCH  42  43
ENDBRANCH  34  37
ENDBRANCH  32  33
ENDBRANCH  31  32
ENDBRANCH  30  31
ENDBRANCH   1  30
TORSDOF 20
ENDMDL
MODEL 2
REMARK VINA RESULT:     -11.5      1.496      7.724
REMARK SMILES CC(C)c1ccc(NC(=O)C[C@H]2SC[C@@H](C(=O)NCCCCCCNC(=O)c3ccc(-c4c5nc(c(-c6cccc(S(=O)(=O)[O-])c6F)c6ccc([nH]6)c(-c6cccc(S(=O)(=O)[O-])c6F)c6nc(c(-c7cccc(S(=O)(=O)[O-])c7F)c7ccc4[nH]7)C=C6)C=C5)cc3)NC2=O)cc1
REMARK SMILES IDX 21 1 20 2 19 3 18 4 16 5 17 6 15 8 12 9 13 10 92 11 14 12
REMARK SMILES IDX 91 13 93 14 11 16 9 17 8 18 10 20 7 21 4 22 5 23 95 24 6 25
REMARK SMILES IDX 94 26 2 27 1 28 3 29 22 30 23 31 24 32 25 33 26 34 27 36
REMARK SMILES IDX 28 37 29 38 90 39 30 40 89 41 31 42 32 43 33 44 83 45 34 46
REMARK SMILES IDX 88 47 82 48 84 49 35 50 87 51 81 52 80 53 36 55 68 56 48 57
REMARK SMILES IDX 67 58 49 59 52 60 66 61 85 62 50 63 51 64 65 66 86 67 53 68
REMARK SMILES IDX 37 69 38 70 46 71 39 72 41 73 47 74 40 75 42 76 43 77 44 78
REMARK SMILES IDX 45 79 69 80 70 81 78 82 71 83 73 84 79 85 72 86 74 87 75 88
REMARK SMILES IDX 76 89 77 90 54 91 55 92 63 93 56 94 58 95 64 96 57 97 59 98
REMARK SMILES IDX 60 99 61 100 62 101
REMARK H PARENT 18 7 91 15 8 19 25 35 84 54 52 65
REMARK Flexibility Score: inf
ROOT
ATOM      1  C   UNL A   1      31.393  30.053  25.237  1.00  0.00     0.002 C 
ENDROOT
BRANCH   1   2
ATOM      2  C   UNL A   1      32.577  29.399  24.509  1.00  0.00     0.021 C 
BRANCH   2   3
ATOM      3  C   UNL A   1      32.264  28.005  23.964  1.00  0.00     0.116 C 
BRANCH   3   4
ATOM      4  N   UNL A   1      31.008  27.554  24.523  1.00  0.00    -0.354 N 
ATOM      5  C   UNL A   1      30.806  26.426  25.268  1.00  0.00     0.243 C 
ATOM      6  O   UNL A   1      29.711  25.873  25.176  1.00  0.00    -0.273 OA
ATOM      7  H   UNL A   1      30.220  28.117  24.350  1.00  0.00     0.163 HD
BRANCH   5   8
ATOM      8  C   UNL A   1      31.827  26.112  26.382  1.00  0.00     0.181 C 
ATOM      9  C   UNL A   1      33.119  23.498  25.472  1.00  0.00     0.145 C 
ATOM     10  S   UNL A   1      33.890  25.024  24.777  1.00  0.00    -0.145 SA
ATOM     11  C   UNL A   1      31.679  23.709  25.954  1.00  0.00     0.234 C 
ATOM     12  C   UNL A   1      33.282  26.260  25.963  1.00  0.00     0.105 C 
ATOM     13  N   UNL A   1      31.449  24.769  26.798  1.00  0.00    -0.343 N 
ATOM     14  O   UNL A   1      30.735  22.950  25.753  1.00  0.00    -0.274 OA
ATOM     15  H   UNL A   1      31.032  24.621  27.677  1.00  0.00     0.164 HD
BRANCH   9  16
ATOM     16  C   UNL A   1      33.381  22.351  24.483  1.00  0.00     0.124 C 
BRANCH  16  17
ATOM     17  C   UNL A   1      32.483  22.161  23.275  1.00  0.00     0.226 C 
ATOM     18  N   UNL A   1      32.089  20.948  22.807  1.00  0.00    -0.326 N 
ATOM     19  H   UNL A   1      31.484  20.997  22.032  1.00  0.00     0.169 HD
ATOM     20  O   UNL A   1      32.093  23.157  22.651  1.00  0.00    -0.275 OA
BRANCH  18  21
ATOM     21  C   UNL A   1      32.380  19.642  23.214  1.00  0.00     0.041 A 
ATOM     22  C   UNL A   1      33.177  17.122  24.184  1.00  0.00    -0.045 A 
ATOM     23  C   UNL A   1      32.887  17.313  22.826  1.00  0.00     0.006 A 
ATOM     24  C   UNL A   1      33.019  18.201  25.060  1.00  0.00     0.006 A 
ATOM     25  C   UNL A   1      32.476  18.560  22.348  1.00  0.00     0.026 A 
ATOM     26  C   UNL A   1      32.609  19.446  24.579  1.00  0.00     0.026 A 
BRANCH  22  27
ATOM     27  C   UNL A   1      33.632  15.777  24.718  1.00  0.00     0.013 C 
ATOM     28  C   UNL A   1      34.979  15.908  25.432  1.00  0.00     0.012 C 
ATOM     29  C   UNL A   1      32.581  15.145  25.633  1.00  0.00     0.012 C 
ENDBRANCH  22  27
ENDBRANCH  18  21
ENDBRANCH  16  17
ENDBRANCH   9  16
ENDBRANCH   5   8
ENDBRANCH   3   4
ENDBRANCH   2   3
ENDBRANCH   1   2
BRANCH   1  30
ATOM     30  C   UNL A   1      31.710  30.566  26.646  1.00  0.00     0.002 C 
BRANCH  30  31
ATOM     31  C   UNL A   1      31.607  32.083  26.809  1.00  0.00     0.021 C 
BRANCH  31  32
ATOM     32  C   UNL A   1      32.873  32.743  27.340  1.00  0.00     0.116 C 
BRANCH  32  33
ATOM     33  N   UNL A   1      32.629  34.102  27.793  1.00  0.00    -0.352 N 
ATOM     34  C   UNL A   1      33.208  34.771  28.841  1.00  0.00     0.251 C 
ATOM     35  H   UNL A   1      31.960  34.611  27.279  1.00  0.00     0.163 HD
ATOM     36  O   UNL A   1      32.753  35.852  29.212  1.00  0.00    -0.269 OA
BRANCH  34  37
ATOM     37  C   UNL A   1      34.367  34.174  29.535  1.00  0.00     0.039 A 
ATOM     38  C   UNL A   1      34.143  33.278  30.582  1.00  0.00     0.014 A 
ATOM     39  C   UNL A   1      35.672  34.490  29.144  1.00  0.00     0.014 A 
ATOM     40  C   UNL A   1      35.229  32.657  31.203  1.00  0.00     0.010 A 
ATOM     41  C   UNL A   1      36.748  33.814  29.714  1.00  0.00     0.010 A 
ATOM     42  C   UNL A   1      36.539  32.898  30.756  1.00  0.00    -0.014 A 
BRANCH  42  43
ATOM     43  C   UNL A   1      37.700  32.197  31.359  1.00  0.00     0.031 A 
ATOM     44  C   UNL A   1      38.302  32.698  32.646  1.00  0.00     0.074 A 
ATOM     45  C   UNL A   1      38.269  31.163  30.706  1.00  0.00     0.049 A 
ATOM     46  N   UNL A   1      39.345  32.250  33.295  1.00  0.00    -0.248 NA
ATOM     47  C   UNL A   1      37.671  33.873  33.269  1.00  0.00     0.031 C 
ATOM     48  C   UNL A   1      37.827  30.634  29.413  1.00  0.00     0.029 A 
ATOM     49  N   UNL A   1      39.357  30.390  31.025  1.00  0.00    -0.354 N 
ATOM     50  C   UNL A   1      39.522  33.109  34.373  1.00  0.00     0.074 A 
ATOM     51  C   UNL A   1      38.492  34.121  34.280  1.00  0.00     0.031 C 
ATOM     52  C   UNL A   1      38.635  29.623  29.052  1.00  0.00     0.029 A 
ATOM     53  C   UNL A   1      39.668  29.451  30.069  1.00  0.00     0.049 A 
ATOM     54  H   UNL A   1      39.867  30.497  31.860  1.00  0.00     0.167 HD
ATOM     55  C   UNL A   1      40.443  33.049  35.363  1.00  0.00     0.034 A 
ATOM     56  C   UNL A   1      40.675  28.557  30.013  1.00  0.00     0.034 A 
ATOM     57  C   UNL A   1      41.427  32.008  35.485  1.00  0.00     0.049 A 
ATOM     58  C   UNL A   1      41.651  28.483  31.157  1.00  0.00     0.074 A 
ATOM     59  C   UNL A   1      42.324  31.793  36.517  1.00  0.00     0.029 A 
ATOM     60  N   UNL A   1      41.652  31.017  34.545  1.00  0.00    -0.354 N 
ATOM     61  N   UNL A   1      41.685  29.190  32.260  1.00  0.00    -0.248 NA
ATOM     62  C   UNL A   1      42.707  27.464  31.065  1.00  0.00     0.031 C 
ATOM     63  C   UNL A   1      43.115  30.690  36.183  1.00  0.00     0.029 A 
ATOM     64  C   UNL A   1      42.688  30.198  34.960  1.00  0.00     0.049 A 
ATOM     65  H   UNL A   1      41.150  30.910  33.704  1.00  0.00     0.167 HD
ATOM     66  C   UNL A   1      42.735  28.673  33.010  1.00  0.00     0.074 A 
ATOM     67  C   UNL A   1      43.299  27.581  32.246  1.00  0.00     0.031 C 
ATOM     68  C   UNL A   1      43.200  29.076  34.219  1.00  0.00     0.034 A 
BRANCH  55  69
ATOM     69  C   UNL A   1      40.411  34.113  36.428  1.00  0.00     0.023 A 
ATOM     70  C   UNL A   1      40.858  35.416  36.131  1.00  0.00     0.012 A 
ATOM     71  C   UNL A   1      39.852  33.845  37.693  1.00  0.00     0.148 A 
ATOM     72  C   UNL A   1      40.774  36.430  37.085  1.00  0.00     0.002 A 
ATOM     73  C   UNL A   1      39.728  34.871  38.623  1.00  0.00     0.091 A 
ATOM     74  F   UNL A   1      39.450  32.594  37.963  1.00  0.00    -0.205 F 
ATOM     75  C   UNL A   1      40.198  36.161  38.324  1.00  0.00     0.022 A 
BRANCH  73  76
ATOM     76  S   UNL A   1      38.927  34.647  40.214  1.00  0.00     0.127 S 
ATOM     77  O   UNL A   1      39.963  33.943  40.969  1.00  0.00    -0.237 OA
ATOM     78  O   UNL A   1      38.696  36.027  40.638  1.00  0.00    -0.237 OA
ATOM     79  O   UNL A   1      37.718  33.879  39.953  1.00  0.00    -0.744 OA
ENDBRANCH  73  76
ENDBRANCH  55  69
BRANCH  56  80
ATOM     80  C   UNL A   1      40.785  27.617  28.860  1.00  0.00     0.023 A 
ATOM     81  C   UNL A   1      39.943  26.489  28.806  1.00  0.00     0.012 A 
ATOM     82  C   UNL A   1      41.715  27.828  27.825  1.00  0.00     0.148 A 
ATOM     83  C   UNL A   1      40.055  25.565  27.765  1.00  0.00     0.002 A 
ATOM     84  C   UNL A   1      41.783  26.936  26.761  1.00  0.00     0.091 A 
ATOM     85  F   UNL A   1      42.519  28.899  27.899  1.00  0.00    -0.205 F 
ATOM     86  C   UNL A   1      40.968  25.793  26.739  1.00  0.00     0.022 A 
BRANCH  84  87
ATOM     87  S   UNL A   1      42.837  27.224  25.336  1.00  0.00     0.127 S 
ATOM     88  O   UNL A   1      42.707  25.966  24.607  1.00  0.00    -0.237 OA
ATOM     89  O   UNL A   1      42.189  28.373  24.703  1.00  0.00    -0.237 OA
ATOM     90  O   UNL A   1      44.158  27.510  25.881  1.00  0.00    -0.744 OA
ENDBRANCH  84  87
ENDBRANCH  56  80
BRANCH  68  91
ATOM     91  C   UNL A   1      44.348  28.308  34.820  1.00  0.00     0.023 A 
ATOM     92  C   UNL A   1      45.671  28.744  34.616  1.00  0.00     0.012 A 
ATOM     93  C   UNL A   1      44.105  27.198  35.654  1.00  0.00     0.148 A 
ATOM     94  C   UNL A   1      46.739  28.066  35.203  1.00  0.00     0.002 A 
ATOM     95  C   UNL A   1      45.170  26.559  36.278  1.00  0.00     0.091 A 
ATOM     96  F   UNL A   1      42.840  26.788  35.822  1.00  0.00    -0.205 F 
ATOM     97  C   UNL A   1      46.488  26.984  36.043  1.00  0.00     0.022 A 
BRANCH  95  98
ATOM     98  S   UNL A   1      44.935  25.223  37.454  1.00  0.00     0.127 S 
ATOM     99  O   UNL A   1      46.263  25.117  38.055  1.00  0.00    -0.237 OA
ATOM    100  O   UNL A   1      43.906  25.768  38.341  1.00  0.00    -0.237 OA
ATOM    101  O   UNL A   1      44.508  24.071  36.672  1.00  0.00    -0.744 OA
ENDBRANCH  95  98
ENDBRANCH  68  91
ENDBRANCH  42  43
ENDBRANCH  34  37
ENDBRANCH  32  33
ENDBRANCH  31  32
ENDBRANCH  30  31
ENDBRANCH   1  30
TORSDOF 20
ENDMDL
MODEL 3
REMARK VINA RESULT:     -11.2      3.137      9.386
REMARK SMILES CC(C)c1ccc(NC(=O)C[C@H]2SC[C@@H](C(=O)NCCCCCCNC(=O)c3ccc(-c4c5nc(c(-c6cccc(S(=O)(=O)[O-])c6F)c6ccc([nH]6)c(-c6cccc(S(=O)(=O)[O-])c6F)c6nc(c(-c7cccc(S(=O)(=O)[O-])c7F)c7ccc4[nH]7)C=C6)C=C5)cc3)NC2=O)cc1
REMARK SMILES IDX 21 1 20 2 19 3 18 4 16 5 17 6 15 8 12 9 13 10 92 11 14 12
REMARK SMILES IDX 91 13 93 14 11 16 9 17 8 18 10 20 7 21 4 22 5 23 95 24 6 25
REMARK SMILES IDX 94 26 2 27 1 28 3 29 22 30 23 31 24 32 25 33 26 34 27 36
REMARK SMILES IDX 28 37 29 38 90 39 30 40 89 41 31 42 32 43 33 44 83 45 34 46
REMARK SMILES IDX 88 47 82 48 84 49 35 50 87 51 81 52 80 53 36 55 68 56 48 57
REMARK SMILES IDX 67 58 49 59 52 60 66 61 85 62 50 63 51 64 65 66 86 67 53 68
REMARK SMILES IDX 37 69 38 70 46 71 39 72 41 73 47 74 40 75 42 76 43 77 44 78
REMARK SMILES IDX 45 79 69 80 70 81 78 82 71 83 73 84 79 85 72 86 74 87 75 88
REMARK SMILES IDX 76 89 77 90 54 91 55 92 63 93 56 94 58 95 64 96 57 97 59 98
REMARK SMILES IDX 60 99 61 100 62 101
REMARK H PARENT 18 7 91 15 8 19 25 35 84 54 52 65
REMARK Flexibility Score: inf
ROOT
ATOM      1  C   UNL A   1      41.341  22.616  26.199  1.00  0.00     0.002 C 
ENDROOT
BRANCH   1   2
ATOM      2  C   UNL A   1      40.129  22.076  26.973  1.00  0.00     0.021 C 
BRANCH   2   3
ATOM      3  C   UNL A   1      38.911  21.807  26.088  1.00  0.00     0.116 C 
BRANCH   3   4
ATOM      4  N   UNL A   1      37.875  22.763  26.415  1.00  0.00    -0.354 N 
ATOM      5  C   UNL A   1      36.820  23.125  25.623  1.00  0.00     0.243 C 
ATOM      6  O   UNL A   1      36.397  24.275  25.730  1.00  0.00    -0.273 OA
ATOM      7  H   UNL A   1      37.935  23.196  27.296  1.00  0.00     0.163 HD
BRANCH   5   8
ATOM      8  C   UNL A   1      36.054  22.001  24.894  1.00  0.00     0.181 C 
ATOM      9  C   UNL A   1      33.203  22.250  25.962  1.00  0.00     0.145 C 
ATOM     10  S   UNL A   1      33.586  23.338  24.521  1.00  0.00    -0.145 SA
ATOM     11  C   UNL A   1      34.449  21.793  26.728  1.00  0.00     0.234 C 
ATOM     12  C   UNL A   1      35.051  22.490  23.860  1.00  0.00     0.105 C 
ATOM     13  N   UNL A   1      35.471  21.243  25.992  1.00  0.00    -0.343 N 
ATOM     14  O   UNL A   1      34.572  21.762  27.949  1.00  0.00    -0.274 OA
ATOM     15  H   UNL A   1      35.807  20.342  26.205  1.00  0.00     0.164 HD
BRANCH   9  16
ATOM     16  C   UNL A   1      32.076  22.920  26.765  1.00  0.00     0.124 C 
BRANCH  16  17
ATOM     17  C   UNL A   1      30.658  22.935  26.226  1.00  0.00     0.226 C 
ATOM     18  N   UNL A   1      30.065  24.032  25.684  1.00  0.00    -0.326 N 
ATOM     19  H   UNL A   1      29.151  23.869  25.356  1.00  0.00     0.169 HD
ATOM     20  O   UNL A   1      29.975  21.905  26.295  1.00  0.00    -0.275 OA
BRANCH  18  21
ATOM     21  C   UNL A   1      30.504  25.347  25.505  1.00  0.00     0.041 A 
ATOM     22  C   UNL A   1      31.578  27.893  24.966  1.00  0.00    -0.045 A 
ATOM     23  C   UNL A   1      31.318  27.484  26.282  1.00  0.00     0.006 A 
ATOM     24  C   UNL A   1      31.250  27.025  23.919  1.00  0.00     0.006 A 
ATOM     25  C   UNL A   1      30.770  26.227  26.548  1.00  0.00     0.026 A 
ATOM     26  C   UNL A   1      30.703  25.770  24.188  1.00  0.00     0.026 A 
BRANCH  22  27
ATOM     27  C   UNL A   1      32.180  29.252  24.660  1.00  0.00     0.013 C 
ATOM     28  C   UNL A   1      31.668  30.303  25.647  1.00  0.00     0.012 C 
ATOM     29  C   UNL A   1      33.710  29.204  24.648  1.00  0.00     0.012 C 
ENDBRANCH  22  27
ENDBRANCH  18  21
ENDBRANCH  16  17
ENDBRANCH   9  16
ENDBRANCH   5   8
ENDBRANCH   3   4
ENDBRANCH   2   3
ENDBRANCH   1   2
BRANCH   1  30
ATOM     30  C   UNL A   1      42.563  21.691  26.192  1.00  0.00     0.002 C 
BRANCH  30  31
ATOM     31  C   UNL A   1      43.702  22.148  25.278  1.00  0.00     0.021 C 
BRANCH  31  32
ATOM     32  C   UNL A   1      43.569  23.583  24.784  1.00  0.00     0.116 C 
BRANCH  32  33
ATOM     33  N   UNL A   1      44.864  24.206  24.569  1.00  0.00    -0.352 N 
ATOM     34  C   UNL A   1      45.340  25.387  25.080  1.00  0.00     0.251 C 
ATOM     35  H   UNL A   1      45.482  23.716  23.980  1.00  0.00     0.163 HD
ATOM     36  O   UNL A   1      46.386  25.870  24.649  1.00  0.00    -0.269 OA
BRANCH  34  37
ATOM     37  C   UNL A   1      44.577  26.084  26.135  1.00  0.00     0.039 A 
ATOM     38  C   UNL A   1      43.997  25.334  27.160  1.00  0.00     0.014 A 
ATOM     39  C   UNL A   1      44.445  27.476  26.118  1.00  0.00     0.014 A 
ATOM     40  C   UNL A   1      43.329  25.986  28.199  1.00  0.00     0.010 A 
ATOM     41  C   UNL A   1      43.844  28.127  27.191  1.00  0.00     0.010 A 
ATOM     42  C   UNL A   1      43.271  27.389  28.238  1.00  0.00    -0.014 A 
BRANCH  42  43
ATOM     43  C   UNL A   1      42.623  28.102  29.368  1.00  0.00     0.031 A 
ATOM     44  C   UNL A   1      43.311  28.186  30.706  1.00  0.00     0.074 A 
ATOM     45  C   UNL A   1      41.378  28.597  29.219  1.00  0.00     0.049 A 
ATOM     46  N   UNL A   1      42.882  28.720  31.820  1.00  0.00    -0.248 NA
ATOM     47  C   UNL A   1      44.641  27.564  30.816  1.00  0.00     0.031 C 
ATOM     48  C   UNL A   1      40.573  28.510  27.997  1.00  0.00     0.029 A 
ATOM     49  N   UNL A   1      40.558  29.249  30.107  1.00  0.00    -0.354 N 
ATOM     50  C   UNL A   1      43.863  28.460  32.769  1.00  0.00     0.074 A 
ATOM     51  C   UNL A   1      44.902  27.702  32.108  1.00  0.00     0.031 C 
ATOM     52  C   UNL A   1      39.379  29.087  28.213  1.00  0.00     0.029 A 
ATOM     53  C   UNL A   1      39.320  29.558  29.593  1.00  0.00     0.049 A 
ATOM     54  H   UNL A   1      40.831  29.473  31.026  1.00  0.00     0.167 HD
ATOM     55  C   UNL A   1      43.906  28.839  34.068  1.00  0.00     0.034 A 
ATOM     56  C   UNL A   1      38.254  30.147  30.170  1.00  0.00     0.034 A 
ATOM     57  C   UNL A   1      42.901  29.645  34.706  1.00  0.00     0.049 A 
ATOM     58  C   UNL A   1      38.356  30.603  31.602  1.00  0.00     0.074 A 
ATOM     59  C   UNL A   1      42.914  30.181  35.982  1.00  0.00     0.029 A 
ATOM     60  N   UNL A   1      41.701  30.020  34.125  1.00  0.00    -0.354 N 
ATOM     61  N   UNL A   1      39.370  30.510  32.427  1.00  0.00    -0.248 NA
ATOM     62  C   UNL A   1      37.180  31.276  32.171  1.00  0.00     0.031 C 
ATOM     63  C   UNL A   1      41.705  30.854  36.184  1.00  0.00     0.029 A 
ATOM     64  C   UNL A   1      40.955  30.764  35.023  1.00  0.00     0.049 A 
ATOM     65  H   UNL A   1      41.420  29.791  33.210  1.00  0.00     0.167 HD
ATOM     66  C   UNL A   1      38.970  31.150  33.594  1.00  0.00     0.074 A 
ATOM     67  C   UNL A   1      37.629  31.644  33.362  1.00  0.00     0.031 C 
ATOM     68  C   UNL A   1      39.647  31.303  34.759  1.00  0.00     0.034 A 
BRANCH  55  69
ATOM     69  C   UNL A   1      45.102  28.429  34.888  1.00  0.00     0.023 A 
ATOM     70  C   UNL A   1      45.117  27.173  35.526  1.00  0.00     0.012 A 
ATOM     71  C   UNL A   1      46.245  29.250  34.948  1.00  0.00     0.148 A 
ATOM     72  C   UNL A   1      46.241  26.750  36.233  1.00  0.00     0.002 A 
ATOM     73  C   UNL A   1      47.379  28.803  35.615  1.00  0.00     0.091 A 
ATOM     74  F   UNL A   1      46.203  30.450  34.351  1.00  0.00    -0.205 F 
ATOM     75  C   UNL A   1      47.375  27.558  36.267  1.00  0.00     0.022 A 
BRANCH  73  76
ATOM     76  S   UNL A   1      48.916  29.731  35.646  1.00  0.00     0.127 S 
ATOM     77  O   UNL A   1      49.216  29.851  34.220  1.00  0.00    -0.237 OA
ATOM     78  O   UNL A   1      48.507  30.979  36.290  1.00  0.00    -0.237 OA
ATOM     79  O   UNL A   1      49.857  28.928  36.414  1.00  0.00    -0.744 OA
ENDBRANCH  73  76
ENDBRANCH  55  69
BRANCH  56  80
ATOM     80  C   UNL A   1      37.013  30.396  29.382  1.00  0.00     0.023 A 
ATOM     81  C   UNL A   1      36.308  29.303  28.840  1.00  0.00     0.012 A 
ATOM     82  C   UNL A   1      36.529  31.700  29.163  1.00  0.00     0.148 A 
ATOM     83  C   UNL A   1      35.169  29.507  28.058  1.00  0.00     0.002 A 
ATOM     84  C   UNL A   1      35.363  31.893  28.432  1.00  0.00     0.091 A 
ATOM     85  F   UNL A   1      37.220  32.729  29.674  1.00  0.00    -0.205 F 
ATOM     86  C   UNL A   1      34.692  30.800  27.861  1.00  0.00     0.022 A 
BRANCH  84  87
ATOM     87  S   UNL A   1      34.610  33.513  28.242  1.00  0.00     0.127 S 
ATOM     88  O   UNL A   1      33.287  33.170  27.730  1.00  0.00    -0.237 OA
ATOM     89  O   UNL A   1      34.629  34.022  29.614  1.00  0.00    -0.237 OA
ATOM     90  O   UNL A   1      35.478  34.240  27.325  1.00  0.00    -0.744 OA
ENDBRANCH  84  87
ENDBRANCH  56  80
BRANCH  68  91
ATOM     91  C   UNL A   1      38.974  32.075  35.865  1.00  0.00     0.023 A 
ATOM     92  C   UNL A   1      38.967  33.483  35.838  1.00  0.00     0.012 A 
ATOM     93  C   UNL A   1      38.281  31.398  36.888  1.00  0.00     0.148 A 
ATOM     94  C   UNL A   1      38.311  34.206  36.833  1.00  0.00     0.002 A 
ATOM     95  C   UNL A   1      37.585  32.125  37.846  1.00  0.00     0.091 A 
ATOM     96  F   UNL A   1      38.315  30.057  36.907  1.00  0.00    -0.205 F 
ATOM     97  C   UNL A   1      37.610  33.529  37.828  1.00  0.00     0.022 A 
BRANCH  95  98
ATOM     98  S   UNL A   1      36.573  31.338  39.104  1.00  0.00     0.127 S 
ATOM     99  O   UNL A   1      36.315  30.030  38.504  1.00  0.00    -0.237 OA
ATOM    100  O   UNL A   1      37.475  31.313  40.257  1.00  0.00    -0.237 OA
ATOM    101  O   UNL A   1      35.405  32.191  39.270  1.00  0.00    -0.744 OA
ENDBRANCH  95  98
ENDBRANCH  68  91
ENDBRANCH  42  43
ENDBRANCH  34  37
ENDBRANCH  32  33
ENDBRANCH  31  32
ENDBRANCH  30  31
ENDBRANCH   1  30
TORSDOF 20
ENDMDL
