MODEL 1
REMARK VINA RESULT:     -10.4      0.000      0.000
REMARK SMILES CC[C@H](Oc1ccc(C)nc1C[NH3+])C(=O)NCCCCCCNC(=O)c1ccc(-c2c3nc(c(-c4cccc(S(=O)(=O)[O-])c4F)c4ccc([nH]4)c(-c4cccc(S(=O)(=O)[O-])c4F)c4nc(c(-c5cccc(S(=O)(=O)[O-])c5F)c5ccc2[nH]5)C=C4)C=C3)cc1
REMARK SMILES IDX 19 1 18 2 17 3 16 4 14 5 15 6 3 8 2 9 1 10 4 11 5 12 6 13
REMARK SMILES IDX 11 14 7 15 10 16 8 17 9 18 12 19 13 20 20 24 21 25 22 26
REMARK SMILES IDX 23 27 24 28 25 30 26 31 27 32 88 33 28 34 87 35 29 36 30 37
REMARK SMILES IDX 31 38 81 39 32 40 86 41 80 42 82 43 33 44 85 45 79 46 78 47
REMARK SMILES IDX 34 49 66 50 46 51 65 52 47 53 50 54 64 55 83 56 48 57 49 58
REMARK SMILES IDX 63 60 84 61 51 62 35 63 36 64 44 65 37 66 39 67 45 68 38 69
REMARK SMILES IDX 40 70 41 71 42 72 43 73 67 74 68 75 76 76 69 77 71 78 77 79
REMARK SMILES IDX 70 80 72 81 73 82 74 83 75 84 52 85 53 86 61 87 54 88 56 89
REMARK SMILES IDX 62 90 55 91 57 92 58 93 59 94 60 95
REMARK H PARENT 16 7 13 21 13 22 13 23 23 29 82 48 50 59
REMARK Flexibility Score: inf
ROOT
ATOM      1  C   UNL A   1      32.007  29.877  27.038  1.00  0.00     0.002 C 
ENDROOT
BRANCH   1   2
ATOM      2  C   UNL A   1      33.276  29.154  26.581  1.00  0.00     0.021 C 
BRANCH   2   3
ATOM      3  C   UNL A   1      33.257  27.646  26.799  1.00  0.00     0.116 C 
BRANCH   3   4
ATOM      4  N   UNL A   1      31.916  27.121  26.913  1.00  0.00    -0.353 N 
ATOM      5  C   UNL A   1      31.263  26.207  26.144  1.00  0.00     0.261 C 
ATOM      6  O   UNL A   1      30.101  25.931  26.470  1.00  0.00    -0.271 OA
ATOM      7  H   UNL A   1      31.391  27.481  27.664  1.00  0.00     0.163 HD
BRANCH   5   8
ATOM      8  C   UNL A   1      31.904  25.530  24.910  1.00  0.00     0.261 C 
BRANCH   8   9
ATOM      9  C   UNL A   1      31.081  25.668  23.613  1.00  0.00     0.052 C 
ATOM     10  C   UNL A   1      31.680  25.039  22.357  1.00  0.00     0.008 C 
ENDBRANCH   8   9
BRANCH   8  11
ATOM     11  O   UNL A   1      32.222  24.177  25.234  1.00  0.00    -0.478 OA
BRANCH  11  12
ATOM     12  C   UNL A   1      33.506  23.727  25.075  1.00  0.00     0.147 A 
ATOM     13  C   UNL A   1      34.659  24.476  25.311  1.00  0.00     0.050 A 
ATOM     14  C   UNL A   1      33.682  22.393  24.673  1.00  0.00     0.136 A 
ATOM     15  C   UNL A   1      35.921  23.907  25.141  1.00  0.00     0.027 A 
ATOM     16  N   UNL A   1      34.917  21.827  24.524  1.00  0.00    -0.248 NA
ATOM     17  C   UNL A   1      36.013  22.582  24.750  1.00  0.00     0.038 A 
ATOM     18  C   UNL A   1      37.341  21.916  24.570  1.00  0.00     0.067 C 
BRANCH  14  19
ATOM     19  C   UNL A   1      32.498  21.484  24.385  1.00  0.00     0.320 C 
BRANCH  19  20
ATOM     20  N   UNL A   1      31.678  21.206  25.570  1.00  0.00    -0.352 N 
ATOM     21  H   UNL A   1      31.874  21.900  26.291  1.00  0.00     0.344 HD
ATOM     22  H   UNL A   1      31.897  20.276  25.925  1.00  0.00     0.344 HD
ATOM     23  H   UNL A   1      30.691  21.248  25.316  1.00  0.00     0.344 HD
ENDBRANCH  19  20
ENDBRANCH  14  19
ENDBRANCH  11  12
ENDBRANCH   8  11
ENDBRANCH   5   8
ENDBRANCH   3   4
ENDBRANCH   2   3
ENDBRANCH   1   2
BRANCH   1  24
ATOM     24  C   UNL A   1      31.424  30.880  26.035  1.00  0.00     0.002 C 
BRANCH  24  25
ATOM     25  C   UNL A   1      31.364  32.334  26.513  1.00  0.00     0.021 C 
BRANCH  25  26
ATOM     26  C   UNL A   1      32.563  32.790  27.337  1.00  0.00     0.116 C 
BRANCH  26  27
ATOM     27  N   UNL A   1      32.489  34.203  27.667  1.00  0.00    -0.352 N 
ATOM     28  C   UNL A   1      33.142  34.906  28.646  1.00  0.00     0.251 C 
ATOM     29  H   UNL A   1      31.879  34.734  27.104  1.00  0.00     0.163 HD
ATOM     30  O   UNL A   1      32.789  36.052  28.909  1.00  0.00    -0.269 OA
BRANCH  28  31
ATOM     31  C   UNL A   1      34.267  34.289  29.384  1.00  0.00     0.039 A 
ATOM     32  C   UNL A   1      35.573  34.533  28.950  1.00  0.00     0.014 A 
ATOM     33  C   UNL A   1      34.038  33.435  30.467  1.00  0.00     0.014 A 
ATOM     34  C   UNL A   1      36.649  33.943  29.617  1.00  0.00     0.010 A 
ATOM     35  C   UNL A   1      35.114  32.906  31.175  1.00  0.00     0.010 A 
ATOM     36  C   UNL A   1      36.429  33.134  30.743  1.00  0.00    -0.014 A 
BRANCH  36  37
ATOM     37  C   UNL A   1      37.559  32.495  31.461  1.00  0.00     0.031 A 
ATOM     38  C   UNL A   1      38.316  31.360  30.824  1.00  0.00     0.074 A 
ATOM     39  C   UNL A   1      37.862  32.889  32.714  1.00  0.00     0.049 A 
ATOM     40  N   UNL A   1      39.318  30.666  31.299  1.00  0.00    -0.248 NA
ATOM     41  C   UNL A   1      37.870  30.925  29.489  1.00  0.00     0.031 C 
ATOM     42  C   UNL A   1      37.153  33.924  33.469  1.00  0.00     0.029 A 
ATOM     43  N   UNL A   1      38.833  32.452  33.580  1.00  0.00    -0.354 N 
ATOM     44  C   UNL A   1      39.593  29.692  30.346  1.00  0.00     0.074 A 
ATOM     45  C   UNL A   1      38.631  29.862  29.280  1.00  0.00     0.031 C 
ATOM     46  C   UNL A   1      37.721  34.051  34.679  1.00  0.00     0.029 A 
ATOM     47  C   UNL A   1      38.818  33.096  34.795  1.00  0.00     0.049 A 
ATOM     48  H   UNL A   1      39.478  31.745  33.353  1.00  0.00     0.167 HD
ATOM     49  C   UNL A   1      40.575  28.759  30.343  1.00  0.00     0.034 A 
ATOM     50  C   UNL A   1      39.606  32.938  35.877  1.00  0.00     0.034 A 
ATOM     51  C   UNL A   1      41.565  28.634  31.379  1.00  0.00     0.049 A 
ATOM     52  C   UNL A   1      40.729  31.937  35.822  1.00  0.00     0.074 A 
ATOM     53  C   UNL A   1      42.666  27.796  31.420  1.00  0.00     0.029 A 
ATOM     54  N   UNL A   1      41.572  29.365  32.557  1.00  0.00    -0.354 N 
ATOM     55  N   UNL A   1      41.081  31.143  34.839  1.00  0.00    -0.248 NA
ATOM     56  C   UNL A   1      41.588  31.838  37.010  1.00  0.00     0.031 C 
ATOM     57  C   UNL A   1      43.327  28.006  32.636  1.00  0.00     0.029 A 
ATOM     58  C   UNL A   1      42.652  28.991  33.340  1.00  0.00     0.049 A 
ATOM     59  H   UNL A   1      40.907  30.048  32.801  1.00  0.00     0.167 HD
ATOM     60  C   UNL A   1      42.225  30.484  35.272  1.00  0.00     0.074 A 
ATOM     61  C   UNL A   1      42.516  30.984  36.600  1.00  0.00     0.031 C 
ATOM     62  C   UNL A   1      42.961  29.541  34.634  1.00  0.00     0.034 A 
BRANCH  49  63
ATOM     63  C   UNL A   1      40.659  27.834  29.157  1.00  0.00     0.023 A 
ATOM     64  C   UNL A   1      39.828  26.696  29.098  1.00  0.00     0.012 A 
ATOM     65  C   UNL A   1      41.526  28.111  28.081  1.00  0.00     0.148 A 
ATOM     66  C   UNL A   1      39.885  25.829  28.007  1.00  0.00     0.002 A 
ATOM     67  C   UNL A   1      41.544  27.266  26.976  1.00  0.00     0.091 A 
ATOM     68  F   UNL A   1      42.327  29.183  28.163  1.00  0.00    -0.205 F 
ATOM     69  C   UNL A   1      40.734  26.120  26.943  1.00  0.00     0.022 A 
BRANCH  67  70
ATOM     70  S   UNL A   1      42.544  27.600  25.522  1.00  0.00     0.127 S 
ATOM     71  O   UNL A   1      41.975  28.864  25.057  1.00  0.00    -0.237 OA
ATOM     72  O   UNL A   1      43.888  27.710  26.090  1.00  0.00    -0.237 OA
ATOM     73  O   UNL A   1      42.354  26.461  24.636  1.00  0.00    -0.744 OA
ENDBRANCH  67  70
ENDBRANCH  49  63
BRANCH  50  74
ATOM     74  C   UNL A   1      39.422  33.816  37.066  1.00  0.00     0.023 A 
ATOM     75  C   UNL A   1      39.844  35.160  36.999  1.00  0.00     0.012 A 
ATOM     76  C   UNL A   1      38.809  33.349  38.244  1.00  0.00     0.148 A 
ATOM     77  C   UNL A   1      39.688  36.011  38.092  1.00  0.00     0.002 A 
ATOM     78  C   UNL A   1      38.609  34.216  39.312  1.00  0.00     0.091 A 
ATOM     79  F   UNL A   1      38.423  32.065  38.293  1.00  0.00    -0.205 F 
ATOM     80  C   UNL A   1      39.063  35.543  39.244  1.00  0.00     0.022 A 
BRANCH  78  81
ATOM     81  S   UNL A   1      37.699  33.739  40.785  1.00  0.00     0.127 S 
ATOM     82  O   UNL A   1      36.510  33.111  40.213  1.00  0.00    -0.237 OA
ATOM     83  O   UNL A   1      38.633  32.817  41.433  1.00  0.00    -0.237 OA
ATOM     84  O   UNL A   1      37.470  34.975  41.522  1.00  0.00    -0.744 OA
ENDBRANCH  78  81
ENDBRANCH  50  74
BRANCH  62  85
ATOM     85  C   UNL A   1      44.181  29.011  35.342  1.00  0.00     0.023 A 
ATOM     86  C   UNL A   1      45.433  29.620  35.132  1.00  0.00     0.012 A 
ATOM     87  C   UNL A   1      44.071  27.956  36.269  1.00  0.00     0.148 A 
ATOM     88  C   UNL A   1      46.565  29.163  35.807  1.00  0.00     0.002 A 
ATOM     89  C   UNL A   1      45.194  27.539  36.975  1.00  0.00     0.091 A 
ATOM     90  F   UNL A   1      42.875  27.374  36.441  1.00  0.00    -0.205 F 
ATOM     91  C   UNL A   1      46.443  28.133  36.736  1.00  0.00     0.022 A 
BRANCH  89  92
ATOM     92  S   UNL A   1      45.105  26.287  38.260  1.00  0.00     0.127 S 
ATOM     93  O   UNL A   1      46.489  26.242  38.729  1.00  0.00    -0.237 OA
ATOM     94  O   UNL A   1      44.160  26.878  39.208  1.00  0.00    -0.237 OA
ATOM     95  O   UNL A   1      44.623  25.078  37.605  1.00  0.00    -0.744 OA
ENDBRANCH  89  92
ENDBRANCH  62  85
ENDBRANCH  36  37
ENDBRANCH  28  31
ENDBRANCH  26  27
ENDBRANCH  25  26
ENDBRANCH  24  25
ENDBRANCH   1  24
TORSDOF 21
ENDMDL
MODEL 2
REMARK VINA RESULT:     -10.3      1.884      3.078
REMARK SMILES CC[C@H](Oc1ccc(C)nc1C[NH3+])C(=O)NCCCCCCNC(=O)c1ccc(-c2c3nc(c(-c4cccc(S(=O)(=O)[O-])c4F)c4ccc([nH]4)c(-c4cccc(S(=O)(=O)[O-])c4F)c4nc(c(-c5cccc(S(=O)(=O)[O-])c5F)c5ccc2[nH]5)C=C4)C=C3)cc1
REMARK SMILES IDX 19 1 18 2 17 3 16 4 14 5 15 6 3 8 2 9 1 10 4 11 5 12 6 13
REMARK SMILES IDX 11 14 7 15 10 16 8 17 9 18 12 19 13 20 20 24 21 25 22 26
REMARK SMILES IDX 23 27 24 28 25 30 26 31 27 32 88 33 28 34 87 35 29 36 30 37
REMARK SMILES IDX 31 38 81 39 32 40 86 41 80 42 82 43 33 44 85 45 79 46 78 47
REMARK SMILES IDX 34 49 66 50 46 51 65 52 47 53 50 54 64 55 83 56 48 57 49 58
REMARK SMILES IDX 63 60 84 61 51 62 35 63 36 64 44 65 37 66 39 67 45 68 38 69
REMARK SMILES IDX 40 70 41 71 42 72 43 73 67 74 68 75 76 76 69 77 71 78 77 79
REMARK SMILES IDX 70 80 72 81 73 82 74 83 75 84 52 85 53 86 61 87 54 88 56 89
REMARK SMILES IDX 62 90 55 91 57 92 58 93 59 94 60 95
REMARK H PARENT 16 7 13 21 13 22 13 23 23 29 82 48 50 59
REMARK Flexibility Score: inf
ROOT
ATOM      1  C   UNL A   1      32.248  29.619  25.886  1.00  0.00     0.002 C 
ENDROOT
BRANCH   1   2
ATOM      2  C   UNL A   1      31.851  28.199  25.473  1.00  0.00     0.021 C 
BRANCH   2   3
ATOM      3  C   UNL A   1      32.096  27.139  26.538  1.00  0.00     0.116 C 
BRANCH   3   4
ATOM      4  N   UNL A   1      32.943  26.067  26.067  1.00  0.00    -0.353 N 
ATOM      5  C   UNL A   1      32.616  24.890  25.466  1.00  0.00     0.261 C 
ATOM      6  O   UNL A   1      33.552  24.141  25.160  1.00  0.00    -0.271 OA
ATOM      7  H   UNL A   1      33.907  26.209  26.204  1.00  0.00     0.163 HD
BRANCH   5   8
ATOM      8  C   UNL A   1      31.157  24.469  25.172  1.00  0.00     0.261 C 
BRANCH   8   9
ATOM      9  C   UNL A   1      30.812  23.031  25.610  1.00  0.00     0.052 C 
ATOM     10  C   UNL A   1      30.114  22.879  26.959  1.00  0.00     0.008 C 
ENDBRANCH   8   9
BRANCH   8  11
ATOM     11  O   UNL A   1      30.867  24.723  23.798  1.00  0.00    -0.478 OA
BRANCH  11  12
ATOM     12  C   UNL A   1      30.327  25.929  23.432  1.00  0.00     0.147 A 
ATOM     13  C   UNL A   1      29.124  26.451  23.907  1.00  0.00     0.050 A 
ATOM     14  C   UNL A   1      31.055  26.720  22.530  1.00  0.00     0.136 A 
ATOM     15  C   UNL A   1      28.680  27.704  23.485  1.00  0.00     0.027 A 
ATOM     16  N   UNL A   1      30.632  27.957  22.129  1.00  0.00    -0.248 NA
ATOM     17  C   UNL A   1      29.459  28.429  22.599  1.00  0.00     0.038 A 
ATOM     18  C   UNL A   1      29.039  29.786  22.127  1.00  0.00     0.067 C 
BRANCH  14  19
ATOM     19  C   UNL A   1      32.378  26.251  21.945  1.00  0.00     0.320 C 
BRANCH  19  20
ATOM     20  N   UNL A   1      32.287  24.951  21.270  1.00  0.00    -0.352 N 
ATOM     21  H   UNL A   1      32.133  24.219  21.963  1.00  0.00     0.344 HD
ATOM     22  H   UNL A   1      33.154  24.767  20.768  1.00  0.00     0.344 HD
ATOM     23  H   UNL A   1      31.508  24.965  20.611  1.00  0.00     0.344 HD
ENDBRANCH  19  20
ENDBRANCH  14  19
ENDBRANCH  11  12
ENDBRANCH   8  11
ENDBRANCH   5   8
ENDBRANCH   3   4
ENDBRANCH   2   3
ENDBRANCH   1   2
BRANCH   1  24
ATOM     24  C   UNL A   1      31.214  30.707  25.576  1.00  0.00     0.002 C 
BRANCH  24  25
ATOM     25  C   UNL A   1      31.171  31.878  26.562  1.00  0.00     0.021 C 
BRANCH  25  26
ATOM     26  C   UNL A   1      32.532  32.456  26.934  1.00  0.00     0.116 C 
BRANCH  26  27
ATOM     27  N   UNL A   1      32.433  33.836  27.378  1.00  0.00    -0.352 N 
ATOM     28  C   UNL A   1      33.112  34.481  28.380  1.00  0.00     0.251 C 
ATOM     29  H   UNL A   1      31.783  34.389  26.887  1.00  0.00     0.163 HD
ATOM     30  O   UNL A   1      32.739  35.590  28.749  1.00  0.00    -0.269 OA
BRANCH  28  31
ATOM     31  C   UNL A   1      34.286  33.844  29.016  1.00  0.00     0.039 A 
ATOM     32  C   UNL A   1      34.084  32.754  29.868  1.00  0.00     0.014 A 
ATOM     33  C   UNL A   1      35.576  34.345  28.816  1.00  0.00     0.014 A 
ATOM     34  C   UNL A   1      35.176  32.151  30.496  1.00  0.00     0.010 A 
ATOM     35  C   UNL A   1      36.670  33.698  29.387  1.00  0.00     0.010 A 
ATOM     36  C   UNL A   1      36.479  32.611  30.252  1.00  0.00    -0.014 A 
BRANCH  36  37
ATOM     37  C   UNL A   1      37.651  31.986  30.915  1.00  0.00     0.031 A 
ATOM     38  C   UNL A   1      38.499  30.991  30.170  1.00  0.00     0.074 A 
ATOM     39  C   UNL A   1      37.911  32.262  32.208  1.00  0.00     0.049 A 
ATOM     40  N   UNL A   1      39.550  30.329  30.583  1.00  0.00    -0.248 NA
ATOM     41  C   UNL A   1      38.100  30.673  28.788  1.00  0.00     0.031 C 
ATOM     42  C   UNL A   1      37.117  33.149  33.060  1.00  0.00     0.029 A 
ATOM     43  N   UNL A   1      38.907  31.809  33.037  1.00  0.00    -0.354 N 
ATOM     44  C   UNL A   1      39.908  29.490  29.534  1.00  0.00     0.074 A 
ATOM     45  C   UNL A   1      38.944  29.701  28.477  1.00  0.00     0.031 C 
ATOM     46  C   UNL A   1      37.663  33.186  34.286  1.00  0.00     0.029 A 
ATOM     47  C   UNL A   1      38.831  32.311  34.316  1.00  0.00     0.049 A 
ATOM     48  H   UNL A   1      39.608  31.184  32.745  1.00  0.00     0.167 HD
ATOM     49  C   UNL A   1      40.961  28.642  29.446  1.00  0.00     0.034 A 
ATOM     50  C   UNL A   1      39.620  32.097  35.386  1.00  0.00     0.034 A 
ATOM     51  C   UNL A   1      41.949  28.481  30.478  1.00  0.00     0.049 A 
ATOM     52  C   UNL A   1      40.819  31.198  35.241  1.00  0.00     0.074 A 
ATOM     53  C   UNL A   1      43.112  27.731  30.446  1.00  0.00     0.029 A 
ATOM     54  N   UNL A   1      41.889  29.075  31.729  1.00  0.00    -0.354 N 
ATOM     55  N   UNL A   1      41.240  30.547  34.183  1.00  0.00    -0.248 NA
ATOM     56  C   UNL A   1      41.674  31.035  36.425  1.00  0.00     0.031 C 
ATOM     57  C   UNL A   1      43.744  27.856  31.688  1.00  0.00     0.029 A 
ATOM     58  C   UNL A   1      42.988  28.702  32.484  1.00  0.00     0.049 A 
ATOM     59  H   UNL A   1      41.171  29.674  32.035  1.00  0.00     0.167 HD
ATOM     60  C   UNL A   1      42.430  29.935  34.560  1.00  0.00     0.074 A 
ATOM     61  C   UNL A   1      42.670  30.306  35.940  1.00  0.00     0.031 C 
ATOM     62  C   UNL A   1      43.243  29.128  33.836  1.00  0.00     0.034 A 
BRANCH  49  63
ATOM     63  C   UNL A   1      41.127  27.863  28.167  1.00  0.00     0.023 A 
ATOM     64  C   UNL A   1      41.637  28.505  27.019  1.00  0.00     0.012 A 
ATOM     65  C   UNL A   1      40.824  26.489  28.109  1.00  0.00     0.148 A 
ATOM     66  C   UNL A   1      41.805  27.803  25.826  1.00  0.00     0.002 A 
ATOM     67  C   UNL A   1      41.037  25.785  26.929  1.00  0.00     0.091 A 
ATOM     68  F   UNL A   1      40.317  25.898  29.202  1.00  0.00    -0.205 F 
ATOM     69  C   UNL A   1      41.515  26.442  25.784  1.00  0.00     0.022 A 
BRANCH  67  70
ATOM     70  S   UNL A   1      40.771  24.012  26.800  1.00  0.00     0.127 S 
ATOM     71  O   UNL A   1      39.351  23.952  26.459  1.00  0.00    -0.237 OA
ATOM     72  O   UNL A   1      41.676  23.642  25.711  1.00  0.00    -0.237 OA
ATOM     73  O   UNL A   1      41.130  23.460  28.098  1.00  0.00    -0.744 OA
ENDBRANCH  67  70
ENDBRANCH  49  63
BRANCH  50  74
ATOM     74  C   UNL A   1      39.358  32.821  36.661  1.00  0.00     0.023 A 
ATOM     75  C   UNL A   1      39.985  34.064  36.885  1.00  0.00     0.012 A 
ATOM     76  C   UNL A   1      38.476  32.313  37.634  1.00  0.00     0.148 A 
ATOM     77  C   UNL A   1      39.764  34.771  38.067  1.00  0.00     0.002 A 
ATOM     78  C   UNL A   1      38.219  33.047  38.786  1.00  0.00     0.091 A 
ATOM     79  F   UNL A   1      37.897  31.125  37.407  1.00  0.00    -0.205 F 
ATOM     80  C   UNL A   1      38.874  34.268  39.013  1.00  0.00     0.022 A 
BRANCH  78  81
ATOM     81  S   UNL A   1      36.993  32.542  39.998  1.00  0.00     0.127 S 
ATOM     82  O   UNL A   1      37.551  31.282  40.483  1.00  0.00    -0.237 OA
ATOM     83  O   UNL A   1      37.039  33.647  40.956  1.00  0.00    -0.237 OA
ATOM     84  O   UNL A   1      35.737  32.439  39.265  1.00  0.00    -0.744 OA
ENDBRANCH  78  81
ENDBRANCH  50  74
BRANCH  62  85
ATOM     85  C   UNL A   1      44.495  28.619  34.502  1.00  0.00     0.023 A 
ATOM     86  C   UNL A   1      45.675  29.386  34.456  1.00  0.00     0.012 A 
ATOM     87  C   UNL A   1      44.480  27.415  35.233  1.00  0.00     0.148 A 
ATOM     88  C   UNL A   1      46.832  28.946  35.097  1.00  0.00     0.002 A 
ATOM     89  C   UNL A   1      45.623  27.007  35.911  1.00  0.00     0.091 A 
ATOM     90  F   UNL A   1      43.354  26.687  35.248  1.00  0.00    -0.205 F 
ATOM     91  C   UNL A   1      46.803  27.764  35.834  1.00  0.00     0.022 A 
BRANCH  89  92
ATOM     92  S   UNL A   1      45.643  25.551  36.964  1.00  0.00     0.127 S 
ATOM     93  O   UNL A   1      45.424  24.480  35.994  1.00  0.00    -0.237 OA
ATOM     94  O   UNL A   1      46.990  25.594  37.532  1.00  0.00    -0.237 OA
ATOM     95  O   UNL A   1      44.574  25.749  37.935  1.00  0.00    -0.744 OA
ENDBRANCH  89  92
ENDBRANCH  62  85
ENDBRANCH  36  37
ENDBRANCH  28  31
ENDBRANCH  26  27
ENDBRANCH  25  26
ENDBRANCH  24  25
ENDBRANCH   1  24
TORSDOF 21
ENDMDL
MODEL 3
REMARK VINA RESULT:     -10.2      1.533      8.243
REMARK SMILES CC[C@H](Oc1ccc(C)nc1C[NH3+])C(=O)NCCCCCCNC(=O)c1ccc(-c2c3nc(c(-c4cccc(S(=O)(=O)[O-])c4F)c4ccc([nH]4)c(-c4cccc(S(=O)(=O)[O-])c4F)c4nc(c(-c5cccc(S(=O)(=O)[O-])c5F)c5ccc2[nH]5)C=C4)C=C3)cc1
REMARK SMILES IDX 19 1 18 2 17 3 16 4 14 5 15 6 3 8 2 9 1 10 4 11 5 12 6 13
REMARK SMILES IDX 11 14 7 15 10 16 8 17 9 18 12 19 13 20 20 24 21 25 22 26
REMARK SMILES IDX 23 27 24 28 25 30 26 31 27 32 88 33 28 34 87 35 29 36 30 37
REMARK SMILES IDX 31 38 81 39 32 40 86 41 80 42 82 43 33 44 85 45 79 46 78 47
REMARK SMILES IDX 34 49 66 50 46 51 65 52 47 53 50 54 64 55 83 56 48 57 49 58
REMARK SMILES IDX 63 60 84 61 51 62 35 63 36 64 44 65 37 66 39 67 45 68 38 69
REMARK SMILES IDX 40 70 41 71 42 72 43 73 67 74 68 75 76 76 69 77 71 78 77 79
REMARK SMILES IDX 70 80 72 81 73 82 74 83 75 84 52 85 53 86 61 87 54 88 56 89
REMARK SMILES IDX 62 90 55 91 57 92 58 93 59 94 60 95
REMARK H PARENT 16 7 13 21 13 22 13 23 23 29 82 48 50 59
REMARK Flexibility Score: inf
ROOT
ATOM      1  C   UNL A   1      32.275  29.867  26.049  1.00  0.00     0.002 C 
ENDROOT
BRANCH   1   2
ATOM      2  C   UNL A   1      31.513  28.597  26.440  1.00  0.00     0.021 C 
BRANCH   2   3
ATOM      3  C   UNL A   1      32.352  27.555  27.167  1.00  0.00     0.116 C 
BRANCH   3   4
ATOM      4  N   UNL A   1      33.377  26.983  26.323  1.00  0.00    -0.353 N 
ATOM      5  C   UNL A   1      33.332  25.899  25.502  1.00  0.00     0.261 C 
ATOM      6  O   UNL A   1      34.368  25.624  24.883  1.00  0.00    -0.271 OA
ATOM      7  H   UNL A   1      34.242  27.449  26.347  1.00  0.00     0.163 HD
BRANCH   5   8
ATOM      8  C   UNL A   1      32.069  25.021  25.330  1.00  0.00     0.261 C 
BRANCH   8   9
ATOM      9  C   UNL A   1      32.232  23.572  25.831  1.00  0.00     0.052 C 
ATOM     10  C   UNL A   1      31.345  22.519  25.171  1.00  0.00     0.008 C 
ENDBRANCH   8   9
BRANCH   8  11
ATOM     11  O   UNL A   1      31.629  25.101  23.975  1.00  0.00    -0.478 OA
BRANCH  11  12
ATOM     12  C   UNL A   1      30.782  26.111  23.597  1.00  0.00     0.147 A 
ATOM     13  C   UNL A   1      29.492  26.310  24.089  1.00  0.00     0.050 A 
ATOM     14  C   UNL A   1      31.260  27.043  22.663  1.00  0.00     0.136 A 
ATOM     15  C   UNL A   1      28.726  27.390  23.652  1.00  0.00     0.027 A 
ATOM     16  N   UNL A   1      30.519  28.114  22.247  1.00  0.00    -0.248 NA
ATOM     17  C   UNL A   1      29.270  28.272  22.733  1.00  0.00     0.038 A 
ATOM     18  C   UNL A   1      28.499  29.457  22.244  1.00  0.00     0.067 C 
BRANCH  14  19
ATOM     19  C   UNL A   1      32.649  26.925  22.057  1.00  0.00     0.320 C 
BRANCH  19  20
ATOM     20  N   UNL A   1      32.869  25.659  21.348  1.00  0.00    -0.352 N 
ATOM     21  H   UNL A   1      33.211  25.852  20.406  1.00  0.00     0.344 HD
ATOM     22  H   UNL A   1      31.992  25.144  21.292  1.00  0.00     0.344 HD
ATOM     23  H   UNL A   1      33.559  25.103  21.853  1.00  0.00     0.344 HD
ENDBRANCH  19  20
ENDBRANCH  14  19
ENDBRANCH  11  12
ENDBRANCH   8  11
ENDBRANCH   5   8
ENDBRANCH   3   4
ENDBRANCH   2   3
ENDBRANCH   1   2
BRANCH   1  24
ATOM     24  C   UNL A   1      31.403  31.092  25.754  1.00  0.00     0.002 C 
BRANCH  24  25
ATOM     25  C   UNL A   1      31.346  32.147  26.863  1.00  0.00     0.021 C 
BRANCH  25  26
ATOM     26  C   UNL A   1      32.691  32.761  27.236  1.00  0.00     0.116 C 
BRANCH  26  27
ATOM     27  N   UNL A   1      32.548  34.117  27.738  1.00  0.00    -0.352 N 
ATOM     28  C   UNL A   1      33.185  34.731  28.786  1.00  0.00     0.251 C 
ATOM     29  H   UNL A   1      31.898  34.677  27.255  1.00  0.00     0.163 HD
ATOM     30  O   UNL A   1      32.777  35.814  29.193  1.00  0.00    -0.269 OA
BRANCH  28  31
ATOM     31  C   UNL A   1      34.358  34.093  29.424  1.00  0.00     0.039 A 
ATOM     32  C   UNL A   1      35.636  34.416  28.960  1.00  0.00     0.014 A 
ATOM     33  C   UNL A   1      34.201  33.146  30.441  1.00  0.00     0.014 A 
ATOM     34  C   UNL A   1      36.757  33.809  29.533  1.00  0.00     0.010 A 
ATOM     35  C   UNL A   1      35.321  32.596  31.058  1.00  0.00     0.010 A 
ATOM     36  C   UNL A   1      36.609  32.903  30.594  1.00  0.00    -0.014 A 
BRANCH  36  37
ATOM     37  C   UNL A   1      37.787  32.244  31.212  1.00  0.00     0.031 A 
ATOM     38  C   UNL A   1      38.354  32.766  32.505  1.00  0.00     0.074 A 
ATOM     39  C   UNL A   1      38.389  31.221  30.575  1.00  0.00     0.049 A 
ATOM     40  N   UNL A   1      39.384  32.337  33.188  1.00  0.00    -0.248 NA
ATOM     41  C   UNL A   1      37.695  33.944  33.097  1.00  0.00     0.031 C 
ATOM     42  C   UNL A   1      37.983  30.675  29.278  1.00  0.00     0.029 A 
ATOM     43  N   UNL A   1      39.484  30.469  30.923  1.00  0.00    -0.354 N 
ATOM     44  C   UNL A   1      39.523  33.212  34.259  1.00  0.00     0.074 A 
ATOM     45  C   UNL A   1      38.492  34.217  34.119  1.00  0.00     0.031 C 
ATOM     46  C   UNL A   1      38.808  29.668  28.947  1.00  0.00     0.029 A 
ATOM     47  C   UNL A   1      39.813  29.510  29.994  1.00  0.00     0.049 A 
ATOM     48  H   UNL A   1      39.986  30.604  31.758  1.00  0.00     0.167 HD
ATOM     49  C   UNL A   1      40.409  33.169  35.283  1.00  0.00     0.034 A 
ATOM     50  C   UNL A   1      40.807  28.600  29.992  1.00  0.00     0.034 A 
ATOM     51  C   UNL A   1      41.393  32.133  35.448  1.00  0.00     0.049 A 
ATOM     52  C   UNL A   1      41.738  28.534  31.172  1.00  0.00     0.074 A 
ATOM     53  C   UNL A   1      42.264  31.935  36.504  1.00  0.00     0.029 A 
ATOM     54  N   UNL A   1      41.639  31.124  34.530  1.00  0.00    -0.354 N 
ATOM     55  N   UNL A   1      41.744  29.264  32.262  1.00  0.00    -0.248 NA
ATOM     56  C   UNL A   1      42.775  27.494  31.142  1.00  0.00     0.031 C 
ATOM     57  C   UNL A   1      43.054  30.816  36.214  1.00  0.00     0.029 A 
ATOM     58  C   UNL A   1      42.657  30.304  34.988  1.00  0.00     0.049 A 
ATOM     59  H   UNL A   1      41.161  31.007  33.677  1.00  0.00     0.167 HD
ATOM     60  C   UNL A   1      42.752  28.744  33.065  1.00  0.00     0.074 A 
ATOM     61  C   UNL A   1      43.325  27.627  32.341  1.00  0.00     0.031 C 
ATOM     62  C   UNL A   1      43.176  29.161  34.283  1.00  0.00     0.034 A 
BRANCH  49  63
ATOM     63  C   UNL A   1      40.317  34.244  36.335  1.00  0.00     0.023 A 
ATOM     64  C   UNL A   1      40.715  35.561  36.023  1.00  0.00     0.012 A 
ATOM     65  C   UNL A   1      39.799  33.965  37.614  1.00  0.00     0.148 A 
ATOM     66  C   UNL A   1      40.634  36.573  36.979  1.00  0.00     0.002 A 
ATOM     67  C   UNL A   1      39.679  34.990  38.547  1.00  0.00     0.091 A 
ATOM     68  F   UNL A   1      39.448  32.703  37.903  1.00  0.00    -0.205 F 
ATOM     69  C   UNL A   1      40.107  36.290  38.236  1.00  0.00     0.022 A 
BRANCH  67  70
ATOM     70  S   UNL A   1      38.936  34.741  40.164  1.00  0.00     0.127 S 
ATOM     71  O   UNL A   1      40.044  34.141  40.907  1.00  0.00    -0.237 OA
ATOM     72  O   UNL A   1      38.604  36.108  40.566  1.00  0.00    -0.237 OA
ATOM     73  O   UNL A   1      37.785  33.878  39.946  1.00  0.00    -0.744 OA
ENDBRANCH  67  70
ENDBRANCH  49  63
BRANCH  50  74
ATOM     74  C   UNL A   1      40.912  27.616  28.879  1.00  0.00     0.023 A 
ATOM     75  C   UNL A   1      40.024  26.522  28.844  1.00  0.00     0.012 A 
ATOM     76  C   UNL A   1      41.854  27.767  27.843  1.00  0.00     0.148 A 
ATOM     77  C   UNL A   1      40.093  25.580  27.819  1.00  0.00     0.002 A 
ATOM     78  C   UNL A   1      41.883  26.853  26.796  1.00  0.00     0.091 A 
ATOM     79  F   UNL A   1      42.697  28.808  27.898  1.00  0.00    -0.205 F 
ATOM     80  C   UNL A   1      41.015  25.750  26.789  1.00  0.00     0.022 A 
BRANCH  78  81
ATOM     81  S   UNL A   1      42.948  27.062  25.364  1.00  0.00     0.127 S 
ATOM     82  O   UNL A   1      42.318  28.191  24.683  1.00  0.00    -0.237 OA
ATOM     83  O   UNL A   1      44.239  27.358  25.986  1.00  0.00    -0.237 OA
ATOM     84  O   UNL A   1      42.905  25.790  24.654  1.00  0.00    -0.744 OA
ENDBRANCH  78  81
ENDBRANCH  50  74
BRANCH  62  85
ATOM     85  C   UNL A   1      44.287  28.384  34.939  1.00  0.00     0.023 A 
ATOM     86  C   UNL A   1      45.627  28.656  34.603  1.00  0.00     0.012 A 
ATOM     87  C   UNL A   1      44.004  27.434  35.940  1.00  0.00     0.148 A 
ATOM     88  C   UNL A   1      46.668  27.970  35.228  1.00  0.00     0.002 A 
ATOM     89  C   UNL A   1      45.048  26.789  36.594  1.00  0.00     0.091 A 
ATOM     90  F   UNL A   1      42.721  27.171  36.232  1.00  0.00    -0.205 F 
ATOM     91  C   UNL A   1      46.379  27.047  36.230  1.00  0.00     0.022 A 
BRANCH  89  92
ATOM     92  S   UNL A   1      44.769  25.661  37.963  1.00  0.00     0.127 S 
ATOM     93  O   UNL A   1      44.093  24.548  37.300  1.00  0.00    -0.237 OA
ATOM     94  O   UNL A   1      46.131  25.368  38.410  1.00  0.00    -0.237 OA
ATOM     95  O   UNL A   1      43.965  26.400  38.930  1.00  0.00    -0.744 OA
ENDBRANCH  89  92
ENDBRANCH  62  85
ENDBRANCH  36  37
ENDBRANCH  28  31
ENDBRANCH  26  27
ENDBRANCH  25  26
ENDBRANCH  24  25
ENDBRANCH   1  24
TORSDOF 21
ENDMDL
