MODEL 1
REMARK VINA RESULT:     -12.9      0.000      0.000
REMARK SMILES C[C@@H](Oc1ccc(/C=C2\C(=O)[NH+]=C(NCCCCCCNC(=O)c3ccc(-c4c5nc(c(-c6cccc(S(=O)(=O)[O-])c6F)c6ccc([nH]6)c(-c6cccc(S(=O)(=O)[O-])c6F)c6nc(c(-c7cccc(S(=O)(=O)[O-])c7F)c7ccc4[nH]7)C=C6)C=C5)cc3)N(c3ccc4c(c3)OCO4)C2=O)cc1)C(=O)[O-]
REMARK SMILES IDX 17 1 16 2 15 3 14 4 8 5 9 6 10 7 97 8 11 9 12 10 87 11 98 12
REMARK SMILES IDX 13 13 7 16 4 17 5 18 100 19 6 20 99 21 3 22 2 23 1 24 101 25
REMARK SMILES IDX 102 26 103 27 88 28 89 29 93 30 90 31 92 32 91 33 94 34
REMARK SMILES IDX 96 35 95 36 18 37 19 38 20 39 21 40 22 41 23 43 24 44 25 45
REMARK SMILES IDX 86 46 26 47 85 48 27 49 28 50 29 51 79 52 30 53 84 54 78 55
REMARK SMILES IDX 80 56 31 57 83 58 77 59 76 60 32 62 64 63 44 64 63 65 45 66
REMARK SMILES IDX 48 67 62 68 81 69 46 70 47 71 61 73 82 74 49 75 33 76 34 77
REMARK SMILES IDX 42 78 35 79 37 80 43 81 36 82 38 83 39 84 40 85 41 86 65 87
REMARK SMILES IDX 66 88 74 89 67 90 69 91 75 92 68 93 70 94 71 95 72 96 73 97
REMARK SMILES IDX 50 98 51 99 59 100 52 101 54 102 60 103 53 104 55 105 56 106
REMARK SMILES IDX 57 107 58 108
REMARK H PARENT 12 14 14 15 21 42 80 61 48 72
REMARK Flexibility Score: inf
ROOT
ATOM      1  C   UNL A   1      33.239  30.171  27.605  1.00  0.00     0.003 C 
ENDROOT
BRANCH   1   2
ATOM      2  C   UNL A   1      34.270  29.362  26.806  1.00  0.00     0.037 C 
BRANCH   2   3
ATOM      3  C   UNL A   1      33.946  27.875  26.703  1.00  0.00     0.197 C 
BRANCH   3   4
ATOM      4  N   UNL A   1      32.993  27.657  25.632  1.00  0.00    -0.277 N 
ATOM      5  C   UNL A   1      31.877  22.872  23.675  1.00  0.00     0.031 C 
ATOM      6  C   UNL A   1      32.436  24.091  23.781  1.00  0.00     0.138 C 
ATOM      7  C   UNL A   1      33.738  24.396  24.395  1.00  0.00     0.321 C 
ATOM      8  C   UNL A   1      31.675  25.233  23.245  1.00  0.00     0.328 C 
ATOM      9  O   UNL A   1      34.707  23.663  24.269  1.00  0.00    -0.250 OA
ATOM     10  N   UNL A   1      33.756  25.550  25.120  1.00  0.00    -0.210 N 
ATOM     11  N   UNL A   1      31.999  26.445  23.844  1.00  0.00    -0.162 N 
ATOM     12  O   UNL A   1      30.826  25.077  22.368  1.00  0.00    -0.249 OA
ATOM     13  C   UNL A   1      32.946  26.527  24.860  1.00  0.00     0.366 C 
ATOM     14  H   UNL A   1      34.399  25.643  25.860  1.00  0.00     0.270 HD
ATOM     15  H   UNL A   1      32.337  28.369  25.448  1.00  0.00     0.260 HD
BRANCH   5  16
ATOM     16  C   UNL A   1      32.366  21.591  24.199  1.00  0.00    -0.024 A 
ATOM     17  C   UNL A   1      33.132  19.055  25.127  1.00  0.00     0.120 A 
ATOM     18  C   UNL A   1      33.148  20.146  25.991  1.00  0.00     0.047 A 
ATOM     19  C   UNL A   1      32.688  19.215  23.818  1.00  0.00     0.047 A 
ATOM     20  C   UNL A   1      32.755  21.407  25.531  1.00  0.00     0.012 A 
ATOM     21  C   UNL A   1      32.319  20.478  23.352  1.00  0.00     0.012 A 
BRANCH  17  22
ATOM     22  O   UNL A   1      33.413  17.824  25.646  1.00  0.00    -0.485 OA
BRANCH  22  23
ATOM     23  C   UNL A   1      32.976  16.725  24.835  1.00  0.00     0.216 C 
ATOM     24  C   UNL A   1      32.308  15.633  25.668  1.00  0.00     0.059 C 
BRANCH  23  25
ATOM     25  C   UNL A   1      34.196  16.101  24.166  1.00  0.00     0.082 C 
ATOM     26  O   UNL A   1      35.148  15.597  24.744  1.00  0.00    -0.546 OA
ATOM     27  O   UNL A   1      34.218  16.233  22.823  1.00  0.00    -0.546 OA
ENDBRANCH  23  25
ENDBRANCH  22  23
ENDBRANCH  17  22
ENDBRANCH   5  16
BRANCH  11  28
ATOM     28  C   UNL A   1      31.256  27.577  23.423  1.00  0.00     0.115 A 
ATOM     29  C   UNL A   1      31.867  28.553  22.606  1.00  0.00     0.048 A 
ATOM     30  C   UNL A   1      29.882  27.623  23.693  1.00  0.00     0.094 A 
ATOM     31  C   UNL A   1      31.092  29.548  22.001  1.00  0.00     0.054 A 
ATOM     32  C   UNL A   1      29.151  28.604  23.070  1.00  0.00     0.169 A 
ATOM     33  C   UNL A   1      29.733  29.528  22.232  1.00  0.00     0.166 A 
ATOM     34  O   UNL A   1      27.799  28.742  23.138  1.00  0.00    -0.453 OA
ATOM     35  O   UNL A   1      28.808  30.343  21.654  1.00  0.00    -0.454 OA
ATOM     36  C   UNL A   1      27.590  29.692  22.076  1.00  0.00     0.468 C 
ENDBRANCH  11  28
ENDBRANCH   3   4
ENDBRANCH   2   3
ENDBRANCH   1   2
BRANCH   1  37
ATOM     37  C   UNL A   1      32.045  30.685  26.794  1.00  0.00     0.002 C 
BRANCH  37  38
ATOM     38  C   UNL A   1      31.772  32.185  26.923  1.00  0.00     0.021 C 
BRANCH  38  39
ATOM     39  C   UNL A   1      33.005  33.034  27.207  1.00  0.00     0.116 C 
BRANCH  39  40
ATOM     40  N   UNL A   1      32.660  34.325  27.782  1.00  0.00    -0.352 N 
ATOM     41  C   UNL A   1      33.131  34.919  28.926  1.00  0.00     0.251 C 
ATOM     42  H   UNL A   1      31.993  34.847  27.279  1.00  0.00     0.163 HD
ATOM     43  O   UNL A   1      32.586  35.931  29.360  1.00  0.00    -0.269 OA
BRANCH  41  44
ATOM     44  C   UNL A   1      34.281  34.329  29.644  1.00  0.00     0.039 A 
ATOM     45  C   UNL A   1      34.043  33.549  30.778  1.00  0.00     0.014 A 
ATOM     46  C   UNL A   1      35.590  34.542  29.202  1.00  0.00     0.014 A 
ATOM     47  C   UNL A   1      35.113  32.937  31.435  1.00  0.00     0.010 A 
ATOM     48  C   UNL A   1      36.646  33.869  29.812  1.00  0.00     0.010 A 
ATOM     49  C   UNL A   1      36.421  33.065  30.939  1.00  0.00    -0.014 A 
BRANCH  49  50
ATOM     50  C   UNL A   1      37.561  32.353  31.575  1.00  0.00     0.031 A 
ATOM     51  C   UNL A   1      38.135  32.846  32.878  1.00  0.00     0.074 A 
ATOM     52  C   UNL A   1      38.136  31.314  30.936  1.00  0.00     0.049 A 
ATOM     53  N   UNL A   1      39.157  32.386  33.553  1.00  0.00    -0.248 NA
ATOM     54  C   UNL A   1      37.496  34.023  33.491  1.00  0.00     0.031 C 
ATOM     55  C   UNL A   1      37.727  30.791  29.630  1.00  0.00     0.029 A 
ATOM     56  N   UNL A   1      39.212  30.531  31.282  1.00  0.00    -0.354 N 
ATOM     57  C   UNL A   1      39.314  33.242  34.637  1.00  0.00     0.074 A 
ATOM     58  C   UNL A   1      38.292  34.259  34.525  1.00  0.00     0.031 C 
ATOM     59  C   UNL A   1      38.540  29.779  29.285  1.00  0.00     0.029 A 
ATOM     60  C   UNL A   1      39.548  29.602  30.325  1.00  0.00     0.049 A 
ATOM     61  H   UNL A   1      39.695  30.627  32.134  1.00  0.00     0.167 HD
ATOM     62  C   UNL A   1      40.214  33.174  35.646  1.00  0.00     0.034 A 
ATOM     63  C   UNL A   1      40.564  28.717  30.280  1.00  0.00     0.034 A 
ATOM     64  C   UNL A   1      41.195  32.132  35.784  1.00  0.00     0.049 A 
ATOM     65  C   UNL A   1      41.518  28.637  31.443  1.00  0.00     0.074 A 
ATOM     66  C   UNL A   1      42.068  31.911  36.834  1.00  0.00     0.029 A 
ATOM     67  N   UNL A   1      41.445  31.149  34.840  1.00  0.00    -0.354 N 
ATOM     68  N   UNL A   1      41.529  29.337  32.551  1.00  0.00    -0.248 NA
ATOM     69  C   UNL A   1      42.579  27.623  31.365  1.00  0.00     0.031 C 
ATOM     70  C   UNL A   1      42.876  30.819  36.507  1.00  0.00     0.029 A 
ATOM     71  C   UNL A   1      42.476  30.333  35.273  1.00  0.00     0.049 A 
ATOM     72  H   UNL A   1      40.962  31.046  33.989  1.00  0.00     0.167 HD
ATOM     73  C   UNL A   1      42.566  28.819  33.318  1.00  0.00     0.074 A 
ATOM     74  C   UNL A   1      43.147  27.733  32.558  1.00  0.00     0.031 C 
ATOM     75  C   UNL A   1      43.008  29.217  34.536  1.00  0.00     0.034 A 
BRANCH  62  76
ATOM     76  C   UNL A   1      40.171  34.236  36.713  1.00  0.00     0.023 A 
ATOM     77  C   UNL A   1      40.568  35.553  36.410  1.00  0.00     0.012 A 
ATOM     78  C   UNL A   1      39.637  33.948  37.986  1.00  0.00     0.148 A 
ATOM     79  C   UNL A   1      40.454  36.565  37.364  1.00  0.00     0.002 A 
ATOM     80  C   UNL A   1      39.485  34.969  38.915  1.00  0.00     0.091 A 
ATOM     81  F   UNL A   1      39.284  32.684  38.259  1.00  0.00    -0.205 F 
ATOM     82  C   UNL A   1      39.901  36.276  38.609  1.00  0.00     0.022 A 
BRANCH  80  83
ATOM     83  S   UNL A   1      38.703  34.719  40.513  1.00  0.00     0.127 S 
ATOM     84  O   UNL A   1      38.401  36.094  40.910  1.00  0.00    -0.237 OA
ATOM     85  O   UNL A   1      37.533  33.916  40.157  1.00  0.00    -0.237 OA
ATOM     86  O   UNL A   1      39.686  34.035  41.341  1.00  0.00    -0.744 OA
ENDBRANCH  80  83
ENDBRANCH  62  76
BRANCH  63  87
ATOM     87  C   UNL A   1      40.718  27.801  29.113  1.00  0.00     0.023 A 
ATOM     88  C   UNL A   1      39.983  26.601  29.068  1.00  0.00     0.012 A 
ATOM     89  C   UNL A   1      41.595  28.107  28.054  1.00  0.00     0.148 A 
ATOM     90  C   UNL A   1      40.156  25.698  28.018  1.00  0.00     0.002 A 
ATOM     91  C   UNL A   1      41.717  27.232  26.981  1.00  0.00     0.091 A 
ATOM     92  F   UNL A   1      42.297  29.247  28.118  1.00  0.00    -0.205 F 
ATOM     93  C   UNL A   1      41.016  26.017  26.972  1.00  0.00     0.022 A 
BRANCH  91  94
ATOM     94  S   UNL A   1      42.699  27.627  25.530  1.00  0.00     0.127 S 
ATOM     95  O   UNL A   1      44.039  27.745  26.098  1.00  0.00    -0.237 OA
ATOM     96  O   UNL A   1      42.487  26.449  24.689  1.00  0.00    -0.237 OA
ATOM     97  O   UNL A   1      42.124  28.854  24.993  1.00  0.00    -0.744 OA
ENDBRANCH  91  94
ENDBRANCH  63  87
BRANCH  75  98
ATOM     98  C   UNL A   1      44.143  28.447  35.159  1.00  0.00     0.023 A 
ATOM     99  C   UNL A   1      45.470  28.690  34.753  1.00  0.00     0.012 A 
ATOM    100  C   UNL A   1      43.896  27.532  36.203  1.00  0.00     0.148 A 
ATOM    101  C   UNL A   1      46.530  28.010  35.352  1.00  0.00     0.002 A 
ATOM    102  C   UNL A   1      44.961  26.899  36.831  1.00  0.00     0.091 A 
ATOM    103  F   UNL A   1      42.625  27.301  36.563  1.00  0.00    -0.205 F 
ATOM    104  C   UNL A   1      46.277  27.125  36.397  1.00  0.00     0.022 A 
BRANCH 102 105
ATOM    105  S   UNL A   1      44.739  25.824  38.252  1.00  0.00     0.127 S 
ATOM    106  O   UNL A   1      44.758  24.500  37.630  1.00  0.00    -0.237 OA
ATOM    107  O   UNL A   1      45.916  26.134  39.064  1.00  0.00    -0.237 OA
ATOM    108  O   UNL A   1      43.470  26.210  38.855  1.00  0.00    -0.744 OA
ENDBRANCH 102 105
ENDBRANCH  75  98
ENDBRANCH  49  50
ENDBRANCH  41  44
ENDBRANCH  39  40
ENDBRANCH  38  39
ENDBRANCH  37  38
ENDBRANCH   1  37
TORSDOF 20
ENDMDL
MODEL 2
REMARK VINA RESULT:     -12.8      0.883      7.275
REMARK SMILES C[C@@H](Oc1ccc(/C=C2\C(=O)[NH+]=C(NCCCCCCNC(=O)c3ccc(-c4c5nc(c(-c6cccc(S(=O)(=O)[O-])c6F)c6ccc([nH]6)c(-c6cccc(S(=O)(=O)[O-])c6F)c6nc(c(-c7cccc(S(=O)(=O)[O-])c7F)c7ccc4[nH]7)C=C6)C=C5)cc3)N(c3ccc4c(c3)OCO4)C2=O)cc1)C(=O)[O-]
REMARK SMILES IDX 17 1 16 2 15 3 14 4 8 5 9 6 10 7 97 8 11 9 12 10 87 11 98 12
REMARK SMILES IDX 13 13 7 16 4 17 5 18 100 19 6 20 99 21 3 22 2 23 1 24 101 25
REMARK SMILES IDX 102 26 103 27 88 28 89 29 93 30 90 31 92 32 91 33 94 34
REMARK SMILES IDX 96 35 95 36 18 37 19 38 20 39 21 40 22 41 23 43 24 44 25 45
REMARK SMILES IDX 86 46 26 47 85 48 27 49 28 50 29 51 79 52 30 53 84 54 78 55
REMARK SMILES IDX 80 56 31 57 83 58 77 59 76 60 32 62 64 63 44 64 63 65 45 66
REMARK SMILES IDX 48 67 62 68 81 69 46 70 47 71 61 73 82 74 49 75 33 76 34 77
REMARK SMILES IDX 42 78 35 79 37 80 43 81 36 82 38 83 39 84 40 85 41 86 65 87
REMARK SMILES IDX 66 88 74 89 67 90 69 91 75 92 68 93 70 94 71 95 72 96 73 97
REMARK SMILES IDX 50 98 51 99 59 100 52 101 54 102 60 103 53 104 55 105 56 106
REMARK SMILES IDX 57 107 58 108
REMARK H PARENT 12 14 14 15 21 42 80 61 48 72
REMARK Flexibility Score: inf
ROOT
ATOM      1  C   UNL A   1      31.864  29.626  26.394  1.00  0.00     0.003 C 
ENDROOT
BRANCH   1   2
ATOM      2  C   UNL A   1      33.366  29.339  26.254  1.00  0.00     0.037 C 
BRANCH   2   3
ATOM      3  C   UNL A   1      33.690  28.180  25.316  1.00  0.00     0.197 C 
BRANCH   3   4
ATOM      4  N   UNL A   1      32.480  27.739  24.651  1.00  0.00    -0.277 N 
ATOM      5  C   UNL A   1      31.399  22.654  23.673  1.00  0.00     0.031 C 
ATOM      6  C   UNL A   1      31.807  23.919  23.463  1.00  0.00     0.138 C 
ATOM      7  C   UNL A   1      33.189  24.413  23.576  1.00  0.00     0.321 C 
ATOM      8  C   UNL A   1      30.780  24.909  23.097  1.00  0.00     0.328 C 
ATOM      9  O   UNL A   1      34.150  23.753  23.210  1.00  0.00    -0.250 OA
ATOM     10  N   UNL A   1      33.294  25.653  24.132  1.00  0.00    -0.210 N 
ATOM     11  N   UNL A   1      31.126  26.214  23.427  1.00  0.00    -0.162 N 
ATOM     12  O   UNL A   1      29.721  24.564  22.572  1.00  0.00    -0.249 OA
ATOM     13  C   UNL A   1      32.329  26.514  24.057  1.00  0.00     0.366 C 
ATOM     14  H   UNL A   1      34.123  25.900  24.603  1.00  0.00     0.270 HD
ATOM     15  H   UNL A   1      31.717  28.361  24.623  1.00  0.00     0.260 HD
BRANCH   5  16
ATOM     16  C   UNL A   1      32.185  21.503  24.133  1.00  0.00    -0.024 A 
ATOM     17  C   UNL A   1      33.539  19.180  24.939  1.00  0.00     0.120 A 
ATOM     18  C   UNL A   1      33.337  20.217  25.845  1.00  0.00     0.047 A 
ATOM     19  C   UNL A   1      33.025  19.277  23.650  1.00  0.00     0.047 A 
ATOM     20  C   UNL A   1      32.652  21.370  25.446  1.00  0.00     0.012 A 
ATOM     21  C   UNL A   1      32.362  20.436  23.244  1.00  0.00     0.012 A 
BRANCH  17  22
ATOM     22  O   UNL A   1      34.111  18.029  25.401  1.00  0.00    -0.485 OA
BRANCH  22  23
ATOM     23  C   UNL A   1      33.485  16.827  24.932  1.00  0.00     0.216 C 
ATOM     24  C   UNL A   1      32.150  16.572  25.627  1.00  0.00     0.059 C 
BRANCH  23  25
ATOM     25  C   UNL A   1      34.396  15.649  25.258  1.00  0.00     0.082 C 
ATOM     26  O   UNL A   1      34.035  14.495  25.441  1.00  0.00    -0.546 OA
ATOM     27  O   UNL A   1      35.691  15.985  25.443  1.00  0.00    -0.546 OA
ENDBRANCH  23  25
ENDBRANCH  22  23
ENDBRANCH  17  22
ENDBRANCH   5  16
BRANCH  11  28
ATOM     28  C   UNL A   1      30.152  27.212  23.164  1.00  0.00     0.115 A 
ATOM     29  C   UNL A   1      28.912  27.176  23.837  1.00  0.00     0.048 A 
ATOM     30  C   UNL A   1      30.504  28.304  22.361  1.00  0.00     0.094 A 
ATOM     31  C   UNL A   1      28.040  28.268  23.761  1.00  0.00     0.054 A 
ATOM     32  C   UNL A   1      29.631  29.364  22.322  1.00  0.00     0.169 A 
ATOM     33  C   UNL A   1      28.443  29.356  23.017  1.00  0.00     0.166 A 
ATOM     34  O   UNL A   1      29.848  30.541  21.676  1.00  0.00    -0.453 OA
ATOM     35  O   UNL A   1      27.783  30.543  22.909  1.00  0.00    -0.454 OA
ATOM     36  C   UNL A   1      28.787  31.336  22.238  1.00  0.00     0.468 C 
ENDBRANCH  11  28
ENDBRANCH   3   4
ENDBRANCH   2   3
ENDBRANCH   1   2
BRANCH   1  37
ATOM     37  C   UNL A   1      31.396  30.950  25.781  1.00  0.00     0.002 C 
BRANCH  37  38
ATOM     38  C   UNL A   1      31.324  32.126  26.757  1.00  0.00     0.021 C 
BRANCH  38  39
ATOM     39  C   UNL A   1      32.662  32.801  27.040  1.00  0.00     0.116 C 
BRANCH  39  40
ATOM     40  N   UNL A   1      32.497  34.124  27.620  1.00  0.00    -0.352 N 
ATOM     41  C   UNL A   1      33.130  34.683  28.701  1.00  0.00     0.251 C 
ATOM     42  H   UNL A   1      31.835  34.702  27.173  1.00  0.00     0.163 HD
ATOM     43  O   UNL A   1      32.726  35.746  29.166  1.00  0.00    -0.269 OA
BRANCH  41  44
ATOM     44  C   UNL A   1      34.284  33.993  29.317  1.00  0.00     0.039 A 
ATOM     45  C   UNL A   1      35.569  34.274  28.846  1.00  0.00     0.014 A 
ATOM     46  C   UNL A   1      34.103  33.074  30.354  1.00  0.00     0.014 A 
ATOM     47  C   UNL A   1      36.676  33.675  29.455  1.00  0.00     0.010 A 
ATOM     48  C   UNL A   1      35.210  32.538  31.008  1.00  0.00     0.010 A 
ATOM     49  C   UNL A   1      36.508  32.827  30.561  1.00  0.00    -0.014 A 
BRANCH  49  50
ATOM     50  C   UNL A   1      37.678  32.247  31.274  1.00  0.00     0.031 A 
ATOM     51  C   UNL A   1      38.465  31.121  30.654  1.00  0.00     0.074 A 
ATOM     52  C   UNL A   1      37.979  32.675  32.516  1.00  0.00     0.049 A 
ATOM     53  N   UNL A   1      39.479  30.459  31.148  1.00  0.00    -0.248 NA
ATOM     54  C   UNL A   1      38.044  30.662  29.320  1.00  0.00     0.031 C 
ATOM     55  C   UNL A   1      37.244  33.702  33.260  1.00  0.00     0.029 A 
ATOM     56  N   UNL A   1      38.962  32.277  33.390  1.00  0.00    -0.354 N 
ATOM     57  C   UNL A   1      39.784  29.477  30.212  1.00  0.00     0.074 A 
ATOM     58  C   UNL A   1      38.840  29.620  29.127  1.00  0.00     0.031 C 
ATOM     59  C   UNL A   1      37.799  33.850  34.474  1.00  0.00     0.029 A 
ATOM     60  C   UNL A   1      38.905  32.908  34.611  1.00  0.00     0.049 A 
ATOM     61  H   UNL A   1      39.642  31.603  33.163  1.00  0.00     0.167 HD
ATOM     62  C   UNL A   1      40.775  28.555  30.245  1.00  0.00     0.034 A 
ATOM     63  C   UNL A   1      39.648  32.738  35.723  1.00  0.00     0.034 A 
ATOM     64  C   UNL A   1      41.746  28.451  31.300  1.00  0.00     0.049 A 
ATOM     65  C   UNL A   1      40.773  31.737  35.706  1.00  0.00     0.074 A 
ATOM     66  C   UNL A   1      42.858  27.630  31.362  1.00  0.00     0.029 A 
ATOM     67  N   UNL A   1      41.714  29.173  32.481  1.00  0.00    -0.354 N 
ATOM     68  N   UNL A   1      41.162  30.949  34.733  1.00  0.00    -0.248 NA
ATOM     69  C   UNL A   1      41.583  31.624  36.928  1.00  0.00     0.031 C 
ATOM     70  C   UNL A   1      43.476  27.826  32.600  1.00  0.00     0.029 A 
ATOM     71  C   UNL A   1      42.774  28.800  33.290  1.00  0.00     0.049 A 
ATOM     72  H   UNL A   1      41.039  29.851  32.711  1.00  0.00     0.167 HD
ATOM     73  C   UNL A   1      42.285  30.283  35.210  1.00  0.00     0.074 A 
ATOM     74  C   UNL A   1      42.527  30.774  36.549  1.00  0.00     0.031 C 
ATOM     75  C   UNL A   1      43.040  29.337  34.598  1.00  0.00     0.034 A 
BRANCH  62  76
ATOM     76  C   UNL A   1      40.895  27.596  29.090  1.00  0.00     0.023 A 
ATOM     77  C   UNL A   1      40.062  26.461  29.030  1.00  0.00     0.012 A 
ATOM     78  C   UNL A   1      41.760  27.878  28.013  1.00  0.00     0.148 A 
ATOM     79  C   UNL A   1      40.104  25.609  27.926  1.00  0.00     0.002 A 
ATOM     80  C   UNL A   1      41.763  27.051  26.898  1.00  0.00     0.091 A 
ATOM     81  F   UNL A   1      42.557  28.953  28.100  1.00  0.00    -0.205 F 
ATOM     82  C   UNL A   1      40.943  25.911  26.856  1.00  0.00     0.022 A 
BRANCH  80  83
ATOM     83  S   UNL A   1      42.741  27.401  25.432  1.00  0.00     0.127 S 
ATOM     84  O   UNL A   1      44.093  27.452  25.987  1.00  0.00    -0.237 OA
ATOM     85  O   UNL A   1      42.468  26.231  24.597  1.00  0.00    -0.237 OA
ATOM     86  O   UNL A   1      42.239  28.661  24.902  1.00  0.00    -0.744 OA
ENDBRANCH  80  83
ENDBRANCH  62  76
BRANCH  63  87
ATOM     87  C   UNL A   1      39.386  33.559  36.941  1.00  0.00     0.023 A 
ATOM     88  C   UNL A   1      39.880  34.875  37.012  1.00  0.00     0.012 A 
ATOM     89  C   UNL A   1      38.661  33.039  38.031  1.00  0.00     0.148 A 
ATOM     90  C   UNL A   1      39.702  35.642  38.165  1.00  0.00     0.002 A 
ATOM     91  C   UNL A   1      38.435  33.829  39.152  1.00  0.00     0.091 A 
ATOM     92  F   UNL A   1      38.208  31.780  37.951  1.00  0.00    -0.205 F 
ATOM     93  C   UNL A   1      38.973  35.122  39.230  1.00  0.00     0.022 A 
BRANCH  91  94
ATOM     94  S   UNL A   1      37.394  33.286  40.511  1.00  0.00     0.127 S 
ATOM     95  O   UNL A   1      36.170  32.897  39.814  1.00  0.00    -0.237 OA
ATOM     96  O   UNL A   1      38.169  32.175  41.063  1.00  0.00    -0.237 OA
ATOM     97  O   UNL A   1      37.282  34.435  41.400  1.00  0.00    -0.744 OA
ENDBRANCH  91  94
ENDBRANCH  63  87
BRANCH  75  98
ATOM     98  C   UNL A   1      44.235  28.802  35.342  1.00  0.00     0.023 A 
ATOM     99  C   UNL A   1      45.510  29.365  35.132  1.00  0.00     0.012 A 
ATOM    100  C   UNL A   1      44.079  27.787  36.307  1.00  0.00     0.148 A 
ATOM    101  C   UNL A   1      46.615  28.903  35.845  1.00  0.00     0.002 A 
ATOM    102  C   UNL A   1      45.174  27.369  37.052  1.00  0.00     0.091 A 
ATOM    103  F   UNL A   1      42.862  27.252  36.480  1.00  0.00    -0.205 F 
ATOM    104  C   UNL A   1      46.445  27.914  36.812  1.00  0.00     0.022 A 
BRANCH 102 105
ATOM    105  S   UNL A   1      45.031  26.177  38.388  1.00  0.00     0.127 S 
ATOM    106  O   UNL A   1      44.499  25.008  37.689  1.00  0.00    -0.237 OA
ATOM    107  O   UNL A   1      46.418  26.043  38.834  1.00  0.00    -0.237 OA
ATOM    108  O   UNL A   1      44.136  26.777  39.369  1.00  0.00    -0.744 OA
ENDBRANCH 102 105
ENDBRANCH  75  98
ENDBRANCH  49  50
ENDBRANCH  41  44
ENDBRANCH  39  40
ENDBRANCH  38  39
ENDBRANCH  37  38
ENDBRANCH   1  37
TORSDOF 20
ENDMDL
MODEL 3
REMARK VINA RESULT:     -11.6      6.118     12.089
REMARK SMILES C[C@@H](Oc1ccc(/C=C2\C(=O)[NH+]=C(NCCCCCCNC(=O)c3ccc(-c4c5nc(c(-c6cccc(S(=O)(=O)[O-])c6F)c6ccc([nH]6)c(-c6cccc(S(=O)(=O)[O-])c6F)c6nc(c(-c7cccc(S(=O)(=O)[O-])c7F)c7ccc4[nH]7)C=C6)C=C5)cc3)N(c3ccc4c(c3)OCO4)C2=O)cc1)C(=O)[O-]
REMARK SMILES IDX 17 1 16 2 15 3 14 4 8 5 9 6 10 7 97 8 11 9 12 10 87 11 98 12
REMARK SMILES IDX 13 13 7 16 4 17 5 18 100 19 6 20 99 21 3 22 2 23 1 24 101 25
REMARK SMILES IDX 102 26 103 27 88 28 89 29 93 30 90 31 92 32 91 33 94 34
REMARK SMILES IDX 96 35 95 36 18 37 19 38 20 39 21 40 22 41 23 43 24 44 25 45
REMARK SMILES IDX 86 46 26 47 85 48 27 49 28 50 29 51 79 52 30 53 84 54 78 55
REMARK SMILES IDX 80 56 31 57 83 58 77 59 76 60 32 62 64 63 44 64 63 65 45 66
REMARK SMILES IDX 48 67 62 68 81 69 46 70 47 71 61 73 82 74 49 75 33 76 34 77
REMARK SMILES IDX 42 78 35 79 37 80 43 81 36 82 38 83 39 84 40 85 41 86 65 87
REMARK SMILES IDX 66 88 74 89 67 90 69 91 75 92 68 93 70 94 71 95 72 96 73 97
REMARK SMILES IDX 50 98 51 99 59 100 52 101 54 102 60 103 53 104 55 105 56 106
REMARK SMILES IDX 57 107 58 108
REMARK H PARENT 12 14 14 15 21 42 80 61 48 72
REMARK Flexibility Score: inf
ROOT
ATOM      1  C   UNL A   1      46.806  27.813  24.272  1.00  0.00     0.003 C 
ENDROOT
BRANCH   1   2
ATOM      2  C   UNL A   1      46.005  28.048  25.560  1.00  0.00     0.037 C 
BRANCH   2   3
ATOM      3  C   UNL A   1      44.494  28.077  25.353  1.00  0.00     0.197 C 
BRANCH   3   4
ATOM      4  N   UNL A   1      43.920  26.817  25.783  1.00  0.00    -0.277 N 
ATOM      5  C   UNL A   1      39.796  26.487  29.079  1.00  0.00     0.031 C 
ATOM      6  C   UNL A   1      41.072  26.483  28.653  1.00  0.00     0.138 C 
ATOM      7  C   UNL A   1      41.996  27.629  28.674  1.00  0.00     0.321 C 
ATOM      8  C   UNL A   1      41.598  25.222  28.102  1.00  0.00     0.328 C 
ATOM      9  O   UNL A   1      42.019  28.431  29.595  1.00  0.00    -0.250 OA
ATOM     10  N   UNL A   1      42.800  27.717  27.577  1.00  0.00    -0.210 N 
ATOM     11  N   UNL A   1      42.651  25.402  27.213  1.00  0.00    -0.162 N 
ATOM     12  O   UNL A   1      41.103  24.138  28.410  1.00  0.00    -0.249 OA
ATOM     13  C   UNL A   1      43.124  26.669  26.888  1.00  0.00     0.366 C 
ATOM     14  H   UNL A   1      43.143  28.598  27.302  1.00  0.00     0.270 HD
ATOM     15  H   UNL A   1      44.115  26.015  25.245  1.00  0.00     0.260 HD
BRANCH   5  16
ATOM     16  C   UNL A   1      39.001  27.615  29.579  1.00  0.00    -0.024 A 
ATOM     17  C   UNL A   1      37.377  29.638  30.651  1.00  0.00     0.120 A 
ATOM     18  C   UNL A   1      37.538  29.532  29.273  1.00  0.00     0.047 A 
ATOM     19  C   UNL A   1      37.981  28.708  31.492  1.00  0.00     0.047 A 
ATOM     20  C   UNL A   1      38.339  28.517  28.739  1.00  0.00     0.012 A 
ATOM     21  C   UNL A   1      38.799  27.710  30.961  1.00  0.00     0.012 A 
BRANCH  17  22
ATOM     22  O   UNL A   1      36.498  30.570  31.123  1.00  0.00    -0.485 OA
BRANCH  22  23
ATOM     23  C   UNL A   1      36.405  31.755  30.320  1.00  0.00     0.216 C 
ATOM     24  C   UNL A   1      37.367  32.842  30.795  1.00  0.00     0.059 C 
BRANCH  23  25
ATOM     25  C   UNL A   1      34.992  32.315  30.447  1.00  0.00     0.082 C 
ATOM     26  O   UNL A   1      34.387  32.498  31.494  1.00  0.00    -0.546 OA
ATOM     27  O   UNL A   1      34.368  32.518  29.267  1.00  0.00    -0.546 OA
ENDBRANCH  23  25
ENDBRANCH  22  23
ENDBRANCH  17  22
ENDBRANCH   5  16
BRANCH  11  28
ATOM     28  C   UNL A   1      43.161  24.233  26.592  1.00  0.00     0.115 A 
ATOM     29  C   UNL A   1      42.370  23.536  25.653  1.00  0.00     0.048 A 
ATOM     30  C   UNL A   1      44.501  23.886  26.803  1.00  0.00     0.094 A 
ATOM     31  C   UNL A   1      42.938  22.524  24.870  1.00  0.00     0.054 A 
ATOM     32  C   UNL A   1      45.029  22.899  26.007  1.00  0.00     0.169 A 
ATOM     33  C   UNL A   1      44.276  22.249  25.055  1.00  0.00     0.166 A 
ATOM     34  O   UNL A   1      46.328  22.498  26.005  1.00  0.00    -0.453 OA
ATOM     35  O   UNL A   1      45.025  21.379  24.322  1.00  0.00    -0.454 OA
ATOM     36  C   UNL A   1      46.347  21.711  24.799  1.00  0.00     0.468 C 
ENDBRANCH  11  28
ENDBRANCH   3   4
ENDBRANCH   2   3
ENDBRANCH   1   2
BRANCH   1  37
ATOM     37  C   UNL A   1      47.555  26.478  24.206  1.00  0.00     0.002 C 
BRANCH  37  38
ATOM     38  C   UNL A   1      49.040  26.585  23.853  1.00  0.00     0.021 C 
BRANCH  38  39
ATOM     39  C   UNL A   1      49.958  26.861  25.039  1.00  0.00     0.116 C 
BRANCH  39  40
ATOM     40  N   UNL A   1      50.217  25.663  25.821  1.00  0.00    -0.352 N 
ATOM     41  C   UNL A   1      49.769  25.331  27.074  1.00  0.00     0.251 C 
ATOM     42  H   UNL A   1      50.798  24.994  25.389  1.00  0.00     0.163 HD
ATOM     43  O   UNL A   1      50.243  24.361  27.659  1.00  0.00    -0.269 OA
BRANCH  41  44
ATOM     44  C   UNL A   1      48.728  26.155  27.727  1.00  0.00     0.039 A 
ATOM     45  C   UNL A   1      47.414  25.683  27.761  1.00  0.00     0.014 A 
ATOM     46  C   UNL A   1      49.045  27.388  28.305  1.00  0.00     0.014 A 
ATOM     47  C   UNL A   1      46.429  26.421  28.423  1.00  0.00     0.010 A 
ATOM     48  C   UNL A   1      48.080  28.083  29.029  1.00  0.00     0.010 A 
ATOM     49  C   UNL A   1      46.760  27.611  29.091  1.00  0.00    -0.014 A 
BRANCH  49  50
ATOM     50  C   UNL A   1      45.744  28.367  29.871  1.00  0.00     0.031 A 
ATOM     51  C   UNL A   1      45.348  29.761  29.457  1.00  0.00     0.074 A 
ATOM     52  C   UNL A   1      45.241  27.832  31.002  1.00  0.00     0.049 A 
ATOM     53  N   UNL A   1      44.521  30.588  30.042  1.00  0.00    -0.248 NA
ATOM     54  C   UNL A   1      45.981  30.307  28.246  1.00  0.00     0.031 C 
ATOM     55  C   UNL A   1      45.605  26.525  31.555  1.00  0.00     0.029 A 
ATOM     56  N   UNL A   1      44.342  28.335  31.911  1.00  0.00    -0.354 N 
ATOM     57  C   UNL A   1      44.571  31.764  29.303  1.00  0.00     0.074 A 
ATOM     58  C   UNL A   1      45.521  31.550  28.234  1.00  0.00     0.031 C 
ATOM     59  C   UNL A   1      44.938  26.331  32.705  1.00  0.00     0.029 A 
ATOM     60  C   UNL A   1      44.127  27.510  32.991  1.00  0.00     0.049 A 
ATOM     61  H   UNL A   1      43.893  29.204  31.799  1.00  0.00     0.167 HD
ATOM     62  C   UNL A   1      43.874  32.910  29.485  1.00  0.00     0.034 A 
ATOM     63  C   UNL A   1      43.376  27.688  34.096  1.00  0.00     0.034 A 
ATOM     64  C   UNL A   1      42.890  33.100  30.516  1.00  0.00     0.049 A 
ATOM     65  C   UNL A   1      42.576  28.955  34.241  1.00  0.00     0.074 A 
ATOM     66  C   UNL A   1      42.046  34.180  30.706  1.00  0.00     0.029 A 
ATOM     67  N   UNL A   1      42.630  32.204  31.540  1.00  0.00    -0.354 N 
ATOM     68  N   UNL A   1      42.495  29.978  33.426  1.00  0.00    -0.248 NA
ATOM     69  C   UNL A   1      41.736  29.078  35.442  1.00  0.00     0.031 C 
ATOM     70  C   UNL A   1      41.305  33.955  31.869  1.00  0.00     0.029 A 
ATOM     71  C   UNL A   1      41.655  32.716  32.378  1.00  0.00     0.049 A 
ATOM     72  H   UNL A   1      43.072  31.332  31.653  1.00  0.00     0.167 HD
ATOM     73  C   UNL A   1      41.566  30.843  33.993  1.00  0.00     0.074 A 
ATOM     74  C   UNL A   1      41.095  30.215  35.209  1.00  0.00     0.031 C 
ATOM     75  C   UNL A   1      41.150  32.056  33.553  1.00  0.00     0.034 A 
BRANCH  62  76
ATOM     76  C   UNL A   1      44.113  34.050  28.531  1.00  0.00     0.023 A 
ATOM     77  C   UNL A   1      43.397  34.113  27.319  1.00  0.00     0.012 A 
ATOM     78  C   UNL A   1      44.971  35.111  28.886  1.00  0.00     0.148 A 
ATOM     79  C   UNL A   1      43.547  35.205  26.463  1.00  0.00     0.002 A 
ATOM     80  C   UNL A   1      45.079  36.216  28.051  1.00  0.00     0.091 A 
ATOM     81  F   UNL A   1      45.656  35.020  30.034  1.00  0.00    -0.205 F 
ATOM     82  C   UNL A   1      44.376  36.261  26.836  1.00  0.00     0.022 A 
BRANCH  80  83
ATOM     83  S   UNL A   1      46.051  37.665  28.481  1.00  0.00     0.127 S 
ATOM     84  O   UNL A   1      47.408  37.118  28.482  1.00  0.00    -0.237 OA
ATOM     85  O   UNL A   1      45.759  38.568  27.367  1.00  0.00    -0.237 OA
ATOM     86  O   UNL A   1      45.560  38.112  29.776  1.00  0.00    -0.744 OA
ENDBRANCH  80  83
ENDBRANCH  62  76
BRANCH  63  87
ATOM     87  C   UNL A   1      43.307  26.626  35.142  1.00  0.00     0.023 A 
ATOM     88  C   UNL A   1      42.306  25.638  35.066  1.00  0.00     0.012 A 
ATOM     89  C   UNL A   1      44.218  26.597  36.215  1.00  0.00     0.148 A 
ATOM     90  C   UNL A   1      42.182  24.672  36.065  1.00  0.00     0.002 A 
ATOM     91  C   UNL A   1      44.126  25.595  37.175  1.00  0.00     0.091 A 
ATOM     92  F   UNL A   1      45.156  27.552  36.280  1.00  0.00    -0.205 F 
ATOM     93  C   UNL A   1      43.096  24.645  37.114  1.00  0.00     0.022 A 
BRANCH  91  94
ATOM     94  S   UNL A   1      45.342  25.409  38.483  1.00  0.00     0.127 S 
ATOM     95  O   UNL A   1      45.128  26.623  39.266  1.00  0.00    -0.237 OA
ATOM     96  O   UNL A   1      44.904  24.172  39.131  1.00  0.00    -0.237 OA
ATOM     97  O   UNL A   1      46.629  25.305  37.808  1.00  0.00    -0.744 OA
ENDBRANCH  91  94
ENDBRANCH  63  87
BRANCH  75  98
ATOM     98  C   UNL A   1      40.095  32.771  34.356  1.00  0.00     0.023 A 
ATOM     99  C   UNL A   1      38.732  32.479  34.152  1.00  0.00     0.012 A 
ATOM    100  C   UNL A   1      40.462  33.682  35.367  1.00  0.00     0.148 A 
ATOM    101  C   UNL A   1      37.750  33.107  34.917  1.00  0.00     0.002 A 
ATOM    102  C   UNL A   1      39.482  34.263  36.161  1.00  0.00     0.091 A 
ATOM    103  F   UNL A   1      41.763  33.961  35.534  1.00  0.00    -0.205 F 
ATOM    104  C   UNL A   1      38.125  33.988  35.928  1.00  0.00     0.022 A 
BRANCH 102 105
ATOM    105  S   UNL A   1      39.877  35.329  37.552  1.00  0.00     0.127 S 
ATOM    106  O   UNL A   1      39.879  36.649  36.924  1.00  0.00    -0.237 OA
ATOM    107  O   UNL A   1      38.754  35.085  38.458  1.00  0.00    -0.237 OA
ATOM    108  O   UNL A   1      41.168  34.875  38.053  1.00  0.00    -0.744 OA
ENDBRANCH 102 105
ENDBRANCH  75  98
ENDBRANCH  49  50
ENDBRANCH  41  44
ENDBRANCH  39  40
ENDBRANCH  38  39
ENDBRANCH  37  38
ENDBRANCH   1  37
TORSDOF 20
ENDMDL
