MODEL 1
REMARK VINA RESULT:     -10.3      0.000      0.000
REMARK SMILES C[C@H](CCC(=O)NCCCCCCNC(=O)c1ccc(-c2c3nc(c(-c4cccc(S(=O)(=O)[O-])c4F)c4ccc([nH]4)c(-c4cccc(S(=O)(=O)[O-])c4F)c4nc(c(-c5cccc(S(=O)(=O)[O-])c5F)c5ccc2[nH]5)C=C4)C=C3)cc1)NC(=O)OC(C)(C)C
REMARK SMILES IDX 9 1 8 2 7 3 5 4 6 5 4 7 3 8 2 9 1 10 80 11 81 12 82 14 83 15
REMARK SMILES IDX 84 16 85 17 86 18 87 19 10 20 11 21 12 22 13 23 14 24 15 25
REMARK SMILES IDX 16 27 17 28 18 29 79 30 19 31 78 32 20 33 21 34 22 35 72 36
REMARK SMILES IDX 23 37 77 38 71 39 73 40 24 41 76 42 70 43 69 44 25 46 57 47
REMARK SMILES IDX 37 48 56 49 38 50 41 51 55 52 74 53 39 54 40 55 54 57 75 58
REMARK SMILES IDX 42 59 26 60 27 61 35 62 28 63 30 64 36 65 29 66 31 67 32 68
REMARK SMILES IDX 33 69 34 70 58 71 59 72 67 73 60 74 62 75 68 76 61 77 63 78
REMARK SMILES IDX 64 79 65 80 66 81 43 82 44 83 52 84 45 85 47 86 53 87 46 88
REMARK SMILES IDX 48 89 49 90 50 91 51 92
REMARK H PARENT 7 6 80 13 14 26 73 45 41 56
REMARK Flexibility Score: inf
ROOT
ATOM      1  C   UNL A   1      30.031  27.011  24.196  1.00  0.00     0.021 C 
ENDROOT
BRANCH   1   2
ATOM      2  C   UNL A   1      30.145  25.497  23.981  1.00  0.00     0.116 C 
BRANCH   2   3
ATOM      3  N   UNL A   1      30.200  24.811  25.261  1.00  0.00    -0.356 N 
ATOM      4  C   UNL A   1      31.159  24.782  26.225  1.00  0.00     0.220 C 
ATOM      5  O   UNL A   1      31.038  23.960  27.137  1.00  0.00    -0.275 OA
ATOM      6  H   UNL A   1      29.401  24.272  25.467  1.00  0.00     0.163 HD
BRANCH   4   7
ATOM      7  C   UNL A   1      32.301  25.779  26.242  1.00  0.00     0.102 C 
BRANCH   7   8
ATOM      8  C   UNL A   1      33.563  25.427  25.428  1.00  0.00     0.034 C 
BRANCH   8   9
ATOM      9  C   UNL A   1      33.784  23.949  25.015  1.00  0.00     0.082 C 
ATOM     10  C   UNL A   1      34.815  23.859  23.893  1.00  0.00     0.031 C 
BRANCH   9  11
ATOM     11  N   UNL A   1      34.093  23.144  26.183  1.00  0.00    -0.319 N 
ATOM     12  C   UNL A   1      33.670  21.929  26.608  1.00  0.00     0.407 C 
ATOM     13  H   UNL A   1      34.742  23.566  26.790  1.00  0.00     0.167 HD
ATOM     14  O   UNL A   1      34.066  21.543  27.698  1.00  0.00    -0.225 OA
BRANCH  12  15
ATOM     15  O   UNL A   1      32.802  21.298  25.789  1.00  0.00    -0.444 OA
BRANCH  15  16
ATOM     16  C   UNL A   1      33.284  20.118  25.083  1.00  0.00     0.106 C 
ATOM     17  C   UNL A   1      34.795  20.153  24.804  1.00  0.00     0.056 C 
ATOM     18  C   UNL A   1      32.879  18.852  25.854  1.00  0.00     0.056 C 
ATOM     19  C   UNL A   1      32.552  20.123  23.734  1.00  0.00     0.056 C 
ENDBRANCH  15  16
ENDBRANCH  12  15
ENDBRANCH   9  11
ENDBRANCH   8   9
ENDBRANCH   7   8
ENDBRANCH   4   7
ENDBRANCH   2   3
ENDBRANCH   1   2
BRANCH   1  20
ATOM     20  C   UNL A   1      30.720  27.845  23.117  1.00  0.00     0.002 C 
BRANCH  20  21
ATOM     21  C   UNL A   1      31.670  28.918  23.652  1.00  0.00     0.002 C 
BRANCH  21  22
ATOM     22  C   UNL A   1      31.463  29.304  25.121  1.00  0.00     0.021 C 
BRANCH  22  23
ATOM     23  C   UNL A   1      32.695  29.875  25.817  1.00  0.00     0.116 C 
BRANCH  23  24
ATOM     24  N   UNL A   1      32.514  31.274  26.178  1.00  0.00    -0.352 N 
ATOM     25  C   UNL A   1      33.146  32.015  27.144  1.00  0.00     0.251 C 
ATOM     26  H   UNL A   1      31.839  31.760  25.652  1.00  0.00     0.163 HD
ATOM     27  O   UNL A   1      32.691  33.104  27.481  1.00  0.00    -0.269 OA
BRANCH  25  28
ATOM     28  C   UNL A   1      34.375  31.495  27.779  1.00  0.00     0.039 A 
ATOM     29  C   UNL A   1      35.474  32.344  27.931  1.00  0.00     0.014 A 
ATOM     30  C   UNL A   1      34.445  30.167  28.210  1.00  0.00     0.014 A 
ATOM     31  C   UNL A   1      36.625  31.873  28.563  1.00  0.00     0.010 A 
ATOM     32  C   UNL A   1      35.564  29.724  28.908  1.00  0.00     0.010 A 
ATOM     33  C   UNL A   1      36.670  30.569  29.084  1.00  0.00    -0.014 A 
BRANCH  33  34
ATOM     34  C   UNL A   1      37.863  30.077  29.819  1.00  0.00     0.031 A 
ATOM     35  C   UNL A   1      38.158  30.573  31.209  1.00  0.00     0.074 A 
ATOM     36  C   UNL A   1      38.722  29.238  29.204  1.00  0.00     0.049 A 
ATOM     37  N   UNL A   1      39.173  30.295  31.985  1.00  0.00    -0.248 NA
ATOM     38  C   UNL A   1      37.200  31.524  31.798  1.00  0.00     0.031 C 
ATOM     39  C   UNL A   1      38.586  28.745  27.832  1.00  0.00     0.029 A 
ATOM     40  N   UNL A   1      39.892  28.672  29.644  1.00  0.00    -0.354 N 
ATOM     41  C   UNL A   1      38.995  31.054  33.134  1.00  0.00     0.074 A 
ATOM     42  C   UNL A   1      37.791  31.834  32.943  1.00  0.00     0.031 C 
ATOM     43  C   UNL A   1      39.627  27.947  27.545  1.00  0.00     0.029 A 
ATOM     44  C   UNL A   1      40.523  27.901  28.695  1.00  0.00     0.049 A 
ATOM     45  H   UNL A   1      40.247  28.806  30.553  1.00  0.00     0.167 HD
ATOM     46  C   UNL A   1      39.747  31.080  34.261  1.00  0.00     0.034 A 
ATOM     47  C   UNL A   1      41.698  27.243  28.741  1.00  0.00     0.034 A 
ATOM     48  C   UNL A   1      40.925  30.280  34.459  1.00  0.00     0.049 A 
ATOM     49  C   UNL A   1      42.503  27.276  30.013  1.00  0.00     0.074 A 
ATOM     50  C   UNL A   1      41.712  30.177  35.593  1.00  0.00     0.029 A 
ATOM     51  N   UNL A   1      41.493  29.453  33.503  1.00  0.00    -0.354 N 
ATOM     52  N   UNL A   1      42.237  27.883  31.143  1.00  0.00    -0.248 NA
ATOM     53  C   UNL A   1      43.753  26.502  30.027  1.00  0.00     0.031 C 
ATOM     54  C   UNL A   1      42.776  29.316  35.310  1.00  0.00     0.029 A 
ATOM     55  C   UNL A   1      42.628  28.849  34.015  1.00  0.00     0.049 A 
ATOM     56  H   UNL A   1      41.141  29.318  32.593  1.00  0.00     0.167 HD
ATOM     57  C   UNL A   1      43.263  27.533  32.014  1.00  0.00     0.074 A 
ATOM     58  C   UNL A   1      44.144  26.644  31.286  1.00  0.00     0.031 C 
ATOM     59  C   UNL A   1      43.467  27.925  33.297  1.00  0.00     0.034 A 
BRANCH  46  60
ATOM     60  C   UNL A   1      39.297  31.972  35.390  1.00  0.00     0.023 A 
ATOM     61  C   UNL A   1      38.447  31.455  36.390  1.00  0.00     0.012 A 
ATOM     62  C   UNL A   1      39.771  33.293  35.502  1.00  0.00     0.148 A 
ATOM     63  C   UNL A   1      38.054  32.246  37.468  1.00  0.00     0.002 A 
ATOM     64  C   UNL A   1      39.414  34.061  36.604  1.00  0.00     0.091 A 
ATOM     65  F   UNL A   1      40.562  33.772  34.532  1.00  0.00    -0.205 F 
ATOM     66  C   UNL A   1      38.546  33.544  37.580  1.00  0.00     0.022 A 
BRANCH  64  67
ATOM     67  S   UNL A   1      40.056  35.714  36.887  1.00  0.00     0.127 S 
ATOM     68  O   UNL A   1      39.448  36.051  38.174  1.00  0.00    -0.237 OA
ATOM     69  O   UNL A   1      41.499  35.477  36.937  1.00  0.00    -0.237 OA
ATOM     70  O   UNL A   1      39.609  36.521  35.760  1.00  0.00    -0.744 OA
ENDBRANCH  64  67
ENDBRANCH  46  60
BRANCH  47  71
ATOM     71  C   UNL A   1      42.169  26.462  27.562  1.00  0.00     0.023 A 
ATOM     72  C   UNL A   1      42.888  27.109  26.538  1.00  0.00     0.012 A 
ATOM     73  C   UNL A   1      41.908  25.083  27.451  1.00  0.00     0.148 A 
ATOM     74  C   UNL A   1      43.297  26.408  25.404  1.00  0.00     0.002 A 
ATOM     75  C   UNL A   1      42.370  24.378  26.347  1.00  0.00     0.091 A 
ATOM     76  F   UNL A   1      41.215  24.486  28.431  1.00  0.00    -0.205 F 
ATOM     77  C   UNL A   1      43.047  25.042  25.312  1.00  0.00     0.022 A 
BRANCH  75  78
ATOM     78  S   UNL A   1      42.205  22.595  26.206  1.00  0.00     0.127 S 
ATOM     79  O   UNL A   1      42.837  22.138  27.441  1.00  0.00    -0.237 OA
ATOM     80  O   UNL A   1      40.753  22.430  26.159  1.00  0.00    -0.237 OA
ATOM     81  O   UNL A   1      42.892  22.234  24.973  1.00  0.00    -0.744 OA
ENDBRANCH  75  78
ENDBRANCH  47  71
BRANCH  59  82
ATOM     82  C   UNL A   1      44.660  27.357  34.020  1.00  0.00     0.023 A 
ATOM     83  C   UNL A   1      45.881  28.060  34.029  1.00  0.00     0.012 A 
ATOM     84  C   UNL A   1      44.547  26.156  34.749  1.00  0.00     0.148 A 
ATOM     85  C   UNL A   1      46.982  27.557  34.723  1.00  0.00     0.002 A 
ATOM     86  C   UNL A   1      45.631  25.690  35.481  1.00  0.00     0.091 A 
ATOM     87  F   UNL A   1      43.381  25.495  34.714  1.00  0.00    -0.205 F 
ATOM     88  C   UNL A   1      46.853  26.381  35.457  1.00  0.00     0.022 A 
BRANCH  86  89
ATOM     89  S   UNL A   1      45.531  24.241  36.536  1.00  0.00     0.127 S 
ATOM     90  O   UNL A   1      46.934  24.036  36.895  1.00  0.00    -0.237 OA
ATOM     91  O   UNL A   1      44.684  24.714  37.631  1.00  0.00    -0.237 OA
ATOM     92  O   UNL A   1      44.937  23.188  35.722  1.00  0.00    -0.744 OA
ENDBRANCH  86  89
ENDBRANCH  59  82
ENDBRANCH  33  34
ENDBRANCH  25  28
ENDBRANCH  23  24
ENDBRANCH  22  23
ENDBRANCH  21  22
ENDBRANCH  20  21
ENDBRANCH   1  20
TORSDOF 21
ENDMDL
MODEL 2
REMARK VINA RESULT:     -10.0      2.218      3.150
REMARK SMILES C[C@H](CCC(=O)NCCCCCCNC(=O)c1ccc(-c2c3nc(c(-c4cccc(S(=O)(=O)[O-])c4F)c4ccc([nH]4)c(-c4cccc(S(=O)(=O)[O-])c4F)c4nc(c(-c5cccc(S(=O)(=O)[O-])c5F)c5ccc2[nH]5)C=C4)C=C3)cc1)NC(=O)OC(C)(C)C
REMARK SMILES IDX 9 1 8 2 7 3 5 4 6 5 4 7 3 8 2 9 1 10 80 11 81 12 82 14 83 15
REMARK SMILES IDX 84 16 85 17 86 18 87 19 10 20 11 21 12 22 13 23 14 24 15 25
REMARK SMILES IDX 16 27 17 28 18 29 79 30 19 31 78 32 20 33 21 34 22 35 72 36
REMARK SMILES IDX 23 37 77 38 71 39 73 40 24 41 76 42 70 43 69 44 25 46 57 47
REMARK SMILES IDX 37 48 56 49 38 50 41 51 55 52 74 53 39 54 40 55 54 57 75 58
REMARK SMILES IDX 42 59 26 60 27 61 35 62 28 63 30 64 36 65 29 66 31 67 32 68
REMARK SMILES IDX 33 69 34 70 58 71 59 72 67 73 60 74 62 75 68 76 61 77 63 78
REMARK SMILES IDX 64 79 65 80 66 81 43 82 44 83 52 84 45 85 47 86 53 87 46 88
REMARK SMILES IDX 48 89 49 90 50 91 51 92
REMARK H PARENT 7 6 80 13 14 26 73 45 41 56
REMARK Flexibility Score: inf
ROOT
ATOM      1  C   UNL A   1      31.681  28.774  23.319  1.00  0.00     0.021 C 
ENDROOT
BRANCH   1   2
ATOM      2  C   UNL A   1      30.656  28.049  22.440  1.00  0.00     0.116 C 
BRANCH   2   3
ATOM      3  N   UNL A   1      29.496  27.670  23.230  1.00  0.00    -0.356 N 
ATOM      4  C   UNL A   1      29.155  26.491  23.818  1.00  0.00     0.220 C 
ATOM      5  O   UNL A   1      28.013  26.381  24.271  1.00  0.00    -0.275 OA
ATOM      6  H   UNL A   1      28.842  28.394  23.364  1.00  0.00     0.163 HD
BRANCH   4   7
ATOM      7  C   UNL A   1      30.160  25.370  23.995  1.00  0.00     0.102 C 
BRANCH   7   8
ATOM      8  C   UNL A   1      30.678  25.100  25.423  1.00  0.00     0.034 C 
BRANCH   8   9
ATOM      9  C   UNL A   1      31.160  23.669  25.773  1.00  0.00     0.082 C 
ATOM     10  C   UNL A   1      30.201  23.011  26.762  1.00  0.00     0.031 C 
BRANCH   9  11
ATOM     11  N   UNL A   1      31.391  22.907  24.559  1.00  0.00    -0.319 N 
ATOM     12  C   UNL A   1      32.511  22.440  23.959  1.00  0.00     0.407 C 
ATOM     13  H   UNL A   1      30.565  22.684  24.073  1.00  0.00     0.167 HD
ATOM     14  O   UNL A   1      32.383  21.884  22.878  1.00  0.00    -0.225 OA
BRANCH  12  15
ATOM     15  O   UNL A   1      33.667  22.695  24.608  1.00  0.00    -0.444 OA
BRANCH  15  16
ATOM     16  C   UNL A   1      34.472  23.812  24.131  1.00  0.00     0.106 C 
ATOM     17  C   UNL A   1      33.750  24.675  23.084  1.00  0.00     0.056 C 
ATOM     18  C   UNL A   1      34.952  24.652  25.325  1.00  0.00     0.056 C 
ATOM     19  C   UNL A   1      35.696  23.175  23.459  1.00  0.00     0.056 C 
ENDBRANCH  15  16
ENDBRANCH  12  15
ENDBRANCH   9  11
ENDBRANCH   8   9
ENDBRANCH   7   8
ENDBRANCH   4   7
ENDBRANCH   2   3
ENDBRANCH   1   2
BRANCH   1  20
ATOM     20  C   UNL A   1      31.093  29.365  24.599  1.00  0.00     0.002 C 
BRANCH  20  21
ATOM     21  C   UNL A   1      31.686  28.800  25.892  1.00  0.00     0.002 C 
BRANCH  21  22
ATOM     22  C   UNL A   1      32.963  27.970  25.719  1.00  0.00     0.021 C 
BRANCH  22  23
ATOM     23  C   UNL A   1      34.233  28.622  26.259  1.00  0.00     0.116 C 
BRANCH  23  24
ATOM     24  N   UNL A   1      34.010  30.009  26.644  1.00  0.00    -0.352 N 
ATOM     25  C   UNL A   1      34.644  30.762  27.598  1.00  0.00     0.251 C 
ATOM     26  H   UNL A   1      33.299  30.473  26.146  1.00  0.00     0.163 HD
ATOM     27  O   UNL A   1      34.159  31.829  27.963  1.00  0.00    -0.269 OA
BRANCH  25  28
ATOM     28  C   UNL A   1      35.913  30.284  28.186  1.00  0.00     0.039 A 
ATOM     29  C   UNL A   1      35.883  29.595  29.399  1.00  0.00     0.014 A 
ATOM     30  C   UNL A   1      37.130  30.532  27.545  1.00  0.00     0.014 A 
ATOM     31  C   UNL A   1      37.071  29.107  29.944  1.00  0.00     0.010 A 
ATOM     32  C   UNL A   1      38.302  29.979  28.050  1.00  0.00     0.010 A 
ATOM     33  C   UNL A   1      38.288  29.269  29.259  1.00  0.00    -0.014 A 
BRANCH  33  34
ATOM     34  C   UNL A   1      39.551  28.697  29.793  1.00  0.00     0.031 A 
ATOM     35  C   UNL A   1      40.217  29.314  30.994  1.00  0.00     0.074 A 
ATOM     36  C   UNL A   1      40.136  27.666  29.151  1.00  0.00     0.049 A 
ATOM     37  N   UNL A   1      41.343  28.985  31.570  1.00  0.00    -0.248 NA
ATOM     38  C   UNL A   1      39.543  30.467  31.615  1.00  0.00     0.031 C 
ATOM     39  C   UNL A   1      39.628  27.030  27.933  1.00  0.00     0.029 A 
ATOM     40  N   UNL A   1      41.300  26.989  29.416  1.00  0.00    -0.354 N 
ATOM     41  C   UNL A   1      41.528  29.902  32.597  1.00  0.00     0.074 A 
ATOM     42  C   UNL A   1      40.416  30.826  32.545  1.00  0.00     0.031 C 
ATOM     43  C   UNL A   1      40.470  26.053  27.562  1.00  0.00     0.029 A 
ATOM     44  C   UNL A   1      41.596  26.016  28.490  1.00  0.00     0.049 A 
ATOM     45  H   UNL A   1      41.869  27.180  30.197  1.00  0.00     0.167 HD
ATOM     46  C   UNL A   1      42.518  29.956  33.521  1.00  0.00     0.034 A 
ATOM     47  C   UNL A   1      42.662  25.198  28.389  1.00  0.00     0.034 A 
ATOM     48  C   UNL A   1      43.605  29.016  33.589  1.00  0.00     0.049 A 
ATOM     49  C   UNL A   1      43.737  25.268  29.440  1.00  0.00     0.074 A 
ATOM     50  C   UNL A   1      44.615  28.940  34.532  1.00  0.00     0.029 A 
ATOM     51  N   UNL A   1      43.832  27.999  32.677  1.00  0.00    -0.354 N 
ATOM     52  N   UNL A   1      43.815  26.046  30.491  1.00  0.00    -0.248 NA
ATOM     53  C   UNL A   1      44.855  24.320  29.311  1.00  0.00     0.031 C 
ATOM     54  C   UNL A   1      45.473  27.897  34.170  1.00  0.00     0.029 A 
ATOM     55  C   UNL A   1      44.974  27.298  33.025  1.00  0.00     0.049 A 
ATOM     56  H   UNL A   1      43.266  27.804  31.895  1.00  0.00     0.167 HD
ATOM     57  C   UNL A   1      44.966  25.658  31.169  1.00  0.00     0.074 A 
ATOM     58  C   UNL A   1      45.540  24.559  30.420  1.00  0.00     0.031 C 
ATOM     59  C   UNL A   1      45.506  26.173  32.301  1.00  0.00     0.034 A 
BRANCH  46  60
ATOM     60  C   UNL A   1      42.452  31.041  34.565  1.00  0.00     0.023 A 
ATOM     61  C   UNL A   1      41.836  30.778  35.806  1.00  0.00     0.012 A 
ATOM     62  C   UNL A   1      43.063  32.292  34.348  1.00  0.00     0.148 A 
ATOM     63  C   UNL A   1      41.803  31.752  36.803  1.00  0.00     0.002 A 
ATOM     64  C   UNL A   1      43.068  33.240  35.364  1.00  0.00     0.091 A 
ATOM     65  F   UNL A   1      43.628  32.528  33.156  1.00  0.00    -0.205 F 
ATOM     66  C   UNL A   1      42.428  32.977  36.586  1.00  0.00     0.022 A 
BRANCH  64  67
ATOM     67  S   UNL A   1      43.916  34.816  35.218  1.00  0.00     0.127 S 
ATOM     68  O   UNL A   1      43.742  35.370  36.561  1.00  0.00    -0.237 OA
ATOM     69  O   UNL A   1      45.282  34.401  34.901  1.00  0.00    -0.237 OA
ATOM     70  O   UNL A   1      43.236  35.544  34.156  1.00  0.00    -0.744 OA
ENDBRANCH  64  67
ENDBRANCH  46  60
BRANCH  47  71
ATOM     71  C   UNL A   1      42.750  24.211  27.275  1.00  0.00     0.023 A 
ATOM     72  C   UNL A   1      43.428  24.555  26.090  1.00  0.00     0.012 A 
ATOM     73  C   UNL A   1      42.164  22.936  27.385  1.00  0.00     0.148 A 
ATOM     74  C   UNL A   1      43.483  23.664  25.017  1.00  0.00     0.002 A 
ATOM     75  C   UNL A   1      42.272  22.031  26.335  1.00  0.00     0.091 A 
ATOM     76  F   UNL A   1      41.514  22.629  28.517  1.00  0.00    -0.205 F 
ATOM     77  C   UNL A   1      42.912  22.401  25.142  1.00  0.00     0.022 A 
BRANCH  75  78
ATOM     78  S   UNL A   1      41.681  20.340  26.457  1.00  0.00     0.127 S 
ATOM     79  O   UNL A   1      42.305  19.721  25.291  1.00  0.00    -0.237 OA
ATOM     80  O   UNL A   1      42.231  19.921  27.746  1.00  0.00    -0.237 OA
ATOM     81  O   UNL A   1      40.228  20.429  26.424  1.00  0.00    -0.744 OA
ENDBRANCH  75  78
ENDBRANCH  47  71
BRANCH  59  82
ATOM     82  C   UNL A   1      46.757  25.526  32.835  1.00  0.00     0.023 A 
ATOM     83  C   UNL A   1      48.023  26.000  32.438  1.00  0.00     0.012 A 
ATOM     84  C   UNL A   1      46.673  24.490  33.787  1.00  0.00     0.148 A 
ATOM     85  C   UNL A   1      49.186  25.427  32.952  1.00  0.00     0.002 A 
ATOM     86  C   UNL A   1      47.835  23.962  34.335  1.00  0.00     0.091 A 
ATOM     87  F   UNL A   1      45.459  24.042  34.139  1.00  0.00    -0.205 F 
ATOM     88  C   UNL A   1      49.092  24.419  33.908  1.00  0.00     0.022 A 
BRANCH  86  89
ATOM     89  S   UNL A   1      47.812  22.732  35.643  1.00  0.00     0.127 S 
ATOM     90  O   UNL A   1      49.238  22.466  35.826  1.00  0.00    -0.237 OA
ATOM     91  O   UNL A   1      47.181  23.463  36.742  1.00  0.00    -0.237 OA
ATOM     92  O   UNL A   1      47.032  21.613  35.132  1.00  0.00    -0.744 OA
ENDBRANCH  86  89
ENDBRANCH  59  82
ENDBRANCH  33  34
ENDBRANCH  25  28
ENDBRANCH  23  24
ENDBRANCH  22  23
ENDBRANCH  21  22
ENDBRANCH  20  21
ENDBRANCH   1  20
TORSDOF 21
ENDMDL
MODEL 3
REMARK VINA RESULT:     -10.0      2.454      3.342
REMARK SMILES C[C@H](CCC(=O)NCCCCCCNC(=O)c1ccc(-c2c3nc(c(-c4cccc(S(=O)(=O)[O-])c4F)c4ccc([nH]4)c(-c4cccc(S(=O)(=O)[O-])c4F)c4nc(c(-c5cccc(S(=O)(=O)[O-])c5F)c5ccc2[nH]5)C=C4)C=C3)cc1)NC(=O)OC(C)(C)C
REMARK SMILES IDX 9 1 8 2 7 3 5 4 6 5 4 7 3 8 2 9 1 10 80 11 81 12 82 14 83 15
REMARK SMILES IDX 84 16 85 17 86 18 87 19 10 20 11 21 12 22 13 23 14 24 15 25
REMARK SMILES IDX 16 27 17 28 18 29 79 30 19 31 78 32 20 33 21 34 22 35 72 36
REMARK SMILES IDX 23 37 77 38 71 39 73 40 24 41 76 42 70 43 69 44 25 46 57 47
REMARK SMILES IDX 37 48 56 49 38 50 41 51 55 52 74 53 39 54 40 55 54 57 75 58
REMARK SMILES IDX 42 59 26 60 27 61 35 62 28 63 30 64 36 65 29 66 31 67 32 68
REMARK SMILES IDX 33 69 34 70 58 71 59 72 67 73 60 74 62 75 68 76 61 77 63 78
REMARK SMILES IDX 64 79 65 80 66 81 43 82 44 83 52 84 45 85 47 86 53 87 46 88
REMARK SMILES IDX 48 89 49 90 50 91 51 92
REMARK H PARENT 7 6 80 13 14 26 73 45 41 56
REMARK Flexibility Score: inf
ROOT
ATOM      1  C   UNL A   1      31.593  28.980  23.297  1.00  0.00     0.021 C 
ENDROOT
BRANCH   1   2
ATOM      2  C   UNL A   1      30.957  27.920  22.390  1.00  0.00     0.116 C 
BRANCH   2   3
ATOM      3  N   UNL A   1      31.990  27.130  21.741  1.00  0.00    -0.356 N 
ATOM      4  C   UNL A   1      32.503  25.905  22.036  1.00  0.00     0.220 C 
ATOM      5  O   UNL A   1      33.516  25.543  21.433  1.00  0.00    -0.275 OA
ATOM      6  H   UNL A   1      32.388  27.556  20.947  1.00  0.00     0.163 HD
BRANCH   4   7
ATOM      7  C   UNL A   1      31.815  24.967  23.008  1.00  0.00     0.102 C 
BRANCH   7   8
ATOM      8  C   UNL A   1      31.802  23.465  22.658  1.00  0.00     0.034 C 
BRANCH   8   9
ATOM      9  C   UNL A   1      32.798  22.529  23.390  1.00  0.00     0.082 C 
ATOM     10  C   UNL A   1      32.303  21.086  23.344  1.00  0.00     0.031 C 
BRANCH   9  11
ATOM     11  N   UNL A   1      34.141  22.723  22.872  1.00  0.00    -0.319 N 
ATOM     12  C   UNL A   1      35.270  23.248  23.404  1.00  0.00     0.407 C 
ATOM     13  H   UNL A   1      34.254  22.409  21.947  1.00  0.00     0.167 HD
ATOM     14  O   UNL A   1      36.246  23.344  22.674  1.00  0.00    -0.225 OA
BRANCH  12  15
ATOM     15  O   UNL A   1      35.170  23.663  24.685  1.00  0.00    -0.444 OA
BRANCH  15  16
ATOM     16  C   UNL A   1      35.837  22.863  25.703  1.00  0.00     0.106 C 
ATOM     17  C   UNL A   1      35.050  22.782  27.021  1.00  0.00     0.056 C 
ATOM     18  C   UNL A   1      36.149  21.466  25.143  1.00  0.00     0.056 C 
ATOM     19  C   UNL A   1      37.163  23.583  25.985  1.00  0.00     0.056 C 
ENDBRANCH  15  16
ENDBRANCH  12  15
ENDBRANCH   9  11
ENDBRANCH   8   9
ENDBRANCH   7   8
ENDBRANCH   4   7
ENDBRANCH   2   3
ENDBRANCH   1   2
BRANCH   1  20
ATOM     20  C   UNL A   1      30.956  29.074  24.683  1.00  0.00     0.002 C 
BRANCH  20  21
ATOM     21  C   UNL A   1      31.614  28.191  25.745  1.00  0.00     0.002 C 
BRANCH  21  22
ATOM     22  C   UNL A   1      33.032  27.714  25.415  1.00  0.00     0.021 C 
BRANCH  22  23
ATOM     23  C   UNL A   1      34.129  28.283  26.311  1.00  0.00     0.116 C 
BRANCH  23  24
ATOM     24  N   UNL A   1      33.885  29.679  26.647  1.00  0.00    -0.352 N 
ATOM     25  C   UNL A   1      34.542  30.490  27.537  1.00  0.00     0.251 C 
ATOM     26  H   UNL A   1      33.138  30.103  26.165  1.00  0.00     0.163 HD
ATOM     27  O   UNL A   1      34.043  31.558  27.880  1.00  0.00    -0.269 OA
BRANCH  25  28
ATOM     28  C   UNL A   1      35.849  30.072  28.082  1.00  0.00     0.039 A 
ATOM     29  C   UNL A   1      35.913  29.561  29.380  1.00  0.00     0.014 A 
ATOM     30  C   UNL A   1      37.012  30.200  27.316  1.00  0.00     0.014 A 
ATOM     31  C   UNL A   1      37.138  29.130  29.891  1.00  0.00     0.010 A 
ATOM     32  C   UNL A   1      38.216  29.698  27.798  1.00  0.00     0.010 A 
ATOM     33  C   UNL A   1      38.295  29.166  29.094  1.00  0.00    -0.014 A 
BRANCH  33  34
ATOM     34  C   UNL A   1      39.592  28.647  29.600  1.00  0.00     0.031 A 
ATOM     35  C   UNL A   1      40.316  29.362  30.710  1.00  0.00     0.074 A 
ATOM     36  C   UNL A   1      40.154  27.574  29.008  1.00  0.00     0.049 A 
ATOM     37  N   UNL A   1      41.475  29.088  31.247  1.00  0.00    -0.248 NA
ATOM     38  C   UNL A   1      39.662  30.555  31.276  1.00  0.00     0.031 C 
ATOM     39  C   UNL A   1      39.588  26.840  27.874  1.00  0.00     0.029 A 
ATOM     40  N   UNL A   1      41.338  26.928  29.261  1.00  0.00    -0.354 N 
ATOM     41  C   UNL A   1      41.706  30.084  32.188  1.00  0.00     0.074 A 
ATOM     42  C   UNL A   1      40.581  30.992  32.125  1.00  0.00     0.031 C 
ATOM     43  C   UNL A   1      40.420  25.843  27.534  1.00  0.00     0.029 A 
ATOM     44  C   UNL A   1      41.595  25.889  28.398  1.00  0.00     0.049 A 
ATOM     45  H   UNL A   1      41.947  27.185  29.992  1.00  0.00     0.167 HD
ATOM     46  C   UNL A   1      42.744  30.218  33.048  1.00  0.00     0.034 A 
ATOM     47  C   UNL A   1      42.664  25.073  28.302  1.00  0.00     0.034 A 
ATOM     48  C   UNL A   1      43.844  29.295  33.129  1.00  0.00     0.049 A 
ATOM     49  C   UNL A   1      43.794  25.234  29.283  1.00  0.00     0.074 A 
ATOM     50  C   UNL A   1      44.905  29.300  34.017  1.00  0.00     0.029 A 
ATOM     51  N   UNL A   1      44.033  28.211  32.287  1.00  0.00    -0.354 N 
ATOM     52  N   UNL A   1      43.920  26.093  30.264  1.00  0.00    -0.248 NA
ATOM     53  C   UNL A   1      44.914  24.287  29.167  1.00  0.00     0.031 C 
ATOM     54  C   UNL A   1      45.754  28.239  33.690  1.00  0.00     0.029 A 
ATOM     55  C   UNL A   1      45.200  27.548  32.625  1.00  0.00     0.049 A 
ATOM     56  H   UNL A   1      43.427  27.951  31.556  1.00  0.00     0.167 HD
ATOM     57  C   UNL A   1      45.110  25.767  30.906  1.00  0.00     0.074 A 
ATOM     58  C   UNL A   1      45.656  24.618  30.215  1.00  0.00     0.031 C 
ATOM     59  C   UNL A   1      45.705  26.374  31.962  1.00  0.00     0.034 A 
BRANCH  46  60
ATOM     60  C   UNL A   1      42.722  31.382  34.006  1.00  0.00     0.023 A 
ATOM     61  C   UNL A   1      43.360  32.588  33.651  1.00  0.00     0.012 A 
ATOM     62  C   UNL A   1      42.010  31.308  35.218  1.00  0.00     0.148 A 
ATOM     63  C   UNL A   1      43.316  33.692  34.500  1.00  0.00     0.002 A 
ATOM     64  C   UNL A   1      41.929  32.427  36.038  1.00  0.00     0.091 A 
ATOM     65  F   UNL A   1      41.425  30.147  35.546  1.00  0.00    -0.205 F 
ATOM     66  C   UNL A   1      42.591  33.615  35.687  1.00  0.00     0.022 A 
BRANCH  64  67
ATOM     67  S   UNL A   1      40.954  32.460  37.545  1.00  0.00     0.127 S 
ATOM     68  O   UNL A   1      41.861  31.818  38.497  1.00  0.00    -0.237 OA
ATOM     69  O   UNL A   1      40.764  33.895  37.757  1.00  0.00    -0.237 OA
ATOM     70  O   UNL A   1      39.735  31.718  37.255  1.00  0.00    -0.744 OA
ENDBRANCH  64  67
ENDBRANCH  46  60
BRANCH  47  71
ATOM     71  C   UNL A   1      42.702  24.002  27.266  1.00  0.00     0.023 A 
ATOM     72  C   UNL A   1      43.338  24.247  26.033  1.00  0.00     0.012 A 
ATOM     73  C   UNL A   1      42.111  22.745  27.495  1.00  0.00     0.148 A 
ATOM     74  C   UNL A   1      43.345  23.276  25.031  1.00  0.00     0.002 A 
ATOM     75  C   UNL A   1      42.173  21.762  26.516  1.00  0.00     0.091 A 
ATOM     76  F   UNL A   1      41.503  22.533  28.671  1.00  0.00    -0.205 F 
ATOM     77  C   UNL A   1      42.771  22.032  25.275  1.00  0.00     0.022 A 
BRANCH  75  78
ATOM     78  S   UNL A   1      41.575  20.091  26.790  1.00  0.00     0.127 S 
ATOM     79  O   UNL A   1      42.555  19.576  27.743  1.00  0.00    -0.237 OA
ATOM     80  O   UNL A   1      40.244  20.335  27.345  1.00  0.00    -0.237 OA
ATOM     81  O   UNL A   1      41.572  19.455  25.480  1.00  0.00    -0.744 OA
ENDBRANCH  75  78
ENDBRANCH  47  71
BRANCH  59  82
ATOM     82  C   UNL A   1      46.991  25.781  32.475  1.00  0.00     0.023 A 
ATOM     83  C   UNL A   1      48.228  26.232  31.974  1.00  0.00     0.012 A 
ATOM     84  C   UNL A   1      46.972  24.821  33.508  1.00  0.00     0.148 A 
ATOM     85  C   UNL A   1      49.425  25.711  32.466  1.00  0.00     0.002 A 
ATOM     86  C   UNL A   1      48.168  24.347  34.030  1.00  0.00     0.091 A 
ATOM     87  F   UNL A   1      45.785  24.393  33.960  1.00  0.00    -0.205 F 
ATOM     88  C   UNL A   1      49.395  24.779  33.500  1.00  0.00     0.022 A 
BRANCH  86  89
ATOM     89  S   UNL A   1      48.232  23.222  35.429  1.00  0.00     0.127 S 
ATOM     90  O   UNL A   1      48.837  22.034  34.829  1.00  0.00    -0.237 OA
ATOM     91  O   UNL A   1      49.096  23.942  36.364  1.00  0.00    -0.237 OA
ATOM     92  O   UNL A   1      46.856  23.060  35.879  1.00  0.00    -0.744 OA
ENDBRANCH  86  89
ENDBRANCH  59  82
ENDBRANCH  33  34
ENDBRANCH  25  28
ENDBRANCH  23  24
ENDBRANCH  22  23
ENDBRANCH  21  22
ENDBRANCH  20  21
ENDBRANCH   1  20
TORSDOF 21
ENDMDL
