MODEL 1
REMARK VINA RESULT:     -10.7      0.000      0.000
REMARK SMILES CCN(CC(=O)NCCCCCCNC(=O)c1ccc(-c2c3nc(c(-c4cccc(S(=O)(=O)[O-])c4F)c4ccc([nH]4)c(-c4cccc(S(=O)(=O)[O-])c4F)c4nc(c(-c5cccc(S(=O)(=O)[O-])c5F)c5ccc2[nH]5)C=C4)C=C3)cc1)C(=O)[C@@H]1CC[NH2+][C@@H]1C
REMARK SMILES IDX 10 1 9 2 8 3 7 4 5 5 6 6 4 8 3 9 2 10 1 11 80 12 81 13 82 14
REMARK SMILES IDX 83 15 86 16 84 17 85 18 87 19 11 22 12 23 13 24 14 25 15 26
REMARK SMILES IDX 16 28 17 29 18 30 79 31 19 32 78 33 20 34 21 35 22 36 72 37
REMARK SMILES IDX 23 38 77 39 71 40 73 41 24 42 76 43 70 44 69 45 25 47 57 48
REMARK SMILES IDX 37 49 56 50 38 51 41 52 55 53 74 54 39 55 40 56 54 58 75 59
REMARK SMILES IDX 42 60 26 61 27 62 35 63 28 64 30 65 36 66 29 67 31 68 32 69
REMARK SMILES IDX 33 70 34 71 58 72 59 73 67 74 60 75 62 76 68 77 61 78 63 79
REMARK SMILES IDX 64 80 65 81 66 82 43 83 44 84 52 85 45 86 47 87 53 88 46 89
REMARK SMILES IDX 48 90 49 91 50 92 51 93
REMARK H PARENT 7 7 85 20 85 21 14 27 73 46 41 57
REMARK Flexibility Score: inf
ROOT
ATOM      1  C   UNL A   1      32.981  29.369  26.837  1.00  0.00     0.002 C 
ENDROOT
BRANCH   1   2
ATOM      2  C   UNL A   1      32.240  28.138  27.375  1.00  0.00     0.021 C 
BRANCH   2   3
ATOM      3  C   UNL A   1      31.543  27.295  26.314  1.00  0.00     0.116 C 
BRANCH   3   4
ATOM      4  N   UNL A   1      30.924  26.104  26.844  1.00  0.00    -0.355 N 
ATOM      5  C   UNL A   1      31.016  24.833  26.372  1.00  0.00     0.239 C 
ATOM      6  O   UNL A   1      30.986  23.930  27.217  1.00  0.00    -0.273 OA
ATOM      7  H   UNL A   1      30.367  26.228  27.646  1.00  0.00     0.163 HD
BRANCH   5   8
ATOM      8  C   UNL A   1      31.296  24.506  24.892  1.00  0.00     0.219 C 
BRANCH   8   9
ATOM      9  N   UNL A   1      32.663  24.192  24.493  1.00  0.00    -0.333 N 
BRANCH   9  10
ATOM     10  C   UNL A   1      32.942  22.773  24.189  1.00  0.00     0.116 C 
ATOM     11  C   UNL A   1      32.015  21.815  24.921  1.00  0.00     0.027 C 
ENDBRANCH   9  10
BRANCH   9  12
ATOM     12  C   UNL A   1      33.686  25.082  24.254  1.00  0.00     0.232 C 
ATOM     13  O   UNL A   1      34.720  24.973  24.941  1.00  0.00    -0.274 OA
BRANCH  12  14
ATOM     14  C   UNL A   1      33.700  26.254  23.264  1.00  0.00     0.142 C 
ATOM     15  C   UNL A   1      33.740  27.600  23.981  1.00  0.00     0.081 C 
ATOM     16  C   UNL A   1      32.965  26.561  21.960  1.00  0.00     0.192 C 
ATOM     17  C   UNL A   1      33.769  28.614  22.844  1.00  0.00     0.261 C 
ATOM     18  N   UNL A   1      33.644  27.838  21.600  1.00  0.00    -0.343 N 
ATOM     19  C   UNL A   1      31.472  26.867  21.937  1.00  0.00     0.076 C 
ATOM     20  H   UNL A   1      34.568  27.647  21.211  1.00  0.00     0.346 HD
ATOM     21  H   UNL A   1      33.113  28.352  20.898  1.00  0.00     0.346 HD
ENDBRANCH  12  14
ENDBRANCH   9  12
ENDBRANCH   8   9
ENDBRANCH   5   8
ENDBRANCH   3   4
ENDBRANCH   2   3
ENDBRANCH   1   2
BRANCH   1  22
ATOM     22  C   UNL A   1      32.137  30.359  26.024  1.00  0.00     0.002 C 
BRANCH  22  23
ATOM     23  C   UNL A   1      31.755  31.654  26.743  1.00  0.00     0.021 C 
BRANCH  23  24
ATOM     24  C   UNL A   1      32.923  32.421  27.343  1.00  0.00     0.116 C 
BRANCH  24  25
ATOM     25  N   UNL A   1      32.587  33.811  27.611  1.00  0.00    -0.352 N 
ATOM     26  C   UNL A   1      33.104  34.641  28.576  1.00  0.00     0.251 C 
ATOM     27  H   UNL A   1      31.902  34.207  27.025  1.00  0.00     0.163 HD
ATOM     28  O   UNL A   1      32.592  35.733  28.799  1.00  0.00    -0.269 OA
BRANCH  26  29
ATOM     29  C   UNL A   1      34.275  34.190  29.358  1.00  0.00     0.039 A 
ATOM     30  C   UNL A   1      34.079  33.407  30.498  1.00  0.00     0.014 A 
ATOM     31  C   UNL A   1      35.567  34.514  28.936  1.00  0.00     0.014 A 
ATOM     32  C   UNL A   1      35.184  32.899  31.186  1.00  0.00     0.010 A 
ATOM     33  C   UNL A   1      36.662  33.948  29.577  1.00  0.00     0.010 A 
ATOM     34  C   UNL A   1      36.483  33.142  30.712  1.00  0.00    -0.014 A 
BRANCH  34  35
ATOM     35  C   UNL A   1      37.688  32.588  31.383  1.00  0.00     0.031 A 
ATOM     36  C   UNL A   1      38.423  31.441  30.745  1.00  0.00     0.074 A 
ATOM     37  C   UNL A   1      38.038  33.022  32.609  1.00  0.00     0.049 A 
ATOM     38  N   UNL A   1      39.377  30.695  31.236  1.00  0.00    -0.248 NA
ATOM     39  C   UNL A   1      38.002  31.059  29.386  1.00  0.00     0.031 C 
ATOM     40  C   UNL A   1      37.370  34.090  33.354  1.00  0.00     0.029 A 
ATOM     41  N   UNL A   1      39.020  32.585  33.464  1.00  0.00    -0.354 N 
ATOM     42  C   UNL A   1      39.633  29.727  30.273  1.00  0.00     0.074 A 
ATOM     43  C   UNL A   1      38.717  29.963  29.179  1.00  0.00     0.031 C 
ATOM     44  C   UNL A   1      37.951  34.217  34.559  1.00  0.00     0.029 A 
ATOM     45  C   UNL A   1      39.005  33.214  34.688  1.00  0.00     0.049 A 
ATOM     46  H   UNL A   1      39.674  31.889  33.225  1.00  0.00     0.167 HD
ATOM     47  C   UNL A   1      40.562  28.742  30.287  1.00  0.00     0.034 A 
ATOM     48  C   UNL A   1      39.741  32.994  35.796  1.00  0.00     0.034 A 
ATOM     49  C   UNL A   1      41.504  28.546  31.353  1.00  0.00     0.049 A 
ATOM     50  C   UNL A   1      40.793  31.917  35.772  1.00  0.00     0.074 A 
ATOM     51  C   UNL A   1      42.539  27.632  31.429  1.00  0.00     0.029 A 
ATOM     52  N   UNL A   1      41.527  29.275  32.532  1.00  0.00    -0.354 N 
ATOM     53  N   UNL A   1      41.109  31.094  34.802  1.00  0.00    -0.248 NA
ATOM     54  C   UNL A   1      41.613  31.757  36.982  1.00  0.00     0.031 C 
ATOM     55  C   UNL A   1      43.176  27.795  32.662  1.00  0.00     0.029 A 
ATOM     56  C   UNL A   1      42.557  28.832  33.341  1.00  0.00     0.049 A 
ATOM     57  H   UNL A   1      40.903  30.002  32.758  1.00  0.00     0.167 HD
ATOM     58  C   UNL A   1      42.192  30.355  35.263  1.00  0.00     0.074 A 
ATOM     59  C   UNL A   1      42.483  30.830  36.600  1.00  0.00     0.031 C 
ATOM     60  C   UNL A   1      42.878  29.368  34.640  1.00  0.00     0.034 A 
BRANCH  47  61
ATOM     61  C   UNL A   1      40.637  27.831  29.089  1.00  0.00     0.023 A 
ATOM     62  C   UNL A   1      39.767  26.726  28.998  1.00  0.00     0.012 A 
ATOM     63  C   UNL A   1      41.529  28.099  28.032  1.00  0.00     0.148 A 
ATOM     64  C   UNL A   1      39.808  25.880  27.892  1.00  0.00     0.002 A 
ATOM     65  C   UNL A   1      41.530  27.278  26.910  1.00  0.00     0.091 A 
ATOM     66  F   UNL A   1      42.363  29.142  28.145  1.00  0.00    -0.205 F 
ATOM     67  C   UNL A   1      40.681  26.161  26.845  1.00  0.00     0.022 A 
BRANCH  65  68
ATOM     68  S   UNL A   1      42.556  27.604  25.472  1.00  0.00     0.127 S 
ATOM     69  O   UNL A   1      41.966  28.842  24.965  1.00  0.00    -0.237 OA
ATOM     70  O   UNL A   1      43.882  27.760  26.070  1.00  0.00    -0.237 OA
ATOM     71  O   UNL A   1      42.413  26.443  24.605  1.00  0.00    -0.744 OA
ENDBRANCH  65  68
ENDBRANCH  47  61
BRANCH  48  72
ATOM     72  C   UNL A   1      39.548  33.849  37.002  1.00  0.00     0.023 A 
ATOM     73  C   UNL A   1      39.967  35.193  36.967  1.00  0.00     0.012 A 
ATOM     74  C   UNL A   1      38.935  33.351  38.168  1.00  0.00     0.148 A 
ATOM     75  C   UNL A   1      39.807  36.018  38.080  1.00  0.00     0.002 A 
ATOM     76  C   UNL A   1      38.729  34.194  39.255  1.00  0.00     0.091 A 
ATOM     77  F   UNL A   1      38.553  32.066  38.187  1.00  0.00    -0.205 F 
ATOM     78  C   UNL A   1      39.180  35.523  39.220  1.00  0.00     0.022 A 
BRANCH  76  79
ATOM     79  S   UNL A   1      37.817  33.680  40.715  1.00  0.00     0.127 S 
ATOM     80  O   UNL A   1      37.728  34.928  41.468  1.00  0.00    -0.237 OA
ATOM     81  O   UNL A   1      36.556  33.216  40.136  1.00  0.00    -0.237 OA
ATOM     82  O   UNL A   1      38.617  32.626  41.327  1.00  0.00    -0.744 OA
ENDBRANCH  76  79
ENDBRANCH  48  72
BRANCH  60  83
ATOM     83  C   UNL A   1      44.061  28.767  35.352  1.00  0.00     0.023 A 
ATOM     84  C   UNL A   1      45.339  29.338  35.203  1.00  0.00     0.012 A 
ATOM     85  C   UNL A   1      43.875  27.706  36.260  1.00  0.00     0.148 A 
ATOM     86  C   UNL A   1      46.420  28.848  35.937  1.00  0.00     0.002 A 
ATOM     87  C   UNL A   1      44.945  27.256  37.023  1.00  0.00     0.091 A 
ATOM     88  F   UNL A   1      42.651  27.168  36.372  1.00  0.00    -0.205 F 
ATOM     89  C   UNL A   1      46.220  27.820  36.855  1.00  0.00     0.022 A 
BRANCH  87  90
ATOM     90  S   UNL A   1      44.761  26.008  38.302  1.00  0.00     0.127 S 
ATOM     91  O   UNL A   1      46.136  25.863  38.776  1.00  0.00    -0.237 OA
ATOM     92  O   UNL A   1      43.857  26.666  39.247  1.00  0.00    -0.237 OA
ATOM     93  O   UNL A   1      44.202  24.835  37.645  1.00  0.00    -0.744 OA
ENDBRANCH  87  90
ENDBRANCH  60  83
ENDBRANCH  34  35
ENDBRANCH  26  29
ENDBRANCH  24  25
ENDBRANCH  23  24
ENDBRANCH  22  23
ENDBRANCH   1  22
TORSDOF 20
ENDMDL
MODEL 2
REMARK VINA RESULT:     -10.7      0.871      2.112
REMARK SMILES CCN(CC(=O)NCCCCCCNC(=O)c1ccc(-c2c3nc(c(-c4cccc(S(=O)(=O)[O-])c4F)c4ccc([nH]4)c(-c4cccc(S(=O)(=O)[O-])c4F)c4nc(c(-c5cccc(S(=O)(=O)[O-])c5F)c5ccc2[nH]5)C=C4)C=C3)cc1)C(=O)[C@@H]1CC[NH2+][C@@H]1C
REMARK SMILES IDX 10 1 9 2 8 3 7 4 5 5 6 6 4 8 3 9 2 10 1 11 80 12 81 13 82 14
REMARK SMILES IDX 83 15 86 16 84 17 85 18 87 19 11 22 12 23 13 24 14 25 15 26
REMARK SMILES IDX 16 28 17 29 18 30 79 31 19 32 78 33 20 34 21 35 22 36 72 37
REMARK SMILES IDX 23 38 77 39 71 40 73 41 24 42 76 43 70 44 69 45 25 47 57 48
REMARK SMILES IDX 37 49 56 50 38 51 41 52 55 53 74 54 39 55 40 56 54 58 75 59
REMARK SMILES IDX 42 60 26 61 27 62 35 63 28 64 30 65 36 66 29 67 31 68 32 69
REMARK SMILES IDX 33 70 34 71 58 72 59 73 67 74 60 75 62 76 68 77 61 78 63 79
REMARK SMILES IDX 64 80 65 81 66 82 43 83 44 84 52 85 45 86 47 87 53 88 46 89
REMARK SMILES IDX 48 90 49 91 50 92 51 93
REMARK H PARENT 7 7 85 20 85 21 14 27 73 46 41 57
REMARK Flexibility Score: inf
ROOT
ATOM      1  C   UNL A   1      32.856  29.350  26.923  1.00  0.00     0.002 C 
ENDROOT
BRANCH   1   2
ATOM      2  C   UNL A   1      32.155  28.068  27.392  1.00  0.00     0.021 C 
BRANCH   2   3
ATOM      3  C   UNL A   1      31.261  27.409  26.349  1.00  0.00     0.116 C 
BRANCH   3   4
ATOM      4  N   UNL A   1      30.946  26.033  26.652  1.00  0.00    -0.355 N 
ATOM      5  C   UNL A   1      31.337  24.918  25.980  1.00  0.00     0.239 C 
ATOM      6  O   UNL A   1      31.526  23.905  26.661  1.00  0.00    -0.273 OA
ATOM      7  H   UNL A   1      30.379  25.884  27.442  1.00  0.00     0.163 HD
BRANCH   5   8
ATOM      8  C   UNL A   1      31.680  24.923  24.477  1.00  0.00     0.219 C 
BRANCH   8   9
ATOM      9  N   UNL A   1      32.891  24.240  24.035  1.00  0.00    -0.333 N 
BRANCH   9  10
ATOM     10  C   UNL A   1      34.161  24.964  24.247  1.00  0.00     0.116 C 
ATOM     11  C   UNL A   1      33.979  26.473  24.322  1.00  0.00     0.027 C 
ENDBRANCH   9  10
BRANCH   9  12
ATOM     12  C   UNL A   1      32.993  22.954  23.555  1.00  0.00     0.232 C 
ATOM     13  O   UNL A   1      32.632  22.745  22.380  1.00  0.00    -0.274 OA
BRANCH  12  14
ATOM     14  C   UNL A   1      33.454  21.701  24.311  1.00  0.00     0.142 C 
ATOM     15  C   UNL A   1      32.274  20.893  24.840  1.00  0.00     0.081 C 
ATOM     16  C   UNL A   1      34.571  21.408  25.312  1.00  0.00     0.192 C 
ATOM     17  C   UNL A   1      32.932  19.703  25.530  1.00  0.00     0.261 C 
ATOM     18  N   UNL A   1      34.382  19.936  25.453  1.00  0.00    -0.343 N 
ATOM     19  C   UNL A   1      34.541  21.966  26.730  1.00  0.00     0.076 C 
ATOM     20  H   UNL A   1      34.774  19.452  24.644  1.00  0.00     0.346 HD
ATOM     21  H   UNL A   1      34.856  19.583  26.284  1.00  0.00     0.346 HD
ENDBRANCH  12  14
ENDBRANCH   9  12
ENDBRANCH   8   9
ENDBRANCH   5   8
ENDBRANCH   3   4
ENDBRANCH   2   3
ENDBRANCH   1   2
BRANCH   1  22
ATOM     22  C   UNL A   1      31.977  30.360  26.175  1.00  0.00     0.002 C 
BRANCH  22  23
ATOM     23  C   UNL A   1      31.652  31.649  26.932  1.00  0.00     0.021 C 
BRANCH  23  24
ATOM     24  C   UNL A   1      32.864  32.433  27.409  1.00  0.00     0.116 C 
BRANCH  24  25
ATOM     25  N   UNL A   1      32.553  33.836  27.640  1.00  0.00    -0.352 N 
ATOM     26  C   UNL A   1      33.094  34.685  28.574  1.00  0.00     0.251 C 
ATOM     27  H   UNL A   1      31.868  34.226  27.049  1.00  0.00     0.163 HD
ATOM     28  O   UNL A   1      32.602  35.792  28.770  1.00  0.00    -0.269 OA
BRANCH  26  29
ATOM     29  C   UNL A   1      34.266  34.238  29.357  1.00  0.00     0.039 A 
ATOM     30  C   UNL A   1      34.071  33.454  30.497  1.00  0.00     0.014 A 
ATOM     31  C   UNL A   1      35.557  34.567  28.936  1.00  0.00     0.014 A 
ATOM     32  C   UNL A   1      35.178  32.950  31.185  1.00  0.00     0.010 A 
ATOM     33  C   UNL A   1      36.653  34.005  29.578  1.00  0.00     0.010 A 
ATOM     34  C   UNL A   1      36.476  33.197  30.713  1.00  0.00    -0.014 A 
BRANCH  34  35
ATOM     35  C   UNL A   1      37.682  32.648  31.384  1.00  0.00     0.031 A 
ATOM     36  C   UNL A   1      38.412  31.492  30.756  1.00  0.00     0.074 A 
ATOM     37  C   UNL A   1      38.039  33.094  32.604  1.00  0.00     0.049 A 
ATOM     38  N   UNL A   1      39.366  30.749  31.251  1.00  0.00    -0.248 NA
ATOM     39  C   UNL A   1      37.984  31.097  29.402  1.00  0.00     0.031 C 
ATOM     40  C   UNL A   1      37.376  34.171  33.341  1.00  0.00     0.029 A 
ATOM     41  N   UNL A   1      39.023  32.664  33.460  1.00  0.00    -0.354 N 
ATOM     42  C   UNL A   1      39.616  29.770  30.297  1.00  0.00     0.074 A 
ATOM     43  C   UNL A   1      38.696  29.997  29.204  1.00  0.00     0.031 C 
ATOM     44  C   UNL A   1      37.962  34.309  34.542  1.00  0.00     0.029 A 
ATOM     45  C   UNL A   1      39.015  33.306  34.677  1.00  0.00     0.049 A 
ATOM     46  H   UNL A   1      39.674  31.963  33.226  1.00  0.00     0.167 HD
ATOM     47  C   UNL A   1      40.542  28.783  30.318  1.00  0.00     0.034 A 
ATOM     48  C   UNL A   1      39.754  33.095  35.785  1.00  0.00     0.034 A 
ATOM     49  C   UNL A   1      41.488  28.595  31.383  1.00  0.00     0.049 A 
ATOM     50  C   UNL A   1      40.803  32.015  35.768  1.00  0.00     0.074 A 
ATOM     51  C   UNL A   1      42.521  27.679  31.463  1.00  0.00     0.029 A 
ATOM     52  N   UNL A   1      41.517  29.337  32.553  1.00  0.00    -0.354 N 
ATOM     53  N   UNL A   1      41.113  31.181  34.805  1.00  0.00    -0.248 NA
ATOM     54  C   UNL A   1      41.629  31.866  36.976  1.00  0.00     0.031 C 
ATOM     55  C   UNL A   1      43.163  27.854  32.692  1.00  0.00     0.029 A 
ATOM     56  C   UNL A   1      42.549  28.900  33.363  1.00  0.00     0.049 A 
ATOM     57  H   UNL A   1      40.896  30.068  32.774  1.00  0.00     0.167 HD
ATOM     58  C   UNL A   1      42.197  30.444  35.270  1.00  0.00     0.074 A 
ATOM     59  C   UNL A   1      42.494  30.933  36.600  1.00  0.00     0.031 C 
ATOM     60  C   UNL A   1      42.878  29.449  34.654  1.00  0.00     0.034 A 
BRANCH  47  61
ATOM     61  C   UNL A   1      40.610  27.859  29.130  1.00  0.00     0.023 A 
ATOM     62  C   UNL A   1      39.703  26.784  29.029  1.00  0.00     0.012 A 
ATOM     63  C   UNL A   1      41.532  28.085  28.089  1.00  0.00     0.148 A 
ATOM     64  C   UNL A   1      39.737  25.927  27.931  1.00  0.00     0.002 A 
ATOM     65  C   UNL A   1      41.528  27.254  26.974  1.00  0.00     0.091 A 
ATOM     66  F   UNL A   1      42.400  29.099  28.211  1.00  0.00    -0.205 F 
ATOM     67  C   UNL A   1      40.641  26.168  26.900  1.00  0.00     0.022 A 
BRANCH  65  68
ATOM     68  S   UNL A   1      42.594  27.532  25.556  1.00  0.00     0.127 S 
ATOM     69  O   UNL A   1      42.071  28.794  25.037  1.00  0.00    -0.237 OA
ATOM     70  O   UNL A   1      43.915  27.628  26.178  1.00  0.00    -0.237 OA
ATOM     71  O   UNL A   1      42.416  26.377  24.687  1.00  0.00    -0.744 OA
ENDBRANCH  65  68
ENDBRANCH  47  61
BRANCH  48  72
ATOM     72  C   UNL A   1      39.569  33.963  36.982  1.00  0.00     0.023 A 
ATOM     73  C   UNL A   1      39.981  35.309  36.927  1.00  0.00     0.012 A 
ATOM     74  C   UNL A   1      38.968  33.477  38.160  1.00  0.00     0.148 A 
ATOM     75  C   UNL A   1      39.828  36.146  38.032  1.00  0.00     0.002 A 
ATOM     76  C   UNL A   1      38.769  34.332  39.238  1.00  0.00     0.091 A 
ATOM     77  F   UNL A   1      38.593  32.191  38.197  1.00  0.00    -0.205 F 
ATOM     78  C   UNL A   1      39.214  35.662  39.183  1.00  0.00     0.022 A 
BRANCH  76  79
ATOM     79  S   UNL A   1      37.872  33.831  40.712  1.00  0.00     0.127 S 
ATOM     80  O   UNL A   1      37.545  35.119  41.317  1.00  0.00    -0.237 OA
ATOM     81  O   UNL A   1      36.734  33.109  40.144  1.00  0.00    -0.237 OA
ATOM     82  O   UNL A   1      38.795  32.993  41.468  1.00  0.00    -0.744 OA
ENDBRANCH  76  79
ENDBRANCH  48  72
BRANCH  60  83
ATOM     83  C   UNL A   1      44.061  28.852  35.368  1.00  0.00     0.023 A 
ATOM     84  C   UNL A   1      45.335  29.437  35.232  1.00  0.00     0.012 A 
ATOM     85  C   UNL A   1      43.880  27.781  36.265  1.00  0.00     0.148 A 
ATOM     86  C   UNL A   1      46.416  28.950  35.967  1.00  0.00     0.002 A 
ATOM     87  C   UNL A   1      44.950  27.335  37.030  1.00  0.00     0.091 A 
ATOM     88  F   UNL A   1      42.661  27.231  36.365  1.00  0.00    -0.205 F 
ATOM     89  C   UNL A   1      46.221  27.911  36.875  1.00  0.00     0.022 A 
BRANCH  87  90
ATOM     90  S   UNL A   1      44.770  26.073  38.297  1.00  0.00     0.127 S 
ATOM     91  O   UNL A   1      46.162  25.820  38.664  1.00  0.00    -0.237 OA
ATOM     92  O   UNL A   1      43.988  26.771  39.319  1.00  0.00    -0.237 OA
ATOM     93  O   UNL A   1      44.081  24.959  37.662  1.00  0.00    -0.744 OA
ENDBRANCH  87  90
ENDBRANCH  60  83
ENDBRANCH  34  35
ENDBRANCH  26  29
ENDBRANCH  24  25
ENDBRANCH  23  24
ENDBRANCH  22  23
ENDBRANCH   1  22
TORSDOF 20
ENDMDL
MODEL 3
REMARK VINA RESULT:     -10.7      2.168      3.135
REMARK SMILES CCN(CC(=O)NCCCCCCNC(=O)c1ccc(-c2c3nc(c(-c4cccc(S(=O)(=O)[O-])c4F)c4ccc([nH]4)c(-c4cccc(S(=O)(=O)[O-])c4F)c4nc(c(-c5cccc(S(=O)(=O)[O-])c5F)c5ccc2[nH]5)C=C4)C=C3)cc1)C(=O)[C@@H]1CC[NH2+][C@@H]1C
REMARK SMILES IDX 10 1 9 2 8 3 7 4 5 5 6 6 4 8 3 9 2 10 1 11 80 12 81 13 82 14
REMARK SMILES IDX 83 15 86 16 84 17 85 18 87 19 11 22 12 23 13 24 14 25 15 26
REMARK SMILES IDX 16 28 17 29 18 30 79 31 19 32 78 33 20 34 21 35 22 36 72 37
REMARK SMILES IDX 23 38 77 39 71 40 73 41 24 42 76 43 70 44 69 45 25 47 57 48
REMARK SMILES IDX 37 49 56 50 38 51 41 52 55 53 74 54 39 55 40 56 54 58 75 59
REMARK SMILES IDX 42 60 26 61 27 62 35 63 28 64 30 65 36 66 29 67 31 68 32 69
REMARK SMILES IDX 33 70 34 71 58 72 59 73 67 74 60 75 62 76 68 77 61 78 63 79
REMARK SMILES IDX 64 80 65 81 66 82 43 83 44 84 52 85 45 86 47 87 53 88 46 89
REMARK SMILES IDX 48 90 49 91 50 92 51 93
REMARK H PARENT 7 7 85 20 85 21 14 27 73 46 41 57
REMARK Flexibility Score: inf
ROOT
ATOM      1  C   UNL A   1      32.136  27.297  23.924  1.00  0.00     0.002 C 
ENDROOT
BRANCH   1   2
ATOM      2  C   UNL A   1      30.924  26.717  24.665  1.00  0.00     0.021 C 
BRANCH   2   3
ATOM      3  C   UNL A   1      31.154  26.433  26.145  1.00  0.00     0.116 C 
BRANCH   3   4
ATOM      4  N   UNL A   1      30.762  25.101  26.539  1.00  0.00    -0.355 N 
ATOM      5  C   UNL A   1      31.461  23.945  26.393  1.00  0.00     0.239 C 
ATOM      6  O   UNL A   1      31.307  23.095  27.277  1.00  0.00    -0.273 OA
ATOM      7  H   UNL A   1      29.879  25.020  26.966  1.00  0.00     0.163 HD
BRANCH   5   8
ATOM      8  C   UNL A   1      32.511  23.735  25.283  1.00  0.00     0.219 C 
BRANCH   8   9
ATOM      9  N   UNL A   1      33.215  22.459  25.220  1.00  0.00    -0.333 N 
BRANCH   9  10
ATOM     10  C   UNL A   1      32.788  21.532  24.153  1.00  0.00     0.116 C 
ATOM     11  C   UNL A   1      32.709  22.195  22.786  1.00  0.00     0.027 C 
ENDBRANCH   9  10
BRANCH   9  12
ATOM     12  C   UNL A   1      34.307  22.074  25.965  1.00  0.00     0.232 C 
ATOM     13  O   UNL A   1      34.093  21.500  27.051  1.00  0.00    -0.274 OA
BRANCH  12  14
ATOM     14  C   UNL A   1      35.790  22.311  25.652  1.00  0.00     0.142 C 
ATOM     15  C   UNL A   1      36.256  23.684  26.127  1.00  0.00     0.081 C 
ATOM     16  C   UNL A   1      36.689  22.019  24.452  1.00  0.00     0.192 C 
ATOM     17  C   UNL A   1      37.732  23.715  25.747  1.00  0.00     0.261 C 
ATOM     18  N   UNL A   1      37.993  22.464  25.019  1.00  0.00    -0.343 N 
ATOM     19  C   UNL A   1      36.533  22.771  23.135  1.00  0.00     0.076 C 
ATOM     20  H   UNL A   1      38.359  21.756  25.657  1.00  0.00     0.346 HD
ATOM     21  H   UNL A   1      38.685  22.604  24.283  1.00  0.00     0.346 HD
ENDBRANCH  12  14
ENDBRANCH   9  12
ENDBRANCH   8   9
ENDBRANCH   5   8
ENDBRANCH   3   4
ENDBRANCH   2   3
ENDBRANCH   1   2
BRANCH   1  22
ATOM     22  C   UNL A   1      33.140  28.074  24.784  1.00  0.00     0.002 C 
BRANCH  22  23
ATOM     23  C   UNL A   1      32.834  29.560  24.984  1.00  0.00     0.021 C 
BRANCH  23  24
ATOM     24  C   UNL A   1      32.487  29.954  26.411  1.00  0.00     0.116 C 
BRANCH  24  25
ATOM     25  N   UNL A   1      32.224  31.379  26.537  1.00  0.00    -0.352 N 
ATOM     26  C   UNL A   1      32.925  32.314  27.261  1.00  0.00     0.251 C 
ATOM     27  H   UNL A   1      31.445  31.718  26.039  1.00  0.00     0.163 HD
ATOM     28  O   UNL A   1      32.477  33.445  27.417  1.00  0.00    -0.269 OA
BRANCH  26  29
ATOM     29  C   UNL A   1      34.218  31.929  27.867  1.00  0.00     0.039 A 
ATOM     30  C   UNL A   1      35.229  32.886  27.990  1.00  0.00     0.014 A 
ATOM     31  C   UNL A   1      34.409  30.631  28.345  1.00  0.00     0.014 A 
ATOM     32  C   UNL A   1      36.416  32.554  28.647  1.00  0.00     0.010 A 
ATOM     33  C   UNL A   1      35.559  30.326  29.062  1.00  0.00     0.010 A 
ATOM     34  C   UNL A   1      36.578  31.280  29.214  1.00  0.00    -0.014 A 
BRANCH  34  35
ATOM     35  C   UNL A   1      37.803  30.894  29.960  1.00  0.00     0.031 A 
ATOM     36  C   UNL A   1      38.781  29.942  29.326  1.00  0.00     0.074 A 
ATOM     37  C   UNL A   1      37.971  31.288  31.237  1.00  0.00     0.049 A 
ATOM     38  N   UNL A   1      39.810  29.336  29.858  1.00  0.00    -0.248 NA
ATOM     39  C   UNL A   1      38.546  29.596  27.913  1.00  0.00     0.031 C 
ATOM     40  C   UNL A   1      37.064  32.166  31.979  1.00  0.00     0.029 A 
ATOM     41  N   UNL A   1      38.942  30.964  32.152  1.00  0.00    -0.354 N 
ATOM     42  C   UNL A   1      40.311  28.502  28.866  1.00  0.00     0.074 A 
ATOM     43  C   UNL A   1      39.459  28.658  27.708  1.00  0.00     0.031 C 
ATOM     44  C   UNL A   1      37.514  32.300  33.238  1.00  0.00     0.029 A 
ATOM     45  C   UNL A   1      38.716  31.488  33.404  1.00  0.00     0.049 A 
ATOM     46  H   UNL A   1      39.726  30.411  31.933  1.00  0.00     0.167 HD
ATOM     47  C   UNL A   1      41.396  27.694  28.908  1.00  0.00     0.034 A 
ATOM     48  C   UNL A   1      39.387  31.315  34.561  1.00  0.00     0.034 A 
ATOM     49  C   UNL A   1      42.269  27.583  30.044  1.00  0.00     0.049 A 
ATOM     50  C   UNL A   1      40.613  30.440  34.570  1.00  0.00     0.074 A 
ATOM     51  C   UNL A   1      43.441  26.858  30.160  1.00  0.00     0.029 A 
ATOM     52  N   UNL A   1      42.066  28.215  31.261  1.00  0.00    -0.354 N 
ATOM     53  N   UNL A   1      41.148  29.759  33.586  1.00  0.00    -0.248 NA
ATOM     54  C   UNL A   1      41.348  30.334  35.840  1.00  0.00     0.031 C 
ATOM     55  C   UNL A   1      43.936  27.035  31.455  1.00  0.00     0.029 A 
ATOM     56  C   UNL A   1      43.089  27.896  32.134  1.00  0.00     0.049 A 
ATOM     57  H   UNL A   1      41.306  28.804  31.471  1.00  0.00     0.167 HD
ATOM     58  C   UNL A   1      42.304  29.185  34.101  1.00  0.00     0.074 A 
ATOM     59  C   UNL A   1      42.397  29.602  35.485  1.00  0.00     0.031 C 
ATOM     60  C   UNL A   1      43.204  28.381  33.487  1.00  0.00     0.034 A 
BRANCH  47  61
ATOM     61  C   UNL A   1      41.729  26.902  27.671  1.00  0.00     0.023 A 
ATOM     62  C   UNL A   1      42.201  27.568  26.521  1.00  0.00     0.012 A 
ATOM     63  C   UNL A   1      41.630  25.496  27.663  1.00  0.00     0.148 A 
ATOM     64  C   UNL A   1      42.531  26.854  25.371  1.00  0.00     0.002 A 
ATOM     65  C   UNL A   1      42.007  24.787  26.528  1.00  0.00     0.091 A 
ATOM     66  F   UNL A   1      41.161  24.881  28.757  1.00  0.00    -0.205 F 
ATOM     67  C   UNL A   1      42.444  25.465  25.378  1.00  0.00     0.022 A 
BRANCH  65  68
ATOM     68  S   UNL A   1      42.013  22.992  26.465  1.00  0.00     0.127 S 
ATOM     69  O   UNL A   1      42.903  22.662  27.577  1.00  0.00    -0.237 OA
ATOM     70  O   UNL A   1      40.604  22.672  26.696  1.00  0.00    -0.237 OA
ATOM     71  O   UNL A   1      42.507  22.638  25.142  1.00  0.00    -0.744 OA
ENDBRANCH  65  68
ENDBRANCH  47  61
BRANCH  48  72
ATOM     72  C   UNL A   1      38.948  32.031  35.792  1.00  0.00     0.023 A 
ATOM     73  C   UNL A   1      39.260  33.396  35.943  1.00  0.00     0.012 A 
ATOM     74  C   UNL A   1      38.207  31.381  36.799  1.00  0.00     0.148 A 
ATOM     75  C   UNL A   1      38.870  34.094  37.086  1.00  0.00     0.002 A 
ATOM     76  C   UNL A   1      37.774  32.096  37.910  1.00  0.00     0.091 A 
ATOM     77  F   UNL A   1      37.929  30.079  36.642  1.00  0.00    -0.205 F 
ATOM     78  C   UNL A   1      38.120  33.448  38.064  1.00  0.00     0.022 A 
BRANCH  76  79
ATOM     79  S   UNL A   1      36.696  31.381  39.156  1.00  0.00     0.127 S 
ATOM     80  O   UNL A   1      36.398  30.073  38.580  1.00  0.00    -0.237 OA
ATOM     81  O   UNL A   1      37.566  31.355  40.331  1.00  0.00    -0.237 OA
ATOM     82  O   UNL A   1      35.566  32.295  39.269  1.00  0.00    -0.744 OA
ENDBRANCH  76  79
ENDBRANCH  48  72
BRANCH  60  83
ATOM     83  C   UNL A   1      44.413  27.941  34.268  1.00  0.00     0.023 A 
ATOM     84  C   UNL A   1      45.546  28.773  34.341  1.00  0.00     0.012 A 
ATOM     85  C   UNL A   1      44.372  26.753  35.025  1.00  0.00     0.148 A 
ATOM     86  C   UNL A   1      46.631  28.417  35.144  1.00  0.00     0.002 A 
ATOM     87  C   UNL A   1      45.434  26.430  35.859  1.00  0.00     0.091 A 
ATOM     88  F   UNL A   1      43.288  25.969  34.925  1.00  0.00    -0.205 F 
ATOM     89  C   UNL A   1      46.569  27.256  35.913  1.00  0.00     0.022 A 
BRANCH  87  90
ATOM     90  S   UNL A   1      45.400  25.012  36.961  1.00  0.00     0.127 S 
ATOM     91  O   UNL A   1      44.238  25.312  37.796  1.00  0.00    -0.237 OA
ATOM     92  O   UNL A   1      45.209  23.901  36.028  1.00  0.00    -0.237 OA
ATOM     93  O   UNL A   1      46.680  25.008  37.654  1.00  0.00    -0.744 OA
ENDBRANCH  87  90
ENDBRANCH  60  83
ENDBRANCH  34  35
ENDBRANCH  26  29
ENDBRANCH  24  25
ENDBRANCH  23  24
ENDBRANCH  22  23
ENDBRANCH   1  22
TORSDOF 20
ENDMDL
