MODEL 1
REMARK VINA RESULT:     -13.4      0.000      0.000
REMARK SMILES Cc1ccc(-c2nc(NC(=O)[C@H]3[C@@H](C(=O)NCCCCCCNC(=O)c4ccc(-c5c6nc(c(-c7cccc(S(=O)(=O)[O-])c7F)c7ccc([nH]7)c(-c7cccc(S(=O)(=O)[O-])c7F)c7nc(c(-c8cccc(S(=O)(=O)[O-])c8F)c8ccc5[nH]8)C=C7)C=C6)cc4)[C@@H]4CC[C@H]3O4)sc2C)cc1
REMARK SMILES IDX 19 1 18 2 17 3 16 4 14 5 15 6 13 8 12 9 92 10 89 11 91 12
REMARK SMILES IDX 93 13 90 14 10 15 9 16 11 18 8 19 6 20 7 21 95 22 94 23
REMARK SMILES IDX 96 24 5 25 1 26 2 27 3 28 98 29 4 30 97 31 20 32 21 33 22 34
REMARK SMILES IDX 23 35 24 36 25 38 26 39 27 40 88 41 28 42 87 43 29 44 30 45
REMARK SMILES IDX 31 46 81 47 32 48 86 49 80 50 82 51 33 52 85 53 79 54 78 55
REMARK SMILES IDX 34 57 66 58 46 59 65 60 47 61 50 62 64 63 83 64 48 65 49 66
REMARK SMILES IDX 63 68 84 69 51 70 35 71 36 72 44 73 37 74 39 75 45 76 38 77
REMARK SMILES IDX 40 78 41 79 42 80 43 81 67 82 68 83 76 84 69 85 71 86 77 87
REMARK SMILES IDX 70 88 72 89 73 90 74 91 75 92 52 93 53 94 61 95 54 96 56 97
REMARK SMILES IDX 62 98 55 99 57 100 58 101 59 102 60 103
REMARK H PARENT 16 7 9 17 23 37 82 56 50 67
REMARK Flexibility Score: inf
ROOT
ATOM      1  C   UNL A   1      34.208  28.037  25.695  1.00  0.00     0.002 C 
ENDROOT
BRANCH   1   2
ATOM      2  C   UNL A   1      33.769  26.752  26.399  1.00  0.00     0.021 C 
BRANCH   2   3
ATOM      3  C   UNL A   1      33.682  25.393  25.689  1.00  0.00     0.116 C 
BRANCH   3   4
ATOM      4  N   UNL A   1      34.308  25.196  24.397  1.00  0.00    -0.356 N 
ATOM      5  C   UNL A   1      34.411  24.063  23.621  1.00  0.00     0.226 C 
ATOM      6  O   UNL A   1      34.506  24.155  22.395  1.00  0.00    -0.275 OA
ATOM      7  H   UNL A   1      34.728  26.000  24.013  1.00  0.00     0.163 HD
BRANCH   5   8
ATOM      8  C   UNL A   1      34.364  22.746  24.300  1.00  0.00     0.122 C 
ATOM      9  C   UNL A   1      33.078  21.966  24.531  1.00  0.00     0.123 C 
ATOM     10  C   UNL A   1      33.643  20.983  25.596  1.00  0.00     0.132 C 
ATOM     11  C   UNL A   1      35.091  22.596  25.662  1.00  0.00     0.132 C 
ATOM     12  C   UNL A   1      34.993  20.307  25.192  1.00  0.00     0.035 C 
ATOM     13  O   UNL A   1      34.098  21.986  26.534  1.00  0.00    -0.373 OA
ATOM     14  C   UNL A   1      36.025  21.395  25.548  1.00  0.00     0.035 C 
BRANCH   9  15
ATOM     15  C   UNL A   1      31.639  22.388  25.025  1.00  0.00     0.232 C 
ATOM     16  N   UNL A   1      30.794  23.443  24.911  1.00  0.00    -0.302 N 
ATOM     17  H   UNL A   1      30.041  23.328  25.535  1.00  0.00     0.172 HD
ATOM     18  O   UNL A   1      31.118  21.513  25.760  1.00  0.00    -0.274 OA
BRANCH  16  19
ATOM     19  C   UNL A   1      30.634  24.616  24.219  1.00  0.00     0.190 A 
ATOM     20  C   UNL A   1      30.258  26.743  23.653  1.00  0.00     0.086 A 
ATOM     21  N   UNL A   1      29.965  25.708  24.584  1.00  0.00    -0.220 NA
ATOM     22  C   UNL A   1      31.336  26.407  22.855  1.00  0.00     0.031 A 
ATOM     23  S   UNL A   1      31.117  24.752  22.638  1.00  0.00    -0.101 S 
ATOM     24  C   UNL A   1      32.377  27.119  22.082  1.00  0.00     0.059 C 
BRANCH  20  25
ATOM     25  C   UNL A   1      29.550  28.014  23.478  1.00  0.00     0.001 A 
ATOM     26  C   UNL A   1      27.598  31.877  23.250  1.00  0.00     0.044 C 
ATOM     27  C   UNL A   1      28.282  30.543  23.289  1.00  0.00    -0.051 A 
ATOM     28  C   UNL A   1      27.604  29.361  22.947  1.00  0.00     0.004 A 
ATOM     29  C   UNL A   1      29.619  30.463  23.662  1.00  0.00     0.004 A 
ATOM     30  C   UNL A   1      28.233  28.103  23.040  1.00  0.00     0.010 A 
ATOM     31  C   UNL A   1      30.243  29.220  23.727  1.00  0.00     0.010 A 
ENDBRANCH  20  25
ENDBRANCH  16  19
ENDBRANCH   9  15
ENDBRANCH   5   8
ENDBRANCH   3   4
ENDBRANCH   2   3
ENDBRANCH   1   2
BRANCH   1  32
ATOM     32  C   UNL A   1      33.226  29.193  25.518  1.00  0.00     0.002 C 
BRANCH  32  33
ATOM     33  C   UNL A   1      33.297  30.349  26.507  1.00  0.00     0.021 C 
BRANCH  33  34
ATOM     34  C   UNL A   1      34.331  30.185  27.609  1.00  0.00     0.116 C 
BRANCH  34  35
ATOM     35  N   UNL A   1      35.296  31.259  27.651  1.00  0.00    -0.352 N 
ATOM     36  C   UNL A   1      36.575  31.247  28.170  1.00  0.00     0.251 C 
ATOM     37  H   UNL A   1      35.002  32.112  27.258  1.00  0.00     0.163 HD
ATOM     38  O   UNL A   1      37.086  32.313  28.506  1.00  0.00    -0.269 OA
BRANCH  36  39
ATOM     39  C   UNL A   1      37.363  29.990  28.143  1.00  0.00     0.039 A 
ATOM     40  C   UNL A   1      37.409  29.257  29.336  1.00  0.00     0.014 A 
ATOM     41  C   UNL A   1      38.239  29.677  27.106  1.00  0.00     0.014 A 
ATOM     42  C   UNL A   1      38.488  28.418  29.589  1.00  0.00     0.010 A 
ATOM     43  C   UNL A   1      39.344  28.906  27.373  1.00  0.00     0.010 A 
ATOM     44  C   UNL A   1      39.500  28.350  28.641  1.00  0.00    -0.014 A 
BRANCH  44  45
ATOM     45  C   UNL A   1      40.758  27.663  28.836  1.00  0.00     0.031 A 
ATOM     46  C   UNL A   1      40.792  26.210  28.654  1.00  0.00     0.074 A 
ATOM     47  C   UNL A   1      41.868  28.413  28.993  1.00  0.00     0.049 A 
ATOM     48  N   UNL A   1      41.708  25.434  29.114  1.00  0.00    -0.248 NA
ATOM     49  C   UNL A   1      39.724  25.509  27.952  1.00  0.00     0.031 C 
ATOM     50  C   UNL A   1      43.257  28.004  28.849  1.00  0.00     0.029 A 
ATOM     51  N   UNL A   1      41.944  29.709  29.514  1.00  0.00    -0.354 N 
ATOM     52  C   UNL A   1      41.532  24.209  28.504  1.00  0.00     0.074 A 
ATOM     53  C   UNL A   1      40.212  24.268  27.928  1.00  0.00     0.031 C 
ATOM     54  C   UNL A   1      44.029  28.880  29.515  1.00  0.00     0.029 A 
ATOM     55  C   UNL A   1      43.130  29.747  30.263  1.00  0.00     0.049 A 
ATOM     56  H   UNL A   1      41.301  30.442  29.381  1.00  0.00     0.167 HD
ATOM     57  C   UNL A   1      42.610  23.382  28.388  1.00  0.00     0.034 A 
ATOM     58  C   UNL A   1      43.133  29.900  31.622  1.00  0.00     0.034 A 
ATOM     59  C   UNL A   1      43.754  23.939  29.139  1.00  0.00     0.049 A 
ATOM     60  C   UNL A   1      43.747  28.707  32.339  1.00  0.00     0.074 A 
ATOM     61  C   UNL A   1      44.865  24.672  28.749  1.00  0.00     0.029 A 
ATOM     62  N   UNL A   1      43.664  24.083  30.523  1.00  0.00    -0.354 N 
ATOM     63  N   UNL A   1      44.035  27.567  31.772  1.00  0.00    -0.248 NA
ATOM     64  C   UNL A   1      44.072  28.711  33.761  1.00  0.00     0.031 C 
ATOM     65  C   UNL A   1      45.377  25.342  29.896  1.00  0.00     0.029 A 
ATOM     66  C   UNL A   1      44.609  24.987  30.994  1.00  0.00     0.049 A 
ATOM     67  H   UNL A   1      43.017  23.608  31.091  1.00  0.00     0.167 HD
ATOM     68  C   UNL A   1      44.463  26.664  32.713  1.00  0.00     0.074 A 
ATOM     69  C   UNL A   1      44.546  27.465  33.928  1.00  0.00     0.031 C 
ATOM     70  C   UNL A   1      44.661  25.337  32.418  1.00  0.00     0.034 A 
BRANCH  57  71
ATOM     71  C   UNL A   1      42.753  22.287  27.327  1.00  0.00     0.023 A 
ATOM     72  C   UNL A   1      42.009  21.101  27.527  1.00  0.00     0.012 A 
ATOM     73  C   UNL A   1      43.612  22.278  26.199  1.00  0.00     0.148 A 
ATOM     74  C   UNL A   1      42.174  19.958  26.733  1.00  0.00     0.002 A 
ATOM     75  C   UNL A   1      43.818  21.123  25.435  1.00  0.00     0.091 A 
ATOM     76  F   UNL A   1      44.191  23.404  25.788  1.00  0.00    -0.205 F 
ATOM     77  C   UNL A   1      43.102  19.957  25.703  1.00  0.00     0.022 A 
BRANCH  75  78
ATOM     78  S   UNL A   1      45.040  21.037  24.107  1.00  0.00     0.127 S 
ATOM     79  O   UNL A   1      44.601  22.109  23.213  1.00  0.00    -0.237 OA
ATOM     80  O   UNL A   1      46.290  21.311  24.813  1.00  0.00    -0.237 OA
ATOM     81  O   UNL A   1      44.929  19.701  23.533  1.00  0.00    -0.744 OA
ENDBRANCH  75  78
ENDBRANCH  57  71
BRANCH  58  82
ATOM     82  C   UNL A   1      41.985  30.715  32.135  1.00  0.00     0.023 A 
ATOM     83  C   UNL A   1      41.832  32.016  31.592  1.00  0.00     0.012 A 
ATOM     84  C   UNL A   1      40.882  30.114  32.765  1.00  0.00     0.148 A 
ATOM     85  C   UNL A   1      40.573  32.616  31.512  1.00  0.00     0.002 A 
ATOM     86  C   UNL A   1      39.631  30.726  32.691  1.00  0.00     0.091 A 
ATOM     87  F   UNL A   1      41.048  28.928  33.364  1.00  0.00    -0.205 F 
ATOM     88  C   UNL A   1      39.464  31.947  32.019  1.00  0.00     0.022 A 
BRANCH  86  89
ATOM     89  S   UNL A   1      38.163  29.915  33.340  1.00  0.00     0.127 S 
ATOM     90  O   UNL A   1      38.382  28.533  32.924  1.00  0.00    -0.237 OA
ATOM     91  O   UNL A   1      38.281  30.146  34.779  1.00  0.00    -0.237 OA
ATOM     92  O   UNL A   1      37.049  30.613  32.713  1.00  0.00    -0.744 OA
ENDBRANCH  86  89
ENDBRANCH  58  82
BRANCH  70  93
ATOM     93  C   UNL A   1      44.930  24.230  33.436  1.00  0.00     0.023 A 
ATOM     94  C   UNL A   1      43.971  23.259  33.779  1.00  0.00     0.012 A 
ATOM     95  C   UNL A   1      46.218  24.060  34.014  1.00  0.00     0.148 A 
ATOM     96  C   UNL A   1      44.231  22.236  34.699  1.00  0.00     0.002 A 
ATOM     97  C   UNL A   1      46.510  22.966  34.828  1.00  0.00     0.091 A 
ATOM     98  F   UNL A   1      47.176  24.975  33.808  1.00  0.00    -0.205 F 
ATOM     99  C   UNL A   1      45.509  22.075  35.208  1.00  0.00     0.022 A 
BRANCH  97 100
ATOM    100  S   UNL A   1      48.201  22.569  35.301  1.00  0.00     0.127 S 
ATOM    101  O   UNL A   1      48.527  23.666  36.210  1.00  0.00    -0.237 OA
ATOM    102  O   UNL A   1      48.042  21.267  35.953  1.00  0.00    -0.237 OA
ATOM    103  O   UNL A   1      48.952  22.522  34.056  1.00  0.00    -0.744 OA
ENDBRANCH  97 100
ENDBRANCH  70  93
ENDBRANCH  44  45
ENDBRANCH  36  39
ENDBRANCH  34  35
ENDBRANCH  33  34
ENDBRANCH  32  33
ENDBRANCH   1  32
TORSDOF 19
ENDMDL
MODEL 2
REMARK VINA RESULT:     -12.7      3.703      6.324
REMARK SMILES Cc1ccc(-c2nc(NC(=O)[C@H]3[C@@H](C(=O)NCCCCCCNC(=O)c4ccc(-c5c6nc(c(-c7cccc(S(=O)(=O)[O-])c7F)c7ccc([nH]7)c(-c7cccc(S(=O)(=O)[O-])c7F)c7nc(c(-c8cccc(S(=O)(=O)[O-])c8F)c8ccc5[nH]8)C=C7)C=C6)cc4)[C@@H]4CC[C@H]3O4)sc2C)cc1
REMARK SMILES IDX 19 1 18 2 17 3 16 4 14 5 15 6 13 8 12 9 92 10 89 11 91 12
REMARK SMILES IDX 93 13 90 14 10 15 9 16 11 18 8 19 6 20 7 21 95 22 94 23
REMARK SMILES IDX 96 24 5 25 1 26 2 27 3 28 98 29 4 30 97 31 20 32 21 33 22 34
REMARK SMILES IDX 23 35 24 36 25 38 26 39 27 40 88 41 28 42 87 43 29 44 30 45
REMARK SMILES IDX 31 46 81 47 32 48 86 49 80 50 82 51 33 52 85 53 79 54 78 55
REMARK SMILES IDX 34 57 66 58 46 59 65 60 47 61 50 62 64 63 83 64 48 65 49 66
REMARK SMILES IDX 63 68 84 69 51 70 35 71 36 72 44 73 37 74 39 75 45 76 38 77
REMARK SMILES IDX 40 78 41 79 42 80 43 81 67 82 68 83 76 84 69 85 71 86 77 87
REMARK SMILES IDX 70 88 72 89 73 90 74 91 75 92 52 93 53 94 61 95 54 96 56 97
REMARK SMILES IDX 62 98 55 99 57 100 58 101 59 102 60 103
REMARK H PARENT 16 7 9 17 23 37 82 56 50 67
REMARK Flexibility Score: inf
ROOT
ATOM      1  C   UNL A   1      35.183  30.725  28.123  1.00  0.00     0.002 C 
ENDROOT
BRANCH   1   2
ATOM      2  C   UNL A   1      34.286  30.126  27.039  1.00  0.00     0.021 C 
BRANCH   2   3
ATOM      3  C   UNL A   1      32.766  30.343  26.990  1.00  0.00     0.116 C 
BRANCH   3   4
ATOM      4  N   UNL A   1      31.857  29.261  27.312  1.00  0.00    -0.356 N 
ATOM      5  C   UNL A   1      31.629  28.067  26.664  1.00  0.00     0.226 C 
ATOM      6  O   UNL A   1      31.237  27.084  27.294  1.00  0.00    -0.275 OA
ATOM      7  H   UNL A   1      31.316  29.402  28.123  1.00  0.00     0.163 HD
BRANCH   5   8
ATOM      8  C   UNL A   1      31.908  27.999  25.210  1.00  0.00     0.122 C 
ATOM      9  C   UNL A   1      30.917  27.463  24.189  1.00  0.00     0.123 C 
ATOM     10  C   UNL A   1      31.929  27.277  23.023  1.00  0.00     0.132 C 
ATOM     11  C   UNL A   1      33.242  27.356  24.747  1.00  0.00     0.132 C 
ATOM     12  C   UNL A   1      32.839  28.521  22.759  1.00  0.00     0.035 C 
ATOM     13  O   UNL A   1      32.842  26.401  23.724  1.00  0.00    -0.373 OA
ATOM     14  C   UNL A   1      33.935  28.358  23.830  1.00  0.00     0.035 C 
BRANCH   9  15
ATOM     15  C   UNL A   1      29.972  26.198  24.171  1.00  0.00     0.232 C 
ATOM     16  N   UNL A   1      30.065  24.856  24.352  1.00  0.00    -0.302 N 
ATOM     17  H   UNL A   1      29.219  24.431  24.084  1.00  0.00     0.172 HD
ATOM     18  O   UNL A   1      28.788  26.499  23.882  1.00  0.00    -0.274 OA
BRANCH  16  19
ATOM     19  C   UNL A   1      30.941  23.893  24.784  1.00  0.00     0.190 A 
ATOM     20  C   UNL A   1      32.463  22.263  24.886  1.00  0.00     0.086 A 
ATOM     21  N   UNL A   1      31.432  22.857  24.107  1.00  0.00    -0.220 NA
ATOM     22  C   UNL A   1      32.834  23.085  25.935  1.00  0.00     0.031 A 
ATOM     23  S   UNL A   1      31.365  23.775  26.384  1.00  0.00    -0.101 S 
ATOM     24  C   UNL A   1      34.034  23.301  26.771  1.00  0.00     0.059 C 
BRANCH  20  25
ATOM     25  C   UNL A   1      33.088  20.953  24.690  1.00  0.00     0.001 A 
ATOM     26  C   UNL A   1      34.662  16.938  24.252  1.00  0.00     0.044 C 
ATOM     27  C   UNL A   1      34.130  18.335  24.366  1.00  0.00    -0.051 A 
ATOM     28  C   UNL A   1      34.953  19.404  24.760  1.00  0.00     0.004 A 
ATOM     29  C   UNL A   1      32.797  18.593  24.069  1.00  0.00     0.004 A 
ATOM     30  C   UNL A   1      34.437  20.705  24.922  1.00  0.00     0.010 A 
ATOM     31  C   UNL A   1      32.298  19.886  24.205  1.00  0.00     0.010 A 
ENDBRANCH  20  25
ENDBRANCH  16  19
ENDBRANCH   9  15
ENDBRANCH   5   8
ENDBRANCH   3   4
ENDBRANCH   2   3
ENDBRANCH   1   2
BRANCH   1  32
ATOM     32  C   UNL A   1      35.808  32.104  27.930  1.00  0.00     0.002 C 
BRANCH  32  33
ATOM     33  C   UNL A   1      35.051  33.313  28.464  1.00  0.00     0.021 C 
BRANCH  33  34
ATOM     34  C   UNL A   1      34.111  33.019  29.622  1.00  0.00     0.116 C 
BRANCH  34  35
ATOM     35  N   UNL A   1      33.720  34.201  30.355  1.00  0.00    -0.352 N 
ATOM     36  C   UNL A   1      34.116  34.604  31.614  1.00  0.00     0.251 C 
ATOM     37  H   UNL A   1      33.088  34.799  29.894  1.00  0.00     0.163 HD
ATOM     38  O   UNL A   1      33.393  35.372  32.243  1.00  0.00    -0.269 OA
BRANCH  36  39
ATOM     39  C   UNL A   1      35.473  34.249  32.102  1.00  0.00     0.039 A 
ATOM     40  C   UNL A   1      36.551  34.840  31.432  1.00  0.00     0.014 A 
ATOM     41  C   UNL A   1      35.700  33.189  32.977  1.00  0.00     0.014 A 
ATOM     42  C   UNL A   1      37.789  34.208  31.424  1.00  0.00     0.010 A 
ATOM     43  C   UNL A   1      36.897  32.518  32.919  1.00  0.00     0.010 A 
ATOM     44  C   UNL A   1      37.904  32.988  32.078  1.00  0.00    -0.014 A 
BRANCH  44  45
ATOM     45  C   UNL A   1      39.069  32.132  32.013  1.00  0.00     0.031 A 
ATOM     46  C   UNL A   1      38.937  30.828  31.359  1.00  0.00     0.074 A 
ATOM     47  C   UNL A   1      40.255  32.651  32.391  1.00  0.00     0.049 A 
ATOM     48  N   UNL A   1      39.745  29.842  31.520  1.00  0.00    -0.248 NA
ATOM     49  C   UNL A   1      37.811  30.531  30.481  1.00  0.00     0.031 C 
ATOM     50  C   UNL A   1      41.589  32.152  32.097  1.00  0.00     0.029 A 
ATOM     51  N   UNL A   1      40.469  33.683  33.312  1.00  0.00    -0.354 N 
ATOM     52  C   UNL A   1      39.441  28.918  30.541  1.00  0.00     0.074 A 
ATOM     53  C   UNL A   1      38.152  29.320  30.039  1.00  0.00     0.031 C 
ATOM     54  C   UNL A   1      42.443  32.660  33.003  1.00  0.00     0.029 A 
ATOM     55  C   UNL A   1      41.634  33.330  34.011  1.00  0.00     0.049 A 
ATOM     56  H   UNL A   1      39.919  34.488  33.441  1.00  0.00     0.167 HD
ATOM     57  C   UNL A   1      40.418  28.055  30.139  1.00  0.00     0.034 A 
ATOM     58  C   UNL A   1      41.623  33.022  35.344  1.00  0.00     0.034 A 
ATOM     59  C   UNL A   1      41.601  28.193  31.013  1.00  0.00     0.049 A 
ATOM     60  C   UNL A   1      42.076  31.595  35.613  1.00  0.00     0.074 A 
ATOM     61  C   UNL A   1      42.799  28.877  30.869  1.00  0.00     0.029 A 
ATOM     62  N   UNL A   1      41.496  27.879  32.367  1.00  0.00    -0.354 N 
ATOM     63  N   UNL A   1      42.242  30.682  34.696  1.00  0.00    -0.248 NA
ATOM     64  C   UNL A   1      42.365  31.089  36.951  1.00  0.00     0.031 C 
ATOM     65  C   UNL A   1      43.358  29.063  32.165  1.00  0.00     0.029 A 
ATOM     66  C   UNL A   1      42.529  28.458  33.096  1.00  0.00     0.049 A 
ATOM     67  H   UNL A   1      40.784  27.322  32.756  1.00  0.00     0.167 HD
ATOM     68  C   UNL A   1      42.539  29.475  35.276  1.00  0.00     0.074 A 
ATOM     69  C   UNL A   1      42.686  29.811  36.686  1.00  0.00     0.031 C 
ATOM     70  C   UNL A   1      42.587  28.307  34.554  1.00  0.00     0.034 A 
BRANCH  57  71
ATOM     71  C   UNL A   1      40.457  27.365  28.772  1.00  0.00     0.023 A 
ATOM     72  C   UNL A   1      39.518  26.331  28.550  1.00  0.00     0.012 A 
ATOM     73  C   UNL A   1      41.382  27.577  27.718  1.00  0.00     0.148 A 
ATOM     74  C   UNL A   1      39.552  25.505  27.418  1.00  0.00     0.002 A 
ATOM     75  C   UNL A   1      41.453  26.723  26.611  1.00  0.00     0.091 A 
ATOM     76  F   UNL A   1      42.165  28.654  27.719  1.00  0.00    -0.205 F 
ATOM     77  C   UNL A   1      40.539  25.680  26.461  1.00  0.00     0.022 A 
BRANCH  75  78
ATOM     78  S   UNL A   1      42.736  26.865  25.349  1.00  0.00     0.127 S 
ATOM     79  O   UNL A   1      43.954  26.949  26.156  1.00  0.00    -0.237 OA
ATOM     80  O   UNL A   1      42.586  25.614  24.608  1.00  0.00    -0.237 OA
ATOM     81  O   UNL A   1      42.438  28.076  24.594  1.00  0.00    -0.744 OA
ENDBRANCH  75  78
ENDBRANCH  57  71
BRANCH  58  82
ATOM     82  C   UNL A   1      40.565  33.750  36.117  1.00  0.00     0.023 A 
ATOM     83  C   UNL A   1      39.413  33.008  36.479  1.00  0.00     0.012 A 
ATOM     84  C   UNL A   1      40.853  34.933  36.819  1.00  0.00     0.148 A 
ATOM     85  C   UNL A   1      38.682  33.332  37.625  1.00  0.00     0.002 A 
ATOM     86  C   UNL A   1      40.111  35.255  37.956  1.00  0.00     0.091 A 
ATOM     87  F   UNL A   1      41.884  35.687  36.418  1.00  0.00    -0.205 F 
ATOM     88  C   UNL A   1      39.063  34.429  38.390  1.00  0.00     0.022 A 
BRANCH  86  89
ATOM     89  S   UNL A   1      40.548  36.669  38.977  1.00  0.00     0.127 S 
ATOM     90  O   UNL A   1      41.638  37.262  38.208  1.00  0.00    -0.237 OA
ATOM     91  O   UNL A   1      39.313  37.450  38.988  1.00  0.00    -0.237 OA
ATOM     92  O   UNL A   1      40.902  36.095  40.268  1.00  0.00    -0.744 OA
ENDBRANCH  86  89
ENDBRANCH  58  82
BRANCH  70  93
ATOM     93  C   UNL A   1      42.702  26.901  35.142  1.00  0.00     0.023 A 
ATOM     94  C   UNL A   1      41.583  26.153  35.554  1.00  0.00     0.012 A 
ATOM     95  C   UNL A   1      43.953  26.228  35.203  1.00  0.00     0.148 A 
ATOM     96  C   UNL A   1      41.693  24.858  36.074  1.00  0.00     0.002 A 
ATOM     97  C   UNL A   1      44.043  24.895  35.601  1.00  0.00     0.091 A 
ATOM     98  F   UNL A   1      45.085  26.882  34.906  1.00  0.00    -0.205 F 
ATOM     99  C   UNL A   1      42.921  24.219  36.078  1.00  0.00     0.022 A 
BRANCH  97 100
ATOM    100  S   UNL A   1      45.555  23.946  35.379  1.00  0.00     0.127 S 
ATOM    101  O   UNL A   1      45.177  22.643  35.922  1.00  0.00    -0.237 OA
ATOM    102  O   UNL A   1      45.726  23.972  33.924  1.00  0.00    -0.237 OA
ATOM    103  O   UNL A   1      46.582  24.673  36.111  1.00  0.00    -0.744 OA
ENDBRANCH  97 100
ENDBRANCH  70  93
ENDBRANCH  44  45
ENDBRANCH  36  39
ENDBRANCH  34  35
ENDBRANCH  33  34
ENDBRANCH  32  33
ENDBRANCH   1  32
TORSDOF 19
ENDMDL
MODEL 3
REMARK VINA RESULT:     -12.1      4.191      7.299
REMARK SMILES Cc1ccc(-c2nc(NC(=O)[C@H]3[C@@H](C(=O)NCCCCCCNC(=O)c4ccc(-c5c6nc(c(-c7cccc(S(=O)(=O)[O-])c7F)c7ccc([nH]7)c(-c7cccc(S(=O)(=O)[O-])c7F)c7nc(c(-c8cccc(S(=O)(=O)[O-])c8F)c8ccc5[nH]8)C=C7)C=C6)cc4)[C@@H]4CC[C@H]3O4)sc2C)cc1
REMARK SMILES IDX 19 1 18 2 17 3 16 4 14 5 15 6 13 8 12 9 92 10 89 11 91 12
REMARK SMILES IDX 93 13 90 14 10 15 9 16 11 18 8 19 6 20 7 21 95 22 94 23
REMARK SMILES IDX 96 24 5 25 1 26 2 27 3 28 98 29 4 30 97 31 20 32 21 33 22 34
REMARK SMILES IDX 23 35 24 36 25 38 26 39 27 40 88 41 28 42 87 43 29 44 30 45
REMARK SMILES IDX 31 46 81 47 32 48 86 49 80 50 82 51 33 52 85 53 79 54 78 55
REMARK SMILES IDX 34 57 66 58 46 59 65 60 47 61 50 62 64 63 83 64 48 65 49 66
REMARK SMILES IDX 63 68 84 69 51 70 35 71 36 72 44 73 37 74 39 75 45 76 38 77
REMARK SMILES IDX 40 78 41 79 42 80 43 81 67 82 68 83 76 84 69 85 71 86 77 87
REMARK SMILES IDX 70 88 72 89 73 90 74 91 75 92 52 93 53 94 61 95 54 96 56 97
REMARK SMILES IDX 62 98 55 99 57 100 58 101 59 102 60 103
REMARK H PARENT 16 7 9 17 23 37 82 56 50 67
REMARK Flexibility Score: inf
ROOT
ATOM      1  C   UNL A   1      35.329  24.623  25.206  1.00  0.00     0.002 C 
ENDROOT
BRANCH   1   2
ATOM      2  C   UNL A   1      34.082  25.223  25.859  1.00  0.00     0.021 C 
BRANCH   2   3
ATOM      3  C   UNL A   1      33.632  26.675  25.635  1.00  0.00     0.116 C 
BRANCH   3   4
ATOM      4  N   UNL A   1      34.095  27.419  24.480  1.00  0.00    -0.356 N 
ATOM      5  C   UNL A   1      33.422  28.294  23.657  1.00  0.00     0.226 C 
ATOM      6  O   UNL A   1      34.032  29.192  23.073  1.00  0.00    -0.275 OA
ATOM      7  H   UNL A   1      35.041  27.275  24.247  1.00  0.00     0.163 HD
BRANCH   5   8
ATOM      8  C   UNL A   1      31.952  28.143  23.532  1.00  0.00     0.122 C 
ATOM      9  C   UNL A   1      31.268  26.823  23.213  1.00  0.00     0.123 C 
ATOM     10  C   UNL A   1      29.885  27.418  22.821  1.00  0.00     0.132 C 
ATOM     11  C   UNL A   1      31.187  29.142  22.626  1.00  0.00     0.132 C 
ATOM     12  C   UNL A   1      29.317  28.450  23.848  1.00  0.00     0.035 C 
ATOM     13  O   UNL A   1      30.364  28.294  21.775  1.00  0.00    -0.373 OA
ATOM     14  C   UNL A   1      30.061  29.742  23.461  1.00  0.00     0.035 C 
BRANCH   9  15
ATOM     15  C   UNL A   1      31.577  25.677  22.172  1.00  0.00     0.232 C 
ATOM     16  N   UNL A   1      31.929  24.366  22.178  1.00  0.00    -0.302 N 
ATOM     17  H   UNL A   1      32.171  24.089  21.265  1.00  0.00     0.172 HD
ATOM     18  O   UNL A   1      31.503  26.084  20.987  1.00  0.00    -0.274 OA
BRANCH  16  19
ATOM     19  C   UNL A   1      32.060  23.297  23.026  1.00  0.00     0.190 A 
ATOM     20  C   UNL A   1      32.788  21.472  24.088  1.00  0.00     0.086 A 
ATOM     21  N   UNL A   1      32.785  22.192  22.861  1.00  0.00    -0.220 NA
ATOM     22  C   UNL A   1      32.308  22.250  25.125  1.00  0.00     0.031 A 
ATOM     23  S   UNL A   1      31.099  23.146  24.369  1.00  0.00    -0.101 S 
ATOM     24  C   UNL A   1      32.459  22.310  26.595  1.00  0.00     0.059 C 
BRANCH  20  25
ATOM     25  C   UNL A   1      33.203  20.085  24.308  1.00  0.00     0.001 A 
ATOM     26  C   UNL A   1      34.713  16.049  24.783  1.00  0.00     0.044 C 
ATOM     27  C   UNL A   1      34.180  17.445  24.658  1.00  0.00    -0.051 A 
ATOM     28  C   UNL A   1      32.821  17.691  24.396  1.00  0.00     0.004 A 
ATOM     29  C   UNL A   1      35.037  18.529  24.811  1.00  0.00     0.004 A 
ATOM     30  C   UNL A   1      32.334  19.002  24.222  1.00  0.00     0.010 A 
ATOM     31  C   UNL A   1      34.546  19.823  24.663  1.00  0.00     0.010 A 
ENDBRANCH  20  25
ENDBRANCH  16  19
ENDBRANCH   9  15
ENDBRANCH   5   8
ENDBRANCH   3   4
ENDBRANCH   2   3
ENDBRANCH   1   2
BRANCH   1  32
ATOM     32  C   UNL A   1      36.285  23.759  26.023  1.00  0.00     0.002 C 
BRANCH  32  33
ATOM     33  C   UNL A   1      37.761  23.772  25.645  1.00  0.00     0.021 C 
BRANCH  33  34
ATOM     34  C   UNL A   1      38.722  23.814  26.821  1.00  0.00     0.116 C 
BRANCH  34  35
ATOM     35  N   UNL A   1      39.385  22.552  27.061  1.00  0.00    -0.352 N 
ATOM     36  C   UNL A   1      40.724  22.315  27.295  1.00  0.00     0.251 C 
ATOM     37  H   UNL A   1      38.804  21.758  27.057  1.00  0.00     0.163 HD
ATOM     38  O   UNL A   1      41.176  21.197  27.058  1.00  0.00    -0.269 OA
BRANCH  36  39
ATOM     39  C   UNL A   1      41.540  23.345  27.987  1.00  0.00     0.039 A 
ATOM     40  C   UNL A   1      41.575  24.614  27.396  1.00  0.00     0.014 A 
ATOM     41  C   UNL A   1      42.445  23.028  28.998  1.00  0.00     0.014 A 
ATOM     42  C   UNL A   1      42.665  25.447  27.616  1.00  0.00     0.010 A 
ATOM     43  C   UNL A   1      43.559  23.811  29.168  1.00  0.00     0.010 A 
ATOM     44  C   UNL A   1      43.699  24.975  28.413  1.00  0.00    -0.014 A 
BRANCH  44  45
ATOM     45  C   UNL A   1      44.967  25.648  28.592  1.00  0.00     0.031 A 
ATOM     46  C   UNL A   1      46.074  25.295  27.700  1.00  0.00     0.074 A 
ATOM     47  C   UNL A   1      45.012  26.691  29.445  1.00  0.00     0.049 A 
ATOM     48  N   UNL A   1      47.314  25.532  27.940  1.00  0.00    -0.248 NA
ATOM     49  C   UNL A   1      45.841  24.582  26.449  1.00  0.00     0.031 C 
ATOM     50  C   UNL A   1      46.023  27.733  29.540  1.00  0.00     0.029 A 
ATOM     51  N   UNL A   1      44.194  26.905  30.560  1.00  0.00    -0.354 N 
ATOM     52  C   UNL A   1      47.995  25.307  26.761  1.00  0.00     0.074 A 
ATOM     53  C   UNL A   1      47.070  24.577  25.932  1.00  0.00     0.031 C 
ATOM     54  C   UNL A   1      45.950  28.287  30.762  1.00  0.00     0.029 A 
ATOM     55  C   UNL A   1      45.026  27.472  31.538  1.00  0.00     0.049 A 
ATOM     56  H   UNL A   1      43.235  26.702  30.641  1.00  0.00     0.167 HD
ATOM     57  C   UNL A   1      49.180  25.953  26.564  1.00  0.00     0.034 A 
ATOM     58  C   UNL A   1      45.335  26.824  32.702  1.00  0.00     0.034 A 
ATOM     59  C   UNL A   1      49.582  26.654  27.801  1.00  0.00     0.049 A 
ATOM     60  C   UNL A   1      46.826  26.553  32.837  1.00  0.00     0.074 A 
ATOM     61  C   UNL A   1      49.468  27.974  28.210  1.00  0.00     0.029 A 
ATOM     62  N   UNL A   1      49.857  25.917  28.952  1.00  0.00    -0.354 N 
ATOM     63  N   UNL A   1      47.699  26.702  31.878  1.00  0.00    -0.248 NA
ATOM     64  C   UNL A   1      47.441  26.079  34.072  1.00  0.00     0.031 C 
ATOM     65  C   UNL A   1      49.572  28.007  29.629  1.00  0.00     0.029 A 
ATOM     66  C   UNL A   1      49.791  26.718  30.087  1.00  0.00     0.049 A 
ATOM     67  H   UNL A   1      50.068  24.956  28.961  1.00  0.00     0.167 HD
ATOM     68  C   UNL A   1      48.932  26.262  32.287  1.00  0.00     0.074 A 
ATOM     69  C   UNL A   1      48.727  25.963  33.699  1.00  0.00     0.031 C 
ATOM     70  C   UNL A   1      49.991  26.139  31.419  1.00  0.00     0.034 A 
BRANCH  57  71
ATOM     71  C   UNL A   1      49.786  26.256  25.191  1.00  0.00     0.023 A 
ATOM     72  C   UNL A   1      51.197  26.251  25.098  1.00  0.00     0.012 A 
ATOM     73  C   UNL A   1      49.105  26.628  24.004  1.00  0.00     0.148 A 
ATOM     74  C   UNL A   1      51.885  26.677  23.953  1.00  0.00     0.002 A 
ATOM     75  C   UNL A   1      49.785  27.102  22.877  1.00  0.00     0.091 A 
ATOM     76  F   UNL A   1      47.788  26.459  23.906  1.00  0.00    -0.205 F 
ATOM     77  C   UNL A   1      51.180  27.133  22.850  1.00  0.00     0.022 A 
BRANCH  75  78
ATOM     78  S   UNL A   1      48.933  27.750  21.423  1.00  0.00     0.127 S 
ATOM     79  O   UNL A   1      48.375  26.536  20.825  1.00  0.00    -0.237 OA
ATOM     80  O   UNL A   1      47.940  28.645  22.014  1.00  0.00    -0.237 OA
ATOM     81  O   UNL A   1      49.950  28.402  20.606  1.00  0.00    -0.744 OA
ENDBRANCH  75  78
ENDBRANCH  57  71
BRANCH  58  82
ATOM     82  C   UNL A   1      44.247  25.915  33.187  1.00  0.00     0.023 A 
ATOM     83  C   UNL A   1      44.387  24.536  32.891  1.00  0.00     0.012 A 
ATOM     84  C   UNL A   1      43.380  26.296  34.225  1.00  0.00     0.148 A 
ATOM     85  C   UNL A   1      43.831  23.563  33.724  1.00  0.00     0.002 A 
ATOM     86  C   UNL A   1      42.820  25.318  35.046  1.00  0.00     0.091 A 
ATOM     87  F   UNL A   1      43.170  27.600  34.444  1.00  0.00    -0.205 F 
ATOM     88  C   UNL A   1      43.087  23.957  34.831  1.00  0.00     0.022 A 
BRANCH  86  89
ATOM     89  S   UNL A   1      41.838  25.766  36.484  1.00  0.00     0.127 S 
ATOM     90  O   UNL A   1      42.875  26.086  37.460  1.00  0.00    -0.237 OA
ATOM     91  O   UNL A   1      41.075  26.917  36.004  1.00  0.00    -0.237 OA
ATOM     92  O   UNL A   1      41.028  24.588  36.759  1.00  0.00    -0.744 OA
ENDBRANCH  86  89
ENDBRANCH  58  82
BRANCH  70  93
ATOM     93  C   UNL A   1      51.326  25.468  31.736  1.00  0.00     0.023 A 
ATOM     94  C   UNL A   1      52.556  26.149  31.673  1.00  0.00     0.012 A 
ATOM     95  C   UNL A   1      51.383  24.132  32.220  1.00  0.00     0.148 A 
ATOM     96  C   UNL A   1      53.775  25.533  31.984  1.00  0.00     0.002 A 
ATOM     97  C   UNL A   1      52.581  23.565  32.650  1.00  0.00     0.091 A 
ATOM     98  F   UNL A   1      50.276  23.377  32.243  1.00  0.00    -0.205 F 
ATOM     99  C   UNL A   1      53.787  24.246  32.494  1.00  0.00     0.022 A 
BRANCH  97 100
ATOM    100  S   UNL A   1      52.616  22.009  33.553  1.00  0.00     0.127 S 
ATOM    101  O   UNL A   1      51.959  22.372  34.808  1.00  0.00    -0.237 OA
ATOM    102  O   UNL A   1      51.826  21.130  32.687  1.00  0.00    -0.237 OA
ATOM    103  O   UNL A   1      54.021  21.644  33.647  1.00  0.00    -0.744 OA
ENDBRANCH  97 100
ENDBRANCH  70  93
ENDBRANCH  44  45
ENDBRANCH  36  39
ENDBRANCH  34  35
ENDBRANCH  33  34
ENDBRANCH  32  33
ENDBRANCH   1  32
TORSDOF 19
ENDMDL
