MODEL 1
REMARK VINA RESULT:     -11.8      0.000      0.000
REMARK SMILES C[C@@H]1[C@@H](C(=O)NCCCCCCNC(=O)c2ccc(-c3c4nc(c(-c5cccc(S(=O)(=O)[O-])c5F)c5ccc([nH]5)c(-c5cccc(S(=O)(=O)[O-])c5F)c5nc(c(-c6cccc(S(=O)(=O)[O-])c6F)c6ccc3[nH]6)C=C5)C=C4)cc2)CCN1c1ccc(C(F)(F)F)cc1C#N
REMARK SMILES IDX 10 1 9 2 8 3 7 4 6 5 4 6 5 7 3 9 1 10 2 11 81 12 79 13 80 14
REMARK SMILES IDX 82 15 83 16 91 17 84 18 90 19 85 20 92 21 93 22 86 23 87 24
REMARK SMILES IDX 88 25 89 26 11 27 12 28 13 29 14 30 15 32 16 33 17 34 78 35
REMARK SMILES IDX 18 36 77 37 19 38 20 39 21 40 71 41 22 42 76 43 70 44 72 45
REMARK SMILES IDX 23 46 75 47 69 48 68 49 24 51 56 52 36 53 55 54 37 55 40 56
REMARK SMILES IDX 54 57 73 58 38 59 39 60 53 62 74 63 41 64 25 65 26 66 34 67
REMARK SMILES IDX 27 68 29 69 35 70 28 71 30 72 31 73 32 74 33 75 57 76 58 77
REMARK SMILES IDX 66 78 59 79 61 80 67 81 60 82 62 83 63 84 64 85 65 86 42 87
REMARK SMILES IDX 43 88 51 89 44 90 46 91 52 92 45 93 47 94 48 95 49 96 50 97
REMARK H PARENT 6 8 13 31 72 50 40 61
REMARK Flexibility Score: inf
ROOT
ATOM      1  C   UNL A   1      31.900  27.631  26.484  1.00  0.00     0.002 C 
ENDROOT
BRANCH   1   2
ATOM      2  C   UNL A   1      31.594  27.432  24.996  1.00  0.00     0.002 C 
BRANCH   2   3
ATOM      3  C   UNL A   1      30.302  26.674  24.677  1.00  0.00     0.021 C 
BRANCH   3   4
ATOM      4  C   UNL A   1      30.486  25.216  24.280  1.00  0.00     0.116 C 
BRANCH   4   5
ATOM      5  N   UNL A   1      30.212  24.293  25.362  1.00  0.00    -0.356 N 
ATOM      6  C   UNL A   1      31.075  23.731  26.254  1.00  0.00     0.225 C 
ATOM      7  O   UNL A   1      30.592  22.993  27.114  1.00  0.00    -0.275 OA
ATOM      8  H   UNL A   1      29.268  24.035  25.468  1.00  0.00     0.163 HD
BRANCH   6   9
ATOM      9  C   UNL A   1      32.577  23.955  26.096  1.00  0.00     0.102 C 
ATOM     10  C   UNL A   1      34.234  23.801  24.208  1.00  0.00     0.032 C 
ATOM     11  C   UNL A   1      33.165  23.037  24.988  1.00  0.00     0.091 C 
ATOM     12  N   UNL A   1      33.765  21.908  25.739  1.00  0.00    -0.367 N 
ATOM     13  C   UNL A   1      33.419  23.582  27.321  1.00  0.00     0.037 C 
ATOM     14  C   UNL A   1      33.583  22.083  27.178  1.00  0.00     0.118 C 
BRANCH  12  15
ATOM     15  C   UNL A   1      33.824  20.617  25.244  1.00  0.00     0.055 A 
ATOM     16  C   UNL A   1      32.656  19.838  25.141  1.00  0.00     0.028 A 
ATOM     17  C   UNL A   1      35.044  19.991  24.929  1.00  0.00     0.076 A 
ATOM     18  C   UNL A   1      32.697  18.482  24.796  1.00  0.00     0.015 A 
ATOM     19  C   UNL A   1      35.082  18.633  24.560  1.00  0.00     0.034 A 
ATOM     20  C   UNL A   1      33.915  17.861  24.511  1.00  0.00     0.057 A 
BRANCH  17  21
ATOM     21  C   UNL A   1      36.306  20.674  25.042  1.00  0.00     0.101 C 
ATOM     22  N   UNL A   1      37.331  21.210  25.056  1.00  0.00    -0.192 NA
ENDBRANCH  17  21
BRANCH  20  23
ATOM     23  C   UNL A   1      33.968  16.386  24.201  1.00  0.00     0.416 C 
ATOM     24  F   UNL A   1      32.792  15.756  24.471  1.00  0.00    -0.166 F 
ATOM     25  F   UNL A   1      34.236  16.134  22.891  1.00  0.00    -0.166 F 
ATOM     26  F   UNL A   1      34.920  15.717  24.910  1.00  0.00    -0.166 F 
ENDBRANCH  20  23
ENDBRANCH  12  15
ENDBRANCH   6   9
ENDBRANCH   4   5
ENDBRANCH   3   4
ENDBRANCH   2   3
ENDBRANCH   1   2
BRANCH   1  27
ATOM     27  C   UNL A   1      33.383  27.699  26.851  1.00  0.00     0.021 C 
BRANCH  27  28
ATOM     28  C   UNL A   1      34.165  28.827  26.189  1.00  0.00     0.116 C 
BRANCH  28  29
ATOM     29  N   UNL A   1      33.847  30.127  26.752  1.00  0.00    -0.352 N 
ATOM     30  C   UNL A   1      34.507  30.847  27.715  1.00  0.00     0.251 C 
ATOM     31  H   UNL A   1      33.037  30.555  26.389  1.00  0.00     0.163 HD
ATOM     32  O   UNL A   1      33.984  31.855  28.183  1.00  0.00    -0.269 OA
BRANCH  30  33
ATOM     33  C   UNL A   1      35.832  30.403  28.201  1.00  0.00     0.039 A 
ATOM     34  C   UNL A   1      35.890  29.605  29.346  1.00  0.00     0.014 A 
ATOM     35  C   UNL A   1      37.012  30.782  27.553  1.00  0.00     0.014 A 
ATOM     36  C   UNL A   1      37.124  29.156  29.815  1.00  0.00     0.010 A 
ATOM     37  C   UNL A   1      38.235  30.263  27.973  1.00  0.00     0.010 A 
ATOM     38  C   UNL A   1      38.307  29.459  29.120  1.00  0.00    -0.014 A 
BRANCH  38  39
ATOM     39  C   UNL A   1      39.618  28.940  29.590  1.00  0.00     0.031 A 
ATOM     40  C   UNL A   1      40.352  29.621  30.715  1.00  0.00     0.074 A 
ATOM     41  C   UNL A   1      40.170  27.876  28.973  1.00  0.00     0.049 A 
ATOM     42  N   UNL A   1      41.497  29.304  31.261  1.00  0.00    -0.248 NA
ATOM     43  C   UNL A   1      39.733  30.829  31.286  1.00  0.00     0.031 C 
ATOM     44  C   UNL A   1      39.596  27.173  27.824  1.00  0.00     0.029 A 
ATOM     45  N   UNL A   1      41.344  27.208  29.217  1.00  0.00    -0.354 N 
ATOM     46  C   UNL A   1      41.749  30.281  32.217  1.00  0.00     0.074 A 
ATOM     47  C   UNL A   1      40.657  31.227  32.149  1.00  0.00     0.031 C 
ATOM     48  C   UNL A   1      40.407  26.162  27.475  1.00  0.00     0.029 A 
ATOM     49  C   UNL A   1      41.576  26.168  28.348  1.00  0.00     0.049 A 
ATOM     50  H   UNL A   1      41.962  27.451  29.945  1.00  0.00     0.167 HD
ATOM     51  C   UNL A   1      42.779  30.369  33.093  1.00  0.00     0.034 A 
ATOM     52  C   UNL A   1      42.618  25.317  28.257  1.00  0.00     0.034 A 
ATOM     53  C   UNL A   1      43.849  29.412  33.175  1.00  0.00     0.049 A 
ATOM     54  C   UNL A   1      43.742  25.428  29.252  1.00  0.00     0.074 A 
ATOM     55  C   UNL A   1      44.896  29.370  34.080  1.00  0.00     0.029 A 
ATOM     56  N   UNL A   1      44.024  28.342  32.314  1.00  0.00    -0.354 N 
ATOM     57  N   UNL A   1      43.881  26.268  30.250  1.00  0.00    -0.248 NA
ATOM     58  C   UNL A   1      44.834  24.453  29.131  1.00  0.00     0.031 C 
ATOM     59  C   UNL A   1      45.727  28.299  33.738  1.00  0.00     0.029 A 
ATOM     60  C   UNL A   1      45.171  27.644  32.651  1.00  0.00     0.049 A 
ATOM     61  H   UNL A   1      43.421  28.112  31.570  1.00  0.00     0.167 HD
ATOM     62  C   UNL A   1      45.056  25.901  30.896  1.00  0.00     0.074 A 
ATOM     63  C   UNL A   1      45.575  24.746  30.191  1.00  0.00     0.031 C 
ATOM     64  C   UNL A   1      45.658  26.473  31.967  1.00  0.00     0.034 A 
BRANCH  51  65
ATOM     65  C   UNL A   1      42.781  31.526  34.059  1.00  0.00     0.023 A 
ATOM     66  C   UNL A   1      43.387  32.747  33.693  1.00  0.00     0.012 A 
ATOM     67  C   UNL A   1      42.133  31.427  35.306  1.00  0.00     0.148 A 
ATOM     68  C   UNL A   1      43.381  33.835  34.564  1.00  0.00     0.002 A 
ATOM     69  C   UNL A   1      42.087  32.532  36.149  1.00  0.00     0.091 A 
ATOM     70  F   UNL A   1      41.578  30.255  35.646  1.00  0.00    -0.205 F 
ATOM     71  C   UNL A   1      42.723  33.730  35.786  1.00  0.00     0.022 A 
BRANCH  69  72
ATOM     72  S   UNL A   1      41.196  32.527  37.708  1.00  0.00     0.127 S 
ATOM     73  O   UNL A   1      41.197  33.948  38.052  1.00  0.00    -0.237 OA
ATOM     74  O   UNL A   1      39.892  31.997  37.312  1.00  0.00    -0.237 OA
ATOM     75  O   UNL A   1      41.957  31.669  38.605  1.00  0.00    -0.744 OA
ENDBRANCH  69  72
ENDBRANCH  51  65
BRANCH  52  76
ATOM     76  C   UNL A   1      42.628  24.255  27.212  1.00  0.00     0.023 A 
ATOM     77  C   UNL A   1      43.257  24.497  25.975  1.00  0.00     0.012 A 
ATOM     78  C   UNL A   1      42.027  23.002  27.443  1.00  0.00     0.148 A 
ATOM     79  C   UNL A   1      43.250  23.527  24.972  1.00  0.00     0.002 A 
ATOM     80  C   UNL A   1      42.076  22.019  26.462  1.00  0.00     0.091 A 
ATOM     81  F   UNL A   1      41.427  22.794  28.623  1.00  0.00    -0.205 F 
ATOM     82  C   UNL A   1      42.668  22.286  25.219  1.00  0.00     0.022 A 
BRANCH  80  83
ATOM     83  S   UNL A   1      41.470  20.351  26.740  1.00  0.00     0.127 S 
ATOM     84  O   UNL A   1      42.244  19.944  27.909  1.00  0.00    -0.237 OA
ATOM     85  O   UNL A   1      40.048  20.588  26.991  1.00  0.00    -0.237 OA
ATOM     86  O   UNL A   1      41.749  19.620  25.511  1.00  0.00    -0.744 OA
ENDBRANCH  80  83
ENDBRANCH  52  76
BRANCH  64  87
ATOM     87  C   UNL A   1      46.928  25.840  32.475  1.00  0.00     0.023 A 
ATOM     88  C   UNL A   1      46.892  24.978  33.590  1.00  0.00     0.012 A 
ATOM     89  C   UNL A   1      48.150  26.052  31.806  1.00  0.00     0.148 A 
ATOM     90  C   UNL A   1      48.059  24.373  34.057  1.00  0.00     0.002 A 
ATOM     91  C   UNL A   1      49.298  25.402  32.242  1.00  0.00     0.091 A 
ATOM     92  F   UNL A   1      48.167  26.887  30.757  1.00  0.00    -0.205 F 
ATOM     93  C   UNL A   1      49.258  24.576  33.377  1.00  0.00     0.022 A 
BRANCH  91  94
ATOM     94  S   UNL A   1      50.864  25.522  31.373  1.00  0.00     0.127 S 
ATOM     95  O   UNL A   1      51.681  24.549  32.096  1.00  0.00    -0.237 OA
ATOM     96  O   UNL A   1      50.495  25.120  30.015  1.00  0.00    -0.237 OA
ATOM     97  O   UNL A   1      51.292  26.909  31.500  1.00  0.00    -0.744 OA
ENDBRANCH  91  94
ENDBRANCH  64  87
ENDBRANCH  38  39
ENDBRANCH  30  33
ENDBRANCH  28  29
ENDBRANCH  27  28
ENDBRANCH   1  27
TORSDOF 19
ENDMDL
MODEL 2
REMARK VINA RESULT:     -11.7      1.832      2.132
REMARK SMILES C[C@@H]1[C@@H](C(=O)NCCCCCCNC(=O)c2ccc(-c3c4nc(c(-c5cccc(S(=O)(=O)[O-])c5F)c5ccc([nH]5)c(-c5cccc(S(=O)(=O)[O-])c5F)c5nc(c(-c6cccc(S(=O)(=O)[O-])c6F)c6ccc3[nH]6)C=C5)C=C4)cc2)CCN1c1ccc(C(F)(F)F)cc1C#N
REMARK SMILES IDX 10 1 9 2 8 3 7 4 6 5 4 6 5 7 3 9 1 10 2 11 81 12 79 13 80 14
REMARK SMILES IDX 82 15 83 16 91 17 84 18 90 19 85 20 92 21 93 22 86 23 87 24
REMARK SMILES IDX 88 25 89 26 11 27 12 28 13 29 14 30 15 32 16 33 17 34 78 35
REMARK SMILES IDX 18 36 77 37 19 38 20 39 21 40 71 41 22 42 76 43 70 44 72 45
REMARK SMILES IDX 23 46 75 47 69 48 68 49 24 51 56 52 36 53 55 54 37 55 40 56
REMARK SMILES IDX 54 57 73 58 38 59 39 60 53 62 74 63 41 64 25 65 26 66 34 67
REMARK SMILES IDX 27 68 29 69 35 70 28 71 30 72 31 73 32 74 33 75 57 76 58 77
REMARK SMILES IDX 66 78 59 79 61 80 67 81 60 82 62 83 63 84 64 85 65 86 42 87
REMARK SMILES IDX 43 88 51 89 44 90 46 91 52 92 45 93 47 94 48 95 49 96 50 97
REMARK H PARENT 6 8 13 31 72 50 40 61
REMARK Flexibility Score: inf
ROOT
ATOM      1  C   UNL A   1      31.591  27.816  26.285  1.00  0.00     0.002 C 
ENDROOT
BRANCH   1   2
ATOM      2  C   UNL A   1      31.431  27.974  24.770  1.00  0.00     0.002 C 
BRANCH   2   3
ATOM      3  C   UNL A   1      30.280  27.188  24.135  1.00  0.00     0.021 C 
BRANCH   3   4
ATOM      4  C   UNL A   1      30.640  25.795  23.638  1.00  0.00     0.116 C 
BRANCH   4   5
ATOM      5  N   UNL A   1      30.245  24.745  24.554  1.00  0.00    -0.356 N 
ATOM      6  C   UNL A   1      31.009  24.025  25.422  1.00  0.00     0.225 C 
ATOM      7  O   UNL A   1      30.431  23.198  26.127  1.00  0.00    -0.275 OA
ATOM      8  H   UNL A   1      29.287  24.520  24.548  1.00  0.00     0.163 HD
BRANCH   6   9
ATOM      9  C   UNL A   1      32.526  24.198  25.414  1.00  0.00     0.102 C 
ATOM     10  C   UNL A   1      34.375  23.831  23.746  1.00  0.00     0.032 C 
ATOM     11  C   UNL A   1      33.202  23.168  24.466  1.00  0.00     0.091 C 
ATOM     12  N   UNL A   1      33.677  22.101  25.379  1.00  0.00    -0.367 N 
ATOM     13  C   UNL A   1      33.216  23.922  26.754  1.00  0.00     0.037 C 
ATOM     14  C   UNL A   1      33.345  22.413  26.766  1.00  0.00     0.118 C 
BRANCH  12  15
ATOM     15  C   UNL A   1      33.747  20.768  25.012  1.00  0.00     0.055 A 
ATOM     16  C   UNL A   1      32.577  19.993  24.910  1.00  0.00     0.028 A 
ATOM     17  C   UNL A   1      34.975  20.104  24.833  1.00  0.00     0.076 A 
ATOM     18  C   UNL A   1      32.618  18.610  24.697  1.00  0.00     0.015 A 
ATOM     19  C   UNL A   1      35.016  18.717  24.596  1.00  0.00     0.034 A 
ATOM     20  C   UNL A   1      33.843  17.954  24.548  1.00  0.00     0.057 A 
BRANCH  17  21
ATOM     21  C   UNL A   1      36.238  20.784  24.960  1.00  0.00     0.101 C 
ATOM     22  N   UNL A   1      37.269  21.280  25.122  1.00  0.00    -0.192 NA
ENDBRANCH  17  21
BRANCH  20  23
ATOM     23  C   UNL A   1      33.892  16.456  24.381  1.00  0.00     0.416 C 
ATOM     24  F   UNL A   1      32.655  15.888  24.415  1.00  0.00    -0.166 F 
ATOM     25  F   UNL A   1      34.447  16.077  23.198  1.00  0.00    -0.166 F 
ATOM     26  F   UNL A   1      34.616  15.827  25.349  1.00  0.00    -0.166 F 
ENDBRANCH  20  23
ENDBRANCH  12  15
ENDBRANCH   6   9
ENDBRANCH   4   5
ENDBRANCH   3   4
ENDBRANCH   2   3
ENDBRANCH   1   2
BRANCH   1  27
ATOM     27  C   UNL A   1      33.029  27.695  26.791  1.00  0.00     0.021 C 
BRANCH  27  28
ATOM     28  C   UNL A   1      34.019  28.676  26.173  1.00  0.00     0.116 C 
BRANCH  28  29
ATOM     29  N   UNL A   1      33.788  30.042  26.605  1.00  0.00    -0.352 N 
ATOM     30  C   UNL A   1      34.486  30.803  27.508  1.00  0.00     0.251 C 
ATOM     31  H   UNL A   1      33.015  30.490  26.188  1.00  0.00     0.163 HD
ATOM     32  O   UNL A   1      34.031  31.885  27.869  1.00  0.00    -0.269 OA
BRANCH  30  33
ATOM     33  C   UNL A   1      35.769  30.315  28.059  1.00  0.00     0.039 A 
ATOM     34  C   UNL A   1      35.769  29.708  29.317  1.00  0.00     0.014 A 
ATOM     35  C   UNL A   1      36.970  30.468  27.358  1.00  0.00     0.014 A 
ATOM     36  C   UNL A   1      36.962  29.223  29.853  1.00  0.00     0.010 A 
ATOM     37  C   UNL A   1      38.144  29.907  27.856  1.00  0.00     0.010 A 
ATOM     38  C   UNL A   1      38.157  29.293  29.117  1.00  0.00    -0.014 A 
BRANCH  38  39
ATOM     39  C   UNL A   1      39.419  28.731  29.664  1.00  0.00     0.031 A 
ATOM     40  C   UNL A   1      40.054  29.328  30.892  1.00  0.00     0.074 A 
ATOM     41  C   UNL A   1      40.019  27.706  29.028  1.00  0.00     0.049 A 
ATOM     42  N   UNL A   1      41.145  28.963  31.515  1.00  0.00    -0.248 NA
ATOM     43  C   UNL A   1      39.392  30.501  31.488  1.00  0.00     0.031 C 
ATOM     44  C   UNL A   1      39.545  27.086  27.788  1.00  0.00     0.029 A 
ATOM     45  N   UNL A   1      41.164  27.010  29.328  1.00  0.00    -0.354 N 
ATOM     46  C   UNL A   1      41.315  29.871  32.553  1.00  0.00     0.074 A 
ATOM     47  C   UNL A   1      40.238  30.831  32.453  1.00  0.00     0.031 C 
ATOM     48  C   UNL A   1      40.380  26.094  27.444  1.00  0.00     0.029 A 
ATOM     49  C   UNL A   1      41.468  26.029  28.414  1.00  0.00     0.049 A 
ATOM     50  H   UNL A   1      41.716  27.198  30.121  1.00  0.00     0.167 HD
ATOM     51  C   UNL A   1      42.264  29.891  33.519  1.00  0.00     0.034 A 
ATOM     52  C   UNL A   1      42.510  25.176  28.358  1.00  0.00     0.034 A 
ATOM     53  C   UNL A   1      43.319  28.920  33.630  1.00  0.00     0.049 A 
ATOM     54  C   UNL A   1      43.542  25.209  29.453  1.00  0.00     0.074 A 
ATOM     55  C   UNL A   1      44.282  28.807  34.618  1.00  0.00     0.029 A 
ATOM     56  N   UNL A   1      43.565  27.908  32.717  1.00  0.00    -0.354 N 
ATOM     57  N   UNL A   1      43.596  25.978  30.513  1.00  0.00    -0.248 NA
ATOM     58  C   UNL A   1      44.636  24.233  29.362  1.00  0.00     0.031 C 
ATOM     59  C   UNL A   1      45.135  27.753  34.279  1.00  0.00     0.029 A 
ATOM     60  C   UNL A   1      44.675  27.177  33.105  1.00  0.00     0.049 A 
ATOM     61  H   UNL A   1      43.029  27.734  31.910  1.00  0.00     0.167 HD
ATOM     62  C   UNL A   1      44.709  25.557  31.233  1.00  0.00     0.074 A 
ATOM     63  C   UNL A   1      45.283  24.446  30.500  1.00  0.00     0.031 C 
ATOM     64  C   UNL A   1      45.216  26.050  32.389  1.00  0.00     0.034 A 
BRANCH  51  65
ATOM     65  C   UNL A   1      42.186  30.980  34.558  1.00  0.00     0.023 A 
ATOM     66  C   UNL A   1      41.484  30.755  35.761  1.00  0.00     0.012 A 
ATOM     67  C   UNL A   1      42.855  32.206  34.371  1.00  0.00     0.148 A 
ATOM     68  C   UNL A   1      41.418  31.742  36.743  1.00  0.00     0.002 A 
ATOM     69  C   UNL A   1      42.827  33.166  35.376  1.00  0.00     0.091 A 
ATOM     70  F   UNL A   1      43.502  32.411  33.215  1.00  0.00    -0.205 F 
ATOM     71  C   UNL A   1      42.097  32.942  36.555  1.00  0.00     0.022 A 
BRANCH  69  72
ATOM     72  S   UNL A   1      43.735  34.712  35.267  1.00  0.00     0.127 S 
ATOM     73  O   UNL A   1      43.101  35.345  34.111  1.00  0.00    -0.237 OA
ATOM     74  O   UNL A   1      43.424  35.340  36.551  1.00  0.00    -0.237 OA
ATOM     75  O   UNL A   1      45.132  34.347  35.088  1.00  0.00    -0.744 OA
ENDBRANCH  69  72
ENDBRANCH  51  65
BRANCH  52  76
ATOM     76  C   UNL A   1      42.608  24.186  27.248  1.00  0.00     0.023 A 
ATOM     77  C   UNL A   1      43.273  24.535  26.056  1.00  0.00     0.012 A 
ATOM     78  C   UNL A   1      42.053  22.897  27.372  1.00  0.00     0.148 A 
ATOM     79  C   UNL A   1      43.348  23.633  24.994  1.00  0.00     0.002 A 
ATOM     80  C   UNL A   1      42.184  21.983  26.334  1.00  0.00     0.091 A 
ATOM     81  F   UNL A   1      41.417  22.587  28.511  1.00  0.00    -0.205 F 
ATOM     82  C   UNL A   1      42.812  22.356  25.136  1.00  0.00     0.022 A 
BRANCH  80  83
ATOM     83  S   UNL A   1      41.642  20.277  26.478  1.00  0.00     0.127 S 
ATOM     84  O   UNL A   1      42.274  19.664  25.313  1.00  0.00    -0.237 OA
ATOM     85  O   UNL A   1      42.213  19.890  27.768  1.00  0.00    -0.237 OA
ATOM     86  O   UNL A   1      40.186  20.322  26.456  1.00  0.00    -0.744 OA
ENDBRANCH  80  83
ENDBRANCH  52  76
BRANCH  64  87
ATOM     87  C   UNL A   1      46.433  25.371  32.963  1.00  0.00     0.023 A 
ATOM     88  C   UNL A   1      47.721  25.860  32.667  1.00  0.00     0.012 A 
ATOM     89  C   UNL A   1      46.295  24.283  33.848  1.00  0.00     0.148 A 
ATOM     90  C   UNL A   1      48.854  25.249  33.207  1.00  0.00     0.002 A 
ATOM     91  C   UNL A   1      47.423  23.716  34.426  1.00  0.00     0.091 A 
ATOM     92  F   UNL A   1      45.061  23.823  34.106  1.00  0.00    -0.205 F 
ATOM     93  C   UNL A   1      48.703  24.186  34.094  1.00  0.00     0.022 A 
BRANCH  91  94
ATOM     94  S   UNL A   1      47.324  22.411  35.655  1.00  0.00     0.127 S 
ATOM     95  O   UNL A   1      46.434  23.006  36.651  1.00  0.00    -0.237 OA
ATOM     96  O   UNL A   1      46.736  21.311  34.891  1.00  0.00    -0.237 OA
ATOM     97  O   UNL A   1      48.691  22.175  36.105  1.00  0.00    -0.744 OA
ENDBRANCH  91  94
ENDBRANCH  64  87
ENDBRANCH  38  39
ENDBRANCH  30  33
ENDBRANCH  28  29
ENDBRANCH  27  28
ENDBRANCH   1  27
TORSDOF 19
ENDMDL
MODEL 3
REMARK VINA RESULT:     -11.7      2.516      3.118
REMARK SMILES C[C@@H]1[C@@H](C(=O)NCCCCCCNC(=O)c2ccc(-c3c4nc(c(-c5cccc(S(=O)(=O)[O-])c5F)c5ccc([nH]5)c(-c5cccc(S(=O)(=O)[O-])c5F)c5nc(c(-c6cccc(S(=O)(=O)[O-])c6F)c6ccc3[nH]6)C=C5)C=C4)cc2)CCN1c1ccc(C(F)(F)F)cc1C#N
REMARK SMILES IDX 10 1 9 2 8 3 7 4 6 5 4 6 5 7 3 9 1 10 2 11 81 12 79 13 80 14
REMARK SMILES IDX 82 15 83 16 91 17 84 18 90 19 85 20 92 21 93 22 86 23 87 24
REMARK SMILES IDX 88 25 89 26 11 27 12 28 13 29 14 30 15 32 16 33 17 34 78 35
REMARK SMILES IDX 18 36 77 37 19 38 20 39 21 40 71 41 22 42 76 43 70 44 72 45
REMARK SMILES IDX 23 46 75 47 69 48 68 49 24 51 56 52 36 53 55 54 37 55 40 56
REMARK SMILES IDX 54 57 73 58 38 59 39 60 53 62 74 63 41 64 25 65 26 66 34 67
REMARK SMILES IDX 27 68 29 69 35 70 28 71 30 72 31 73 32 74 33 75 57 76 58 77
REMARK SMILES IDX 66 78 59 79 61 80 67 81 60 82 62 83 63 84 64 85 65 86 42 87
REMARK SMILES IDX 43 88 51 89 44 90 46 91 52 92 45 93 47 94 48 95 49 96 50 97
REMARK H PARENT 6 8 13 31 72 50 40 61
REMARK Flexibility Score: inf
ROOT
ATOM      1  C   UNL A   1      31.108  28.005  25.544  1.00  0.00     0.002 C 
ENDROOT
BRANCH   1   2
ATOM      2  C   UNL A   1      30.652  28.230  24.099  1.00  0.00     0.002 C 
BRANCH   2   3
ATOM      3  C   UNL A   1      29.871  27.078  23.459  1.00  0.00     0.021 C 
BRANCH   3   4
ATOM      4  C   UNL A   1      30.655  25.787  23.271  1.00  0.00     0.116 C 
BRANCH   4   5
ATOM      5  N   UNL A   1      30.265  24.745  24.197  1.00  0.00    -0.356 N 
ATOM      6  C   UNL A   1      31.025  24.070  25.105  1.00  0.00     0.225 C 
ATOM      7  O   UNL A   1      30.451  23.240  25.811  1.00  0.00    -0.275 OA
ATOM      8  H   UNL A   1      29.316  24.488  24.167  1.00  0.00     0.163 HD
BRANCH   6   9
ATOM      9  C   UNL A   1      32.535  24.293  25.140  1.00  0.00     0.102 C 
ATOM     10  C   UNL A   1      34.444  23.968  23.532  1.00  0.00     0.032 C 
ATOM     11  C   UNL A   1      33.272  23.275  24.225  1.00  0.00     0.091 C 
ATOM     12  N   UNL A   1      33.754  22.234  25.164  1.00  0.00    -0.367 N 
ATOM     13  C   UNL A   1      33.192  24.053  26.503  1.00  0.00     0.037 C 
ATOM     14  C   UNL A   1      33.370  22.550  26.537  1.00  0.00     0.118 C 
BRANCH  12  15
ATOM     15  C   UNL A   1      33.878  20.900  24.815  1.00  0.00     0.055 A 
ATOM     16  C   UNL A   1      32.738  20.132  24.513  1.00  0.00     0.028 A 
ATOM     17  C   UNL A   1      35.114  20.229  24.851  1.00  0.00     0.076 A 
ATOM     18  C   UNL A   1      32.808  18.748  24.311  1.00  0.00     0.015 A 
ATOM     19  C   UNL A   1      35.187  18.841  24.626  1.00  0.00     0.034 A 
ATOM     20  C   UNL A   1      34.036  18.084  24.376  1.00  0.00     0.057 A 
BRANCH  17  21
ATOM     21  C   UNL A   1      36.340  20.901  25.194  1.00  0.00     0.101 C 
ATOM     22  N   UNL A   1      37.282  21.506  25.485  1.00  0.00    -0.192 NA
ENDBRANCH  17  21
BRANCH  20  23
ATOM     23  C   UNL A   1      34.104  16.587  24.221  1.00  0.00     0.416 C 
ATOM     24  F   UNL A   1      32.926  15.977  24.529  1.00  0.00    -0.166 F 
ATOM     25  F   UNL A   1      34.405  16.203  22.950  1.00  0.00    -0.166 F 
ATOM     26  F   UNL A   1      35.044  16.002  25.017  1.00  0.00    -0.166 F 
ENDBRANCH  20  23
ENDBRANCH  12  15
ENDBRANCH   6   9
ENDBRANCH   4   5
ENDBRANCH   3   4
ENDBRANCH   2   3
ENDBRANCH   1   2
BRANCH   1  27
ATOM     27  C   UNL A   1      32.616  28.097  25.785  1.00  0.00     0.021 C 
BRANCH  27  28
ATOM     28  C   UNL A   1      33.296  29.318  25.177  1.00  0.00     0.116 C 
BRANCH  28  29
ATOM     29  N   UNL A   1      32.807  30.563  25.742  1.00  0.00    -0.352 N 
ATOM     30  C   UNL A   1      33.232  31.245  26.854  1.00  0.00     0.251 C 
ATOM     31  H   UNL A   1      32.059  30.980  25.255  1.00  0.00     0.163 HD
ATOM     32  O   UNL A   1      32.577  32.196  27.270  1.00  0.00    -0.269 OA
BRANCH  30  33
ATOM     33  C   UNL A   1      34.463  30.825  27.560  1.00  0.00     0.039 A 
ATOM     34  C   UNL A   1      35.497  31.752  27.709  1.00  0.00     0.014 A 
ATOM     35  C   UNL A   1      34.612  29.526  28.056  1.00  0.00     0.014 A 
ATOM     36  C   UNL A   1      36.661  31.389  28.387  1.00  0.00     0.010 A 
ATOM     37  C   UNL A   1      35.738  29.193  28.806  1.00  0.00     0.010 A 
ATOM     38  C   UNL A   1      36.783  30.114  28.965  1.00  0.00    -0.014 A 
BRANCH  38  39
ATOM     39  C   UNL A   1      38.001  29.741  29.731  1.00  0.00     0.031 A 
ATOM     40  C   UNL A   1      38.241  30.303  31.107  1.00  0.00     0.074 A 
ATOM     41  C   UNL A   1      38.914  28.925  29.168  1.00  0.00     0.049 A 
ATOM     42  N   UNL A   1      39.239  30.081  31.924  1.00  0.00    -0.248 NA
ATOM     43  C   UNL A   1      37.245  31.255  31.627  1.00  0.00     0.031 C 
ATOM     44  C   UNL A   1      38.835  28.373  27.814  1.00  0.00     0.029 A 
ATOM     45  N   UNL A   1      40.096  28.428  29.659  1.00  0.00    -0.354 N 
ATOM     46  C   UNL A   1      39.007  30.881  33.036  1.00  0.00     0.074 A 
ATOM     47  C   UNL A   1      37.796  31.627  32.774  1.00  0.00     0.031 C 
ATOM     48  C   UNL A   1      39.909  27.600  27.589  1.00  0.00     0.029 A 
ATOM     49  C   UNL A   1      40.772  27.631  28.766  1.00  0.00     0.049 A 
ATOM     50  H   UNL A   1      40.429  28.625  30.565  1.00  0.00     0.167 HD
ATOM     51  C   UNL A   1      39.721  30.969  34.184  1.00  0.00     0.034 A 
ATOM     52  C   UNL A   1      41.959  27.001  28.876  1.00  0.00     0.034 A 
ATOM     53  C   UNL A   1      40.911  30.208  34.452  1.00  0.00     0.049 A 
ATOM     54  C   UNL A   1      42.723  27.104  30.168  1.00  0.00     0.074 A 
ATOM     55  C   UNL A   1      41.661  30.166  35.615  1.00  0.00     0.029 A 
ATOM     56  N   UNL A   1      41.538  29.370  33.544  1.00  0.00    -0.354 N 
ATOM     57  N   UNL A   1      42.405  27.744  31.267  1.00  0.00    -0.248 NA
ATOM     58  C   UNL A   1      43.993  26.368  30.248  1.00  0.00     0.031 C 
ATOM     59  C   UNL A   1      42.765  29.337  35.395  1.00  0.00     0.029 A 
ATOM     60  C   UNL A   1      42.676  28.823  34.111  1.00  0.00     0.049 A 
ATOM     61  H   UNL A   1      41.221  29.191  32.629  1.00  0.00     0.167 HD
ATOM     62  C   UNL A   1      43.416  27.461  32.179  1.00  0.00     0.074 A 
ATOM     63  C   UNL A   1      44.342  26.569  31.511  1.00  0.00     0.031 C 
ATOM     64  C   UNL A   1      43.570  27.906  33.451  1.00  0.00     0.034 A 
BRANCH  51  65
ATOM     65  C   UNL A   1      39.214  31.900  35.257  1.00  0.00     0.023 A 
ATOM     66  C   UNL A   1      38.243  31.449  36.176  1.00  0.00     0.012 A 
ATOM     67  C   UNL A   1      39.738  33.200  35.392  1.00  0.00     0.148 A 
ATOM     68  C   UNL A   1      37.777  32.287  37.188  1.00  0.00     0.002 A 
ATOM     69  C   UNL A   1      39.305  34.012  36.434  1.00  0.00     0.091 A 
ATOM     70  F   UNL A   1      40.646  33.619  34.499  1.00  0.00    -0.205 F 
ATOM     71  C   UNL A   1      38.315  33.563  37.322  1.00  0.00     0.022 A 
BRANCH  69  72
ATOM     72  S   UNL A   1      39.993  35.642  36.744  1.00  0.00     0.127 S 
ATOM     73  O   UNL A   1      39.316  36.016  37.986  1.00  0.00    -0.237 OA
ATOM     74  O   UNL A   1      41.418  35.349  36.892  1.00  0.00    -0.237 OA
ATOM     75  O   UNL A   1      39.653  36.451  35.583  1.00  0.00    -0.744 OA
ENDBRANCH  69  72
ENDBRANCH  51  65
BRANCH  52  76
ATOM     76  C   UNL A   1      42.478  26.180  27.746  1.00  0.00     0.023 A 
ATOM     77  C   UNL A   1      43.418  26.733  26.854  1.00  0.00     0.012 A 
ATOM     78  C   UNL A   1      42.052  24.850  27.558  1.00  0.00     0.148 A 
ATOM     79  C   UNL A   1      43.892  25.991  25.771  1.00  0.00     0.002 A 
ATOM     80  C   UNL A   1      42.575  24.097  26.514  1.00  0.00     0.091 A 
ATOM     81  F   UNL A   1      41.152  24.346  28.413  1.00  0.00    -0.205 F 
ATOM     82  C   UNL A   1      43.478  24.672  25.607  1.00  0.00     0.022 A 
BRANCH  80  83
ATOM     83  S   UNL A   1      42.199  22.354  26.303  1.00  0.00     0.127 S 
ATOM     84  O   UNL A   1      42.654  21.795  27.573  1.00  0.00    -0.237 OA
ATOM     85  O   UNL A   1      40.747  22.381  26.123  1.00  0.00    -0.237 OA
ATOM     86  O   UNL A   1      42.942  21.929  25.124  1.00  0.00    -0.744 OA
ENDBRANCH  80  83
ENDBRANCH  52  76
BRANCH  64  87
ATOM     87  C   UNL A   1      44.763  27.408  34.224  1.00  0.00     0.023 A 
ATOM     88  C   UNL A   1      45.965  28.145  34.224  1.00  0.00     0.012 A 
ATOM     89  C   UNL A   1      44.672  26.237  35.004  1.00  0.00     0.148 A 
ATOM     90  C   UNL A   1      47.070  27.700  34.951  1.00  0.00     0.002 A 
ATOM     91  C   UNL A   1      45.757  25.831  35.771  1.00  0.00     0.091 A 
ATOM     92  F   UNL A   1      43.525  25.542  34.980  1.00  0.00    -0.205 F 
ATOM     93  C   UNL A   1      46.961  26.552  35.733  1.00  0.00     0.022 A 
BRANCH  91  94
ATOM     94  S   UNL A   1      45.680  24.425  36.883  1.00  0.00     0.127 S 
ATOM     95  O   UNL A   1      47.063  24.339  37.351  1.00  0.00    -0.237 OA
ATOM     96  O   UNL A   1      44.722  24.880  37.891  1.00  0.00    -0.237 OA
ATOM     97  O   UNL A   1      45.226  23.298  36.079  1.00  0.00    -0.744 OA
ENDBRANCH  91  94
ENDBRANCH  64  87
ENDBRANCH  38  39
ENDBRANCH  30  33
ENDBRANCH  28  29
ENDBRANCH  27  28
ENDBRANCH   1  27
TORSDOF 19
ENDMDL
