MODEL 1
REMARK VINA RESULT:     -10.8      0.000      0.000
REMARK SMILES CCOC(=O)c1c(NC(=O)/C=C(/C)C(=O)NCCCCCCNC(=O)c2ccc(-c3c4nc(c(-c5cccc(S(=O)(=O)[O-])c5F)c5ccc([nH]5)c(-c5cccc(S(=O)(=O)[O-])c5F)c5nc(c(-c6cccc(S(=O)(=O)[O-])c6F)c6ccc3[nH]6)C=C5)C=C4)cc2)sc2c1CC[C@H](C(C)(C)C)C2
REMARK SMILES IDX 18 1 17 2 16 3 14 4 15 5 12 7 11 8 13 9 9 10 8 11 10 13 7 14
REMARK SMILES IDX 6 15 91 16 89 17 90 18 92 19 99 20 93 21 94 22 4 23 5 24
REMARK SMILES IDX 3 25 2 26 1 27 95 28 96 29 97 30 98 31 19 32 20 33 21 34
REMARK SMILES IDX 22 35 23 36 24 37 25 39 26 40 27 41 88 42 28 43 87 44 29 45
REMARK SMILES IDX 30 46 31 47 81 48 32 49 86 50 80 51 82 52 33 53 85 54 79 55
REMARK SMILES IDX 78 56 34 58 66 59 46 60 65 61 47 62 50 63 64 64 83 65 48 66
REMARK SMILES IDX 49 67 63 69 84 70 51 71 35 72 36 73 44 74 37 75 39 76 45 77
REMARK SMILES IDX 38 78 40 79 41 80 42 81 43 82 67 83 68 84 76 85 69 86 71 87
REMARK SMILES IDX 77 88 70 89 72 90 73 91 74 92 75 93 52 94 53 95 61 96 54 97
REMARK SMILES IDX 56 98 62 99 55 100 57 101 58 102 59 103 60 104
REMARK H PARENT 16 6 8 12 23 38 82 57 50 68
REMARK Flexibility Score: inf
ROOT
ATOM      1  C   UNL A   1      40.345  22.882  26.113  1.00  0.00     0.021 C 
ENDROOT
BRANCH   1   2
ATOM      2  C   UNL A   1      38.938  22.383  26.722  1.00  0.00     0.116 C 
BRANCH   2   3
ATOM      3  N   UNL A   1      37.656  21.695  26.077  1.00  0.00    -0.352 N 
ATOM      4  C   UNL A   1      36.307  21.480  25.823  1.00  0.00     0.247 C 
ATOM      5  O   UNL A   1      36.184  20.713  24.844  1.00  0.00    -0.270 OA
ATOM      6  H   UNL A   1      38.070  20.998  25.519  1.00  0.00     0.163 HD
BRANCH   4   7
ATOM      7  C   UNL A   1      34.935  21.885  26.441  1.00  0.00     0.019 C 
ATOM      8  C   UNL A   1      34.599  23.192  26.424  1.00  0.00     0.080 C 
ATOM      9  C   UNL A   1      33.771  21.204  27.148  1.00  0.00     0.050 C 
BRANCH   8  10
ATOM     10  C   UNL A   1      35.103  24.352  25.702  1.00  0.00     0.249 C 
ATOM     11  N   UNL A   1      34.234  25.397  25.617  1.00  0.00    -0.313 N 
ATOM     12  H   UNL A   1      34.632  26.292  25.713  1.00  0.00     0.171 HD
ATOM     13  O   UNL A   1      36.315  24.512  25.579  1.00  0.00    -0.270 OA
BRANCH  11  14
ATOM     14  C   UNL A   1      32.870  25.368  25.414  1.00  0.00     0.110 A 
ATOM     15  C   UNL A   1      32.039  24.859  24.411  1.00  0.00     0.098 A 
ATOM     16  C   UNL A   1      31.594  26.149  23.783  1.00  0.00    -0.017 A 
ATOM     17  S   UNL A   1      32.135  26.703  26.210  1.00  0.00    -0.122 S 
ATOM     18  C   UNL A   1      31.405  27.145  24.743  1.00  0.00     0.011 A 
ATOM     19  C   UNL A   1      31.366  26.539  22.353  1.00  0.00     0.038 C 
ATOM     20  C   UNL A   1      30.736  28.491  24.524  1.00  0.00     0.051 C 
ATOM     21  C   UNL A   1      30.768  27.937  22.110  1.00  0.00     0.009 C 
ATOM     22  C   UNL A   1      29.842  28.402  23.257  1.00  0.00    -0.000 C 
BRANCH  15  23
ATOM     23  C   UNL A   1      31.429  23.418  24.536  1.00  0.00     0.341 C 
ATOM     24  O   UNL A   1      30.452  23.314  25.276  1.00  0.00    -0.246 OA
BRANCH  23  25
ATOM     25  O   UNL A   1      31.880  22.214  23.989  1.00  0.00    -0.462 OA
BRANCH  25  26
ATOM     26  C   UNL A   1      32.327  20.765  23.317  1.00  0.00     0.230 C 
ATOM     27  C   UNL A   1      32.741  19.478  24.105  1.00  0.00     0.049 C 
ENDBRANCH  25  26
ENDBRANCH  23  25
ENDBRANCH  15  23
BRANCH  22  28
ATOM     28  C   UNL A   1      28.949  29.646  22.876  1.00  0.00    -0.035 C 
ATOM     29  C   UNL A   1      29.261  30.812  23.853  1.00  0.00     0.011 C 
ATOM     30  C   UNL A   1      29.259  30.163  21.461  1.00  0.00     0.011 C 
ATOM     31  C   UNL A   1      27.438  29.370  22.976  1.00  0.00     0.011 C 
ENDBRANCH  22  28
ENDBRANCH  11  14
ENDBRANCH   8  10
ENDBRANCH   4   7
ENDBRANCH   2   3
ENDBRANCH   1   2
BRANCH   1  32
ATOM     32  C   UNL A   1      41.747  22.333  26.440  1.00  0.00     0.002 C 
BRANCH  32  33
ATOM     33  C   UNL A   1      41.832  21.225  27.486  1.00  0.00     0.002 C 
BRANCH  33  34
ATOM     34  C   UNL A   1      42.329  19.883  26.986  1.00  0.00     0.021 C 
BRANCH  34  35
ATOM     35  C   UNL A   1      42.315  19.788  25.472  1.00  0.00     0.116 C 
BRANCH  35  36
ATOM     36  N   UNL A   1      43.495  19.093  24.952  1.00  0.00    -0.352 N 
ATOM     37  C   UNL A   1      44.690  19.615  24.510  1.00  0.00     0.251 C 
ATOM     38  H   UNL A   1      43.423  18.112  24.911  1.00  0.00     0.163 HD
ATOM     39  O   UNL A   1      45.490  18.921  23.893  1.00  0.00    -0.269 OA
BRANCH  37  40
ATOM     40  C   UNL A   1      44.982  21.038  24.781  1.00  0.00     0.039 A 
ATOM     41  C   UNL A   1      44.525  22.030  23.914  1.00  0.00     0.014 A 
ATOM     42  C   UNL A   1      45.643  21.379  25.960  1.00  0.00     0.014 A 
ATOM     43  C   UNL A   1      44.656  23.372  24.281  1.00  0.00     0.010 A 
ATOM     44  C   UNL A   1      45.628  22.692  26.391  1.00  0.00     0.010 A 
ATOM     45  C   UNL A   1      45.165  23.710  25.547  1.00  0.00    -0.014 A 
BRANCH  45  46
ATOM     46  C   UNL A   1      45.257  25.112  26.022  1.00  0.00     0.031 A 
ATOM     47  C   UNL A   1      46.580  25.833  25.942  1.00  0.00     0.074 A 
ATOM     48  C   UNL A   1      44.210  25.683  26.649  1.00  0.00     0.049 A 
ATOM     49  N   UNL A   1      46.916  27.000  26.424  1.00  0.00    -0.248 NA
ATOM     50  C   UNL A   1      47.691  25.118  25.287  1.00  0.00     0.031 C 
ATOM     51  C   UNL A   1      42.916  25.043  26.896  1.00  0.00     0.029 A 
ATOM     52  N   UNL A   1      44.081  26.922  27.226  1.00  0.00    -0.354 N 
ATOM     53  C   UNL A   1      48.282  27.122  26.195  1.00  0.00     0.074 A 
ATOM     54  C   UNL A   1      48.723  25.890  25.585  1.00  0.00     0.031 C 
ATOM     55  C   UNL A   1      42.122  25.897  27.563  1.00  0.00     0.029 A 
ATOM     56  C   UNL A   1      42.858  27.130  27.819  1.00  0.00     0.049 A 
ATOM     57  H   UNL A   1      44.798  27.597  27.216  1.00  0.00     0.167 HD
ATOM     58  C   UNL A   1      49.091  28.180  26.430  1.00  0.00     0.034 A 
ATOM     59  C   UNL A   1      42.386  28.193  28.497  1.00  0.00     0.034 A 
ATOM     60  C   UNL A   1      48.623  29.432  26.958  1.00  0.00     0.049 A 
ATOM     61  C   UNL A   1      43.267  29.403  28.649  1.00  0.00     0.074 A 
ATOM     62  C   UNL A   1      49.316  30.617  27.107  1.00  0.00     0.029 A 
ATOM     63  N   UNL A   1      47.336  29.655  27.422  1.00  0.00    -0.354 N 
ATOM     64  N   UNL A   1      44.509  29.570  28.263  1.00  0.00    -0.248 NA
ATOM     65  C   UNL A   1      42.673  30.584  29.291  1.00  0.00     0.031 C 
ATOM     66  C   UNL A   1      48.453  31.554  27.687  1.00  0.00     0.029 A 
ATOM     67  C   UNL A   1      47.214  30.958  27.869  1.00  0.00     0.049 A 
ATOM     68  H   UNL A   1      46.614  28.985  27.431  1.00  0.00     0.167 HD
ATOM     69  C   UNL A   1      44.837  30.881  28.586  1.00  0.00     0.074 A 
ATOM     70  C   UNL A   1      43.654  31.470  29.182  1.00  0.00     0.031 C 
ATOM     71  C   UNL A   1      46.014  31.536  28.419  1.00  0.00     0.034 A 
BRANCH  58  72
ATOM     72  C   UNL A   1      50.547  28.041  26.064  1.00  0.00     0.023 A 
ATOM     73  C   UNL A   1      51.512  27.844  27.076  1.00  0.00     0.012 A 
ATOM     74  C   UNL A   1      50.962  28.091  24.720  1.00  0.00     0.148 A 
ATOM     75  C   UNL A   1      52.867  27.760  26.763  1.00  0.00     0.002 A 
ATOM     76  C   UNL A   1      52.311  27.950  24.411  1.00  0.00     0.091 A 
ATOM     77  F   UNL A   1      50.041  28.302  23.771  1.00  0.00    -0.205 F 
ATOM     78  C   UNL A   1      53.266  27.803  25.431  1.00  0.00     0.022 A 
BRANCH  76  79
ATOM     79  S   UNL A   1      52.913  27.905  22.720  1.00  0.00     0.127 S 
ATOM     80  O   UNL A   1      54.313  27.529  22.913  1.00  0.00    -0.237 OA
ATOM     81  O   UNL A   1      52.079  26.859  22.125  1.00  0.00    -0.237 OA
ATOM     82  O   UNL A   1      52.688  29.239  22.180  1.00  0.00    -0.744 OA
ENDBRANCH  76  79
ENDBRANCH  58  72
BRANCH  59  83
ATOM     83  C   UNL A   1      40.985  28.181  29.003  1.00  0.00     0.023 A 
ATOM     84  C   UNL A   1      40.686  27.497  30.198  1.00  0.00     0.012 A 
ATOM     85  C   UNL A   1      39.965  28.901  28.351  1.00  0.00     0.148 A 
ATOM     86  C   UNL A   1      39.393  27.513  30.723  1.00  0.00     0.002 A 
ATOM     87  C   UNL A   1      38.693  28.958  28.908  1.00  0.00     0.091 A 
ATOM     88  F   UNL A   1      40.269  29.542  27.213  1.00  0.00    -0.205 F 
ATOM     89  C   UNL A   1      38.400  28.252  30.086  1.00  0.00     0.022 A 
BRANCH  87  90
ATOM     90  S   UNL A   1      37.389  29.997  28.237  1.00  0.00     0.127 S 
ATOM     91  O   UNL A   1      37.892  31.337  28.532  1.00  0.00    -0.237 OA
ATOM     92  O   UNL A   1      37.411  29.629  26.821  1.00  0.00    -0.237 OA
ATOM     93  O   UNL A   1      36.173  29.611  28.940  1.00  0.00    -0.744 OA
ENDBRANCH  87  90
ENDBRANCH  59  83
BRANCH  71  94
ATOM     94  C   UNL A   1      46.080  32.974  28.857  1.00  0.00     0.023 A 
ATOM     95  C   UNL A   1      46.565  33.294  30.139  1.00  0.00     0.012 A 
ATOM     96  C   UNL A   1      45.745  34.009  27.963  1.00  0.00     0.148 A 
ATOM     97  C   UNL A   1      46.686  34.626  30.537  1.00  0.00     0.002 A 
ATOM     98  C   UNL A   1      45.918  35.333  28.347  1.00  0.00     0.091 A 
ATOM     99  F   UNL A   1      45.268  33.680  26.754  1.00  0.00    -0.205 F 
ATOM    100  C   UNL A   1      46.376  35.643  29.638  1.00  0.00     0.022 A 
BRANCH  98 101
ATOM    101  S   UNL A   1      45.641  36.703  27.220  1.00  0.00     0.127 S 
ATOM    102  O   UNL A   1      45.986  37.851  28.055  1.00  0.00    -0.237 OA
ATOM    103  O   UNL A   1      46.595  36.419  26.147  1.00  0.00    -0.237 OA
ATOM    104  O   UNL A   1      44.242  36.618  26.821  1.00  0.00    -0.744 OA
ENDBRANCH  98 101
ENDBRANCH  71  94
ENDBRANCH  45  46
ENDBRANCH  37  40
ENDBRANCH  35  36
ENDBRANCH  34  35
ENDBRANCH  33  34
ENDBRANCH  32  33
ENDBRANCH   1  32
TORSDOF 22
ENDMDL
MODEL 2
REMARK VINA RESULT:     -10.7      3.447     10.027
REMARK SMILES CCOC(=O)c1c(NC(=O)/C=C(/C)C(=O)NCCCCCCNC(=O)c2ccc(-c3c4nc(c(-c5cccc(S(=O)(=O)[O-])c5F)c5ccc([nH]5)c(-c5cccc(S(=O)(=O)[O-])c5F)c5nc(c(-c6cccc(S(=O)(=O)[O-])c6F)c6ccc3[nH]6)C=C5)C=C4)cc2)sc2c1CC[C@H](C(C)(C)C)C2
REMARK SMILES IDX 18 1 17 2 16 3 14 4 15 5 12 7 11 8 13 9 9 10 8 11 10 13 7 14
REMARK SMILES IDX 6 15 91 16 89 17 90 18 92 19 99 20 93 21 94 22 4 23 5 24
REMARK SMILES IDX 3 25 2 26 1 27 95 28 96 29 97 30 98 31 19 32 20 33 21 34
REMARK SMILES IDX 22 35 23 36 24 37 25 39 26 40 27 41 88 42 28 43 87 44 29 45
REMARK SMILES IDX 30 46 31 47 81 48 32 49 86 50 80 51 82 52 33 53 85 54 79 55
REMARK SMILES IDX 78 56 34 58 66 59 46 60 65 61 47 62 50 63 64 64 83 65 48 66
REMARK SMILES IDX 49 67 63 69 84 70 51 71 35 72 36 73 44 74 37 75 39 76 45 77
REMARK SMILES IDX 38 78 40 79 41 80 42 81 43 82 67 83 68 84 76 85 69 86 71 87
REMARK SMILES IDX 77 88 70 89 72 90 73 91 74 92 75 93 52 94 53 95 61 96 54 97
REMARK SMILES IDX 56 98 62 99 55 100 57 101 58 102 59 103 60 104
REMARK H PARENT 16 6 8 12 23 38 82 57 50 68
REMARK Flexibility Score: inf
ROOT
ATOM      1  C   UNL A   1      33.923  28.900  27.956  1.00  0.00     0.021 C 
ENDROOT
BRANCH   1   2
ATOM      2  C   UNL A   1      32.875  27.961  27.170  1.00  0.00     0.116 C 
BRANCH   2   3
ATOM      3  N   UNL A   1      31.863  28.227  25.970  1.00  0.00    -0.352 N 
ATOM      4  C   UNL A   1      31.021  27.917  24.909  1.00  0.00     0.247 C 
ATOM      5  O   UNL A   1      30.343  28.922  24.606  1.00  0.00    -0.270 OA
ATOM      6  H   UNL A   1      31.788  29.209  25.994  1.00  0.00     0.163 HD
BRANCH   4   7
ATOM      7  C   UNL A   1      30.730  26.699  23.981  1.00  0.00     0.019 C 
ATOM      8  C   UNL A   1      30.648  25.479  24.552  1.00  0.00     0.080 C 
ATOM      9  C   UNL A   1      30.526  26.436  22.496  1.00  0.00     0.050 C 
BRANCH   8  10
ATOM     10  C   UNL A   1      30.495  25.018  25.925  1.00  0.00     0.249 C 
ATOM     11  N   UNL A   1      31.656  24.673  26.548  1.00  0.00    -0.313 N 
ATOM     12  H   UNL A   1      31.726  24.933  27.495  1.00  0.00     0.171 HD
ATOM     13  O   UNL A   1      29.492  25.330  26.563  1.00  0.00    -0.270 OA
BRANCH  11  14
ATOM     14  C   UNL A   1      32.747  24.008  26.028  1.00  0.00     0.110 A 
ATOM     15  C   UNL A   1      33.271  23.841  24.743  1.00  0.00     0.098 A 
ATOM     16  C   UNL A   1      32.924  22.395  24.522  1.00  0.00    -0.017 A 
ATOM     17  S   UNL A   1      33.157  22.682  27.043  1.00  0.00    -0.122 S 
ATOM     18  C   UNL A   1      33.062  21.653  25.696  1.00  0.00     0.011 A 
ATOM     19  C   UNL A   1      32.437  21.657  23.311  1.00  0.00     0.038 C 
ATOM     20  C   UNL A   1      33.035  20.138  25.812  1.00  0.00     0.051 C 
ATOM     21  C   UNL A   1      32.322  20.127  23.440  1.00  0.00     0.009 C 
ATOM     22  C   UNL A   1      33.356  19.528  24.421  1.00  0.00    -0.000 C 
BRANCH  15  23
ATOM     23  C   UNL A   1      34.382  24.809  24.203  1.00  0.00     0.341 C 
ATOM     24  O   UNL A   1      35.500  24.314  24.062  1.00  0.00    -0.246 OA
BRANCH  23  25
ATOM     25  O   UNL A   1      34.309  26.177  23.929  1.00  0.00    -0.462 OA
BRANCH  25  26
ATOM     26  C   UNL A   1      34.133  27.790  23.586  1.00  0.00     0.230 C 
ATOM     27  C   UNL A   1      34.088  28.423  22.155  1.00  0.00     0.049 C 
ENDBRANCH  25  26
ENDBRANCH  23  25
ENDBRANCH  15  23
BRANCH  22  28
ATOM     28  C   UNL A   1      33.497  17.960  24.301  1.00  0.00    -0.035 C 
ATOM     29  C   UNL A   1      32.519  17.285  25.300  1.00  0.00     0.011 C 
ATOM     30  C   UNL A   1      33.114  17.456  22.899  1.00  0.00     0.011 C 
ATOM     31  C   UNL A   1      34.908  17.445  24.637  1.00  0.00     0.011 C 
ENDBRANCH  22  28
ENDBRANCH  11  14
ENDBRANCH   8  10
ENDBRANCH   4   7
ENDBRANCH   2   3
ENDBRANCH   1   2
BRANCH   1  32
ATOM     32  C   UNL A   1      35.245  29.475  27.414  1.00  0.00     0.002 C 
BRANCH  32  33
ATOM     33  C   UNL A   1      35.477  30.973  27.598  1.00  0.00     0.002 C 
BRANCH  33  34
ATOM     34  C   UNL A   1      34.301  31.760  28.140  1.00  0.00     0.021 C 
BRANCH  34  35
ATOM     35  C   UNL A   1      34.736  32.997  28.904  1.00  0.00     0.116 C 
BRANCH  35  36
ATOM     36  N   UNL A   1      34.455  32.887  30.337  1.00  0.00    -0.352 N 
ATOM     37  C   UNL A   1      35.148  32.204  31.311  1.00  0.00     0.251 C 
ATOM     38  H   UNL A   1      33.655  33.369  30.649  1.00  0.00     0.163 HD
ATOM     39  O   UNL A   1      34.659  32.021  32.421  1.00  0.00    -0.269 OA
BRANCH  37  40
ATOM     40  C   UNL A   1      36.490  31.680  30.985  1.00  0.00     0.039 A 
ATOM     41  C   UNL A   1      36.785  30.330  31.174  1.00  0.00     0.014 A 
ATOM     42  C   UNL A   1      37.428  32.535  30.408  1.00  0.00     0.014 A 
ATOM     43  C   UNL A   1      37.995  29.822  30.694  1.00  0.00     0.010 A 
ATOM     44  C   UNL A   1      38.546  32.001  29.797  1.00  0.00     0.010 A 
ATOM     45  C   UNL A   1      38.863  30.646  29.957  1.00  0.00    -0.014 A 
BRANCH  45  46
ATOM     46  C   UNL A   1      40.125  30.144  29.358  1.00  0.00     0.031 A 
ATOM     47  C   UNL A   1      40.130  28.808  28.658  1.00  0.00     0.074 A 
ATOM     48  C   UNL A   1      41.280  30.807  29.563  1.00  0.00     0.049 A 
ATOM     49  N   UNL A   1      41.140  28.123  28.193  1.00  0.00    -0.248 NA
ATOM     50  C   UNL A   1      38.832  28.122  28.520  1.00  0.00     0.031 C 
ATOM     51  C   UNL A   1      41.422  32.048  30.329  1.00  0.00     0.029 A 
ATOM     52  N   UNL A   1      42.562  30.509  29.176  1.00  0.00    -0.354 N 
ATOM     53  C   UNL A   1      40.610  26.906  27.778  1.00  0.00     0.074 A 
ATOM     54  C   UNL A   1      39.202  26.923  28.100  1.00  0.00     0.031 C 
ATOM     55  C   UNL A   1      42.716  32.410  30.344  1.00  0.00     0.029 A 
ATOM     56  C   UNL A   1      43.497  31.414  29.620  1.00  0.00     0.049 A 
ATOM     57  H   UNL A   1      42.790  29.721  28.631  1.00  0.00     0.167 HD
ATOM     58  C   UNL A   1      41.227  25.881  27.147  1.00  0.00     0.034 A 
ATOM     59  C   UNL A   1      44.835  31.434  29.465  1.00  0.00     0.034 A 
ATOM     60  C   UNL A   1      42.609  25.912  26.755  1.00  0.00     0.049 A 
ATOM     61  C   UNL A   1      45.487  30.342  28.663  1.00  0.00     0.074 A 
ATOM     62  C   UNL A   1      43.308  24.999  25.989  1.00  0.00     0.029 A 
ATOM     63  N   UNL A   1      43.501  26.914  27.103  1.00  0.00    -0.354 N 
ATOM     64  N   UNL A   1      44.939  29.283  28.118  1.00  0.00    -0.248 NA
ATOM     65  C   UNL A   1      46.930  30.465  28.418  1.00  0.00     0.031 C 
ATOM     66  C   UNL A   1      44.633  25.437  25.894  1.00  0.00     0.029 A 
ATOM     67  C   UNL A   1      44.749  26.640  26.576  1.00  0.00     0.049 A 
ATOM     68  H   UNL A   1      43.278  27.706  27.644  1.00  0.00     0.167 HD
ATOM     69  C   UNL A   1      45.960  28.628  27.440  1.00  0.00     0.074 A 
ATOM     70  C   UNL A   1      47.158  29.424  27.628  1.00  0.00     0.031 C 
ATOM     71  C   UNL A   1      45.917  27.468  26.738  1.00  0.00     0.034 A 
BRANCH  58  72
ATOM     72  C   UNL A   1      40.394  24.674  26.796  1.00  0.00     0.023 A 
ATOM     73  C   UNL A   1      39.079  24.843  26.313  1.00  0.00     0.012 A 
ATOM     74  C   UNL A   1      40.915  23.373  26.931  1.00  0.00     0.148 A 
ATOM     75  C   UNL A   1      38.277  23.740  26.028  1.00  0.00     0.002 A 
ATOM     76  C   UNL A   1      40.127  22.278  26.591  1.00  0.00     0.091 A 
ATOM     77  F   UNL A   1      42.156  23.225  27.414  1.00  0.00    -0.205 F 
ATOM     78  C   UNL A   1      38.803  22.459  26.157  1.00  0.00     0.022 A 
BRANCH  76  79
ATOM     79  S   UNL A   1      40.745  20.593  26.642  1.00  0.00     0.127 S 
ATOM     80  O   UNL A   1      39.677  19.865  25.958  1.00  0.00    -0.237 OA
ATOM     81  O   UNL A   1      41.992  20.700  25.882  1.00  0.00    -0.237 OA
ATOM     82  O   UNL A   1      40.922  20.274  28.051  1.00  0.00    -0.744 OA
ENDBRANCH  76  79
ENDBRANCH  58  72
BRANCH  59  83
ATOM     83  C   UNL A   1      45.622  32.574  30.014  1.00  0.00     0.023 A 
ATOM     84  C   UNL A   1      45.890  33.688  29.196  1.00  0.00     0.012 A 
ATOM     85  C   UNL A   1      46.041  32.593  31.360  1.00  0.00     0.148 A 
ATOM     86  C   UNL A   1      46.579  34.793  29.700  1.00  0.00     0.002 A 
ATOM     87  C   UNL A   1      46.679  33.718  31.870  1.00  0.00     0.091 A 
ATOM     88  F   UNL A   1      45.781  31.521  32.120  1.00  0.00    -0.205 F 
ATOM     89  C   UNL A   1      46.963  34.813  31.038  1.00  0.00     0.022 A 
BRANCH  87  90
ATOM     90  S   UNL A   1      47.083  33.893  33.612  1.00  0.00     0.127 S 
ATOM     91  O   UNL A   1      47.353  35.324  33.715  1.00  0.00    -0.237 OA
ATOM     92  O   UNL A   1      45.844  33.451  34.253  1.00  0.00    -0.237 OA
ATOM     93  O   UNL A   1      48.224  33.018  33.844  1.00  0.00    -0.744 OA
ENDBRANCH  87  90
ENDBRANCH  59  83
BRANCH  71  94
ATOM     94  C   UNL A   1      47.192  26.996  26.092  1.00  0.00     0.023 A 
ATOM     95  C   UNL A   1      47.449  27.301  24.742  1.00  0.00     0.012 A 
ATOM     96  C   UNL A   1      48.172  26.328  26.851  1.00  0.00     0.148 A 
ATOM     97  C   UNL A   1      48.651  26.920  24.148  1.00  0.00     0.002 A 
ATOM     98  C   UNL A   1      49.388  25.998  26.267  1.00  0.00     0.091 A 
ATOM     99  F   UNL A   1      47.898  26.031  28.130  1.00  0.00    -0.205 F 
ATOM    100  C   UNL A   1      49.624  26.282  24.912  1.00  0.00     0.022 A 
BRANCH  98 101
ATOM    101  S   UNL A   1      50.736  25.267  27.203  1.00  0.00     0.127 S 
ATOM    102  O   UNL A   1      50.069  24.142  27.855  1.00  0.00    -0.237 OA
ATOM    103  O   UNL A   1      51.677  24.890  26.147  1.00  0.00    -0.237 OA
ATOM    104  O   UNL A   1      51.217  26.312  28.096  1.00  0.00    -0.744 OA
ENDBRANCH  98 101
ENDBRANCH  71  94
ENDBRANCH  45  46
ENDBRANCH  37  40
ENDBRANCH  35  36
ENDBRANCH  34  35
ENDBRANCH  33  34
ENDBRANCH  32  33
ENDBRANCH   1  32
TORSDOF 22
ENDMDL
MODEL 3
REMARK VINA RESULT:     -10.4      6.462     11.865
REMARK SMILES CCOC(=O)c1c(NC(=O)/C=C(/C)C(=O)NCCCCCCNC(=O)c2ccc(-c3c4nc(c(-c5cccc(S(=O)(=O)[O-])c5F)c5ccc([nH]5)c(-c5cccc(S(=O)(=O)[O-])c5F)c5nc(c(-c6cccc(S(=O)(=O)[O-])c6F)c6ccc3[nH]6)C=C5)C=C4)cc2)sc2c1CC[C@H](C(C)(C)C)C2
REMARK SMILES IDX 18 1 17 2 16 3 14 4 15 5 12 7 11 8 13 9 9 10 8 11 10 13 7 14
REMARK SMILES IDX 6 15 91 16 89 17 90 18 92 19 99 20 93 21 94 22 4 23 5 24
REMARK SMILES IDX 3 25 2 26 1 27 95 28 96 29 97 30 98 31 19 32 20 33 21 34
REMARK SMILES IDX 22 35 23 36 24 37 25 39 26 40 27 41 88 42 28 43 87 44 29 45
REMARK SMILES IDX 30 46 31 47 81 48 32 49 86 50 80 51 82 52 33 53 85 54 79 55
REMARK SMILES IDX 78 56 34 58 66 59 46 60 65 61 47 62 50 63 64 64 83 65 48 66
REMARK SMILES IDX 49 67 63 69 84 70 51 71 35 72 36 73 44 74 37 75 39 76 45 77
REMARK SMILES IDX 38 78 40 79 41 80 42 81 43 82 67 83 68 84 76 85 69 86 71 87
REMARK SMILES IDX 77 88 70 89 72 90 73 91 74 92 75 93 52 94 53 95 61 96 54 97
REMARK SMILES IDX 56 98 62 99 55 100 57 101 58 102 59 103 60 104
REMARK H PARENT 16 6 8 12 23 38 82 57 50 68
REMARK Flexibility Score: inf
ROOT
ATOM      1  C   UNL A   1      35.087  30.229  26.924  1.00  0.00     0.021 C 
ENDROOT
BRANCH   1   2
ATOM      2  C   UNL A   1      33.935  29.129  26.674  1.00  0.00     0.116 C 
BRANCH   2   3
ATOM      3  N   UNL A   1      33.914  27.728  25.917  1.00  0.00    -0.352 N 
ATOM      4  C   UNL A   1      33.418  26.717  25.105  1.00  0.00     0.247 C 
ATOM      5  O   UNL A   1      34.328  25.899  24.853  1.00  0.00    -0.270 OA
ATOM      6  H   UNL A   1      34.778  27.346  26.194  1.00  0.00     0.163 HD
BRANCH   4   7
ATOM      7  C   UNL A   1      32.053  26.305  24.474  1.00  0.00     0.019 C 
ATOM      8  C   UNL A   1      32.077  25.658  23.290  1.00  0.00     0.080 C 
ATOM      9  C   UNL A   1      30.572  26.449  24.796  1.00  0.00     0.050 C 
BRANCH   8  10
ATOM     10  C   UNL A   1      33.121  24.978  22.535  1.00  0.00     0.249 C 
ATOM     11  N   UNL A   1      33.023  23.620  22.517  1.00  0.00    -0.313 N 
ATOM     12  H   UNL A   1      33.243  23.188  21.660  1.00  0.00     0.171 HD
ATOM     13  O   UNL A   1      33.742  25.590  21.669  1.00  0.00    -0.270 OA
BRANCH  11  14
ATOM     14  C   UNL A   1      32.658  22.769  23.539  1.00  0.00     0.110 A 
ATOM     15  C   UNL A   1      33.158  22.500  24.816  1.00  0.00     0.098 A 
ATOM     16  C   UNL A   1      33.738  21.135  24.571  1.00  0.00    -0.017 A 
ATOM     17  S   UNL A   1      31.840  21.402  22.893  1.00  0.00    -0.122 S 
ATOM     18  C   UNL A   1      32.940  20.393  23.699  1.00  0.00     0.011 A 
ATOM     19  C   UNL A   1      34.998  20.482  25.054  1.00  0.00     0.038 C 
ATOM     20  C   UNL A   1      33.068  18.907  23.407  1.00  0.00     0.051 C 
ATOM     21  C   UNL A   1      35.184  18.997  24.692  1.00  0.00     0.009 C 
ATOM     22  C   UNL A   1      33.844  18.236  24.573  1.00  0.00    -0.000 C 
BRANCH  15  23
ATOM     23  C   UNL A   1      32.590  23.254  26.070  1.00  0.00     0.341 C 
ATOM     24  O   UNL A   1      33.430  23.701  26.851  1.00  0.00    -0.246 OA
BRANCH  23  25
ATOM     25  O   UNL A   1      31.265  23.428  26.475  1.00  0.00    -0.462 OA
BRANCH  25  26
ATOM     26  C   UNL A   1      29.702  23.566  27.015  1.00  0.00     0.230 C 
ATOM     27  C   UNL A   1      28.766  22.380  27.421  1.00  0.00     0.049 C 
ENDBRANCH  25  26
ENDBRANCH  23  25
ENDBRANCH  15  23
BRANCH  22  28
ATOM     28  C   UNL A   1      34.014  16.666  24.559  1.00  0.00    -0.035 C 
ATOM     29  C   UNL A   1      34.249  16.195  23.099  1.00  0.00     0.011 C 
ATOM     30  C   UNL A   1      35.240  16.216  25.371  1.00  0.00     0.011 C 
ATOM     31  C   UNL A   1      32.778  15.912  25.081  1.00  0.00     0.011 C 
ENDBRANCH  22  28
ENDBRANCH  11  14
ENDBRANCH   8  10
ENDBRANCH   4   7
ENDBRANCH   2   3
ENDBRANCH   1   2
BRANCH   1  32
ATOM     32  C   UNL A   1      35.340  31.033  28.214  1.00  0.00     0.002 C 
BRANCH  32  33
ATOM     33  C   UNL A   1      34.181  31.871  28.748  1.00  0.00     0.002 C 
BRANCH  33  34
ATOM     34  C   UNL A   1      33.783  33.062  27.899  1.00  0.00     0.021 C 
BRANCH  34  35
ATOM     35  C   UNL A   1      34.406  34.356  28.388  1.00  0.00     0.116 C 
BRANCH  35  36
ATOM     36  N   UNL A   1      33.556  35.044  29.361  1.00  0.00    -0.352 N 
ATOM     37  C   UNL A   1      33.539  34.936  30.734  1.00  0.00     0.251 C 
ATOM     38  H   UNL A   1      32.902  35.674  28.981  1.00  0.00     0.163 HD
ATOM     39  O   UNL A   1      32.616  35.407  31.391  1.00  0.00    -0.269 OA
BRANCH  37  40
ATOM     40  C   UNL A   1      34.650  34.226  31.400  1.00  0.00     0.039 A 
ATOM     41  C   UNL A   1      34.417  33.029  32.076  1.00  0.00     0.014 A 
ATOM     42  C   UNL A   1      35.946  34.723  31.268  1.00  0.00     0.014 A 
ATOM     43  C   UNL A   1      35.505  32.285  32.542  1.00  0.00     0.010 A 
ATOM     44  C   UNL A   1      37.019  33.913  31.587  1.00  0.00     0.010 A 
ATOM     45  C   UNL A   1      36.817  32.699  32.256  1.00  0.00    -0.014 A 
BRANCH  45  46
ATOM     46  C   UNL A   1      38.008  31.912  32.659  1.00  0.00     0.031 A 
ATOM     47  C   UNL A   1      38.719  32.253  33.945  1.00  0.00     0.074 A 
ATOM     48  C   UNL A   1      38.532  31.001  31.815  1.00  0.00     0.049 A 
ATOM     49  N   UNL A   1      39.848  31.793  34.413  1.00  0.00    -0.248 NA
ATOM     50  C   UNL A   1      38.108  33.299  34.787  1.00  0.00     0.031 C 
ATOM     51  C   UNL A   1      38.006  30.669  30.489  1.00  0.00     0.029 A 
ATOM     52  N   UNL A   1      39.650  30.213  31.933  1.00  0.00    -0.354 N 
ATOM     53  C   UNL A   1      40.114  32.540  35.555  1.00  0.00     0.074 A 
ATOM     54  C   UNL A   1      39.061  33.520  35.677  1.00  0.00     0.031 C 
ATOM     55  C   UNL A   1      38.791  29.738  29.923  1.00  0.00     0.029 A 
ATOM     56  C   UNL A   1      39.893  29.431  30.829  1.00  0.00     0.049 A 
ATOM     57  H   UNL A   1      40.222  30.208  32.735  1.00  0.00     0.167 HD
ATOM     58  C   UNL A   1      41.120  32.397  36.448  1.00  0.00     0.034 A 
ATOM     59  C   UNL A   1      40.895  28.568  30.573  1.00  0.00     0.034 A 
ATOM     60  C   UNL A   1      42.113  31.363  36.361  1.00  0.00     0.049 A 
ATOM     61  C   UNL A   1      41.942  28.342  31.629  1.00  0.00     0.074 A 
ATOM     62  C   UNL A   1      43.093  31.030  37.277  1.00  0.00     0.029 A 
ATOM     63  N   UNL A   1      42.248  30.492  35.291  1.00  0.00    -0.354 N 
ATOM     64  N   UNL A   1      42.078  28.932  32.792  1.00  0.00    -0.248 NA
ATOM     65  C   UNL A   1      42.949  27.307  31.359  1.00  0.00     0.031 C 
ATOM     66  C   UNL A   1      43.839  29.972  36.747  1.00  0.00     0.029 A 
ATOM     67  C   UNL A   1      43.302  29.627  35.515  1.00  0.00     0.049 A 
ATOM     68  H   UNL A   1      41.676  30.490  34.489  1.00  0.00     0.167 HD
ATOM     69  C   UNL A   1      43.164  28.322  33.407  1.00  0.00     0.074 A 
ATOM     70  C   UNL A   1      43.637  27.300  32.493  1.00  0.00     0.031 C 
ATOM     71  C   UNL A   1      43.729  28.589  34.611  1.00  0.00     0.034 A 
BRANCH  58  72
ATOM     72  C   UNL A   1      41.156  33.348  37.618  1.00  0.00     0.023 A 
ATOM     73  C   UNL A   1      40.401  33.068  38.776  1.00  0.00     0.012 A 
ATOM     74  C   UNL A   1      41.944  34.514  37.577  1.00  0.00     0.148 A 
ATOM     75  C   UNL A   1      40.382  33.956  39.849  1.00  0.00     0.002 A 
ATOM     76  C   UNL A   1      41.964  35.369  38.675  1.00  0.00     0.091 A 
ATOM     77  F   UNL A   1      42.638  34.782  36.463  1.00  0.00    -0.205 F 
ATOM     78  C   UNL A   1      41.171  35.101  39.803  1.00  0.00     0.022 A 
BRANCH  76  79
ATOM     79  S   UNL A   1      43.016  36.823  38.745  1.00  0.00     0.127 S 
ATOM     80  O   UNL A   1      44.289  36.247  39.177  1.00  0.00    -0.237 OA
ATOM     81  O   UNL A   1      42.996  37.284  37.356  1.00  0.00    -0.237 OA
ATOM     82  O   UNL A   1      42.381  37.729  39.692  1.00  0.00    -0.744 OA
ENDBRANCH  76  79
ENDBRANCH  58  72
BRANCH  59  83
ATOM     83  C   UNL A   1      40.896  27.799  29.297  1.00  0.00     0.023 A 
ATOM     84  C   UNL A   1      39.978  26.745  29.122  1.00  0.00     0.012 A 
ATOM     85  C   UNL A   1      41.747  28.152  28.231  1.00  0.00     0.148 A 
ATOM     86  C   UNL A   1      39.921  26.042  27.918  1.00  0.00     0.002 A 
ATOM     87  C   UNL A   1      41.648  27.484  27.016  1.00  0.00     0.091 A 
ATOM     88  F   UNL A   1      42.616  29.155  28.419  1.00  0.00    -0.205 F 
ATOM     89  C   UNL A   1      40.746  26.419  26.862  1.00  0.00     0.022 A 
BRANCH  87  90
ATOM     90  S   UNL A   1      42.567  27.990  25.557  1.00  0.00     0.127 S 
ATOM     91  O   UNL A   1      42.309  26.882  24.641  1.00  0.00    -0.237 OA
ATOM     92  O   UNL A   1      41.905  29.247  25.206  1.00  0.00    -0.237 OA
ATOM     93  O   UNL A   1      43.949  28.140  25.992  1.00  0.00    -0.744 OA
ENDBRANCH  87  90
ENDBRANCH  59  83
BRANCH  71  94
ATOM     94  C   UNL A   1      44.905  27.749  35.031  1.00  0.00     0.023 A 
ATOM     95  C   UNL A   1      46.214  28.230  34.837  1.00  0.00     0.012 A 
ATOM     96  C   UNL A   1      44.707  26.526  35.699  1.00  0.00     0.148 A 
ATOM     97  C   UNL A   1      47.311  27.488  35.275  1.00  0.00     0.002 A 
ATOM     98  C   UNL A   1      45.802  25.818  36.178  1.00  0.00     0.091 A 
ATOM     99  F   UNL A   1      43.452  26.079  35.856  1.00  0.00    -0.205 F 
ATOM    100  C   UNL A   1      47.105  26.291  35.955  1.00  0.00     0.022 A 
BRANCH  98 101
ATOM    101  S   UNL A   1      45.624  24.321  37.154  1.00  0.00     0.127 S 
ATOM    102  O   UNL A   1      44.839  24.797  38.290  1.00  0.00    -0.237 OA
ATOM    103  O   UNL A   1      44.900  23.438  36.238  1.00  0.00    -0.237 OA
ATOM    104  O   UNL A   1      46.978  23.883  37.468  1.00  0.00    -0.744 OA
ENDBRANCH  98 101
ENDBRANCH  71  94
ENDBRANCH  45  46
ENDBRANCH  37  40
ENDBRANCH  35  36
ENDBRANCH  34  35
ENDBRANCH  33  34
ENDBRANCH  32  33
ENDBRANCH   1  32
TORSDOF 22
ENDMDL
