MODEL 1
REMARK VINA RESULT:     -11.7      0.000      0.000
REMARK SMILES O=C(NCCCCCCNC(=O)[C@H]1CCCC[C@H]1C(=O)Nc1ccc(Cl)cc1F)c1ccc(-c2c3nc(c(-c4cccc(S(=O)(=O)[O-])c4F)c4ccc([nH]4)c(-c4cccc(S(=O)(=O)[O-])c4F)c4nc(c(-c5cccc(S(=O)(=O)[O-])c5F)c5ccc2[nH]5)C=C4)C=C3)cc1
REMARK SMILES IDX 6 1 5 2 4 3 3 4 1 5 2 6 30 8 31 9 92 10 32 11 91 12 33 13
REMARK SMILES IDX 34 14 35 15 85 16 36 17 90 18 84 19 86 20 37 21 89 22 83 23
REMARK SMILES IDX 82 24 38 26 70 27 50 28 69 29 51 30 54 31 68 32 87 33 52 34
REMARK SMILES IDX 53 35 67 37 88 38 55 39 39 40 40 41 48 42 41 43 43 44 49 45
REMARK SMILES IDX 42 46 44 47 45 48 46 49 47 50 71 51 72 52 80 53 73 54 75 55
REMARK SMILES IDX 81 56 74 57 76 58 77 59 78 60 79 61 56 62 57 63 65 64 58 65
REMARK SMILES IDX 60 66 66 67 59 68 61 69 62 70 63 71 64 72 7 73 8 74 9 75
REMARK SMILES IDX 10 76 11 77 12 79 13 80 14 81 18 82 15 83 17 84 16 85 19 86
REMARK SMILES IDX 20 87 21 88 22 90 23 91 28 92 24 93 27 94 29 95 25 96 26 97
REMARK H PARENT 3 7 86 25 54 36 10 78 21 89
REMARK Flexibility Score: inf
ROOT
ATOM      1  C   UNL A   1      37.422  20.609  24.720  1.00  0.00     0.002 C 
ENDROOT
BRANCH   1   2
ATOM      2  C   UNL A   1      38.500  19.553  24.941  1.00  0.00     0.021 C 
BRANCH   2   3
ATOM      3  C   UNL A   1      39.414  19.820  26.127  1.00  0.00     0.116 C 
BRANCH   3   4
ATOM      4  N   UNL A   1      40.604  18.986  26.100  1.00  0.00    -0.352 N 
ATOM      5  O   UNL A   1      42.792  18.525  25.845  1.00  0.00    -0.269 OA
ATOM      6  C   UNL A   1      41.926  19.359  26.084  1.00  0.00     0.251 C 
ATOM      7  H   UNL A   1      40.438  18.015  26.091  1.00  0.00     0.163 HD
BRANCH   6   8
ATOM      8  C   UNL A   1      42.292  20.772  26.330  1.00  0.00     0.039 A 
ATOM      9  C   UNL A   1      42.502  21.241  27.631  1.00  0.00     0.014 A 
ATOM     10  C   UNL A   1      42.436  21.634  25.242  1.00  0.00     0.014 A 
ATOM     11  C   UNL A   1      42.724  22.597  27.854  1.00  0.00     0.010 A 
ATOM     12  C   UNL A   1      42.739  22.979  25.463  1.00  0.00     0.010 A 
ATOM     13  C   UNL A   1      42.858  23.477  26.771  1.00  0.00    -0.014 A 
BRANCH  13  14
ATOM     14  C   UNL A   1      43.188  24.906  27.000  1.00  0.00     0.031 A 
ATOM     15  C   UNL A   1      44.563  25.434  26.707  1.00  0.00     0.074 A 
ATOM     16  C   UNL A   1      42.255  25.710  27.546  1.00  0.00     0.049 A 
ATOM     17  N   UNL A   1      45.057  26.621  26.946  1.00  0.00    -0.248 NA
ATOM     18  C   UNL A   1      45.511  24.505  26.072  1.00  0.00     0.031 C 
ATOM     19  C   UNL A   1      40.896  25.298  27.902  1.00  0.00     0.029 A 
ATOM     20  N   UNL A   1      42.319  27.025  27.932  1.00  0.00    -0.354 N 
ATOM     21  C   UNL A   1      46.386  26.569  26.543  1.00  0.00     0.074 A 
ATOM     22  C   UNL A   1      46.620  25.231  26.042  1.00  0.00     0.031 C 
ATOM     23  C   UNL A   1      40.261  26.330  28.473  1.00  0.00     0.029 A 
ATOM     24  C   UNL A   1      41.184  27.455  28.576  1.00  0.00     0.049 A 
ATOM     25  H   UNL A   1      43.099  27.602  27.763  1.00  0.00     0.167 HD
ATOM     26  C   UNL A   1      47.321  27.549  26.582  1.00  0.00     0.034 A 
ATOM     27  C   UNL A   1      40.925  28.608  29.224  1.00  0.00     0.034 A 
ATOM     28  C   UNL A   1      47.071  28.880  27.069  1.00  0.00     0.049 A 
ATOM     29  C   UNL A   1      41.975  29.679  29.259  1.00  0.00     0.074 A 
ATOM     30  C   UNL A   1      47.929  29.966  27.082  1.00  0.00     0.029 A 
ATOM     31  N   UNL A   1      45.885  29.302  27.652  1.00  0.00    -0.354 N 
ATOM     32  N   UNL A   1      43.187  29.657  28.759  1.00  0.00    -0.248 NA
ATOM     33  C   UNL A   1      41.618  30.943  29.916  1.00  0.00     0.031 C 
ATOM     34  C   UNL A   1      47.275  31.031  27.711  1.00  0.00     0.029 A 
ATOM     35  C   UNL A   1      45.993  30.624  28.045  1.00  0.00     0.049 A 
ATOM     36  H   UNL A   1      45.083  28.741  27.768  1.00  0.00     0.167 HD
ATOM     37  C   UNL A   1      43.724  30.914  29.006  1.00  0.00     0.074 A 
ATOM     38  C   UNL A   1      42.703  31.675  29.699  1.00  0.00     0.031 C 
ATOM     39  C   UNL A   1      44.953  31.389  28.689  1.00  0.00     0.034 A 
BRANCH  26  40
ATOM     40  C   UNL A   1      48.704  27.217  26.082  1.00  0.00     0.023 A 
ATOM     41  C   UNL A   1      49.637  26.602  26.943  1.00  0.00     0.012 A 
ATOM     42  C   UNL A   1      49.072  27.481  24.748  1.00  0.00     0.148 A 
ATOM     43  C   UNL A   1      50.925  26.304  26.500  1.00  0.00     0.002 A 
ATOM     44  C   UNL A   1      50.342  27.137  24.300  1.00  0.00     0.091 A 
ATOM     45  F   UNL A   1      48.181  28.082  23.945  1.00  0.00    -0.205 F 
ATOM     46  C   UNL A   1      51.275  26.563  25.178  1.00  0.00     0.022 A 
BRANCH  44  47
ATOM     47  S   UNL A   1      50.853  27.357  22.592  1.00  0.00     0.127 S 
ATOM     48  O   UNL A   1      49.804  26.636  21.875  1.00  0.00    -0.237 OA
ATOM     49  O   UNL A   1      50.805  28.812  22.438  1.00  0.00    -0.237 OA
ATOM     50  O   UNL A   1      52.188  26.785  22.499  1.00  0.00    -0.744 OA
ENDBRANCH  44  47
ENDBRANCH  26  40
BRANCH  27  51
ATOM     51  C   UNL A   1      39.595  28.791  29.867  1.00  0.00     0.023 A 
ATOM     52  C   UNL A   1      39.372  28.283  31.159  1.00  0.00     0.012 A 
ATOM     53  C   UNL A   1      38.586  29.548  29.238  1.00  0.00     0.148 A 
ATOM     54  C   UNL A   1      38.160  28.514  31.811  1.00  0.00     0.002 A 
ATOM     55  C   UNL A   1      37.405  29.822  29.913  1.00  0.00     0.091 A 
ATOM     56  F   UNL A   1      38.824  30.020  28.005  1.00  0.00    -0.205 F 
ATOM     57  C   UNL A   1      37.184  29.293  31.195  1.00  0.00     0.022 A 
BRANCH  55  58
ATOM     58  S   UNL A   1      36.150  30.930  29.262  1.00  0.00     0.127 S 
ATOM     59  O   UNL A   1      35.433  31.314  30.476  1.00  0.00    -0.237 OA
ATOM     60  O   UNL A   1      36.968  31.988  28.668  1.00  0.00    -0.237 OA
ATOM     61  O   UNL A   1      35.386  30.145  28.303  1.00  0.00    -0.744 OA
ENDBRANCH  55  58
ENDBRANCH  27  51
BRANCH  39  62
ATOM     62  C   UNL A   1      45.264  32.824  29.023  1.00  0.00     0.023 A 
ATOM     63  C   UNL A   1      45.895  33.147  30.239  1.00  0.00     0.012 A 
ATOM     64  C   UNL A   1      45.033  33.836  28.070  1.00  0.00     0.148 A 
ATOM     65  C   UNL A   1      46.280  34.462  30.507  1.00  0.00     0.002 A 
ATOM     66  C   UNL A   1      45.465  35.131  28.321  1.00  0.00     0.091 A 
ATOM     67  F   UNL A   1      44.413  33.505  26.928  1.00  0.00    -0.205 F 
ATOM     68  C   UNL A   1      46.079  35.449  29.543  1.00  0.00     0.022 A 
BRANCH  66  69
ATOM     69  S   UNL A   1      45.344  36.443  27.099  1.00  0.00     0.127 S 
ATOM     70  O   UNL A   1      46.091  35.876  25.979  1.00  0.00    -0.237 OA
ATOM     71  O   UNL A   1      43.899  36.531  26.887  1.00  0.00    -0.237 OA
ATOM     72  O   UNL A   1      45.942  37.622  27.710  1.00  0.00    -0.744 OA
ENDBRANCH  66  69
ENDBRANCH  39  62
ENDBRANCH  13  14
ENDBRANCH   6   8
ENDBRANCH   3   4
ENDBRANCH   2   3
ENDBRANCH   1   2
BRANCH   1  73
ATOM     73  C   UNL A   1      37.394  21.747  25.742  1.00  0.00     0.002 C 
BRANCH  73  74
ATOM     74  C   UNL A   1      37.266  23.173  25.184  1.00  0.00     0.021 C 
BRANCH  74  75
ATOM     75  C   UNL A   1      36.221  24.063  25.859  1.00  0.00     0.116 C 
BRANCH  75  76
ATOM     76  N   UNL A   1      35.362  23.325  26.764  1.00  0.00    -0.356 N 
ATOM     77  C   UNL A   1      34.024  23.095  26.735  1.00  0.00     0.223 C 
ATOM     78  H   UNL A   1      35.829  22.921  27.531  1.00  0.00     0.163 HD
ATOM     79  O   UNL A   1      33.557  22.375  27.618  1.00  0.00    -0.275 OA
BRANCH  77  80
ATOM     80  C   UNL A   1      33.177  23.619  25.586  1.00  0.00     0.091 C 
ATOM     81  C   UNL A   1      33.861  23.126  24.292  1.00  0.00     0.014 C 
ATOM     82  C   UNL A   1      31.703  23.166  25.591  1.00  0.00     0.091 C 
ATOM     83  C   UNL A   1      33.685  21.617  24.070  1.00  0.00     0.001 C 
ATOM     84  C   UNL A   1      31.494  21.667  25.378  1.00  0.00     0.014 C 
ATOM     85  C   UNL A   1      32.221  21.183  24.120  1.00  0.00     0.001 C 
BRANCH  82  86
ATOM     86  C   UNL A   1      30.805  23.870  26.617  1.00  0.00     0.228 C 
ATOM     87  O   UNL A   1      30.231  23.192  27.479  1.00  0.00    -0.274 OA
ATOM     88  N   UNL A   1      30.639  25.224  26.688  1.00  0.00    -0.323 N 
ATOM     89  H   UNL A   1      30.509  25.609  27.585  1.00  0.00     0.170 HD
BRANCH  88  90
ATOM     90  C   UNL A   1      30.633  26.118  25.611  1.00  0.00     0.077 A 
ATOM     91  C   UNL A   1      29.587  26.090  24.694  1.00  0.00     0.031 A 
ATOM     92  C   UNL A   1      31.716  26.974  25.398  1.00  0.00     0.148 A 
ATOM     93  C   UNL A   1      29.564  27.025  23.654  1.00  0.00     0.023 A 
ATOM     94  C   UNL A   1      31.696  27.918  24.378  1.00  0.00     0.062 A 
ATOM     95  F   UNL A   1      32.769  26.919  26.224  1.00  0.00    -0.205 F 
ATOM     96  C   UNL A   1      30.597  27.958  23.527  1.00  0.00     0.044 A 
ATOM     97  Cl  UNL A   1      30.504  29.170  22.308  1.00  0.00    -0.084 Cl
ENDBRANCH  88  90
ENDBRANCH  82  86
ENDBRANCH  77  80
ENDBRANCH  75  76
ENDBRANCH  74  75
ENDBRANCH  73  74
ENDBRANCH   1  73
TORSDOF 18
ENDMDL
MODEL 2
REMARK VINA RESULT:     -11.5      5.552      8.707
REMARK SMILES O=C(NCCCCCCNC(=O)[C@H]1CCCC[C@H]1C(=O)Nc1ccc(Cl)cc1F)c1ccc(-c2c3nc(c(-c4cccc(S(=O)(=O)[O-])c4F)c4ccc([nH]4)c(-c4cccc(S(=O)(=O)[O-])c4F)c4nc(c(-c5cccc(S(=O)(=O)[O-])c5F)c5ccc2[nH]5)C=C4)C=C3)cc1
REMARK SMILES IDX 6 1 5 2 4 3 3 4 1 5 2 6 30 8 31 9 92 10 32 11 91 12 33 13
REMARK SMILES IDX 34 14 35 15 85 16 36 17 90 18 84 19 86 20 37 21 89 22 83 23
REMARK SMILES IDX 82 24 38 26 70 27 50 28 69 29 51 30 54 31 68 32 87 33 52 34
REMARK SMILES IDX 53 35 67 37 88 38 55 39 39 40 40 41 48 42 41 43 43 44 49 45
REMARK SMILES IDX 42 46 44 47 45 48 46 49 47 50 71 51 72 52 80 53 73 54 75 55
REMARK SMILES IDX 81 56 74 57 76 58 77 59 78 60 79 61 56 62 57 63 65 64 58 65
REMARK SMILES IDX 60 66 66 67 59 68 61 69 62 70 63 71 64 72 7 73 8 74 9 75
REMARK SMILES IDX 10 76 11 77 12 79 13 80 14 81 18 82 15 83 17 84 16 85 19 86
REMARK SMILES IDX 20 87 21 88 22 90 23 91 28 92 24 93 27 94 29 95 25 96 26 97
REMARK H PARENT 3 7 86 25 54 36 10 78 21 89
REMARK Flexibility Score: inf
ROOT
ATOM      1  C   UNL A   1      31.349  27.568  24.870  1.00  0.00     0.002 C 
ENDROOT
BRANCH   1   2
ATOM      2  C   UNL A   1      32.557  27.847  25.759  1.00  0.00     0.021 C 
BRANCH   2   3
ATOM      3  C   UNL A   1      33.372  29.066  25.356  1.00  0.00     0.116 C 
BRANCH   3   4
ATOM      4  N   UNL A   1      32.783  30.302  25.843  1.00  0.00    -0.352 N 
ATOM      5  O   UNL A   1      32.433  31.986  27.295  1.00  0.00    -0.269 OA
ATOM      6  C   UNL A   1      33.173  31.094  26.897  1.00  0.00     0.251 C 
ATOM      7  H   UNL A   1      31.994  30.618  25.347  1.00  0.00     0.163 HD
BRANCH   6   8
ATOM      8  C   UNL A   1      34.473  30.845  27.559  1.00  0.00     0.039 A 
ATOM      9  C   UNL A   1      34.769  29.594  28.110  1.00  0.00     0.014 A 
ATOM     10  C   UNL A   1      35.410  31.878  27.620  1.00  0.00     0.014 A 
ATOM     11  C   UNL A   1      35.944  29.414  28.835  1.00  0.00     0.010 A 
ATOM     12  C   UNL A   1      36.623  31.671  28.279  1.00  0.00     0.010 A 
ATOM     13  C   UNL A   1      36.888  30.446  28.916  1.00  0.00    -0.014 A 
BRANCH  13  14
ATOM     14  C   UNL A   1      38.182  30.228  29.608  1.00  0.00     0.031 A 
ATOM     15  C   UNL A   1      39.218  29.306  29.030  1.00  0.00     0.074 A 
ATOM     16  C   UNL A   1      38.388  30.814  30.803  1.00  0.00     0.049 A 
ATOM     17  N   UNL A   1      40.353  28.915  29.548  1.00  0.00    -0.248 NA
ATOM     18  C   UNL A   1      38.937  28.740  27.702  1.00  0.00     0.031 C 
ATOM     19  C   UNL A   1      37.441  31.704  31.476  1.00  0.00     0.029 A 
ATOM     20  N   UNL A   1      39.439  30.720  31.680  1.00  0.00    -0.354 N 
ATOM     21  C   UNL A   1      40.898  28.018  28.638  1.00  0.00     0.074 A 
ATOM     22  C   UNL A   1      39.968  27.923  27.534  1.00  0.00     0.031 C 
ATOM     23  C   UNL A   1      37.941  32.056  32.668  1.00  0.00     0.029 A 
ATOM     24  C   UNL A   1      39.214  31.373  32.867  1.00  0.00     0.049 A 
ATOM     25  H   UNL A   1      40.271  30.233  31.477  1.00  0.00     0.167 HD
ATOM     26  C   UNL A   1      42.069  27.341  28.716  1.00  0.00     0.034 A 
ATOM     27  C   UNL A   1      39.926  31.387  34.011  1.00  0.00     0.034 A 
ATOM     28  C   UNL A   1      42.993  27.455  29.814  1.00  0.00     0.049 A 
ATOM     29  C   UNL A   1      41.217  30.627  34.078  1.00  0.00     0.074 A 
ATOM     30  C   UNL A   1      44.240  26.870  29.953  1.00  0.00     0.029 A 
ATOM     31  N   UNL A   1      42.763  28.184  30.971  1.00  0.00    -0.354 N 
ATOM     32  N   UNL A   1      41.781  29.883  33.158  1.00  0.00    -0.248 NA
ATOM     33  C   UNL A   1      41.989  30.731  35.324  1.00  0.00     0.031 C 
ATOM     34  C   UNL A   1      44.744  27.211  31.212  1.00  0.00     0.029 A 
ATOM     35  C   UNL A   1      43.834  28.049  31.839  1.00  0.00     0.049 A 
ATOM     36  H   UNL A   1      41.956  28.719  31.150  1.00  0.00     0.167 HD
ATOM     37  C   UNL A   1      42.990  29.460  33.696  1.00  0.00     0.074 A 
ATOM     38  C   UNL A   1      43.079  30.035  35.023  1.00  0.00     0.031 C 
ATOM     39  C   UNL A   1      43.936  28.666  33.138  1.00  0.00     0.034 A 
BRANCH  26  40
ATOM     40  C   UNL A   1      42.419  26.414  27.579  1.00  0.00     0.023 A 
ATOM     41  C   UNL A   1      43.259  26.862  26.538  1.00  0.00     0.012 A 
ATOM     42  C   UNL A   1      41.945  25.089  27.556  1.00  0.00     0.148 A 
ATOM     43  C   UNL A   1      43.578  26.023  25.470  1.00  0.00     0.002 A 
ATOM     44  C   UNL A   1      42.306  24.243  26.514  1.00  0.00     0.091 A 
ATOM     45  F   UNL A   1      41.133  24.681  28.543  1.00  0.00    -0.205 F 
ATOM     46  C   UNL A   1      43.110  24.713  25.463  1.00  0.00     0.022 A 
BRANCH  44  47
ATOM     47  S   UNL A   1      41.819  22.515  26.462  1.00  0.00     0.127 S 
ATOM     48  O   UNL A   1      40.362  22.620  26.417  1.00  0.00    -0.237 OA
ATOM     49  O   UNL A   1      42.434  22.055  25.216  1.00  0.00    -0.237 OA
ATOM     50  O   UNL A   1      42.370  21.909  27.666  1.00  0.00    -0.744 OA
ENDBRANCH  44  47
ENDBRANCH  26  40
BRANCH  27  51
ATOM     51  C   UNL A   1      39.416  32.173  35.168  1.00  0.00     0.023 A 
ATOM     52  C   UNL A   1      38.582  31.553  36.116  1.00  0.00     0.012 A 
ATOM     53  C   UNL A   1      39.834  33.502  35.378  1.00  0.00     0.148 A 
ATOM     54  C   UNL A   1      38.160  32.250  37.249  1.00  0.00     0.002 A 
ATOM     55  C   UNL A   1      39.457  34.170  36.535  1.00  0.00     0.091 A 
ATOM     56  F   UNL A   1      40.628  34.070  34.459  1.00  0.00    -0.205 F 
ATOM     57  C   UNL A   1      38.607  33.551  37.465  1.00  0.00     0.022 A 
BRANCH  55  58
ATOM     58  S   UNL A   1      40.095  35.792  36.970  1.00  0.00     0.127 S 
ATOM     59  O   UNL A   1      39.613  36.609  35.858  1.00  0.00    -0.237 OA
ATOM     60  O   UNL A   1      39.431  36.039  38.250  1.00  0.00    -0.237 OA
ATOM     61  O   UNL A   1      41.540  35.640  37.056  1.00  0.00    -0.744 OA
ENDBRANCH  55  58
ENDBRANCH  27  51
BRANCH  39  62
ATOM     62  C   UNL A   1      45.194  28.408  33.923  1.00  0.00     0.023 A 
ATOM     63  C   UNL A   1      46.276  29.306  33.843  1.00  0.00     0.012 A 
ATOM     64  C   UNL A   1      45.250  27.333  34.832  1.00  0.00     0.148 A 
ATOM     65  C   UNL A   1      47.401  29.127  34.649  1.00  0.00     0.002 A 
ATOM     66  C   UNL A   1      46.350  27.192  35.667  1.00  0.00     0.091 A 
ATOM     67  F   UNL A   1      44.215  26.481  34.875  1.00  0.00    -0.205 F 
ATOM     68  C   UNL A   1      47.432  28.082  35.570  1.00  0.00     0.022 A 
BRANCH  66  69
ATOM     69  S   UNL A   1      46.431  25.940  36.953  1.00  0.00     0.127 S 
ATOM     70  O   UNL A   1      47.796  26.110  37.448  1.00  0.00    -0.237 OA
ATOM     71  O   UNL A   1      45.387  26.381  37.877  1.00  0.00    -0.237 OA
ATOM     72  O   UNL A   1      46.165  24.667  36.297  1.00  0.00    -0.744 OA
ENDBRANCH  66  69
ENDBRANCH  39  62
ENDBRANCH  13  14
ENDBRANCH   6   8
ENDBRANCH   3   4
ENDBRANCH   2   3
ENDBRANCH   1   2
BRANCH   1  73
ATOM     73  C   UNL A   1      31.383  26.242  24.108  1.00  0.00     0.002 C 
BRANCH  73  74
ATOM     74  C   UNL A   1      31.963  26.278  22.686  1.00  0.00     0.021 C 
BRANCH  74  75
ATOM     75  C   UNL A   1      33.321  25.599  22.502  1.00  0.00     0.116 C 
BRANCH  75  76
ATOM     76  N   UNL A   1      34.016  25.393  23.757  1.00  0.00    -0.356 N 
ATOM     77  C   UNL A   1      34.752  24.344  24.207  1.00  0.00     0.223 C 
ATOM     78  H   UNL A   1      33.940  26.141  24.393  1.00  0.00     0.163 HD
ATOM     79  O   UNL A   1      35.283  24.461  25.312  1.00  0.00    -0.275 OA
BRANCH  77  80
ATOM     80  C   UNL A   1      34.993  23.135  23.317  1.00  0.00     0.091 C 
ATOM     81  C   UNL A   1      36.526  22.979  23.212  1.00  0.00     0.014 C 
ATOM     82  C   UNL A   1      34.377  21.813  23.817  1.00  0.00     0.091 C 
ATOM     83  C   UNL A   1      37.157  22.466  24.515  1.00  0.00     0.001 C 
ATOM     84  C   UNL A   1      34.979  21.278  25.116  1.00  0.00     0.014 C 
ATOM     85  C   UNL A   1      36.504  21.178  25.016  1.00  0.00     0.001 C 
BRANCH  82  86
ATOM     86  C   UNL A   1      32.858  21.687  23.634  1.00  0.00     0.228 C 
ATOM     87  O   UNL A   1      32.159  22.706  23.696  1.00  0.00    -0.274 OA
ATOM     88  N   UNL A   1      32.217  20.517  23.340  1.00  0.00    -0.323 N 
ATOM     89  H   UNL A   1      31.420  20.580  22.766  1.00  0.00     0.170 HD
BRANCH  88  90
ATOM     90  C   UNL A   1      32.581  19.239  23.777  1.00  0.00     0.077 A 
ATOM     91  C   UNL A   1      32.887  18.250  22.847  1.00  0.00     0.031 A 
ATOM     92  C   UNL A   1      32.549  18.921  25.136  1.00  0.00     0.148 A 
ATOM     93  C   UNL A   1      33.304  16.993  23.296  1.00  0.00     0.023 A 
ATOM     94  C   UNL A   1      32.976  17.680  25.595  1.00  0.00     0.062 A 
ATOM     95  F   UNL A   1      32.148  19.847  26.018  1.00  0.00    -0.205 F 
ATOM     96  C   UNL A   1      33.384  16.729  24.667  1.00  0.00     0.044 A 
ATOM     97  Cl  UNL A   1      34.000  15.215  25.207  1.00  0.00    -0.084 Cl
ENDBRANCH  88  90
ENDBRANCH  82  86
ENDBRANCH  77  80
ENDBRANCH  75  76
ENDBRANCH  74  75
ENDBRANCH  73  74
ENDBRANCH   1  73
TORSDOF 18
ENDMDL
MODEL 3
REMARK VINA RESULT:     -11.3      6.514     10.144
REMARK SMILES O=C(NCCCCCCNC(=O)[C@H]1CCCC[C@H]1C(=O)Nc1ccc(Cl)cc1F)c1ccc(-c2c3nc(c(-c4cccc(S(=O)(=O)[O-])c4F)c4ccc([nH]4)c(-c4cccc(S(=O)(=O)[O-])c4F)c4nc(c(-c5cccc(S(=O)(=O)[O-])c5F)c5ccc2[nH]5)C=C4)C=C3)cc1
REMARK SMILES IDX 6 1 5 2 4 3 3 4 1 5 2 6 30 8 31 9 92 10 32 11 91 12 33 13
REMARK SMILES IDX 34 14 35 15 85 16 36 17 90 18 84 19 86 20 37 21 89 22 83 23
REMARK SMILES IDX 82 24 38 26 70 27 50 28 69 29 51 30 54 31 68 32 87 33 52 34
REMARK SMILES IDX 53 35 67 37 88 38 55 39 39 40 40 41 48 42 41 43 43 44 49 45
REMARK SMILES IDX 42 46 44 47 45 48 46 49 47 50 71 51 72 52 80 53 73 54 75 55
REMARK SMILES IDX 81 56 74 57 76 58 77 59 78 60 79 61 56 62 57 63 65 64 58 65
REMARK SMILES IDX 60 66 66 67 59 68 61 69 62 70 63 71 64 72 7 73 8 74 9 75
REMARK SMILES IDX 10 76 11 77 12 79 13 80 14 81 18 82 15 83 17 84 16 85 19 86
REMARK SMILES IDX 20 87 21 88 22 90 23 91 28 92 24 93 27 94 29 95 25 96 26 97
REMARK H PARENT 3 7 86 25 54 36 10 78 21 89
REMARK Flexibility Score: inf
ROOT
ATOM      1  C   UNL A   1      35.065  31.881  27.888  1.00  0.00     0.002 C 
ENDROOT
BRANCH   1   2
ATOM      2  C   UNL A   1      33.659  32.475  27.870  1.00  0.00     0.021 C 
BRANCH   2   3
ATOM      3  C   UNL A   1      33.597  33.943  27.474  1.00  0.00     0.116 C 
BRANCH   3   4
ATOM      4  N   UNL A   1      32.902  34.747  28.465  1.00  0.00    -0.352 N 
ATOM      5  O   UNL A   1      32.328  35.426  30.533  1.00  0.00    -0.269 OA
ATOM      6  C   UNL A   1      33.147  34.867  29.812  1.00  0.00     0.251 C 
ATOM      7  H   UNL A   1      32.150  35.282  28.123  1.00  0.00     0.163 HD
BRANCH   6   8
ATOM      8  C   UNL A   1      34.387  34.297  30.386  1.00  0.00     0.039 A 
ATOM      9  C   UNL A   1      35.643  34.758  29.978  1.00  0.00     0.014 A 
ATOM     10  C   UNL A   1      34.288  33.294  31.352  1.00  0.00     0.014 A 
ATOM     11  C   UNL A   1      36.797  34.129  30.436  1.00  0.00     0.010 A 
ATOM     12  C   UNL A   1      35.449  32.719  31.870  1.00  0.00     0.010 A 
ATOM     13  C   UNL A   1      36.712  33.112  31.396  1.00  0.00    -0.014 A 
BRANCH  13  14
ATOM     14  C   UNL A   1      37.944  32.503  31.956  1.00  0.00     0.031 A 
ATOM     15  C   UNL A   1      38.647  31.388  31.235  1.00  0.00     0.074 A 
ATOM     16  C   UNL A   1      38.386  32.916  33.160  1.00  0.00     0.049 A 
ATOM     17  N   UNL A   1      39.667  30.669  31.626  1.00  0.00    -0.248 NA
ATOM     18  C   UNL A   1      38.130  31.024  29.907  1.00  0.00     0.031 C 
ATOM     19  C   UNL A   1      37.765  33.968  33.966  1.00  0.00     0.029 A 
ATOM     20  N   UNL A   1      39.431  32.475  33.931  1.00  0.00    -0.354 N 
ATOM     21  C   UNL A   1      39.882  29.735  30.621  1.00  0.00     0.074 A 
ATOM     22  C   UNL A   1      38.885  29.979  29.600  1.00  0.00     0.031 C 
ATOM     23  C   UNL A   1      38.425  34.079  35.126  1.00  0.00     0.029 A 
ATOM     24  C   UNL A   1      39.476  33.068  35.170  1.00  0.00     0.049 A 
ATOM     25  H   UNL A   1      40.082  31.802  33.628  1.00  0.00     0.167 HD
ATOM     26  C   UNL A   1      40.828  28.767  30.553  1.00  0.00     0.034 A 
ATOM     27  C   UNL A   1      40.244  32.801  36.245  1.00  0.00     0.034 A 
ATOM     28  C   UNL A   1      41.823  28.543  31.569  1.00  0.00     0.049 A 
ATOM     29  C   UNL A   1      41.282  31.722  36.151  1.00  0.00     0.074 A 
ATOM     30  C   UNL A   1      42.871  27.638  31.562  1.00  0.00     0.029 A 
ATOM     31  N   UNL A   1      41.882  29.212  32.782  1.00  0.00    -0.354 N 
ATOM     32  N   UNL A   1      41.555  30.931  35.143  1.00  0.00    -0.248 NA
ATOM     33  C   UNL A   1      42.139  31.517  37.327  1.00  0.00     0.031 C 
ATOM     34  C   UNL A   1      43.536  27.731  32.788  1.00  0.00     0.029 A 
ATOM     35  C   UNL A   1      42.935  28.729  33.541  1.00  0.00     0.049 A 
ATOM     36  H   UNL A   1      41.265  29.926  33.063  1.00  0.00     0.167 HD
ATOM     37  C   UNL A   1      42.639  30.160  35.545  1.00  0.00     0.074 A 
ATOM     38  C   UNL A   1      42.974  30.583  36.890  1.00  0.00     0.031 C 
ATOM     39  C   UNL A   1      43.292  29.191  34.859  1.00  0.00     0.034 A 
BRANCH  26  40
ATOM     40  C   UNL A   1      40.832  27.875  29.337  1.00  0.00     0.023 A 
ATOM     41  C   UNL A   1      39.973  26.757  29.280  1.00  0.00     0.012 A 
ATOM     42  C   UNL A   1      41.660  28.161  28.235  1.00  0.00     0.148 A 
ATOM     43  C   UNL A   1      39.976  25.913  28.170  1.00  0.00     0.002 A 
ATOM     44  C   UNL A   1      41.623  27.343  27.112  1.00  0.00     0.091 A 
ATOM     45  F   UNL A   1      42.484  29.217  28.310  1.00  0.00    -0.205 F 
ATOM     46  C   UNL A   1      40.794  26.210  27.084  1.00  0.00     0.022 A 
BRANCH  44  47
ATOM     47  S   UNL A   1      42.580  27.695  25.632  1.00  0.00     0.127 S 
ATOM     48  O   UNL A   1      43.932  27.802  26.174  1.00  0.00    -0.237 OA
ATOM     49  O   UNL A   1      42.343  26.501  24.819  1.00  0.00    -0.237 OA
ATOM     50  O   UNL A   1      42.022  28.921  25.080  1.00  0.00    -0.744 OA
ENDBRANCH  44  47
ENDBRANCH  26  40
BRANCH  27  51
ATOM     51  C   UNL A   1      40.050  33.599  37.486  1.00  0.00     0.023 A 
ATOM     52  C   UNL A   1      40.678  34.851  37.613  1.00  0.00     0.012 A 
ATOM     53  C   UNL A   1      39.172  33.160  38.497  1.00  0.00     0.148 A 
ATOM     54  C   UNL A   1      40.445  35.649  38.734  1.00  0.00     0.002 A 
ATOM     55  C   UNL A   1      38.901  33.983  39.582  1.00  0.00     0.091 A 
ATOM     56  F   UNL A   1      38.587  31.962  38.353  1.00  0.00    -0.205 F 
ATOM     57  C   UNL A   1      39.548  35.222  39.709  1.00  0.00     0.022 A 
BRANCH  55  58
ATOM     58  S   UNL A   1      37.656  33.584  40.814  1.00  0.00     0.127 S 
ATOM     59  O   UNL A   1      38.365  32.619  41.652  1.00  0.00    -0.237 OA
ATOM     60  O   UNL A   1      37.426  34.888  41.436  1.00  0.00    -0.237 OA
ATOM     61  O   UNL A   1      36.519  33.057  40.074  1.00  0.00    -0.744 OA
ENDBRANCH  55  58
ENDBRANCH  27  51
BRANCH  39  62
ATOM     62  C   UNL A   1      44.486  28.545  35.512  1.00  0.00     0.023 A 
ATOM     63  C   UNL A   1      45.781  29.039  35.267  1.00  0.00     0.012 A 
ATOM     64  C   UNL A   1      44.301  27.522  36.463  1.00  0.00     0.148 A 
ATOM     65  C   UNL A   1      46.877  28.513  35.951  1.00  0.00     0.002 A 
ATOM     66  C   UNL A   1      45.390  27.039  37.177  1.00  0.00     0.091 A 
ATOM     67  F   UNL A   1      43.060  27.055  36.665  1.00  0.00    -0.205 F 
ATOM     68  C   UNL A   1      46.680  27.526  36.915  1.00  0.00     0.022 A 
BRANCH  66  69
ATOM     69  S   UNL A   1      45.218  25.845  38.508  1.00  0.00     0.127 S 
ATOM     70  O   UNL A   1      46.579  25.797  39.042  1.00  0.00    -0.237 OA
ATOM     71  O   UNL A   1      44.243  26.498  39.382  1.00  0.00    -0.237 OA
ATOM     72  O   UNL A   1      44.751  24.613  37.890  1.00  0.00    -0.744 OA
ENDBRANCH  66  69
ENDBRANCH  39  62
ENDBRANCH  13  14
ENDBRANCH   6   8
ENDBRANCH   3   4
ENDBRANCH   2   3
ENDBRANCH   1   2
BRANCH   1  73
ATOM     73  C   UNL A   1      35.135  30.359  28.029  1.00  0.00     0.002 C 
BRANCH  73  74
ATOM     74  C   UNL A   1      34.012  29.552  27.360  1.00  0.00     0.021 C 
BRANCH  74  75
ATOM     75  C   UNL A   1      34.447  28.602  26.243  1.00  0.00     0.116 C 
BRANCH  75  76
ATOM     76  N   UNL A   1      33.968  29.018  24.940  1.00  0.00    -0.356 N 
ATOM     77  C   UNL A   1      33.219  28.364  24.014  1.00  0.00     0.223 C 
ATOM     78  H   UNL A   1      34.229  29.931  24.682  1.00  0.00     0.163 HD
ATOM     79  O   UNL A   1      32.907  28.988  23.000  1.00  0.00    -0.275 OA
BRANCH  77  80
ATOM     80  C   UNL A   1      32.704  26.960  24.293  1.00  0.00     0.091 C 
ATOM     81  C   UNL A   1      31.559  27.121  25.316  1.00  0.00     0.014 C 
ATOM     82  C   UNL A   1      32.189  26.189  23.062  1.00  0.00     0.091 C 
ATOM     83  C   UNL A   1      30.296  27.736  24.695  1.00  0.00     0.001 C 
ATOM     84  C   UNL A   1      30.936  26.780  22.416  1.00  0.00     0.014 C 
ATOM     85  C   UNL A   1      29.825  26.982  23.451  1.00  0.00     0.001 C 
BRANCH  82  86
ATOM     86  C   UNL A   1      33.277  25.641  22.129  1.00  0.00     0.228 C 
ATOM     87  O   UNL A   1      33.534  26.249  21.082  1.00  0.00    -0.274 OA
ATOM     88  N   UNL A   1      34.040  24.542  22.405  1.00  0.00    -0.323 N 
ATOM     89  H   UNL A   1      34.969  24.553  22.081  1.00  0.00     0.170 HD
BRANCH  88  90
ATOM     90  C   UNL A   1      33.630  23.400  23.104  1.00  0.00     0.077 A 
ATOM     91  C   UNL A   1      32.721  22.521  22.522  1.00  0.00     0.031 A 
ATOM     92  C   UNL A   1      34.053  23.186  24.417  1.00  0.00     0.148 A 
ATOM     93  C   UNL A   1      32.363  21.356  23.206  1.00  0.00     0.023 A 
ATOM     94  C   UNL A   1      33.716  22.023  25.101  1.00  0.00     0.062 A 
ATOM     95  F   UNL A   1      34.842  24.093  25.009  1.00  0.00    -0.205 F 
ATOM     96  C   UNL A   1      32.893  21.095  24.473  1.00  0.00     0.044 A 
ATOM     97  Cl  UNL A   1      32.528  19.608  25.259  1.00  0.00    -0.084 Cl
ENDBRANCH  88  90
ENDBRANCH  82  86
ENDBRANCH  77  80
ENDBRANCH  75  76
ENDBRANCH  74  75
ENDBRANCH  73  74
ENDBRANCH   1  73
TORSDOF 18
ENDMDL
