MODEL 1
REMARK VINA RESULT:     -13.2      0.000      0.000
REMARK SMILES C[C@@H](C(=O)NCCCCCCNC(=O)c1ccc(-c2c3nc(c(-c4cccc(S(=O)(=O)[O-])c4F)c4ccc([nH]4)c(-c4cccc(S(=O)(=O)[O-])c4F)c4nc(c(-c5cccc(S(=O)(=O)[O-])c5F)c5ccc2[nH]5)C=C4)C=C3)cc1)c1ccc2c(c1)[nH]c1ccc(Cl)cc12
REMARK SMILES IDX 9 1 8 2 7 3 6 4 5 5 3 6 4 7 2 9 1 10 78 11 79 12 83 13 80 14
REMARK SMILES IDX 82 15 81 16 84 17 91 18 85 19 90 21 86 22 88 23 87 24 89 25
REMARK SMILES IDX 10 26 11 27 12 28 13 29 14 31 15 32 16 33 77 34 17 35 76 36
REMARK SMILES IDX 18 37 19 38 20 39 70 40 21 41 75 42 69 43 71 44 22 45 74 46
REMARK SMILES IDX 68 47 67 48 23 50 55 51 35 52 54 53 36 54 39 55 53 56 72 57
REMARK SMILES IDX 37 58 38 59 52 61 73 62 40 63 24 64 25 65 33 66 26 67 28 68
REMARK SMILES IDX 34 69 27 70 29 71 30 72 31 73 32 74 56 75 57 76 65 77 58 78
REMARK SMILES IDX 60 79 66 80 59 81 61 82 62 83 63 84 64 85 41 86 42 87 50 88
REMARK SMILES IDX 43 89 45 90 51 91 44 92 46 93 47 94 48 95 49 96
REMARK H PARENT 5 8 84 20 12 30 71 49 39 60
REMARK Flexibility Score: inf
ROOT
ATOM      1  C   UNL A   1      31.372  29.780  25.035  1.00  0.00     0.002 C 
ENDROOT
BRANCH   1   2
ATOM      2  C   UNL A   1      30.373  29.450  23.920  1.00  0.00     0.002 C 
BRANCH   2   3
ATOM      3  C   UNL A   1      30.995  28.913  22.624  1.00  0.00     0.021 C 
BRANCH   3   4
ATOM      4  C   UNL A   1      30.679  27.445  22.339  1.00  0.00     0.116 C 
BRANCH   4   5
ATOM      5  N   UNL A   1      31.794  26.800  21.667  1.00  0.00    -0.356 N 
ATOM      6  C   UNL A   1      32.808  26.042  22.182  1.00  0.00     0.227 C 
ATOM      7  O   UNL A   1      33.727  25.735  21.419  1.00  0.00    -0.274 OA
ATOM      8  H   UNL A   1      31.824  26.929  20.691  1.00  0.00     0.163 HD
BRANCH   6   9
ATOM      9  C   UNL A   1      32.752  25.612  23.654  1.00  0.00     0.105 C 
ATOM     10  C   UNL A   1      33.661  26.483  24.523  1.00  0.00     0.023 C 
BRANCH   9  11
ATOM     11  C   UNL A   1      33.038  24.124  23.843  1.00  0.00    -0.034 A 
ATOM     12  C   UNL A   1      34.090  23.666  24.649  1.00  0.00     0.005 A 
ATOM     13  C   UNL A   1      32.233  23.194  23.163  1.00  0.00     0.031 A 
ATOM     14  C   UNL A   1      34.332  22.295  24.825  1.00  0.00     0.011 A 
ATOM     15  C   UNL A   1      32.522  21.834  23.313  1.00  0.00     0.047 A 
ATOM     16  C   UNL A   1      33.534  21.357  24.142  1.00  0.00     0.007 A 
ATOM     17  N   UNL A   1      31.940  20.745  22.712  1.00  0.00    -0.355 N 
ATOM     18  C   UNL A   1      33.516  19.927  24.054  1.00  0.00     0.009 A 
ATOM     19  C   UNL A   1      32.567  19.582  23.092  1.00  0.00     0.047 A 
ATOM     20  H   UNL A   1      31.176  20.790  22.094  1.00  0.00     0.167 HD
ATOM     21  C   UNL A   1      34.247  18.894  24.679  1.00  0.00     0.031 A 
ATOM     22  C   UNL A   1      32.363  18.270  22.656  1.00  0.00     0.028 A 
ATOM     23  C   UNL A   1      34.029  17.573  24.273  1.00  0.00     0.041 A 
ATOM     24  C   UNL A   1      33.123  17.265  23.262  1.00  0.00     0.022 A 
ATOM     25  Cl  UNL A   1      34.906  16.300  25.036  1.00  0.00    -0.084 Cl
ENDBRANCH   9  11
ENDBRANCH   6   9
ENDBRANCH   4   5
ENDBRANCH   3   4
ENDBRANCH   2   3
ENDBRANCH   1   2
BRANCH   1  26
ATOM     26  C   UNL A   1      31.152  31.126  25.730  1.00  0.00     0.021 C 
BRANCH  26  27
ATOM     27  C   UNL A   1      32.149  31.446  26.842  1.00  0.00     0.116 C 
BRANCH  27  28
ATOM     28  N   UNL A   1      32.192  32.868  27.151  1.00  0.00    -0.352 N 
ATOM     29  C   UNL A   1      33.123  33.580  27.872  1.00  0.00     0.251 C 
ATOM     30  H   UNL A   1      31.446  33.399  26.789  1.00  0.00     0.163 HD
ATOM     31  O   UNL A   1      32.900  34.741  28.186  1.00  0.00    -0.269 OA
BRANCH  29  32
ATOM     32  C   UNL A   1      34.384  32.926  28.290  1.00  0.00     0.039 A 
ATOM     33  C   UNL A   1      35.577  33.651  28.215  1.00  0.00     0.014 A 
ATOM     34  C   UNL A   1      34.388  31.614  28.768  1.00  0.00     0.014 A 
ATOM     35  C   UNL A   1      36.760  33.089  28.704  1.00  0.00     0.010 A 
ATOM     36  C   UNL A   1      35.554  31.080  29.314  1.00  0.00     0.010 A 
ATOM     37  C   UNL A   1      36.748  31.819  29.304  1.00  0.00    -0.014 A 
BRANCH  37  38
ATOM     38  C   UNL A   1      37.948  31.283  29.999  1.00  0.00     0.031 A 
ATOM     39  C   UNL A   1      38.812  30.237  29.351  1.00  0.00     0.074 A 
ATOM     40  C   UNL A   1      38.189  31.659  31.273  1.00  0.00     0.049 A 
ATOM     41  N   UNL A   1      39.840  29.598  29.847  1.00  0.00    -0.248 NA
ATOM     42  C   UNL A   1      38.466  29.838  27.976  1.00  0.00     0.031 C 
ATOM     43  C   UNL A   1      37.377  32.605  32.043  1.00  0.00     0.029 A 
ATOM     44  N   UNL A   1      39.160  31.261  32.161  1.00  0.00    -0.354 N 
ATOM     45  C   UNL A   1      40.237  28.695  28.869  1.00  0.00     0.074 A 
ATOM     46  C   UNL A   1      39.335  28.861  27.749  1.00  0.00     0.031 C 
ATOM     47  C   UNL A   1      37.870  32.700  33.288  1.00  0.00     0.029 A 
ATOM     48  C   UNL A   1      39.007  31.796  33.420  1.00  0.00     0.049 A 
ATOM     49  H   UNL A   1      39.895  30.652  31.920  1.00  0.00     0.167 HD
ATOM     50  C   UNL A   1      41.268  27.817  28.897  1.00  0.00     0.034 A 
ATOM     51  C   UNL A   1      39.682  31.562  34.564  1.00  0.00     0.034 A 
ATOM     52  C   UNL A   1      42.190  27.686  29.993  1.00  0.00     0.049 A 
ATOM     53  C   UNL A   1      40.837  30.598  34.551  1.00  0.00     0.074 A 
ATOM     54  C   UNL A   1      43.341  26.920  30.056  1.00  0.00     0.029 A 
ATOM     55  N   UNL A   1      42.055  28.306  31.223  1.00  0.00    -0.354 N 
ATOM     56  N   UNL A   1      41.324  29.909  33.549  1.00  0.00    -0.248 NA
ATOM     57  C   UNL A   1      41.555  30.398  35.819  1.00  0.00     0.031 C 
ATOM     58  C   UNL A   1      43.876  27.039  31.340  1.00  0.00     0.029 A 
ATOM     59  C   UNL A   1      43.079  27.909  32.066  1.00  0.00     0.049 A 
ATOM     60  H   UNL A   1      41.338  28.936  31.464  1.00  0.00     0.167 HD
ATOM     61  C   UNL A   1      42.414  29.213  34.059  1.00  0.00     0.074 A 
ATOM     62  C   UNL A   1      42.539  29.590  35.451  1.00  0.00     0.031 C 
ATOM     63  C   UNL A   1      43.224  28.323  33.437  1.00  0.00     0.034 A 
BRANCH  50  64
ATOM     64  C   UNL A   1      41.495  26.939  27.696  1.00  0.00     0.023 A 
ATOM     65  C   UNL A   1      42.201  27.440  26.585  1.00  0.00     0.012 A 
ATOM     66  C   UNL A   1      41.119  25.581  27.724  1.00  0.00     0.148 A 
ATOM     67  C   UNL A   1      42.519  26.606  25.514  1.00  0.00     0.002 A 
ATOM     68  C   UNL A   1      41.476  24.746  26.673  1.00  0.00     0.091 A 
ATOM     69  F   UNL A   1      40.433  25.130  28.784  1.00  0.00    -0.205 F 
ATOM     70  C   UNL A   1      42.170  25.259  25.564  1.00  0.00     0.022 A 
BRANCH  68  71
ATOM     71  S   UNL A   1      41.148  22.980  26.678  1.00  0.00     0.127 S 
ATOM     72  O   UNL A   1      39.700  22.949  26.471  1.00  0.00    -0.237 OA
ATOM     73  O   UNL A   1      41.937  22.520  25.535  1.00  0.00    -0.237 OA
ATOM     74  O   UNL A   1      41.599  22.488  27.972  1.00  0.00    -0.744 OA
ENDBRANCH  68  71
ENDBRANCH  50  64
BRANCH  51  75
ATOM     75  C   UNL A   1      39.290  32.257  35.824  1.00  0.00     0.023 A 
ATOM     76  C   UNL A   1      39.755  33.562  36.077  1.00  0.00     0.012 A 
ATOM     77  C   UNL A   1      38.463  31.629  36.777  1.00  0.00     0.148 A 
ATOM     78  C   UNL A   1      39.445  34.209  37.274  1.00  0.00     0.002 A 
ATOM     79  C   UNL A   1      38.106  32.303  37.938  1.00  0.00     0.091 A 
ATOM     80  F   UNL A   1      38.042  30.380  36.529  1.00  0.00    -0.205 F 
ATOM     81  C   UNL A   1      38.613  33.584  38.200  1.00  0.00     0.022 A 
BRANCH  79  82
ATOM     82  S   UNL A   1      36.928  31.624  39.111  1.00  0.00     0.127 S 
ATOM     83  O   UNL A   1      37.706  31.615  40.348  1.00  0.00    -0.237 OA
ATOM     84  O   UNL A   1      35.849  32.612  39.069  1.00  0.00    -0.237 OA
ATOM     85  O   UNL A   1      36.558  30.317  38.582  1.00  0.00    -0.744 OA
ENDBRANCH  79  82
ENDBRANCH  51  75
BRANCH  63  86
ATOM     86  C   UNL A   1      44.333  27.698  34.242  1.00  0.00     0.023 A 
ATOM     87  C   UNL A   1      45.573  28.360  34.350  1.00  0.00     0.012 A 
ATOM     88  C   UNL A   1      44.121  26.505  34.959  1.00  0.00     0.148 A 
ATOM     89  C   UNL A   1      46.593  27.828  35.136  1.00  0.00     0.002 A 
ATOM     90  C   UNL A   1      45.125  26.007  35.780  1.00  0.00     0.091 A 
ATOM     91  F   UNL A   1      42.939  25.884  34.832  1.00  0.00    -0.205 F 
ATOM     92  C   UNL A   1      46.366  26.661  35.860  1.00  0.00     0.022 A 
BRANCH  90  93
ATOM     93  S   UNL A   1      44.897  24.564  36.824  1.00  0.00     0.127 S 
ATOM     94  O   UNL A   1      46.243  24.366  37.358  1.00  0.00    -0.237 OA
ATOM     95  O   UNL A   1      43.918  25.040  37.800  1.00  0.00    -0.237 OA
ATOM     96  O   UNL A   1      44.417  23.503  35.949  1.00  0.00    -0.744 OA
ENDBRANCH  90  93
ENDBRANCH  63  86
ENDBRANCH  37  38
ENDBRANCH  29  32
ENDBRANCH  27  28
ENDBRANCH  26  27
ENDBRANCH   1  26
TORSDOF 17
ENDMDL
MODEL 2
REMARK VINA RESULT:     -13.2      1.330      1.565
REMARK SMILES C[C@@H](C(=O)NCCCCCCNC(=O)c1ccc(-c2c3nc(c(-c4cccc(S(=O)(=O)[O-])c4F)c4ccc([nH]4)c(-c4cccc(S(=O)(=O)[O-])c4F)c4nc(c(-c5cccc(S(=O)(=O)[O-])c5F)c5ccc2[nH]5)C=C4)C=C3)cc1)c1ccc2c(c1)[nH]c1ccc(Cl)cc12
REMARK SMILES IDX 9 1 8 2 7 3 6 4 5 5 3 6 4 7 2 9 1 10 78 11 79 12 83 13 80 14
REMARK SMILES IDX 82 15 81 16 84 17 91 18 85 19 90 21 86 22 88 23 87 24 89 25
REMARK SMILES IDX 10 26 11 27 12 28 13 29 14 31 15 32 16 33 77 34 17 35 76 36
REMARK SMILES IDX 18 37 19 38 20 39 70 40 21 41 75 42 69 43 71 44 22 45 74 46
REMARK SMILES IDX 68 47 67 48 23 50 55 51 35 52 54 53 36 54 39 55 53 56 72 57
REMARK SMILES IDX 37 58 38 59 52 61 73 62 40 63 24 64 25 65 33 66 26 67 28 68
REMARK SMILES IDX 34 69 27 70 29 71 30 72 31 73 32 74 56 75 57 76 65 77 58 78
REMARK SMILES IDX 60 79 66 80 59 81 61 82 62 83 63 84 64 85 41 86 42 87 50 88
REMARK SMILES IDX 43 89 45 90 51 91 44 92 46 93 47 94 48 95 49 96
REMARK H PARENT 5 8 84 20 12 30 71 49 39 60
REMARK Flexibility Score: inf
ROOT
ATOM      1  C   UNL A   1      31.218  28.947  24.871  1.00  0.00     0.002 C 
ENDROOT
BRANCH   1   2
ATOM      2  C   UNL A   1      30.328  29.471  23.738  1.00  0.00     0.002 C 
BRANCH   2   3
ATOM      3  C   UNL A   1      30.563  28.818  22.369  1.00  0.00     0.021 C 
BRANCH   3   4
ATOM      4  C   UNL A   1      30.526  27.290  22.389  1.00  0.00     0.116 C 
BRANCH   4   5
ATOM      5  N   UNL A   1      31.648  26.738  21.649  1.00  0.00    -0.356 N 
ATOM      6  C   UNL A   1      32.764  26.092  22.103  1.00  0.00     0.227 C 
ATOM      7  O   UNL A   1      33.652  25.856  21.281  1.00  0.00    -0.274 OA
ATOM      8  H   UNL A   1      31.597  26.846  20.671  1.00  0.00     0.163 HD
BRANCH   6   9
ATOM      9  C   UNL A   1      32.854  25.695  23.582  1.00  0.00     0.105 C 
ATOM     10  C   UNL A   1      33.885  26.546  24.325  1.00  0.00     0.023 C 
BRANCH   9  11
ATOM     11  C   UNL A   1      33.103  24.201  23.775  1.00  0.00    -0.034 A 
ATOM     12  C   UNL A   1      34.140  23.719  24.587  1.00  0.00     0.005 A 
ATOM     13  C   UNL A   1      32.278  23.290  23.094  1.00  0.00     0.031 A 
ATOM     14  C   UNL A   1      34.347  22.343  24.767  1.00  0.00     0.011 A 
ATOM     15  C   UNL A   1      32.533  21.923  23.247  1.00  0.00     0.047 A 
ATOM     16  C   UNL A   1      33.529  21.423  24.081  1.00  0.00     0.007 A 
ATOM     17  N   UNL A   1      31.927  20.847  22.646  1.00  0.00    -0.355 N 
ATOM     18  C   UNL A   1      33.477  19.994  23.997  1.00  0.00     0.009 A 
ATOM     19  C   UNL A   1      32.523  19.671  23.031  1.00  0.00     0.047 A 
ATOM     20  H   UNL A   1      31.167  20.910  22.024  1.00  0.00     0.167 HD
ATOM     21  C   UNL A   1      34.179  18.945  24.626  1.00  0.00     0.031 A 
ATOM     22  C   UNL A   1      32.289  18.363  22.597  1.00  0.00     0.028 A 
ATOM     23  C   UNL A   1      33.931  17.629  24.223  1.00  0.00     0.041 A 
ATOM     24  C   UNL A   1      33.023  17.341  23.207  1.00  0.00     0.022 A 
ATOM     25  Cl  UNL A   1      34.774  16.336  24.992  1.00  0.00    -0.084 Cl
ENDBRANCH   9  11
ENDBRANCH   6   9
ENDBRANCH   4   5
ENDBRANCH   3   4
ENDBRANCH   2   3
ENDBRANCH   1   2
BRANCH   1  26
ATOM     26  C   UNL A   1      32.257  29.941  25.397  1.00  0.00     0.021 C 
BRANCH  26  27
ATOM     27  C   UNL A   1      32.019  30.424  26.826  1.00  0.00     0.116 C 
BRANCH  27  28
ATOM     28  N   UNL A   1      32.001  31.877  26.920  1.00  0.00    -0.352 N 
ATOM     29  C   UNL A   1      32.928  32.731  27.473  1.00  0.00     0.251 C 
ATOM     30  H   UNL A   1      31.209  32.313  26.530  1.00  0.00     0.163 HD
ATOM     31  O   UNL A   1      32.658  33.914  27.626  1.00  0.00    -0.269 OA
BRANCH  29  32
ATOM     32  C   UNL A   1      34.243  32.206  27.906  1.00  0.00     0.039 A 
ATOM     33  C   UNL A   1      35.324  33.087  28.000  1.00  0.00     0.014 A 
ATOM     34  C   UNL A   1      34.405  30.857  28.233  1.00  0.00     0.014 A 
ATOM     35  C   UNL A   1      36.544  32.633  28.508  1.00  0.00     0.010 A 
ATOM     36  C   UNL A   1      35.602  30.423  28.799  1.00  0.00     0.010 A 
ATOM     37  C   UNL A   1      36.677  31.309  28.960  1.00  0.00    -0.014 A 
BRANCH  37  38
ATOM     38  C   UNL A   1      37.900  30.859  29.677  1.00  0.00     0.031 A 
ATOM     39  C   UNL A   1      38.818  29.836  29.067  1.00  0.00     0.074 A 
ATOM     40  C   UNL A   1      38.115  31.290  30.938  1.00  0.00     0.049 A 
ATOM     41  N   UNL A   1      39.874  29.267  29.588  1.00  0.00    -0.248 NA
ATOM     42  C   UNL A   1      38.500  29.374  27.705  1.00  0.00     0.031 C 
ATOM     43  C   UNL A   1      37.252  32.218  31.672  1.00  0.00     0.029 A 
ATOM     44  N   UNL A   1      39.100  30.971  31.842  1.00  0.00    -0.354 N 
ATOM     45  C   UNL A   1      40.321  28.353  28.642  1.00  0.00     0.074 A 
ATOM     46  C   UNL A   1      39.418  28.435  27.514  1.00  0.00     0.031 C 
ATOM     47  C   UNL A   1      37.734  32.380  32.915  1.00  0.00     0.029 A 
ATOM     48  C   UNL A   1      38.914  31.539  33.082  1.00  0.00     0.049 A 
ATOM     49  H   UNL A   1      39.866  30.392  31.624  1.00  0.00     0.167 HD
ATOM     50  C   UNL A   1      41.395  27.530  28.704  1.00  0.00     0.034 A 
ATOM     51  C   UNL A   1      39.595  31.379  34.235  1.00  0.00     0.034 A 
ATOM     52  C   UNL A   1      42.317  27.482  29.806  1.00  0.00     0.049 A 
ATOM     53  C   UNL A   1      40.796  30.475  34.259  1.00  0.00     0.074 A 
ATOM     54  C   UNL A   1      43.505  26.778  29.899  1.00  0.00     0.029 A 
ATOM     55  N   UNL A   1      42.145  28.136  31.014  1.00  0.00    -0.354 N 
ATOM     56  N   UNL A   1      41.322  29.778  33.282  1.00  0.00    -0.248 NA
ATOM     57  C   UNL A   1      41.517  30.354  35.535  1.00  0.00     0.031 C 
ATOM     58  C   UNL A   1      44.027  26.967  31.180  1.00  0.00     0.029 A 
ATOM     59  C   UNL A   1      43.184  27.819  31.873  1.00  0.00     0.049 A 
ATOM     60  H   UNL A   1      41.395  28.737  31.231  1.00  0.00     0.167 HD
ATOM     61  C   UNL A   1      42.444  29.155  33.819  1.00  0.00     0.074 A 
ATOM     62  C   UNL A   1      42.542  29.584  35.198  1.00  0.00     0.031 C 
ATOM     63  C   UNL A   1      43.300  28.286  33.230  1.00  0.00     0.034 A 
BRANCH  50  64
ATOM     64  C   UNL A   1      41.672  26.624  27.534  1.00  0.00     0.023 A 
ATOM     65  C   UNL A   1      42.375  27.117  26.417  1.00  0.00     0.012 A 
ATOM     66  C   UNL A   1      41.346  25.254  27.599  1.00  0.00     0.148 A 
ATOM     67  C   UNL A   1      42.739  26.264  25.377  1.00  0.00     0.002 A 
ATOM     68  C   UNL A   1      41.750  24.402  26.580  1.00  0.00     0.091 A 
ATOM     69  F   UNL A   1      40.663  24.811  28.664  1.00  0.00    -0.205 F 
ATOM     70  C   UNL A   1      42.440  24.906  25.464  1.00  0.00     0.022 A 
BRANCH  68  71
ATOM     71  S   UNL A   1      41.488  22.626  26.635  1.00  0.00     0.127 S 
ATOM     72  O   UNL A   1      40.028  22.544  26.658  1.00  0.00    -0.237 OA
ATOM     73  O   UNL A   1      42.103  22.187  25.382  1.00  0.00    -0.237 OA
ATOM     74  O   UNL A   1      42.154  22.156  27.842  1.00  0.00    -0.744 OA
ENDBRANCH  68  71
ENDBRANCH  50  64
BRANCH  51  75
ATOM     75  C   UNL A   1      39.161  32.095  35.470  1.00  0.00     0.023 A 
ATOM     76  C   UNL A   1      38.245  31.484  36.347  1.00  0.00     0.012 A 
ATOM     77  C   UNL A   1      39.646  33.383  35.775  1.00  0.00     0.148 A 
ATOM     78  C   UNL A   1      37.784  32.158  37.479  1.00  0.00     0.002 A 
ATOM     79  C   UNL A   1      39.232  34.023  36.936  1.00  0.00     0.091 A 
ATOM     80  F   UNL A   1      40.505  33.958  34.921  1.00  0.00    -0.205 F 
ATOM     81  C   UNL A   1      38.284  33.423  37.778  1.00  0.00     0.022 A 
BRANCH  79  82
ATOM     82  S   UNL A   1      39.934  35.589  37.464  1.00  0.00     0.127 S 
ATOM     83  O   UNL A   1      41.341  35.241  37.646  1.00  0.00    -0.237 OA
ATOM     84  O   UNL A   1      39.656  36.453  36.316  1.00  0.00    -0.237 OA
ATOM     85  O   UNL A   1      39.208  35.956  38.674  1.00  0.00    -0.744 OA
ENDBRANCH  79  82
ENDBRANCH  51  75
BRANCH  63  86
ATOM     86  C   UNL A   1      44.436  27.746  34.060  1.00  0.00     0.023 A 
ATOM     87  C   UNL A   1      45.631  28.485  34.169  1.00  0.00     0.012 A 
ATOM     88  C   UNL A   1      44.289  26.554  34.796  1.00  0.00     0.148 A 
ATOM     89  C   UNL A   1      46.672  28.031  34.977  1.00  0.00     0.002 A 
ATOM     90  C   UNL A   1      45.311  26.134  35.638  1.00  0.00     0.091 A 
ATOM     91  F   UNL A   1      43.148  25.860  34.666  1.00  0.00    -0.205 F 
ATOM     92  C   UNL A   1      46.508  26.865  35.720  1.00  0.00     0.022 A 
BRANCH  90  93
ATOM     93  S   UNL A   1      45.159  24.698  36.706  1.00  0.00     0.127 S 
ATOM     94  O   UNL A   1      43.876  24.948  37.360  1.00  0.00    -0.237 OA
ATOM     95  O   UNL A   1      45.149  23.598  35.743  1.00  0.00    -0.237 OA
ATOM     96  O   UNL A   1      46.318  24.725  37.587  1.00  0.00    -0.744 OA
ENDBRANCH  90  93
ENDBRANCH  63  86
ENDBRANCH  37  38
ENDBRANCH  29  32
ENDBRANCH  27  28
ENDBRANCH  26  27
ENDBRANCH   1  26
TORSDOF 17
ENDMDL
MODEL 3
REMARK VINA RESULT:     -13.0      5.588     11.068
REMARK SMILES C[C@@H](C(=O)NCCCCCCNC(=O)c1ccc(-c2c3nc(c(-c4cccc(S(=O)(=O)[O-])c4F)c4ccc([nH]4)c(-c4cccc(S(=O)(=O)[O-])c4F)c4nc(c(-c5cccc(S(=O)(=O)[O-])c5F)c5ccc2[nH]5)C=C4)C=C3)cc1)c1ccc2c(c1)[nH]c1ccc(Cl)cc12
REMARK SMILES IDX 9 1 8 2 7 3 6 4 5 5 3 6 4 7 2 9 1 10 78 11 79 12 83 13 80 14
REMARK SMILES IDX 82 15 81 16 84 17 91 18 85 19 90 21 86 22 88 23 87 24 89 25
REMARK SMILES IDX 10 26 11 27 12 28 13 29 14 31 15 32 16 33 77 34 17 35 76 36
REMARK SMILES IDX 18 37 19 38 20 39 70 40 21 41 75 42 69 43 71 44 22 45 74 46
REMARK SMILES IDX 68 47 67 48 23 50 55 51 35 52 54 53 36 54 39 55 53 56 72 57
REMARK SMILES IDX 37 58 38 59 52 61 73 62 40 63 24 64 25 65 33 66 26 67 28 68
REMARK SMILES IDX 34 69 27 70 29 71 30 72 31 73 32 74 56 75 57 76 65 77 58 78
REMARK SMILES IDX 60 79 66 80 59 81 61 82 62 83 63 84 64 85 41 86 42 87 50 88
REMARK SMILES IDX 43 89 45 90 51 91 44 92 46 93 47 94 48 95 49 96
REMARK H PARENT 5 8 84 20 12 30 71 49 39 60
REMARK Flexibility Score: inf
ROOT
ATOM      1  C   UNL A   1      35.287  21.056  24.902  1.00  0.00     0.002 C 
ENDROOT
BRANCH   1   2
ATOM      2  C   UNL A   1      34.234  20.808  25.988  1.00  0.00     0.002 C 
BRANCH   2   3
ATOM      3  C   UNL A   1      32.931  20.161  25.498  1.00  0.00     0.021 C 
BRANCH   3   4
ATOM      4  C   UNL A   1      31.917  21.151  24.925  1.00  0.00     0.116 C 
BRANCH   4   5
ATOM      5  N   UNL A   1      31.331  21.958  25.982  1.00  0.00    -0.356 N 
ATOM      6  C   UNL A   1      31.619  23.236  26.369  1.00  0.00     0.227 C 
ATOM      7  O   UNL A   1      31.086  23.646  27.403  1.00  0.00    -0.274 OA
ATOM      8  H   UNL A   1      30.618  21.516  26.498  1.00  0.00     0.163 HD
BRANCH   6   9
ATOM      9  C   UNL A   1      32.568  24.086  25.514  1.00  0.00     0.105 C 
ATOM     10  C   UNL A   1      33.892  24.340  26.236  1.00  0.00     0.023 C 
BRANCH   9  11
ATOM     11  C   UNL A   1      31.923  25.385  25.035  1.00  0.00    -0.034 A 
ATOM     12  C   UNL A   1      32.585  26.618  25.117  1.00  0.00     0.005 A 
ATOM     13  C   UNL A   1      30.616  25.336  24.521  1.00  0.00     0.031 A 
ATOM     14  C   UNL A   1      31.986  27.802  24.660  1.00  0.00     0.011 A 
ATOM     15  C   UNL A   1      30.018  26.533  24.116  1.00  0.00     0.047 A 
ATOM     16  C   UNL A   1      30.673  27.761  24.150  1.00  0.00     0.007 A 
ATOM     17  N   UNL A   1      28.747  26.763  23.651  1.00  0.00    -0.355 N 
ATOM     18  C   UNL A   1      29.761  28.743  23.644  1.00  0.00     0.009 A 
ATOM     19  C   UNL A   1      28.542  28.102  23.421  1.00  0.00     0.047 A 
ATOM     20  H   UNL A   1      28.072  26.062  23.501  1.00  0.00     0.167 HD
ATOM     21  C   UNL A   1      29.848  30.129  23.391  1.00  0.00     0.031 A 
ATOM     22  C   UNL A   1      27.381  28.780  23.038  1.00  0.00     0.028 A 
ATOM     23  C   UNL A   1      28.701  30.813  22.977  1.00  0.00     0.041 A 
ATOM     24  C   UNL A   1      27.481  30.158  22.828  1.00  0.00     0.022 A 
ATOM     25  Cl  UNL A   1      28.796  32.503  22.652  1.00  0.00    -0.084 Cl
ENDBRANCH   9  11
ENDBRANCH   6   9
ENDBRANCH   4   5
ENDBRANCH   3   4
ENDBRANCH   2   3
ENDBRANCH   1   2
BRANCH   1  26
ATOM     26  C   UNL A   1      36.506  20.131  24.953  1.00  0.00     0.021 C 
BRANCH  26  27
ATOM     27  C   UNL A   1      37.840  20.837  25.185  1.00  0.00     0.116 C 
BRANCH  27  28
ATOM     28  N   UNL A   1      38.908  19.904  25.513  1.00  0.00    -0.352 N 
ATOM     29  C   UNL A   1      40.142  20.145  26.071  1.00  0.00     0.251 C 
ATOM     30  H   UNL A   1      38.719  18.959  25.305  1.00  0.00     0.163 HD
ATOM     31  O   UNL A   1      40.985  19.259  26.104  1.00  0.00    -0.269 OA
BRANCH  29  32
ATOM     32  C   UNL A   1      40.455  21.490  26.606  1.00  0.00     0.039 A 
ATOM     33  C   UNL A   1      41.215  21.591  27.775  1.00  0.00     0.014 A 
ATOM     34  C   UNL A   1      40.016  22.643  25.951  1.00  0.00     0.014 A 
ATOM     35  C   UNL A   1      41.610  22.850  28.236  1.00  0.00     0.010 A 
ATOM     36  C   UNL A   1      40.465  23.892  26.376  1.00  0.00     0.010 A 
ATOM     37  C   UNL A   1      41.281  24.008  27.511  1.00  0.00    -0.014 A 
BRANCH  37  38
ATOM     38  C   UNL A   1      41.849  25.333  27.876  1.00  0.00     0.031 A 
ATOM     39  C   UNL A   1      41.002  26.375  28.552  1.00  0.00     0.074 A 
ATOM     40  C   UNL A   1      43.105  25.637  27.484  1.00  0.00     0.049 A 
ATOM     41  N   UNL A   1      41.308  27.608  28.860  1.00  0.00    -0.248 NA
ATOM     42  C   UNL A   1      39.626  25.993  28.911  1.00  0.00     0.031 C 
ATOM     43  C   UNL A   1      44.000  24.741  26.748  1.00  0.00     0.029 A 
ATOM     44  N   UNL A   1      43.831  26.797  27.611  1.00  0.00    -0.354 N 
ATOM     45  C   UNL A   1      40.157  28.163  29.405  1.00  0.00     0.074 A 
ATOM     46  C   UNL A   1      39.140  27.134  29.383  1.00  0.00     0.031 C 
ATOM     47  C   UNL A   1      45.145  25.388  26.474  1.00  0.00     0.029 A 
ATOM     48  C   UNL A   1      45.052  26.754  26.978  1.00  0.00     0.049 A 
ATOM     49  H   UNL A   1      43.510  27.583  28.108  1.00  0.00     0.167 HD
ATOM     50  C   UNL A   1      39.971  29.413  29.894  1.00  0.00     0.034 A 
ATOM     51  C   UNL A   1      45.983  27.713  26.791  1.00  0.00     0.034 A 
ATOM     52  C   UNL A   1      40.996  30.419  29.957  1.00  0.00     0.049 A 
ATOM     53  C   UNL A   1      45.750  29.082  27.369  1.00  0.00     0.074 A 
ATOM     54  C   UNL A   1      40.936  31.666  30.555  1.00  0.00     0.029 A 
ATOM     55  N   UNL A   1      42.251  30.312  29.381  1.00  0.00    -0.354 N 
ATOM     56  N   UNL A   1      44.732  29.520  28.067  1.00  0.00    -0.248 NA
ATOM     57  C   UNL A   1      46.806  30.084  27.157  1.00  0.00     0.031 C 
ATOM     58  C   UNL A   1      42.136  32.332  30.300  1.00  0.00     0.029 A 
ATOM     59  C   UNL A   1      42.959  31.486  29.574  1.00  0.00     0.049 A 
ATOM     60  H   UNL A   1      42.589  29.520  28.904  1.00  0.00     0.167 HD
ATOM     61  C   UNL A   1      45.034  30.837  28.396  1.00  0.00     0.074 A 
ATOM     62  C   UNL A   1      46.345  31.116  27.851  1.00  0.00     0.031 C 
ATOM     63  C   UNL A   1      44.282  31.741  29.068  1.00  0.00     0.034 A 
BRANCH  50  64
ATOM     64  C   UNL A   1      38.616  29.774  30.440  1.00  0.00     0.023 A 
ATOM     65  C   UNL A   1      38.300  29.482  31.781  1.00  0.00     0.012 A 
ATOM     66  C   UNL A   1      37.706  30.515  29.659  1.00  0.00     0.148 A 
ATOM     67  C   UNL A   1      37.094  29.911  32.334  1.00  0.00     0.002 A 
ATOM     68  C   UNL A   1      36.527  30.976  30.229  1.00  0.00     0.091 A 
ATOM     69  F   UNL A   1      38.021  30.768  28.381  1.00  0.00    -0.205 F 
ATOM     70  C   UNL A   1      36.216  30.669  31.565  1.00  0.00     0.022 A 
BRANCH  68  71
ATOM     71  S   UNL A   1      35.368  32.030  29.349  1.00  0.00     0.127 S 
ATOM     72  O   UNL A   1      34.841  31.110  28.341  1.00  0.00    -0.237 OA
ATOM     73  O   UNL A   1      34.418  32.386  30.404  1.00  0.00    -0.237 OA
ATOM     74  O   UNL A   1      36.149  33.142  28.826  1.00  0.00    -0.744 OA
ENDBRANCH  68  71
ENDBRANCH  50  64
BRANCH  51  75
ATOM     75  C   UNL A   1      47.227  27.414  26.025  1.00  0.00     0.023 A 
ATOM     76  C   UNL A   1      48.350  26.890  26.693  1.00  0.00     0.012 A 
ATOM     77  C   UNL A   1      47.306  27.654  24.639  1.00  0.00     0.148 A 
ATOM     78  C   UNL A   1      49.542  26.655  26.006  1.00  0.00     0.002 A 
ATOM     79  C   UNL A   1      48.475  27.359  23.949  1.00  0.00     0.091 A 
ATOM     80  F   UNL A   1      46.233  28.168  24.020  1.00  0.00    -0.205 F 
ATOM     81  C   UNL A   1      49.602  26.880  24.633  1.00  0.00     0.022 A 
BRANCH  79  82
ATOM     82  S   UNL A   1      48.585  27.487  22.161  1.00  0.00     0.127 S 
ATOM     83  O   UNL A   1      49.819  28.251  21.990  1.00  0.00    -0.237 OA
ATOM     84  O   UNL A   1      48.669  26.083  21.757  1.00  0.00    -0.237 OA
ATOM     85  O   UNL A   1      47.360  28.155  21.740  1.00  0.00    -0.744 OA
ENDBRANCH  79  82
ENDBRANCH  51  75
BRANCH  63  86
ATOM     86  C   UNL A   1      44.855  33.119  29.273  1.00  0.00     0.023 A 
ATOM     87  C   UNL A   1      45.637  33.385  30.414  1.00  0.00     0.012 A 
ATOM     88  C   UNL A   1      44.691  34.122  28.297  1.00  0.00     0.148 A 
ATOM     89  C   UNL A   1      46.224  34.637  30.595  1.00  0.00     0.002 A 
ATOM     90  C   UNL A   1      45.320  35.350  28.459  1.00  0.00     0.091 A 
ATOM     91  F   UNL A   1      43.932  33.851  27.225  1.00  0.00    -0.205 F 
ATOM     92  C   UNL A   1      46.076  35.613  29.613  1.00  0.00     0.022 A 
BRANCH  90  93
ATOM     93  S   UNL A   1      45.268  36.638  27.208  1.00  0.00     0.127 S 
ATOM     94  O   UNL A   1      43.831  36.782  26.988  1.00  0.00    -0.237 OA
ATOM     95  O   UNL A   1      45.896  37.764  27.898  1.00  0.00    -0.237 OA
ATOM     96  O   UNL A   1      46.020  36.126  26.069  1.00  0.00    -0.744 OA
ENDBRANCH  90  93
ENDBRANCH  63  86
ENDBRANCH  37  38
ENDBRANCH  29  32
ENDBRANCH  27  28
ENDBRANCH  26  27
ENDBRANCH   1  26
TORSDOF 17
ENDMDL
