MODEL 1
REMARK VINA RESULT:     -11.4      0.000      0.000
REMARK SMILES Nc1ccc2c(c1)C(=O)N(CCC(=O)NCCCCCCNC(=O)c1ccc(-c3c4nc(c(-c5cccc(S(=O)(=O)[O-])c5F)c5ccc([nH]5)c(-c5cccc(S(=O)(=O)[O-])c5F)c5nc(c(-c6cccc(S(=O)(=O)[O-])c6F)c6ccc3[nH]6)C=C5)C=C4)cc1)C2
REMARK SMILES IDX 18 1 17 2 16 3 15 4 13 5 14 6 12 8 11 9 10 10 2 11 3 12 7 13
REMARK SMILES IDX 4 14 6 15 5 16 8 17 88 18 9 19 1 20 19 23 20 24 21 25 22 26
REMARK SMILES IDX 23 27 24 29 25 30 26 31 87 32 27 33 86 34 28 35 29 36 30 37
REMARK SMILES IDX 80 38 31 39 85 40 79 41 81 42 32 43 84 44 78 45 77 46 33 48
REMARK SMILES IDX 65 49 45 50 64 51 46 52 49 53 63 54 82 55 47 56 48 57 62 59
REMARK SMILES IDX 83 60 50 61 34 62 35 63 43 64 36 65 38 66 44 67 37 68 39 69
REMARK SMILES IDX 40 70 41 71 42 72 66 73 67 74 75 75 68 76 70 77 76 78 69 79
REMARK SMILES IDX 71 80 72 81 73 82 74 83 51 84 52 85 60 86 53 87 55 88 61 89
REMARK SMILES IDX 54 90 56 91 57 92 58 93 59 94
REMARK H PARENT 15 7 1 21 1 22 22 28 81 47 49 58
REMARK Flexibility Score: inf
ROOT
ATOM      1  C   UNL A   1      35.136  24.104  25.603  1.00  0.00     0.002 C 
ENDROOT
BRANCH   1   2
ATOM      2  C   UNL A   1      34.361  25.421  25.628  1.00  0.00     0.021 C 
BRANCH   2   3
ATOM      3  C   UNL A   1      33.870  25.955  24.282  1.00  0.00     0.116 C 
BRANCH   3   4
ATOM      4  N   UNL A   1      33.368  27.313  24.428  1.00  0.00    -0.356 N 
ATOM      5  C   UNL A   1      32.266  27.907  23.889  1.00  0.00     0.221 C 
ATOM      6  O   UNL A   1      32.155  29.130  24.005  1.00  0.00    -0.275 OA
ATOM      7  H   UNL A   1      33.911  27.895  25.008  1.00  0.00     0.163 HD
BRANCH   5   8
ATOM      8  C   UNL A   1      31.191  27.097  23.195  1.00  0.00     0.121 C 
BRANCH   8   9
ATOM      9  C   UNL A   1      30.242  26.400  24.173  1.00  0.00     0.130 C 
BRANCH   9  10
ATOM     10  N   UNL A   1      30.555  24.995  24.361  1.00  0.00    -0.334 N 
ATOM     11  C   UNL A   1      32.702  21.109  25.604  1.00  0.00     0.032 A 
ATOM     12  C   UNL A   1      32.766  20.975  24.202  1.00  0.00     0.026 A 
ATOM     13  C   UNL A   1      32.027  22.199  26.157  1.00  0.00     0.039 A 
ATOM     14  C   UNL A   1      32.113  21.870  23.342  1.00  0.00     0.008 A 
ATOM     15  C   UNL A   1      31.431  23.099  25.291  1.00  0.00     0.047 A 
ATOM     16  C   UNL A   1      31.445  22.939  23.906  1.00  0.00    -0.016 A 
ATOM     17  C   UNL A   1      30.850  24.416  25.586  1.00  0.00     0.254 C 
ATOM     18  C   UNL A   1      30.723  24.071  23.257  1.00  0.00     0.156 C 
ATOM     19  O   UNL A   1      30.751  24.916  26.691  1.00  0.00    -0.269 OA
BRANCH  11  20
ATOM     20  N   UNL A   1      33.384  20.223  26.418  1.00  0.00    -0.399 N 
ATOM     21  H   UNL A   1      33.168  19.263  26.391  1.00  0.00     0.156 HD
ATOM     22  H   UNL A   1      34.085  20.552  27.026  1.00  0.00     0.156 HD
ENDBRANCH  11  20
ENDBRANCH   9  10
ENDBRANCH   8   9
ENDBRANCH   5   8
ENDBRANCH   3   4
ENDBRANCH   2   3
ENDBRANCH   1   2
BRANCH   1  23
ATOM     23  C   UNL A   1      35.525  23.593  24.214  1.00  0.00     0.002 C 
BRANCH  23  24
ATOM     24  C   UNL A   1      36.176  22.207  24.161  1.00  0.00     0.021 C 
BRANCH  24  25
ATOM     25  C   UNL A   1      36.564  21.596  25.505  1.00  0.00     0.116 C 
BRANCH  25  26
ATOM     26  N   UNL A   1      37.639  20.620  25.411  1.00  0.00    -0.352 N 
ATOM     27  C   UNL A   1      38.951  20.741  25.814  1.00  0.00     0.251 C 
ATOM     28  H   UNL A   1      37.396  19.757  25.005  1.00  0.00     0.163 HD
ATOM     29  O   UNL A   1      39.757  19.845  25.592  1.00  0.00    -0.269 OA
BRANCH  27  30
ATOM     30  C   UNL A   1      39.382  21.990  26.476  1.00  0.00     0.039 A 
ATOM     31  C   UNL A   1      38.882  23.225  26.054  1.00  0.00     0.014 A 
ATOM     32  C   UNL A   1      40.365  21.925  27.464  1.00  0.00     0.014 A 
ATOM     33  C   UNL A   1      39.492  24.400  26.494  1.00  0.00     0.010 A 
ATOM     34  C   UNL A   1      40.925  23.108  27.952  1.00  0.00     0.010 A 
ATOM     35  C   UNL A   1      40.543  24.352  27.422  1.00  0.00    -0.014 A 
BRANCH  35  36
ATOM     36  C   UNL A   1      41.270  25.587  27.826  1.00  0.00     0.031 A 
ATOM     37  C   UNL A   1      40.571  26.664  28.617  1.00  0.00     0.074 A 
ATOM     38  C   UNL A   1      42.551  25.770  27.455  1.00  0.00     0.049 A 
ATOM     39  N   UNL A   1      41.001  27.855  28.948  1.00  0.00    -0.248 NA
ATOM     40  C   UNL A   1      39.211  26.368  29.098  1.00  0.00     0.031 C 
ATOM     41  C   UNL A   1      43.354  24.815  26.695  1.00  0.00     0.029 A 
ATOM     42  N   UNL A   1      43.391  26.840  27.647  1.00  0.00    -0.354 N 
ATOM     43  C   UNL A   1      39.947  28.476  29.606  1.00  0.00     0.074 A 
ATOM     44  C   UNL A   1      38.861  27.521  29.652  1.00  0.00     0.031 C 
ATOM     45  C   UNL A   1      44.570  25.340  26.480  1.00  0.00     0.029 A 
ATOM     46  C   UNL A   1      44.609  26.691  27.030  1.00  0.00     0.049 A 
ATOM     47  H   UNL A   1      43.144  27.634  28.173  1.00  0.00     0.167 HD
ATOM     48  C   UNL A   1      39.886  29.725  30.125  1.00  0.00     0.034 A 
ATOM     49  C   UNL A   1      45.633  27.554  26.879  1.00  0.00     0.034 A 
ATOM     50  C   UNL A   1      40.977  30.663  30.129  1.00  0.00     0.049 A 
ATOM     51  C   UNL A   1      45.543  28.935  27.452  1.00  0.00     0.074 A 
ATOM     52  C   UNL A   1      41.025  31.918  30.712  1.00  0.00     0.029 A 
ATOM     53  N   UNL A   1      42.199  30.465  29.508  1.00  0.00    -0.354 N 
ATOM     54  N   UNL A   1      44.570  29.473  28.146  1.00  0.00    -0.248 NA
ATOM     55  C   UNL A   1      46.694  29.824  27.236  1.00  0.00     0.031 C 
ATOM     56  C   UNL A   1      42.263  32.493  30.411  1.00  0.00     0.029 A 
ATOM     57  C   UNL A   1      42.998  31.584  29.669  1.00  0.00     0.049 A 
ATOM     58  H   UNL A   1      42.460  29.648  29.024  1.00  0.00     0.167 HD
ATOM     59  C   UNL A   1      44.989  30.762  28.452  1.00  0.00     0.074 A 
ATOM     60  C   UNL A   1      46.317  30.915  27.891  1.00  0.00     0.031 C 
ATOM     61  C   UNL A   1      44.324  31.732  29.127  1.00  0.00     0.034 A 
BRANCH  48  62
ATOM     62  C   UNL A   1      38.589  30.169  30.747  1.00  0.00     0.023 A 
ATOM     63  C   UNL A   1      38.336  29.915  32.108  1.00  0.00     0.012 A 
ATOM     64  C   UNL A   1      37.661  30.918  29.995  1.00  0.00     0.148 A 
ATOM     65  C   UNL A   1      37.171  30.388  32.711  1.00  0.00     0.002 A 
ATOM     66  C   UNL A   1      36.519  31.413  30.610  1.00  0.00     0.091 A 
ATOM     67  F   UNL A   1      37.918  31.133  28.697  1.00  0.00    -0.205 F 
ATOM     68  C   UNL A   1      36.269  31.145  31.965  1.00  0.00     0.022 A 
BRANCH  66  69
ATOM     69  S   UNL A   1      35.320  32.441  29.752  1.00  0.00     0.127 S 
ATOM     70  O   UNL A   1      34.827  31.521  28.728  1.00  0.00    -0.237 OA
ATOM     71  O   UNL A   1      34.361  32.744  30.813  1.00  0.00    -0.237 OA
ATOM     72  O   UNL A   1      36.060  33.589  29.248  1.00  0.00    -0.744 OA
ENDBRANCH  66  69
ENDBRANCH  48  62
BRANCH  49  73
ATOM     73  C   UNL A   1      46.844  27.089  26.151  1.00  0.00     0.023 A 
ATOM     74  C   UNL A   1      46.983  27.403  24.787  1.00  0.00     0.012 A 
ATOM     75  C   UNL A   1      47.904  26.462  26.835  1.00  0.00     0.148 A 
ATOM     76  C   UNL A   1      48.171  27.113  24.116  1.00  0.00     0.002 A 
ATOM     77  C   UNL A   1      49.097  26.212  26.171  1.00  0.00     0.091 A 
ATOM     78  F   UNL A   1      47.740  26.186  28.136  1.00  0.00    -0.205 F 
ATOM     79  C   UNL A   1      49.229  26.531  24.809  1.00  0.00     0.022 A 
BRANCH  77  80
ATOM     80  S   UNL A   1      50.553  25.565  26.999  1.00  0.00     0.127 S 
ATOM     81  O   UNL A   1      50.028  24.352  27.623  1.00  0.00    -0.237 OA
ATOM     82  O   UNL A   1      51.454  25.337  25.870  1.00  0.00    -0.237 OA
ATOM     83  O   UNL A   1      50.979  26.604  27.925  1.00  0.00    -0.744 OA
ENDBRANCH  77  80
ENDBRANCH  49  73
BRANCH  61  84
ATOM     84  C   UNL A   1      45.005  33.064  29.299  1.00  0.00     0.023 A 
ATOM     85  C   UNL A   1      45.800  33.294  30.439  1.00  0.00     0.012 A 
ATOM     86  C   UNL A   1      44.931  34.051  28.296  1.00  0.00     0.148 A 
ATOM     87  C   UNL A   1      46.494  34.494  30.589  1.00  0.00     0.002 A 
ATOM     88  C   UNL A   1      45.653  35.231  28.436  1.00  0.00     0.091 A 
ATOM     89  F   UNL A   1      44.165  33.813  27.222  1.00  0.00    -0.205 F 
ATOM     90  C   UNL A   1      46.430  35.456  29.584  1.00  0.00     0.022 A 
BRANCH  88  91
ATOM     91  S   UNL A   1      45.681  36.505  27.171  1.00  0.00     0.127 S 
ATOM     92  O   UNL A   1      46.070  35.740  25.987  1.00  0.00    -0.237 OA
ATOM     93  O   UNL A   1      44.295  36.971  27.167  1.00  0.00    -0.237 OA
ATOM     94  O   UNL A   1      46.653  37.495  27.615  1.00  0.00    -0.744 OA
ENDBRANCH  88  91
ENDBRANCH  61  84
ENDBRANCH  35  36
ENDBRANCH  27  30
ENDBRANCH  25  26
ENDBRANCH  24  25
ENDBRANCH  23  24
ENDBRANCH   1  23
TORSDOF 19
ENDMDL
MODEL 2
REMARK VINA RESULT:     -10.7      1.079      2.610
REMARK SMILES Nc1ccc2c(c1)C(=O)N(CCC(=O)NCCCCCCNC(=O)c1ccc(-c3c4nc(c(-c5cccc(S(=O)(=O)[O-])c5F)c5ccc([nH]5)c(-c5cccc(S(=O)(=O)[O-])c5F)c5nc(c(-c6cccc(S(=O)(=O)[O-])c6F)c6ccc3[nH]6)C=C5)C=C4)cc1)C2
REMARK SMILES IDX 18 1 17 2 16 3 15 4 13 5 14 6 12 8 11 9 10 10 2 11 3 12 7 13
REMARK SMILES IDX 4 14 6 15 5 16 8 17 88 18 9 19 1 20 19 23 20 24 21 25 22 26
REMARK SMILES IDX 23 27 24 29 25 30 26 31 87 32 27 33 86 34 28 35 29 36 30 37
REMARK SMILES IDX 80 38 31 39 85 40 79 41 81 42 32 43 84 44 78 45 77 46 33 48
REMARK SMILES IDX 65 49 45 50 64 51 46 52 49 53 63 54 82 55 47 56 48 57 62 59
REMARK SMILES IDX 83 60 50 61 34 62 35 63 43 64 36 65 38 66 44 67 37 68 39 69
REMARK SMILES IDX 40 70 41 71 42 72 66 73 67 74 75 75 68 76 70 77 76 78 69 79
REMARK SMILES IDX 71 80 72 81 73 82 74 83 51 84 52 85 60 86 53 87 55 88 61 89
REMARK SMILES IDX 54 90 56 91 57 92 58 93 59 94
REMARK H PARENT 15 7 1 21 1 22 22 28 81 47 49 58
REMARK Flexibility Score: inf
ROOT
ATOM      1  C   UNL A   1      34.909  23.761  23.752  1.00  0.00     0.002 C 
ENDROOT
BRANCH   1   2
ATOM      2  C   UNL A   1      33.890  23.558  22.633  1.00  0.00     0.021 C 
BRANCH   2   3
ATOM      3  C   UNL A   1      32.837  22.471  22.850  1.00  0.00     0.116 C 
BRANCH   3   4
ATOM      4  N   UNL A   1      33.208  21.623  23.973  1.00  0.00    -0.356 N 
ATOM      5  C   UNL A   1      32.571  21.403  25.158  1.00  0.00     0.221 C 
ATOM      6  O   UNL A   1      33.181  20.789  26.037  1.00  0.00    -0.275 OA
ATOM      7  H   UNL A   1      34.053  21.131  23.859  1.00  0.00     0.163 HD
BRANCH   5   8
ATOM      8  C   UNL A   1      31.148  21.867  25.388  1.00  0.00     0.121 C 
BRANCH   8   9
ATOM      9  C   UNL A   1      31.044  22.988  26.425  1.00  0.00     0.130 C 
BRANCH   9  10
ATOM     10  N   UNL A   1      31.533  24.263  25.931  1.00  0.00    -0.334 N 
ATOM     11  C   UNL A   1      33.329  28.506  25.767  1.00  0.00     0.032 A 
ATOM     12  C   UNL A   1      32.025  28.784  25.307  1.00  0.00     0.026 A 
ATOM     13  C   UNL A   1      33.692  27.185  26.035  1.00  0.00     0.039 A 
ATOM     14  C   UNL A   1      31.099  27.764  25.046  1.00  0.00     0.008 A 
ATOM     15  C   UNL A   1      32.747  26.197  25.819  1.00  0.00     0.047 A 
ATOM     16  C   UNL A   1      31.476  26.463  25.311  1.00  0.00    -0.016 A 
ATOM     17  C   UNL A   1      32.789  24.780  26.209  1.00  0.00     0.254 C 
ATOM     18  C   UNL A   1      30.700  25.194  25.196  1.00  0.00     0.156 C 
ATOM     19  O   UNL A   1      33.721  24.223  26.756  1.00  0.00    -0.269 OA
BRANCH  11  20
ATOM     20  N   UNL A   1      34.204  29.541  26.041  1.00  0.00    -0.399 N 
ATOM     21  H   UNL A   1      33.883  30.350  26.500  1.00  0.00     0.156 HD
ATOM     22  H   UNL A   1      35.150  29.469  25.776  1.00  0.00     0.156 HD
ENDBRANCH  11  20
ENDBRANCH   9  10
ENDBRANCH   8   9
ENDBRANCH   5   8
ENDBRANCH   3   4
ENDBRANCH   2   3
ENDBRANCH   1   2
BRANCH   1  23
ATOM     23  C   UNL A   1      36.345  23.348  23.423  1.00  0.00     0.002 C 
BRANCH  23  24
ATOM     24  C   UNL A   1      36.715  21.891  23.717  1.00  0.00     0.021 C 
BRANCH  24  25
ATOM     25  C   UNL A   1      37.019  21.556  25.175  1.00  0.00     0.116 C 
BRANCH  25  26
ATOM     26  N   UNL A   1      38.039  20.532  25.336  1.00  0.00    -0.352 N 
ATOM     27  C   UNL A   1      39.270  20.629  25.948  1.00  0.00     0.251 C 
ATOM     28  H   UNL A   1      37.821  19.650  24.957  1.00  0.00     0.163 HD
ATOM     29  O   UNL A   1      40.051  19.685  25.932  1.00  0.00    -0.269 OA
BRANCH  27  30
ATOM     30  C   UNL A   1      39.652  21.908  26.583  1.00  0.00     0.039 A 
ATOM     31  C   UNL A   1      39.141  23.117  26.106  1.00  0.00     0.014 A 
ATOM     32  C   UNL A   1      40.603  21.895  27.604  1.00  0.00     0.014 A 
ATOM     33  C   UNL A   1      39.711  24.318  26.527  1.00  0.00     0.010 A 
ATOM     34  C   UNL A   1      41.122  23.104  28.072  1.00  0.00     0.010 A 
ATOM     35  C   UNL A   1      40.731  24.323  27.491  1.00  0.00    -0.014 A 
BRANCH  35  36
ATOM     36  C   UNL A   1      41.418  25.586  27.878  1.00  0.00     0.031 A 
ATOM     37  C   UNL A   1      40.669  26.673  28.606  1.00  0.00     0.074 A 
ATOM     38  C   UNL A   1      42.709  25.783  27.548  1.00  0.00     0.049 A 
ATOM     39  N   UNL A   1      41.064  27.883  28.912  1.00  0.00    -0.248 NA
ATOM     40  C   UNL A   1      39.300  26.364  29.048  1.00  0.00     0.031 C 
ATOM     41  C   UNL A   1      43.558  24.820  26.850  1.00  0.00     0.029 A 
ATOM     42  N   UNL A   1      43.520  26.877  27.733  1.00  0.00    -0.354 N 
ATOM     43  C   UNL A   1      39.974  28.504  29.510  1.00  0.00     0.074 A 
ATOM     44  C   UNL A   1      38.906  27.528  29.549  1.00  0.00     0.031 C 
ATOM     45  C   UNL A   1      44.770  25.363  26.661  1.00  0.00     0.029 A 
ATOM     46  C   UNL A   1      44.762  26.733  27.166  1.00  0.00     0.049 A 
ATOM     47  H   UNL A   1      43.237  27.682  28.223  1.00  0.00     0.167 HD
ATOM     48  C   UNL A   1      39.869  29.767  29.984  1.00  0.00     0.034 A 
ATOM     49  C   UNL A   1      45.774  27.611  27.022  1.00  0.00     0.034 A 
ATOM     50  C   UNL A   1      40.941  30.728  29.995  1.00  0.00     0.049 A 
ATOM     51  C   UNL A   1      45.635  29.009  27.545  1.00  0.00     0.074 A 
ATOM     52  C   UNL A   1      40.942  32.002  30.536  1.00  0.00     0.029 A 
ATOM     53  N   UNL A   1      42.189  30.535  29.426  1.00  0.00    -0.354 N 
ATOM     54  N   UNL A   1      44.627  29.549  28.184  1.00  0.00    -0.248 NA
ATOM     55  C   UNL A   1      46.776  29.913  27.340  1.00  0.00     0.031 C 
ATOM     56  C   UNL A   1      42.180  32.593  30.261  1.00  0.00     0.029 A 
ATOM     57  C   UNL A   1      42.959  31.676  29.578  1.00  0.00     0.049 A 
ATOM     58  H   UNL A   1      42.484  29.709  28.980  1.00  0.00     0.167 HD
ATOM     59  C   UNL A   1      45.009  30.856  28.461  1.00  0.00     0.074 A 
ATOM     60  C   UNL A   1      46.353  31.018  27.944  1.00  0.00     0.031 C 
ATOM     61  C   UNL A   1      44.301  31.833  29.078  1.00  0.00     0.034 A 
BRANCH  48  62
ATOM     62  C   UNL A   1      38.542  30.204  30.544  1.00  0.00     0.023 A 
ATOM     63  C   UNL A   1      38.262  30.031  31.912  1.00  0.00     0.012 A 
ATOM     64  C   UNL A   1      37.609  30.870  29.722  1.00  0.00     0.148 A 
ATOM     65  C   UNL A   1      37.065  30.500  32.453  1.00  0.00     0.002 A 
ATOM     66  C   UNL A   1      36.435  31.363  30.274  1.00  0.00     0.091 A 
ATOM     67  F   UNL A   1      37.894  31.009  28.419  1.00  0.00    -0.205 F 
ATOM     68  C   UNL A   1      36.158  31.175  31.638  1.00  0.00     0.022 A 
BRANCH  66  69
ATOM     69  S   UNL A   1      35.226  32.290  29.321  1.00  0.00     0.127 S 
ATOM     70  O   UNL A   1      34.598  31.228  28.536  1.00  0.00    -0.237 OA
ATOM     71  O   UNL A   1      34.379  32.856  30.369  1.00  0.00    -0.237 OA
ATOM     72  O   UNL A   1      35.982  33.266  28.550  1.00  0.00    -0.744 OA
ENDBRANCH  66  69
ENDBRANCH  48  62
BRANCH  49  73
ATOM     73  C   UNL A   1      47.019  27.148  26.355  1.00  0.00     0.023 A 
ATOM     74  C   UNL A   1      47.288  27.572  25.041  1.00  0.00     0.012 A 
ATOM     75  C   UNL A   1      47.987  26.408  27.061  1.00  0.00     0.148 A 
ATOM     76  C   UNL A   1      48.514  27.279  24.443  1.00  0.00     0.002 A 
ATOM     77  C   UNL A   1      49.220  26.153  26.475  1.00  0.00     0.091 A 
ATOM     78  F   UNL A   1      47.702  26.027  28.314  1.00  0.00    -0.205 F 
ATOM     79  C   UNL A   1      49.482  26.583  25.163  1.00  0.00     0.022 A 
BRANCH  77  80
ATOM     80  S   UNL A   1      50.569  25.360  27.355  1.00  0.00     0.127 S 
ATOM     81  O   UNL A   1      51.518  25.100  26.275  1.00  0.00    -0.237 OA
ATOM     82  O   UNL A   1      50.970  26.414  28.287  1.00  0.00    -0.237 OA
ATOM     83  O   UNL A   1      49.997  24.175  27.976  1.00  0.00    -0.744 OA
ENDBRANCH  77  80
ENDBRANCH  49  73
BRANCH  61  84
ATOM     84  C   UNL A   1      44.949  33.184  29.230  1.00  0.00     0.023 A 
ATOM     85  C   UNL A   1      45.790  33.430  30.333  1.00  0.00     0.012 A 
ATOM     86  C   UNL A   1      44.796  34.176  28.240  1.00  0.00     0.148 A 
ATOM     87  C   UNL A   1      46.454  34.650  30.459  1.00  0.00     0.002 A 
ATOM     88  C   UNL A   1      45.488  35.377  28.356  1.00  0.00     0.091 A 
ATOM     89  F   UNL A   1      43.987  33.922  27.202  1.00  0.00    -0.205 F 
ATOM     90  C   UNL A   1      46.312  35.617  29.467  1.00  0.00     0.022 A 
BRANCH  88  91
ATOM     91  S   UNL A   1      45.416  36.660  27.102  1.00  0.00     0.127 S 
ATOM     92  O   UNL A   1      46.101  37.766  27.770  1.00  0.00    -0.237 OA
ATOM     93  O   UNL A   1      46.163  36.059  25.998  1.00  0.00    -0.237 OA
ATOM     94  O   UNL A   1      44.002  36.882  26.829  1.00  0.00    -0.744 OA
ENDBRANCH  88  91
ENDBRANCH  61  84
ENDBRANCH  35  36
ENDBRANCH  27  30
ENDBRANCH  25  26
ENDBRANCH  24  25
ENDBRANCH  23  24
ENDBRANCH   1  23
TORSDOF 19
ENDMDL
MODEL 3
REMARK VINA RESULT:     -10.5      1.525      7.748
REMARK SMILES Nc1ccc2c(c1)C(=O)N(CCC(=O)NCCCCCCNC(=O)c1ccc(-c3c4nc(c(-c5cccc(S(=O)(=O)[O-])c5F)c5ccc([nH]5)c(-c5cccc(S(=O)(=O)[O-])c5F)c5nc(c(-c6cccc(S(=O)(=O)[O-])c6F)c6ccc3[nH]6)C=C5)C=C4)cc1)C2
REMARK SMILES IDX 18 1 17 2 16 3 15 4 13 5 14 6 12 8 11 9 10 10 2 11 3 12 7 13
REMARK SMILES IDX 4 14 6 15 5 16 8 17 88 18 9 19 1 20 19 23 20 24 21 25 22 26
REMARK SMILES IDX 23 27 24 29 25 30 26 31 87 32 27 33 86 34 28 35 29 36 30 37
REMARK SMILES IDX 80 38 31 39 85 40 79 41 81 42 32 43 84 44 78 45 77 46 33 48
REMARK SMILES IDX 65 49 45 50 64 51 46 52 49 53 63 54 82 55 47 56 48 57 62 59
REMARK SMILES IDX 83 60 50 61 34 62 35 63 43 64 36 65 38 66 44 67 37 68 39 69
REMARK SMILES IDX 40 70 41 71 42 72 66 73 67 74 75 75 68 76 70 77 76 78 69 79
REMARK SMILES IDX 71 80 72 81 73 82 74 83 51 84 52 85 60 86 53 87 55 88 61 89
REMARK SMILES IDX 54 90 56 91 57 92 58 93 59 94
REMARK H PARENT 15 7 1 21 1 22 22 28 81 47 49 58
REMARK Flexibility Score: inf
ROOT
ATOM      1  C   UNL A   1      36.023  23.271  25.291  1.00  0.00     0.002 C 
ENDROOT
BRANCH   1   2
ATOM      2  C   UNL A   1      34.689  23.950  25.593  1.00  0.00     0.021 C 
BRANCH   2   3
ATOM      3  C   UNL A   1      34.432  25.294  24.911  1.00  0.00     0.116 C 
BRANCH   3   4
ATOM      4  N   UNL A   1      33.926  26.262  25.873  1.00  0.00    -0.356 N 
ATOM      5  C   UNL A   1      32.892  27.145  25.772  1.00  0.00     0.221 C 
ATOM      6  O   UNL A   1      32.776  28.001  26.652  1.00  0.00    -0.275 OA
ATOM      7  H   UNL A   1      34.406  26.283  26.732  1.00  0.00     0.163 HD
BRANCH   5   8
ATOM      8  C   UNL A   1      31.893  27.066  24.637  1.00  0.00     0.121 C 
BRANCH   8   9
ATOM      9  C   UNL A   1      30.640  26.264  24.996  1.00  0.00     0.130 C 
BRANCH   9  10
ATOM     10  N   UNL A   1      30.821  24.832  24.843  1.00  0.00    -0.334 N 
ATOM     11  C   UNL A   1      32.489  20.553  25.253  1.00  0.00     0.032 A 
ATOM     12  C   UNL A   1      32.731  20.771  23.881  1.00  0.00     0.026 A 
ATOM     13  C   UNL A   1      31.827  21.535  25.993  1.00  0.00     0.039 A 
ATOM     14  C   UNL A   1      32.268  21.917  23.219  1.00  0.00     0.008 A 
ATOM     15  C   UNL A   1      31.421  22.682  25.333  1.00  0.00     0.047 A 
ATOM     16  C   UNL A   1      31.610  22.874  23.965  1.00  0.00    -0.016 A 
ATOM     17  C   UNL A   1      30.904  23.936  25.897  1.00  0.00     0.254 C 
ATOM     18  C   UNL A   1      31.067  24.203  23.560  1.00  0.00     0.156 C 
ATOM     19  O   UNL A   1      30.694  24.149  27.076  1.00  0.00    -0.269 OA
BRANCH  11  20
ATOM     20  N   UNL A   1      32.987  19.424  25.876  1.00  0.00    -0.399 N 
ATOM     21  H   UNL A   1      33.765  19.494  26.474  1.00  0.00     0.156 HD
ATOM     22  H   UNL A   1      32.563  18.549  25.721  1.00  0.00     0.156 HD
ENDBRANCH  11  20
ENDBRANCH   9  10
ENDBRANCH   8   9
ENDBRANCH   5   8
ENDBRANCH   3   4
ENDBRANCH   2   3
ENDBRANCH   1   2
BRANCH   1  23
ATOM     23  C   UNL A   1      36.029  21.744  25.403  1.00  0.00     0.002 C 
BRANCH  23  24
ATOM     24  C   UNL A   1      37.290  21.033  24.905  1.00  0.00     0.021 C 
BRANCH  24  25
ATOM     25  C   UNL A   1      38.575  21.328  25.674  1.00  0.00     0.116 C 
BRANCH  25  26
ATOM     26  N   UNL A   1      39.462  20.180  25.786  1.00  0.00    -0.352 N 
ATOM     27  C   UNL A   1      40.786  20.148  26.166  1.00  0.00     0.251 C 
ATOM     28  H   UNL A   1      39.063  19.310  25.559  1.00  0.00     0.163 HD
ATOM     29  O   UNL A   1      41.419  19.098  26.135  1.00  0.00    -0.269 OA
BRANCH  27  30
ATOM     30  C   UNL A   1      41.445  21.408  26.567  1.00  0.00     0.039 A 
ATOM     31  C   UNL A   1      41.463  21.805  27.907  1.00  0.00     0.014 A 
ATOM     32  C   UNL A   1      41.967  22.241  25.576  1.00  0.00     0.014 A 
ATOM     33  C   UNL A   1      41.840  23.107  28.233  1.00  0.00     0.010 A 
ATOM     34  C   UNL A   1      42.408  23.521  25.919  1.00  0.00     0.010 A 
ATOM     35  C   UNL A   1      42.285  23.991  27.238  1.00  0.00    -0.014 A 
BRANCH  35  36
ATOM     36  C   UNL A   1      42.596  25.412  27.553  1.00  0.00     0.031 A 
ATOM     37  C   UNL A   1      44.007  25.931  27.439  1.00  0.00     0.074 A 
ATOM     38  C   UNL A   1      41.622  26.240  27.978  1.00  0.00     0.049 A 
ATOM     39  N   UNL A   1      44.487  27.098  27.790  1.00  0.00    -0.248 NA
ATOM     40  C   UNL A   1      45.011  25.024  26.859  1.00  0.00     0.031 C 
ATOM     41  C   UNL A   1      40.215  25.879  28.130  1.00  0.00     0.029 A 
ATOM     42  N   UNL A   1      41.681  27.550  28.388  1.00  0.00    -0.354 N 
ATOM     43  C   UNL A   1      45.854  27.040  27.546  1.00  0.00     0.074 A 
ATOM     44  C   UNL A   1      46.125  25.731  26.992  1.00  0.00     0.031 C 
ATOM     45  C   UNL A   1      39.541  26.938  28.603  1.00  0.00     0.029 A 
ATOM     46  C   UNL A   1      40.479  28.029  28.848  1.00  0.00     0.049 A 
ATOM     47  H   UNL A   1      42.503  28.090  28.356  1.00  0.00     0.167 HD
ATOM     48  C   UNL A   1      46.796  27.987  27.761  1.00  0.00     0.034 A 
ATOM     49  C   UNL A   1      40.163  29.196  29.442  1.00  0.00     0.034 A 
ATOM     50  C   UNL A   1      46.528  29.309  28.264  1.00  0.00     0.049 A 
ATOM     51  C   UNL A   1      41.223  30.229  29.680  1.00  0.00     0.074 A 
ATOM     52  C   UNL A   1      47.416  30.358  28.429  1.00  0.00     0.029 A 
ATOM     53  N   UNL A   1      45.293  29.758  28.700  1.00  0.00    -0.354 N 
ATOM     54  N   UNL A   1      42.493  30.188  29.363  1.00  0.00    -0.248 NA
ATOM     55  C   UNL A   1      40.805  31.472  30.345  1.00  0.00     0.031 C 
ATOM     56  C   UNL A   1      46.724  31.431  29.001  1.00  0.00     0.029 A 
ATOM     57  C   UNL A   1      45.400  31.060  29.162  1.00  0.00     0.049 A 
ATOM     58  H   UNL A   1      44.462  29.230  28.685  1.00  0.00     0.167 HD
ATOM     59  C   UNL A   1      43.030  31.398  29.786  1.00  0.00     0.074 A 
ATOM     60  C   UNL A   1      41.939  32.162  30.358  1.00  0.00     0.031 C 
ATOM     61  C   UNL A   1      44.314  31.827  29.715  1.00  0.00     0.034 A 
BRANCH  48  62
ATOM     62  C   UNL A   1      48.229  27.642  27.451  1.00  0.00     0.023 A 
ATOM     63  C   UNL A   1      49.056  27.100  28.452  1.00  0.00     0.012 A 
ATOM     64  C   UNL A   1      48.722  27.775  26.137  1.00  0.00     0.148 A 
ATOM     65  C   UNL A   1      50.361  26.708  28.155  1.00  0.00     0.002 A 
ATOM     66  C   UNL A   1      50.011  27.353  25.841  1.00  0.00     0.091 A 
ATOM     67  F   UNL A   1      47.919  28.308  25.205  1.00  0.00    -0.205 F 
ATOM     68  C   UNL A   1      50.834  26.824  26.849  1.00  0.00     0.022 A 
BRANCH  66  69
ATOM     69  S   UNL A   1      50.698  27.413  24.182  1.00  0.00     0.127 S 
ATOM     70  O   UNL A   1      49.618  26.814  23.398  1.00  0.00    -0.237 OA
ATOM     71  O   UNL A   1      50.877  28.849  23.977  1.00  0.00    -0.237 OA
ATOM     72  O   UNL A   1      51.931  26.641  24.227  1.00  0.00    -0.744 OA
ENDBRANCH  66  69
ENDBRANCH  48  62
BRANCH  49  73
ATOM     73  C   UNL A   1      38.747  29.429  29.829  1.00  0.00     0.023 A 
ATOM     74  C   UNL A   1      38.323  29.064  31.120  1.00  0.00     0.012 A 
ATOM     75  C   UNL A   1      37.868  30.125  28.976  1.00  0.00     0.148 A 
ATOM     76  C   UNL A   1      37.045  29.404  31.564  1.00  0.00     0.002 A 
ATOM     77  C   UNL A   1      36.612  30.495  29.439  1.00  0.00     0.091 A 
ATOM     78  F   UNL A   1      38.307  30.465  27.757  1.00  0.00    -0.205 F 
ATOM     79  C   UNL A   1      36.197  30.130  30.730  1.00  0.00     0.022 A 
BRANCH  77  80
ATOM     80  S   UNL A   1      35.488  31.520  28.484  1.00  0.00     0.127 S 
ATOM     81  O   UNL A   1      36.387  32.552  27.972  1.00  0.00    -0.237 OA
ATOM     82  O   UNL A   1      35.006  30.569  27.482  1.00  0.00    -0.237 OA
ATOM     83  O   UNL A   1      34.479  31.987  29.424  1.00  0.00    -0.744 OA
ENDBRANCH  77  80
ENDBRANCH  49  73
BRANCH  61  84
ATOM     84  C   UNL A   1      44.634  33.186  30.278  1.00  0.00     0.023 A 
ATOM     85  C   UNL A   1      45.116  33.295  31.597  1.00  0.00     0.012 A 
ATOM     86  C   UNL A   1      44.543  34.342  29.477  1.00  0.00     0.148 A 
ATOM     87  C   UNL A   1      45.483  34.535  32.118  1.00  0.00     0.002 A 
ATOM     88  C   UNL A   1      44.942  35.571  29.991  1.00  0.00     0.091 A 
ATOM     89  F   UNL A   1      44.077  34.216  28.226  1.00  0.00    -0.205 F 
ATOM     90  C   UNL A   1      45.407  35.669  31.313  1.00  0.00     0.022 A 
BRANCH  88  91
ATOM     91  S   UNL A   1      44.936  37.078  29.015  1.00  0.00     0.127 S 
ATOM     92  O   UNL A   1      43.536  37.161  28.604  1.00  0.00    -0.237 OA
ATOM     93  O   UNL A   1      45.345  38.085  29.995  1.00  0.00    -0.237 OA
ATOM     94  O   UNL A   1      45.888  36.863  27.933  1.00  0.00    -0.744 OA
ENDBRANCH  88  91
ENDBRANCH  61  84
ENDBRANCH  35  36
ENDBRANCH  27  30
ENDBRANCH  25  26
ENDBRANCH  24  25
ENDBRANCH  23  24
ENDBRANCH   1  23
TORSDOF 19
ENDMDL
