MODEL 1
REMARK VINA RESULT:     -11.1      0.000      0.000
REMARK SMILES C[C@H](Nc1ccc2c(c1)OCCO2)[C@H](C)C(=O)NCCCCCCNC(=O)c1ccc(-c2c3nc(c(-c4cccc(S(=O)(=O)[O-])c4F)c4ccc([nH]4)c(-c4cccc(S(=O)(=O)[O-])c4F)c4nc(c(-c5cccc(S(=O)(=O)[O-])c5F)c5ccc2[nH]5)C=C4)C=C3)cc1
REMARK SMILES IDX 21 1 20 2 19 3 18 4 16 5 17 6 14 8 15 9 2 10 1 11 3 12 4 14
REMARK SMILES IDX 5 15 9 16 6 17 8 18 7 19 10 20 13 21 11 22 12 23 22 24 23 25
REMARK SMILES IDX 24 26 25 27 26 28 27 30 28 31 29 32 90 33 30 34 89 35 31 36
REMARK SMILES IDX 32 37 33 38 83 39 34 40 88 41 82 42 84 43 35 44 87 45 81 46
REMARK SMILES IDX 80 47 36 49 68 50 48 51 67 52 49 53 52 54 66 55 85 56 50 57
REMARK SMILES IDX 51 58 65 60 86 61 53 62 37 63 38 64 46 65 39 66 41 67 47 68
REMARK SMILES IDX 40 69 42 70 43 71 44 72 45 73 69 74 70 75 78 76 71 77 73 78
REMARK SMILES IDX 79 79 72 80 74 81 75 82 76 83 77 84 54 85 55 86 63 87 56 88
REMARK SMILES IDX 58 89 64 90 57 91 59 92 60 93 61 94 62 95
REMARK H PARENT 18 7 3 13 25 29 84 48 52 59
REMARK Flexibility Score: inf
ROOT
ATOM      1  C   UNL A   1      32.400  26.108  26.403  1.00  0.00     0.002 C 
ENDROOT
BRANCH   1   2
ATOM      2  C   UNL A   1      33.717  25.737  25.715  1.00  0.00     0.021 C 
BRANCH   2   3
ATOM      3  C   UNL A   1      33.952  24.237  25.578  1.00  0.00     0.116 C 
BRANCH   3   4
ATOM      4  N   UNL A   1      32.770  23.486  25.953  1.00  0.00    -0.356 N 
ATOM      5  C   UNL A   1      32.137  22.468  25.317  1.00  0.00     0.224 C 
ATOM      6  O   UNL A   1      31.107  22.024  25.831  1.00  0.00    -0.275 OA
ATOM      7  H   UNL A   1      32.361  23.757  26.806  1.00  0.00     0.163 HD
BRANCH   5   8
ATOM      8  C   UNL A   1      32.690  21.861  24.035  1.00  0.00     0.097 C 
ATOM      9  C   UNL A   1      32.532  20.332  24.053  1.00  0.00     0.020 C 
BRANCH   8  10
ATOM     10  C   UNL A   1      32.153  22.571  22.756  1.00  0.00     0.088 C 
ATOM     11  C   UNL A   1      33.324  23.228  22.002  1.00  0.00     0.031 C 
BRANCH  10  12
ATOM     12  N   UNL A   1      31.040  23.466  23.130  1.00  0.00    -0.382 N 
ATOM     13  H   UNL A   1      30.242  23.015  23.490  1.00  0.00     0.160 HD
BRANCH  12  14
ATOM     14  C   UNL A   1      30.950  24.837  23.053  1.00  0.00     0.038 A 
ATOM     15  C   UNL A   1      31.912  25.524  22.295  1.00  0.00     0.030 A 
ATOM     16  C   UNL A   1      29.890  25.569  23.588  1.00  0.00     0.076 A 
ATOM     17  C   UNL A   1      31.771  26.882  22.000  1.00  0.00     0.052 A 
ATOM     18  C   UNL A   1      29.706  26.905  23.236  1.00  0.00     0.163 A 
ATOM     19  C   UNL A   1      30.648  27.567  22.446  1.00  0.00     0.161 A 
ATOM     20  O   UNL A   1      28.537  27.492  23.652  1.00  0.00    -0.486 OA
ATOM     21  O   UNL A   1      30.510  28.867  22.033  1.00  0.00    -0.486 OA
ATOM     22  C   UNL A   1      28.206  28.580  22.786  1.00  0.00     0.271 C 
ATOM     23  C   UNL A   1      29.397  29.515  22.662  1.00  0.00     0.271 C 
ENDBRANCH  12  14
ENDBRANCH  10  12
ENDBRANCH   8  10
ENDBRANCH   5   8
ENDBRANCH   3   4
ENDBRANCH   2   3
ENDBRANCH   1   2
BRANCH   1  24
ATOM     24  C   UNL A   1      32.226  27.599  26.708  1.00  0.00     0.002 C 
BRANCH  24  25
ATOM     25  C   UNL A   1      32.077  28.497  25.479  1.00  0.00     0.021 C 
BRANCH  25  26
ATOM     26  C   UNL A   1      33.163  29.556  25.333  1.00  0.00     0.116 C 
BRANCH  26  27
ATOM     27  N   UNL A   1      32.748  30.841  25.872  1.00  0.00    -0.352 N 
ATOM     28  C   UNL A   1      33.233  31.516  26.966  1.00  0.00     0.251 C 
ATOM     29  H   UNL A   1      32.018  31.289  25.387  1.00  0.00     0.163 HD
ATOM     30  O   UNL A   1      32.641  32.497  27.398  1.00  0.00    -0.269 OA
BRANCH  28  31
ATOM     31  C   UNL A   1      34.468  31.037  27.624  1.00  0.00     0.039 A 
ATOM     32  C   UNL A   1      35.533  31.925  27.793  1.00  0.00     0.014 A 
ATOM     33  C   UNL A   1      34.568  29.720  28.081  1.00  0.00     0.014 A 
ATOM     34  C   UNL A   1      36.681  31.504  28.467  1.00  0.00     0.010 A 
ATOM     35  C   UNL A   1      35.677  29.327  28.821  1.00  0.00     0.010 A 
ATOM     36  C   UNL A   1      36.751  30.210  29.012  1.00  0.00    -0.014 A 
BRANCH  36  37
ATOM     37  C   UNL A   1      37.939  29.761  29.781  1.00  0.00     0.031 A 
ATOM     38  C   UNL A   1      38.192  30.300  31.164  1.00  0.00     0.074 A 
ATOM     39  C   UNL A   1      38.835  28.933  29.206  1.00  0.00     0.049 A 
ATOM     40  N   UNL A   1      39.204  30.080  31.963  1.00  0.00    -0.248 NA
ATOM     41  C   UNL A   1      37.190  31.231  31.710  1.00  0.00     0.031 C 
ATOM     42  C   UNL A   1      38.741  28.400  27.845  1.00  0.00     0.029 A 
ATOM     43  N   UNL A   1      40.015  28.420  29.683  1.00  0.00    -0.354 N 
ATOM     44  C   UNL A   1      38.981  30.871  33.084  1.00  0.00     0.074 A 
ATOM     45  C   UNL A   1      37.757  31.603  32.849  1.00  0.00     0.031 C 
ATOM     46  C   UNL A   1      39.815  27.632  27.599  1.00  0.00     0.029 A 
ATOM     47  C   UNL A   1      40.691  27.647  28.767  1.00  0.00     0.049 A 
ATOM     48  H   UNL A   1      40.346  28.588  30.594  1.00  0.00     0.167 HD
ATOM     49  C   UNL A   1      39.715  30.960  34.219  1.00  0.00     0.034 A 
ATOM     50  C   UNL A   1      41.887  27.033  28.851  1.00  0.00     0.034 A 
ATOM     51  C   UNL A   1      40.912  30.202  34.465  1.00  0.00     0.049 A 
ATOM     52  C   UNL A   1      42.668  27.126  30.134  1.00  0.00     0.074 A 
ATOM     53  C   UNL A   1      41.679  30.155  35.615  1.00  0.00     0.029 A 
ATOM     54  N   UNL A   1      41.524  29.368  33.542  1.00  0.00    -0.354 N 
ATOM     55  N   UNL A   1      42.365  27.759  31.241  1.00  0.00    -0.248 NA
ATOM     56  C   UNL A   1      43.939  26.389  30.193  1.00  0.00     0.031 C 
ATOM     57  C   UNL A   1      42.775  29.321  35.376  1.00  0.00     0.029 A 
ATOM     58  C   UNL A   1      42.666  28.812  34.091  1.00  0.00     0.049 A 
ATOM     59  H   UNL A   1      41.194  29.195  32.631  1.00  0.00     0.167 HD
ATOM     60  C   UNL A   1      43.384  27.465  32.140  1.00  0.00     0.074 A 
ATOM     61  C   UNL A   1      44.304  26.583  31.453  1.00  0.00     0.031 C 
ATOM     62  C   UNL A   1      43.547  27.894  33.416  1.00  0.00     0.034 A 
BRANCH  49  63
ATOM     63  C   UNL A   1      39.222  31.884  35.303  1.00  0.00     0.023 A 
ATOM     64  C   UNL A   1      38.285  31.418  36.248  1.00  0.00     0.012 A 
ATOM     65  C   UNL A   1      39.728  33.194  35.421  1.00  0.00     0.148 A 
ATOM     66  C   UNL A   1      37.830  32.251  37.269  1.00  0.00     0.002 A 
ATOM     67  C   UNL A   1      39.308  34.001  36.471  1.00  0.00     0.091 A 
ATOM     68  F   UNL A   1      40.604  33.626  34.503  1.00  0.00    -0.205 F 
ATOM     69  C   UNL A   1      38.349  33.537  37.387  1.00  0.00     0.022 A 
BRANCH  67  70
ATOM     70  S   UNL A   1      39.978  35.642  36.759  1.00  0.00     0.127 S 
ATOM     71  O   UNL A   1      39.276  36.036  37.981  1.00  0.00    -0.237 OA
ATOM     72  O   UNL A   1      41.403  35.364  36.939  1.00  0.00    -0.237 OA
ATOM     73  O   UNL A   1      39.654  36.425  35.575  1.00  0.00    -0.744 OA
ENDBRANCH  67  70
ENDBRANCH  49  63
BRANCH  50  74
ATOM     74  C   UNL A   1      42.397  26.232  27.702  1.00  0.00     0.023 A 
ATOM     75  C   UNL A   1      43.311  26.812  26.801  1.00  0.00     0.012 A 
ATOM     76  C   UNL A   1      41.997  24.895  27.509  1.00  0.00     0.148 A 
ATOM     77  C   UNL A   1      43.788  26.090  25.708  1.00  0.00     0.002 A 
ATOM     78  C   UNL A   1      42.521  24.163  26.451  1.00  0.00     0.091 A 
ATOM     79  F   UNL A   1      41.120  24.364  28.372  1.00  0.00    -0.205 F 
ATOM     80  C   UNL A   1      43.401  24.763  25.538  1.00  0.00     0.022 A 
BRANCH  78  81
ATOM     81  S   UNL A   1      42.180  22.413  26.227  1.00  0.00     0.127 S 
ATOM     82  O   UNL A   1      42.720  21.844  27.458  1.00  0.00    -0.237 OA
ATOM     83  O   UNL A   1      40.721  22.403  26.128  1.00  0.00    -0.237 OA
ATOM     84  O   UNL A   1      42.868  22.032  25.000  1.00  0.00    -0.744 OA
ENDBRANCH  78  81
ENDBRANCH  50  74
BRANCH  62  85
ATOM     85  C   UNL A   1      44.738  27.380  34.182  1.00  0.00     0.023 A 
ATOM     86  C   UNL A   1      45.950  28.098  34.173  1.00  0.00     0.012 A 
ATOM     87  C   UNL A   1      44.627  26.222  34.976  1.00  0.00     0.148 A 
ATOM     88  C   UNL A   1      47.043  27.653  34.915  1.00  0.00     0.002 A 
ATOM     89  C   UNL A   1      45.702  25.814  35.754  1.00  0.00     0.091 A 
ATOM     90  F   UNL A   1      43.471  25.543  34.958  1.00  0.00    -0.205 F 
ATOM     91  C   UNL A   1      46.915  26.519  35.715  1.00  0.00     0.022 A 
BRANCH  89  92
ATOM     92  S   UNL A   1      45.597  24.426  36.891  1.00  0.00     0.127 S 
ATOM     93  O   UNL A   1      46.919  24.454  37.517  1.00  0.00    -0.237 OA
ATOM     94  O   UNL A   1      44.499  24.829  37.770  1.00  0.00    -0.237 OA
ATOM     95  O   UNL A   1      45.319  23.254  36.073  1.00  0.00    -0.744 OA
ENDBRANCH  89  92
ENDBRANCH  62  85
ENDBRANCH  36  37
ENDBRANCH  28  31
ENDBRANCH  26  27
ENDBRANCH  25  26
ENDBRANCH  24  25
ENDBRANCH   1  24
TORSDOF 19
ENDMDL
MODEL 2
REMARK VINA RESULT:     -11.1      2.499      8.430
REMARK SMILES C[C@H](Nc1ccc2c(c1)OCCO2)[C@H](C)C(=O)NCCCCCCNC(=O)c1ccc(-c2c3nc(c(-c4cccc(S(=O)(=O)[O-])c4F)c4ccc([nH]4)c(-c4cccc(S(=O)(=O)[O-])c4F)c4nc(c(-c5cccc(S(=O)(=O)[O-])c5F)c5ccc2[nH]5)C=C4)C=C3)cc1
REMARK SMILES IDX 21 1 20 2 19 3 18 4 16 5 17 6 14 8 15 9 2 10 1 11 3 12 4 14
REMARK SMILES IDX 5 15 9 16 6 17 8 18 7 19 10 20 13 21 11 22 12 23 22 24 23 25
REMARK SMILES IDX 24 26 25 27 26 28 27 30 28 31 29 32 90 33 30 34 89 35 31 36
REMARK SMILES IDX 32 37 33 38 83 39 34 40 88 41 82 42 84 43 35 44 87 45 81 46
REMARK SMILES IDX 80 47 36 49 68 50 48 51 67 52 49 53 52 54 66 55 85 56 50 57
REMARK SMILES IDX 51 58 65 60 86 61 53 62 37 63 38 64 46 65 39 66 41 67 47 68
REMARK SMILES IDX 40 69 42 70 43 71 44 72 45 73 69 74 70 75 78 76 71 77 73 78
REMARK SMILES IDX 79 79 72 80 74 81 75 82 76 83 77 84 54 85 55 86 63 87 56 88
REMARK SMILES IDX 58 89 64 90 57 91 59 92 60 93 61 94 62 95
REMARK H PARENT 18 7 3 13 25 29 84 48 52 59
REMARK Flexibility Score: inf
ROOT
ATOM      1  C   UNL A   1      33.190  29.612  27.105  1.00  0.00     0.002 C 
ENDROOT
BRANCH   1   2
ATOM      2  C   UNL A   1      33.804  28.819  25.949  1.00  0.00     0.021 C 
BRANCH   2   3
ATOM      3  C   UNL A   1      33.449  29.352  24.564  1.00  0.00     0.116 C 
BRANCH   3   4
ATOM      4  N   UNL A   1      33.638  28.336  23.548  1.00  0.00    -0.356 N 
ATOM      5  C   UNL A   1      32.847  27.292  23.191  1.00  0.00     0.224 C 
ATOM      6  O   UNL A   1      33.264  26.534  22.312  1.00  0.00    -0.275 OA
ATOM      7  H   UNL A   1      34.473  28.416  23.034  1.00  0.00     0.163 HD
BRANCH   5   8
ATOM      8  C   UNL A   1      31.476  27.079  23.817  1.00  0.00     0.097 C 
ATOM      9  C   UNL A   1      30.367  27.341  22.786  1.00  0.00     0.020 C 
BRANCH   8  10
ATOM     10  C   UNL A   1      31.370  25.723  24.579  1.00  0.00     0.088 C 
ATOM     11  C   UNL A   1      30.427  25.882  25.786  1.00  0.00     0.031 C 
BRANCH  10  12
ATOM     12  N   UNL A   1      32.729  25.229  24.879  1.00  0.00    -0.382 N 
ATOM     13  H   UNL A   1      33.342  25.897  25.263  1.00  0.00     0.160 HD
BRANCH  12  14
ATOM     14  C   UNL A   1      33.268  23.975  24.702  1.00  0.00     0.038 A 
ATOM     15  C   UNL A   1      34.629  23.789  24.994  1.00  0.00     0.030 A 
ATOM     16  C   UNL A   1      32.511  22.854  24.364  1.00  0.00     0.076 A 
ATOM     17  C   UNL A   1      35.196  22.514  25.039  1.00  0.00     0.052 A 
ATOM     18  C   UNL A   1      33.051  21.575  24.478  1.00  0.00     0.163 A 
ATOM     19  C   UNL A   1      34.397  21.401  24.811  1.00  0.00     0.161 A 
ATOM     20  O   UNL A   1      32.183  20.526  24.312  1.00  0.00    -0.486 OA
ATOM     21  O   UNL A   1      34.982  20.172  24.977  1.00  0.00    -0.486 OA
ATOM     22  C   UNL A   1      32.675  19.374  25.001  1.00  0.00     0.271 C 
ATOM     23  C   UNL A   1      34.111  19.104  24.582  1.00  0.00     0.271 C 
ENDBRANCH  12  14
ENDBRANCH  10  12
ENDBRANCH   8  10
ENDBRANCH   5   8
ENDBRANCH   3   4
ENDBRANCH   2   3
ENDBRANCH   1   2
BRANCH   1  24
ATOM     24  C   UNL A   1      31.772  30.135  26.851  1.00  0.00     0.002 C 
BRANCH  24  25
ATOM     25  C   UNL A   1      31.639  31.658  26.834  1.00  0.00     0.021 C 
BRANCH  25  26
ATOM     26  C   UNL A   1      32.908  32.410  27.218  1.00  0.00     0.116 C 
BRANCH  26  27
ATOM     27  N   UNL A   1      32.642  33.804  27.533  1.00  0.00    -0.352 N 
ATOM     28  C   UNL A   1      33.184  34.582  28.526  1.00  0.00     0.251 C 
ATOM     29  H   UNL A   1      31.984  34.251  26.954  1.00  0.00     0.163 HD
ATOM     30  O   UNL A   1      32.708  35.683  28.776  1.00  0.00    -0.269 OA
BRANCH  28  31
ATOM     31  C   UNL A   1      34.335  34.072  29.301  1.00  0.00     0.039 A 
ATOM     32  C   UNL A   1      34.097  33.249  30.405  1.00  0.00     0.014 A 
ATOM     33  C   UNL A   1      35.643  34.396  28.931  1.00  0.00     0.014 A 
ATOM     34  C   UNL A   1      35.177  32.711  31.108  1.00  0.00     0.010 A 
ATOM     35  C   UNL A   1      36.715  33.795  29.583  1.00  0.00     0.010 A 
ATOM     36  C   UNL A   1      36.494  32.956  30.686  1.00  0.00    -0.014 A 
BRANCH  36  37
ATOM     37  C   UNL A   1      37.654  32.348  31.385  1.00  0.00     0.031 A 
ATOM     38  C   UNL A   1      38.412  31.214  30.746  1.00  0.00     0.074 A 
ATOM     39  C   UNL A   1      37.975  32.756  32.629  1.00  0.00     0.049 A 
ATOM     40  N   UNL A   1      39.405  30.512  31.226  1.00  0.00    -0.248 NA
ATOM     41  C   UNL A   1      37.977  30.795  29.403  1.00  0.00     0.031 C 
ATOM     42  C   UNL A   1      37.272  33.794  33.386  1.00  0.00     0.029 A 
ATOM     43  N   UNL A   1      38.955  32.327  33.488  1.00  0.00    -0.354 N 
ATOM     44  C   UNL A   1      39.689  29.549  30.265  1.00  0.00     0.074 A 
ATOM     45  C   UNL A   1      38.740  29.733  29.189  1.00  0.00     0.031 C 
ATOM     46  C   UNL A   1      37.846  33.925  34.593  1.00  0.00     0.029 A 
ATOM     47  C   UNL A   1      38.932  32.957  34.711  1.00  0.00     0.049 A 
ATOM     48  H   UNL A   1      39.614  31.635  33.251  1.00  0.00     0.167 HD
ATOM     49  C   UNL A   1      40.667  28.613  30.264  1.00  0.00     0.034 A 
ATOM     50  C   UNL A   1      39.689  32.766  35.810  1.00  0.00     0.034 A 
ATOM     51  C   UNL A   1      41.633  28.458  31.319  1.00  0.00     0.049 A 
ATOM     52  C   UNL A   1      40.787  31.738  35.771  1.00  0.00     0.074 A 
ATOM     53  C   UNL A   1      42.716  27.598  31.373  1.00  0.00     0.029 A 
ATOM     54  N   UNL A   1      41.626  29.168  32.509  1.00  0.00    -0.354 N 
ATOM     55  N   UNL A   1      41.136  30.939  34.793  1.00  0.00    -0.248 NA
ATOM     56  C   UNL A   1      41.621  31.611  36.976  1.00  0.00     0.031 C 
ATOM     57  C   UNL A   1      43.343  27.763  32.612  1.00  0.00     0.029 A 
ATOM     58  C   UNL A   1      42.677  28.758  33.311  1.00  0.00     0.049 A 
ATOM     59  H   UNL A   1      40.971  29.863  32.748  1.00  0.00     0.167 HD
ATOM     60  C   UNL A   1      42.253  30.244  35.247  1.00  0.00     0.074 A 
ATOM     61  C   UNL A   1      42.530  30.730  36.582  1.00  0.00     0.031 C 
ATOM     62  C   UNL A   1      42.975  29.285  34.618  1.00  0.00     0.034 A 
BRANCH  49  63
ATOM     63  C   UNL A   1      40.769  27.705  29.066  1.00  0.00     0.023 A 
ATOM     64  C   UNL A   1      39.918  26.585  28.961  1.00  0.00     0.012 A 
ATOM     65  C   UNL A   1      41.665  27.991  28.016  1.00  0.00     0.148 A 
ATOM     66  C   UNL A   1      39.985  25.743  27.853  1.00  0.00     0.002 A 
ATOM     67  C   UNL A   1      41.690  27.175  26.892  1.00  0.00     0.091 A 
ATOM     68  F   UNL A   1      42.479  29.049  28.142  1.00  0.00    -0.205 F 
ATOM     69  C   UNL A   1      40.861  26.044  26.814  1.00  0.00     0.022 A 
BRANCH  67  70
ATOM     70  S   UNL A   1      42.723  27.524  25.464  1.00  0.00     0.127 S 
ATOM     71  O   UNL A   1      42.453  26.364  24.616  1.00  0.00    -0.237 OA
ATOM     72  O   UNL A   1      42.155  28.781  24.975  1.00  0.00    -0.237 OA
ATOM     73  O   UNL A   1      44.085  27.626  25.967  1.00  0.00    -0.744 OA
ENDBRANCH  67  70
ENDBRANCH  49  63
BRANCH  50  74
ATOM     74  C   UNL A   1      39.468  33.602  37.023  1.00  0.00     0.023 A 
ATOM     75  C   UNL A   1      39.942  34.928  37.050  1.00  0.00     0.012 A 
ATOM     76  C   UNL A   1      38.773  33.099  38.140  1.00  0.00     0.148 A 
ATOM     77  C   UNL A   1      39.765  35.725  38.181  1.00  0.00     0.002 A 
ATOM     78  C   UNL A   1      38.549  33.917  39.241  1.00  0.00     0.091 A 
ATOM     79  F   UNL A   1      38.337  31.833  38.098  1.00  0.00    -0.205 F 
ATOM     80  C   UNL A   1      39.060  35.223  39.272  1.00  0.00     0.022 A 
BRANCH  78  81
ATOM     81  S   UNL A   1      37.543  33.400  40.636  1.00  0.00     0.127 S 
ATOM     82  O   UNL A   1      37.483  34.623  41.432  1.00  0.00    -0.237 OA
ATOM     83  O   UNL A   1      36.290  33.027  39.980  1.00  0.00    -0.237 OA
ATOM     84  O   UNL A   1      38.257  32.285  41.245  1.00  0.00    -0.744 OA
ENDBRANCH  78  81
ENDBRANCH  50  74
BRANCH  62  85
ATOM     85  C   UNL A   1      44.174  28.724  35.338  1.00  0.00     0.023 A 
ATOM     86  C   UNL A   1      45.454  29.270  35.114  1.00  0.00     0.012 A 
ATOM     87  C   UNL A   1      44.015  27.705  36.297  1.00  0.00     0.148 A 
ATOM     88  C   UNL A   1      46.561  28.786  35.809  1.00  0.00     0.002 A 
ATOM     89  C   UNL A   1      45.113  27.265  37.024  1.00  0.00     0.091 A 
ATOM     90  F   UNL A   1      42.793  27.186  36.483  1.00  0.00    -0.205 F 
ATOM     91  C   UNL A   1      46.389  27.793  36.772  1.00  0.00     0.022 A 
BRANCH  89  92
ATOM     92  S   UNL A   1      44.972  26.064  38.353  1.00  0.00     0.127 S 
ATOM     93  O   UNL A   1      44.502  24.880  37.635  1.00  0.00    -0.237 OA
ATOM     94  O   UNL A   1      46.349  25.977  38.838  1.00  0.00    -0.237 OA
ATOM     95  O   UNL A   1      44.029  26.630  39.308  1.00  0.00    -0.744 OA
ENDBRANCH  89  92
ENDBRANCH  62  85
ENDBRANCH  36  37
ENDBRANCH  28  31
ENDBRANCH  26  27
ENDBRANCH  25  26
ENDBRANCH  24  25
ENDBRANCH   1  24
TORSDOF 19
ENDMDL
MODEL 3
REMARK VINA RESULT:     -10.9      2.928      8.675
REMARK SMILES C[C@H](Nc1ccc2c(c1)OCCO2)[C@H](C)C(=O)NCCCCCCNC(=O)c1ccc(-c2c3nc(c(-c4cccc(S(=O)(=O)[O-])c4F)c4ccc([nH]4)c(-c4cccc(S(=O)(=O)[O-])c4F)c4nc(c(-c5cccc(S(=O)(=O)[O-])c5F)c5ccc2[nH]5)C=C4)C=C3)cc1
REMARK SMILES IDX 21 1 20 2 19 3 18 4 16 5 17 6 14 8 15 9 2 10 1 11 3 12 4 14
REMARK SMILES IDX 5 15 9 16 6 17 8 18 7 19 10 20 13 21 11 22 12 23 22 24 23 25
REMARK SMILES IDX 24 26 25 27 26 28 27 30 28 31 29 32 90 33 30 34 89 35 31 36
REMARK SMILES IDX 32 37 33 38 83 39 34 40 88 41 82 42 84 43 35 44 87 45 81 46
REMARK SMILES IDX 80 47 36 49 68 50 48 51 67 52 49 53 52 54 66 55 85 56 50 57
REMARK SMILES IDX 51 58 65 60 86 61 53 62 37 63 38 64 46 65 39 66 41 67 47 68
REMARK SMILES IDX 40 69 42 70 43 71 44 72 45 73 69 74 70 75 78 76 71 77 73 78
REMARK SMILES IDX 79 79 72 80 74 81 75 82 76 83 77 84 54 85 55 86 63 87 56 88
REMARK SMILES IDX 58 89 64 90 57 91 59 92 60 93 61 94 62 95
REMARK H PARENT 18 7 3 13 25 29 84 48 52 59
REMARK Flexibility Score: inf
ROOT
ATOM      1  C   UNL A   1      32.324  29.473  25.575  1.00  0.00     0.002 C 
ENDROOT
BRANCH   1   2
ATOM      2  C   UNL A   1      31.873  28.408  26.579  1.00  0.00     0.021 C 
BRANCH   2   3
ATOM      3  C   UNL A   1      30.946  27.348  25.993  1.00  0.00     0.116 C 
BRANCH   3   4
ATOM      4  N   UNL A   1      31.011  26.118  26.757  1.00  0.00    -0.356 N 
ATOM      5  C   UNL A   1      31.704  24.974  26.524  1.00  0.00     0.224 C 
ATOM      6  O   UNL A   1      31.549  24.040  27.316  1.00  0.00    -0.275 OA
ATOM      7  H   UNL A   1      30.465  26.110  27.575  1.00  0.00     0.163 HD
BRANCH   5   8
ATOM      8  C   UNL A   1      32.671  24.851  25.356  1.00  0.00     0.097 C 
ATOM      9  C   UNL A   1      34.117  24.739  25.864  1.00  0.00     0.020 C 
BRANCH   8  10
ATOM     10  C   UNL A   1      32.239  23.757  24.333  1.00  0.00     0.088 C 
ATOM     11  C   UNL A   1      30.985  24.228  23.574  1.00  0.00     0.031 C 
BRANCH  10  12
ATOM     12  N   UNL A   1      32.124  22.460  25.031  1.00  0.00    -0.382 N 
ATOM     13  H   UNL A   1      31.500  22.448  25.792  1.00  0.00     0.160 HD
BRANCH  12  14
ATOM     14  C   UNL A   1      32.760  21.266  24.777  1.00  0.00     0.038 A 
ATOM     15  C   UNL A   1      34.163  21.262  24.710  1.00  0.00     0.030 A 
ATOM     16  C   UNL A   1      32.096  20.043  24.701  1.00  0.00     0.076 A 
ATOM     17  C   UNL A   1      34.885  20.067  24.663  1.00  0.00     0.052 A 
ATOM     18  C   UNL A   1      32.811  18.847  24.728  1.00  0.00     0.163 A 
ATOM     19  C   UNL A   1      34.207  18.855  24.704  1.00  0.00     0.161 A 
ATOM     20  O   UNL A   1      32.074  17.695  24.844  1.00  0.00    -0.486 OA
ATOM     21  O   UNL A   1      34.972  17.719  24.767  1.00  0.00    -0.486 OA
ATOM     22  C   UNL A   1      32.873  16.665  25.432  1.00  0.00     0.271 C 
ATOM     23  C   UNL A   1      34.177  16.530  24.663  1.00  0.00     0.271 C 
ENDBRANCH  12  14
ENDBRANCH  10  12
ENDBRANCH   8  10
ENDBRANCH   5   8
ENDBRANCH   3   4
ENDBRANCH   2   3
ENDBRANCH   1   2
BRANCH   1  24
ATOM     24  C   UNL A   1      31.553  30.795  25.642  1.00  0.00     0.002 C 
BRANCH  24  25
ATOM     25  C   UNL A   1      31.635  31.523  26.984  1.00  0.00     0.021 C 
BRANCH  25  26
ATOM     26  C   UNL A   1      32.898  32.354  27.178  1.00  0.00     0.116 C 
BRANCH  26  27
ATOM     27  N   UNL A   1      32.596  33.735  27.516  1.00  0.00    -0.352 N 
ATOM     28  C   UNL A   1      33.124  34.514  28.517  1.00  0.00     0.251 C 
ATOM     29  H   UNL A   1      31.921  34.173  26.949  1.00  0.00     0.163 HD
ATOM     30  O   UNL A   1      32.619  35.596  28.787  1.00  0.00    -0.269 OA
BRANCH  28  31
ATOM     31  C   UNL A   1      34.295  34.024  29.275  1.00  0.00     0.039 A 
ATOM     32  C   UNL A   1      34.089  33.186  30.374  1.00  0.00     0.014 A 
ATOM     33  C   UNL A   1      35.591  34.383  28.895  1.00  0.00     0.014 A 
ATOM     34  C   UNL A   1      35.188  32.668  31.062  1.00  0.00     0.010 A 
ATOM     35  C   UNL A   1      36.684  33.803  29.530  1.00  0.00     0.010 A 
ATOM     36  C   UNL A   1      36.495  32.948  30.628  1.00  0.00    -0.014 A 
BRANCH  36  37
ATOM     37  C   UNL A   1      37.677  32.362  31.309  1.00  0.00     0.031 A 
ATOM     38  C   UNL A   1      38.422  31.217  30.677  1.00  0.00     0.074 A 
ATOM     39  C   UNL A   1      38.029  32.801  32.534  1.00  0.00     0.049 A 
ATOM     40  N   UNL A   1      39.432  30.531  31.146  1.00  0.00    -0.248 NA
ATOM     41  C   UNL A   1      37.953  30.764  29.356  1.00  0.00     0.031 C 
ATOM     42  C   UNL A   1      37.341  33.854  33.285  1.00  0.00     0.029 A 
ATOM     43  N   UNL A   1      39.034  32.397  33.376  1.00  0.00    -0.354 N 
ATOM     44  C   UNL A   1      39.694  29.546  30.200  1.00  0.00     0.074 A 
ATOM     45  C   UNL A   1      38.716  29.700  29.147  1.00  0.00     0.031 C 
ATOM     46  C   UNL A   1      37.947  34.015  34.472  1.00  0.00     0.029 A 
ATOM     47  C   UNL A   1      39.041  33.055  34.584  1.00  0.00     0.049 A 
ATOM     48  H   UNL A   1      39.690  31.702  33.137  1.00  0.00     0.167 HD
ATOM     49  C   UNL A   1      40.677  28.615  30.195  1.00  0.00     0.034 A 
ATOM     50  C   UNL A   1      39.829  32.894  35.666  1.00  0.00     0.034 A 
ATOM     51  C   UNL A   1      41.672  28.489  31.227  1.00  0.00     0.049 A 
ATOM     52  C   UNL A   1      40.930  31.870  35.621  1.00  0.00     0.074 A 
ATOM     53  C   UNL A   1      42.760  27.636  31.272  1.00  0.00     0.029 A 
ATOM     54  N   UNL A   1      41.693  29.227  32.399  1.00  0.00    -0.354 N 
ATOM     55  N   UNL A   1      41.257  31.050  34.653  1.00  0.00    -0.248 NA
ATOM     56  C   UNL A   1      41.797  31.775  36.806  1.00  0.00     0.031 C 
ATOM     57  C   UNL A   1      43.419  27.833  32.489  1.00  0.00     0.029 A 
ATOM     58  C   UNL A   1      42.767  28.841  33.182  1.00  0.00     0.049 A 
ATOM     59  H   UNL A   1      41.041  29.925  32.640  1.00  0.00     0.167 HD
ATOM     60  C   UNL A   1      42.389  30.371  35.093  1.00  0.00     0.074 A 
ATOM     61  C   UNL A   1      42.700  30.890  36.409  1.00  0.00     0.031 C 
ATOM     62  C   UNL A   1      43.098  29.400  34.467  1.00  0.00     0.034 A 
BRANCH  49  63
ATOM     63  C   UNL A   1      40.751  27.679  29.016  1.00  0.00     0.023 A 
ATOM     64  C   UNL A   1      39.855  26.593  28.926  1.00  0.00     0.012 A 
ATOM     65  C   UNL A   1      41.666  27.906  27.970  1.00  0.00     0.148 A 
ATOM     66  C   UNL A   1      39.895  25.727  27.836  1.00  0.00     0.002 A 
ATOM     67  C   UNL A   1      41.667  27.067  26.862  1.00  0.00     0.091 A 
ATOM     68  F   UNL A   1      42.523  28.932  28.081  1.00  0.00    -0.205 F 
ATOM     69  C   UNL A   1      40.792  25.970  26.799  1.00  0.00     0.022 A 
BRANCH  67  70
ATOM     70  S   UNL A   1      42.725  27.344  25.437  1.00  0.00     0.127 S 
ATOM     71  O   UNL A   1      42.556  26.094  24.698  1.00  0.00    -0.237 OA
ATOM     72  O   UNL A   1      42.099  28.510  24.812  1.00  0.00    -0.237 OA
ATOM     73  O   UNL A   1      44.060  27.580  25.966  1.00  0.00    -0.744 OA
ENDBRANCH  67  70
ENDBRANCH  49  63
BRANCH  50  74
ATOM     74  C   UNL A   1      39.636  33.758  36.864  1.00  0.00     0.023 A 
ATOM     75  C   UNL A   1      40.061  35.100  36.830  1.00  0.00     0.012 A 
ATOM     76  C   UNL A   1      39.017  33.264  38.029  1.00  0.00     0.148 A 
ATOM     77  C   UNL A   1      39.910  35.924  37.945  1.00  0.00     0.002 A 
ATOM     78  C   UNL A   1      38.816  34.106  39.116  1.00  0.00     0.091 A 
ATOM     79  F   UNL A   1      38.626  31.982  38.045  1.00  0.00    -0.205 F 
ATOM     80  C   UNL A   1      39.279  35.430  39.084  1.00  0.00     0.022 A 
BRANCH  78  81
ATOM     81  S   UNL A   1      37.900  33.596  40.574  1.00  0.00     0.127 S 
ATOM     82  O   UNL A   1      37.791  34.850  41.313  1.00  0.00    -0.237 OA
ATOM     83  O   UNL A   1      36.650  33.112  39.989  1.00  0.00    -0.237 OA
ATOM     84  O   UNL A   1      38.708  32.560  41.204  1.00  0.00    -0.744 OA
ENDBRANCH  78  81
ENDBRANCH  50  74
BRANCH  62  85
ATOM     85  C   UNL A   1      44.319  28.862  35.167  1.00  0.00     0.023 A 
ATOM     86  C   UNL A   1      44.214  27.739  36.012  1.00  0.00     0.012 A 
ATOM     87  C   UNL A   1      45.586  29.426  34.923  1.00  0.00     0.148 A 
ATOM     88  C   UNL A   1      45.346  27.208  36.628  1.00  0.00     0.002 A 
ATOM     89  C   UNL A   1      46.716  28.860  35.498  1.00  0.00     0.091 A 
ATOM     90  F   UNL A   1      45.663  30.505  34.131  1.00  0.00    -0.205 F 
ATOM     91  C   UNL A   1      46.597  27.760  36.362  1.00  0.00     0.022 A 
BRANCH  89  92
ATOM     92  S   UNL A   1      48.378  29.439  35.132  1.00  0.00     0.127 S 
ATOM     93  O   UNL A   1      48.417  30.707  35.860  1.00  0.00    -0.237 OA
ATOM     94  O   UNL A   1      49.207  28.380  35.707  1.00  0.00    -0.237 OA
ATOM     95  O   UNL A   1      48.456  29.549  33.682  1.00  0.00    -0.744 OA
ENDBRANCH  89  92
ENDBRANCH  62  85
ENDBRANCH  36  37
ENDBRANCH  28  31
ENDBRANCH  26  27
ENDBRANCH  25  26
ENDBRANCH  24  25
ENDBRANCH   1  24
TORSDOF 19
ENDMDL
