MODEL 1
REMARK VINA RESULT:      -8.5      0.000      0.000
REMARK SMILES CC1(C)CSC[C@H](Nc2cc(C(=O)NCCCCCCNC(=O)c3ccc(-c4c5nc(c(-c6cccc(S(=O)(=O)[O-])c6F)c6ccc([nH]6)c(-c6cccc(S(=O)(=O)[O-])c6F)c6nc(c(-c7cccc(S(=O)(=O)[O-])c7F)c7ccc4[nH]7)C=C6)C=C5)cc3)ccc2F)C1
REMARK SMILES IDX 18 1 17 2 16 3 15 4 14 5 12 6 13 7 11 9 9 10 10 11 89 12
REMARK SMILES IDX 88 13 90 14 87 15 8 16 7 18 1 19 2 20 3 21 4 22 91 23 5 24
REMARK SMILES IDX 6 25 19 26 20 27 21 28 22 29 23 31 24 32 25 33 86 34 26 35
REMARK SMILES IDX 85 36 27 37 28 38 29 39 79 40 30 41 84 42 78 43 80 44 31 45
REMARK SMILES IDX 83 46 77 47 76 48 32 50 64 51 44 52 63 53 45 54 48 55 62 56
REMARK SMILES IDX 81 57 46 58 47 59 61 61 82 62 49 63 33 64 34 65 42 66 35 67
REMARK SMILES IDX 37 68 43 69 36 70 38 71 39 72 40 73 41 74 65 75 66 76 74 77
REMARK SMILES IDX 67 78 69 79 75 80 68 81 70 82 71 83 72 84 73 85 50 86 51 87
REMARK SMILES IDX 59 88 52 89 54 90 60 91 53 92 55 93 56 94 57 95 58 96
REMARK H PARENT 14 8 8 17 21 30 80 49 48 60
REMARK Flexibility Score: inf
ROOT
ATOM      1  C   UNL A   1      34.504  34.722  31.864  1.00  0.00     0.002 C 
ENDROOT
BRANCH   1   2
ATOM      2  C   UNL A   1      34.098  34.155  33.231  1.00  0.00     0.002 C 
BRANCH   2   3
ATOM      3  C   UNL A   1      35.266  33.929  34.203  1.00  0.00     0.021 C 
BRANCH   3   4
ATOM      4  C   UNL A   1      36.219  32.826  33.738  1.00  0.00     0.116 C 
BRANCH   4   5
ATOM      5  N   UNL A   1      37.158  32.518  34.795  1.00  0.00    -0.352 N 
ATOM      6  C   UNL A   1      38.020  31.483  35.018  1.00  0.00     0.251 C 
ATOM      7  O   UNL A   1      38.624  31.499  36.095  1.00  0.00    -0.269 OA
ATOM      8  H   UNL A   1      37.179  33.201  35.504  1.00  0.00     0.163 HD
BRANCH   6   9
ATOM      9  C   UNL A   1      38.322  30.393  34.041  1.00  0.00     0.042 A 
ATOM     10  C   UNL A   1      40.149  29.205  32.898  1.00  0.00     0.071 A 
ATOM     11  C   UNL A   1      39.691  30.132  33.843  1.00  0.00     0.042 A 
ATOM     12  C   UNL A   1      39.193  28.546  32.118  1.00  0.00     0.146 A 
ATOM     13  C   UNL A   1      37.833  28.740  32.332  1.00  0.00     0.042 A 
ATOM     14  F   UNL A   1      39.574  27.675  31.172  1.00  0.00    -0.205 F 
ATOM     15  C   UNL A   1      37.399  29.638  33.313  1.00  0.00     0.017 A 
BRANCH  10  16
ATOM     16  N   UNL A   1      41.522  29.075  32.714  1.00  0.00    -0.379 N 
ATOM     17  H   UNL A   1      41.956  29.434  31.906  1.00  0.00     0.160 HD
BRANCH  16  18
ATOM     18  C   UNL A   1      42.313  28.392  33.743  1.00  0.00     0.089 C 
ATOM     19  C   UNL A   1      43.467  25.711  34.883  1.00  0.00     0.012 C 
ATOM     20  C   UNL A   1      42.137  26.346  35.339  1.00  0.00    -0.024 C 
ATOM     21  C   UNL A   1      41.172  25.197  35.698  1.00  0.00     0.012 C 
ATOM     22  C   UNL A   1      42.328  27.223  36.592  1.00  0.00     0.076 C 
ATOM     23  C   UNL A   1      41.497  27.171  34.201  1.00  0.00     0.033 C 
ATOM     24  S   UNL A   1      43.426  28.647  36.337  1.00  0.00    -0.159 SA
ATOM     25  C   UNL A   1      42.608  29.379  34.890  1.00  0.00     0.094 C 
ENDBRANCH  16  18
ENDBRANCH  10  16
ENDBRANCH   6   9
ENDBRANCH   4   5
ENDBRANCH   3   4
ENDBRANCH   2   3
ENDBRANCH   1   2
BRANCH   1  26
ATOM     26  C   UNL A   1      33.364  35.375  31.079  1.00  0.00     0.021 C 
BRANCH  26  27
ATOM     27  C   UNL A   1      33.622  35.474  29.581  1.00  0.00     0.116 C 
BRANCH  27  28
ATOM     28  N   UNL A   1      33.019  34.360  28.865  1.00  0.00    -0.352 N 
ATOM     29  C   UNL A   1      33.612  33.223  28.378  1.00  0.00     0.251 C 
ATOM     30  H   UNL A   1      32.049  34.433  28.708  1.00  0.00     0.163 HD
ATOM     31  O   UNL A   1      33.015  32.510  27.579  1.00  0.00    -0.269 OA
BRANCH  29  32
ATOM     32  C   UNL A   1      34.977  32.867  28.822  1.00  0.00     0.039 A 
ATOM     33  C   UNL A   1      35.139  31.900  29.815  1.00  0.00     0.014 A 
ATOM     34  C   UNL A   1      36.090  33.500  28.261  1.00  0.00     0.014 A 
ATOM     35  C   UNL A   1      36.426  31.533  30.213  1.00  0.00     0.010 A 
ATOM     36  C   UNL A   1      37.370  33.079  28.604  1.00  0.00     0.010 A 
ATOM     37  C   UNL A   1      37.550  32.100  29.591  1.00  0.00    -0.014 A 
BRANCH  37  38
ATOM     38  C   UNL A   1      38.926  31.680  29.956  1.00  0.00     0.031 A 
ATOM     39  C   UNL A   1      39.699  32.440  30.998  1.00  0.00     0.074 A 
ATOM     40  C   UNL A   1      39.505  30.659  29.294  1.00  0.00     0.049 A 
ATOM     41  N   UNL A   1      40.925  32.254  31.411  1.00  0.00    -0.248 NA
ATOM     42  C   UNL A   1      39.014  33.571  31.647  1.00  0.00     0.031 C 
ATOM     43  C   UNL A   1      38.878  29.887  28.219  1.00  0.00     0.029 A 
ATOM     44  N   UNL A   1      40.754  30.105  29.416  1.00  0.00    -0.354 N 
ATOM     45  C   UNL A   1      41.167  33.254  32.346  1.00  0.00     0.074 A 
ATOM     46  C   UNL A   1      39.977  34.073  32.405  1.00  0.00     0.031 C 
ATOM     47  C   UNL A   1      39.736  28.947  27.796  1.00  0.00     0.029 A 
ATOM     48  C   UNL A   1      40.986  29.070  28.541  1.00  0.00     0.049 A 
ATOM     49  H   UNL A   1      41.421  30.418  30.068  1.00  0.00     0.167 HD
ATOM     50  C   UNL A   1      42.266  33.450  33.111  1.00  0.00     0.034 A 
ATOM     51  C   UNL A   1      42.080  28.305  28.356  1.00  0.00     0.034 A 
ATOM     52  C   UNL A   1      43.432  32.609  33.072  1.00  0.00     0.049 A 
ATOM     53  C   UNL A   1      43.286  28.535  29.225  1.00  0.00     0.074 A 
ATOM     54  C   UNL A   1      44.573  32.687  33.851  1.00  0.00     0.029 A 
ATOM     55  N   UNL A   1      43.610  31.540  32.207  1.00  0.00    -0.354 N 
ATOM     56  N   UNL A   1      43.451  29.410  30.189  1.00  0.00    -0.248 NA
ATOM     57  C   UNL A   1      44.445  27.659  29.005  1.00  0.00     0.031 C 
ATOM     58  C   UNL A   1      45.450  31.681  33.439  1.00  0.00     0.029 A 
ATOM     59  C   UNL A   1      44.844  30.953  32.427  1.00  0.00     0.049 A 
ATOM     60  H   UNL A   1      42.954  31.242  31.535  1.00  0.00     0.167 HD
ATOM     61  C   UNL A   1      44.716  29.167  30.713  1.00  0.00     0.074 A 
ATOM     62  C   UNL A   1      45.268  28.053  29.968  1.00  0.00     0.031 C 
ATOM     63  C   UNL A   1      45.363  29.815  31.712  1.00  0.00     0.034 A 
BRANCH  50  64
ATOM     64  C   UNL A   1      42.237  34.582  34.106  1.00  0.00     0.023 A 
ATOM     65  C   UNL A   1      42.707  35.854  33.719  1.00  0.00     0.012 A 
ATOM     66  C   UNL A   1      41.680  34.414  35.389  1.00  0.00     0.148 A 
ATOM     67  C   UNL A   1      42.656  36.931  34.602  1.00  0.00     0.002 A 
ATOM     68  C   UNL A   1      41.588  35.503  36.247  1.00  0.00     0.091 A 
ATOM     69  F   UNL A   1      41.256  33.193  35.748  1.00  0.00    -0.205 F 
ATOM     70  C   UNL A   1      42.085  36.759  35.860  1.00  0.00     0.022 A 
BRANCH  68  71
ATOM     71  S   UNL A   1      40.792  35.409  37.854  1.00  0.00     0.127 S 
ATOM     72  O   UNL A   1      41.138  36.708  38.431  1.00  0.00    -0.237 OA
ATOM     73  O   UNL A   1      39.382  35.260  37.491  1.00  0.00    -0.237 OA
ATOM     74  O   UNL A   1      41.374  34.256  38.525  1.00  0.00    -0.744 OA
ENDBRANCH  68  71
ENDBRANCH  50  64
BRANCH  51  75
ATOM     75  C   UNL A   1      42.038  27.194  27.365  1.00  0.00     0.023 A 
ATOM     76  C   UNL A   1      42.584  27.397  26.083  1.00  0.00     0.012 A 
ATOM     77  C   UNL A   1      41.535  25.923  27.705  1.00  0.00     0.148 A 
ATOM     78  C   UNL A   1      42.619  26.359  25.152  1.00  0.00     0.002 A 
ATOM     79  C   UNL A   1      41.622  24.878  26.792  1.00  0.00     0.091 A 
ATOM     80  F   UNL A   1      41.015  25.753  28.928  1.00  0.00    -0.205 F 
ATOM     81  C   UNL A   1      42.150  25.098  25.510  1.00  0.00     0.022 A 
BRANCH  79  82
ATOM     82  S   UNL A   1      41.178  23.188  27.209  1.00  0.00     0.127 S 
ATOM     83  O   UNL A   1      39.728  23.288  27.359  1.00  0.00    -0.237 OA
ATOM     84  O   UNL A   1      41.627  22.460  26.022  1.00  0.00    -0.237 OA
ATOM     85  O   UNL A   1      41.914  22.872  28.425  1.00  0.00    -0.744 OA
ENDBRANCH  79  82
ENDBRANCH  51  75
BRANCH  63  86
ATOM     86  C   UNL A   1      46.740  29.336  32.094  1.00  0.00     0.023 A 
ATOM     87  C   UNL A   1      47.875  29.931  31.510  1.00  0.00     0.012 A 
ATOM     88  C   UNL A   1      46.907  28.385  33.121  1.00  0.00     0.148 A 
ATOM     89  C   UNL A   1      49.155  29.575  31.930  1.00  0.00     0.002 A 
ATOM     90  C   UNL A   1      48.184  28.073  33.570  1.00  0.00     0.091 A 
ATOM     91  F   UNL A   1      45.813  27.819  33.652  1.00  0.00    -0.205 F 
ATOM     92  C   UNL A   1      49.309  28.659  32.968  1.00  0.00     0.022 A 
BRANCH  90  93
ATOM     93  S   UNL A   1      48.479  26.988  34.971  1.00  0.00     0.127 S 
ATOM     94  O   UNL A   1      49.939  26.992  35.048  1.00  0.00    -0.237 OA
ATOM     95  O   UNL A   1      47.810  27.701  36.059  1.00  0.00    -0.237 OA
ATOM     96  O   UNL A   1      47.879  25.707  34.625  1.00  0.00    -0.744 OA
ENDBRANCH  90  93
ENDBRANCH  63  86
ENDBRANCH  37  38
ENDBRANCH  29  32
ENDBRANCH  27  28
ENDBRANCH  26  27
ENDBRANCH   1  26
TORSDOF 18
ENDMDL
MODEL 2
REMARK VINA RESULT:      -8.5      6.528     11.870
REMARK SMILES CC1(C)CSC[C@H](Nc2cc(C(=O)NCCCCCCNC(=O)c3ccc(-c4c5nc(c(-c6cccc(S(=O)(=O)[O-])c6F)c6ccc([nH]6)c(-c6cccc(S(=O)(=O)[O-])c6F)c6nc(c(-c7cccc(S(=O)(=O)[O-])c7F)c7ccc4[nH]7)C=C6)C=C5)cc3)ccc2F)C1
REMARK SMILES IDX 18 1 17 2 16 3 15 4 14 5 12 6 13 7 11 9 9 10 10 11 89 12
REMARK SMILES IDX 88 13 90 14 87 15 8 16 7 18 1 19 2 20 3 21 4 22 91 23 5 24
REMARK SMILES IDX 6 25 19 26 20 27 21 28 22 29 23 31 24 32 25 33 86 34 26 35
REMARK SMILES IDX 85 36 27 37 28 38 29 39 79 40 30 41 84 42 78 43 80 44 31 45
REMARK SMILES IDX 83 46 77 47 76 48 32 50 64 51 44 52 63 53 45 54 48 55 62 56
REMARK SMILES IDX 81 57 46 58 47 59 61 61 82 62 49 63 33 64 34 65 42 66 35 67
REMARK SMILES IDX 37 68 43 69 36 70 38 71 39 72 40 73 41 74 65 75 66 76 74 77
REMARK SMILES IDX 67 78 69 79 75 80 68 81 70 82 71 83 72 84 73 85 50 86 51 87
REMARK SMILES IDX 59 88 52 89 54 90 60 91 53 92 55 93 56 94 57 95 58 96
REMARK H PARENT 14 8 8 17 21 30 80 49 48 60
REMARK Flexibility Score: inf
ROOT
ATOM      1  C   UNL A   1      35.664  20.865  24.988  1.00  0.00     0.002 C 
ENDROOT
BRANCH   1   2
ATOM      2  C   UNL A   1      35.340  21.882  26.091  1.00  0.00     0.002 C 
BRANCH   2   3
ATOM      3  C   UNL A   1      34.305  21.403  27.120  1.00  0.00     0.021 C 
BRANCH   3   4
ATOM      4  C   UNL A   1      33.422  22.537  27.643  1.00  0.00     0.116 C 
BRANCH   4   5
ATOM      5  N   UNL A   1      32.040  22.272  27.304  1.00  0.00    -0.352 N 
ATOM      6  C   UNL A   1      31.326  22.331  26.142  1.00  0.00     0.251 C 
ATOM      7  O   UNL A   1      30.114  22.117  26.235  1.00  0.00    -0.269 OA
ATOM      8  H   UNL A   1      31.500  21.989  28.077  1.00  0.00     0.163 HD
BRANCH   6   9
ATOM      9  C   UNL A   1      31.912  22.568  24.788  1.00  0.00     0.042 A 
ATOM     10  C   UNL A   1      32.617  24.321  23.211  1.00  0.00     0.071 A 
ATOM     11  C   UNL A   1      32.153  23.918  24.469  1.00  0.00     0.042 A 
ATOM     12  C   UNL A   1      32.817  23.331  22.244  1.00  0.00     0.146 A 
ATOM     13  C   UNL A   1      32.644  21.985  22.548  1.00  0.00     0.042 A 
ATOM     14  F   UNL A   1      33.225  23.660  21.009  1.00  0.00    -0.205 F 
ATOM     15  C   UNL A   1      32.223  21.604  23.827  1.00  0.00     0.017 A 
BRANCH  10  16
ATOM     16  N   UNL A   1      32.746  25.685  22.960  1.00  0.00    -0.379 N 
ATOM     17  H   UNL A   1      33.445  26.018  22.352  1.00  0.00     0.160 HD
BRANCH  16  18
ATOM     18  C   UNL A   1      31.823  26.616  23.618  1.00  0.00     0.089 C 
ATOM     19  C   UNL A   1      29.063  28.099  23.598  1.00  0.00     0.012 C 
ATOM     20  C   UNL A   1      30.373  28.698  23.046  1.00  0.00    -0.024 C 
ATOM     21  C   UNL A   1      30.005  29.598  21.848  1.00  0.00     0.012 C 
ATOM     22  C   UNL A   1      31.088  29.567  24.099  1.00  0.00     0.076 C 
ATOM     23  C   UNL A   1      31.320  27.588  22.537  1.00  0.00     0.033 C 
ATOM     24  S   UNL A   1      31.616  28.653  25.577  1.00  0.00    -0.159 SA
ATOM     25  C   UNL A   1      32.560  27.329  24.768  1.00  0.00     0.094 C 
ENDBRANCH  16  18
ENDBRANCH  10  16
ENDBRANCH   6   9
ENDBRANCH   4   5
ENDBRANCH   3   4
ENDBRANCH   2   3
ENDBRANCH   1   2
BRANCH   1  26
ATOM     26  C   UNL A   1      37.147  20.773  24.620  1.00  0.00     0.021 C 
BRANCH  26  27
ATOM     27  C   UNL A   1      38.076  21.449  25.621  1.00  0.00     0.116 C 
BRANCH  27  28
ATOM     28  N   UNL A   1      39.056  20.513  26.150  1.00  0.00    -0.352 N 
ATOM     29  C   UNL A   1      40.299  20.768  26.673  1.00  0.00     0.251 C 
ATOM     30  H   UNL A   1      38.790  19.566  26.130  1.00  0.00     0.163 HD
ATOM     31  O   UNL A   1      41.098  19.852  26.835  1.00  0.00    -0.269 OA
BRANCH  29  32
ATOM     32  C   UNL A   1      40.666  22.153  27.035  1.00  0.00     0.039 A 
ATOM     33  C   UNL A   1      41.505  22.371  28.129  1.00  0.00     0.014 A 
ATOM     34  C   UNL A   1      40.171  23.232  26.296  1.00  0.00     0.014 A 
ATOM     35  C   UNL A   1      41.885  23.674  28.455  1.00  0.00     0.010 A 
ATOM     36  C   UNL A   1      40.612  24.520  26.575  1.00  0.00     0.010 A 
ATOM     37  C   UNL A   1      41.464  24.756  27.663  1.00  0.00    -0.014 A 
BRANCH  37  38
ATOM     38  C   UNL A   1      41.906  26.142  27.954  1.00  0.00     0.031 A 
ATOM     39  C   UNL A   1      43.302  26.581  27.607  1.00  0.00     0.074 A 
ATOM     40  C   UNL A   1      41.072  26.982  28.598  1.00  0.00     0.049 A 
ATOM     41  N   UNL A   1      43.881  27.731  27.830  1.00  0.00    -0.248 NA
ATOM     42  C   UNL A   1      44.169  25.591  26.944  1.00  0.00     0.031 C 
ATOM     43  C   UNL A   1      39.717  26.649  29.042  1.00  0.00     0.029 A 
ATOM     44  N   UNL A   1      41.246  28.281  29.004  1.00  0.00    -0.354 N 
ATOM     45  C   UNL A   1      45.182  27.599  27.359  1.00  0.00     0.074 A 
ATOM     46  C   UNL A   1      45.322  26.241  26.881  1.00  0.00     0.031 C 
ATOM     47  C   UNL A   1      39.175  27.722  29.638  1.00  0.00     0.029 A 
ATOM     48  C   UNL A   1      40.153  28.806  29.653  1.00  0.00     0.049 A 
ATOM     49  H   UNL A   1      42.074  28.789  28.846  1.00  0.00     0.167 HD
ATOM     50  C   UNL A   1      46.160  28.533  27.295  1.00  0.00     0.034 A 
ATOM     51  C   UNL A   1      39.958  30.023  30.200  1.00  0.00     0.034 A 
ATOM     52  C   UNL A   1      46.001  29.891  27.740  1.00  0.00     0.049 A 
ATOM     53  C   UNL A   1      41.055  31.047  30.109  1.00  0.00     0.074 A 
ATOM     54  C   UNL A   1      46.911  30.931  27.662  1.00  0.00     0.029 A 
ATOM     55  N   UNL A   1      44.863  30.400  28.346  1.00  0.00    -0.354 N 
ATOM     56  N   UNL A   1      42.237  30.941  29.550  1.00  0.00    -0.248 NA
ATOM     57  C   UNL A   1      40.785  32.368  30.696  1.00  0.00     0.031 C 
ATOM     58  C   UNL A   1      46.331  32.061  28.246  1.00  0.00     0.029 A 
ATOM     59  C   UNL A   1      45.047  31.736  28.655  1.00  0.00     0.049 A 
ATOM     60  H   UNL A   1      44.043  29.885  28.530  1.00  0.00     0.167 HD
ATOM     61  C   UNL A   1      42.838  32.187  29.686  1.00  0.00     0.074 A 
ATOM     62  C   UNL A   1      41.883  33.038  30.368  1.00  0.00     0.031 C 
ATOM     63  C   UNL A   1      44.072  32.585  29.292  1.00  0.00     0.034 A 
BRANCH  50  64
ATOM     64  C   UNL A   1      47.470  28.137  26.665  1.00  0.00     0.023 A 
ATOM     65  C   UNL A   1      48.571  27.833  27.493  1.00  0.00     0.012 A 
ATOM     66  C   UNL A   1      47.597  27.993  25.270  1.00  0.00     0.148 A 
ATOM     67  C   UNL A   1      49.785  27.425  26.943  1.00  0.00     0.002 A 
ATOM     68  C   UNL A   1      48.794  27.538  24.731  1.00  0.00     0.091 A 
ATOM     69  F   UNL A   1      46.546  28.305  24.496  1.00  0.00    -0.205 F 
ATOM     70  C   UNL A   1      49.892  27.266  25.564  1.00  0.00     0.022 A 
BRANCH  68  71
ATOM     71  S   UNL A   1      49.011  27.216  22.977  1.00  0.00     0.127 S 
ATOM     72  O   UNL A   1      50.465  27.107  22.874  1.00  0.00    -0.237 OA
ATOM     73  O   UNL A   1      48.292  25.953  22.807  1.00  0.00    -0.237 OA
ATOM     74  O   UNL A   1      48.421  28.351  22.283  1.00  0.00    -0.744 OA
ENDBRANCH  68  71
ENDBRANCH  50  64
BRANCH  51  75
ATOM     75  C   UNL A   1      38.633  30.353  30.795  1.00  0.00     0.023 A 
ATOM     76  C   UNL A   1      38.390  30.036  32.146  1.00  0.00     0.012 A 
ATOM     77  C   UNL A   1      37.648  31.043  30.063  1.00  0.00     0.148 A 
ATOM     78  C   UNL A   1      37.185  30.389  32.754  1.00  0.00     0.002 A 
ATOM     79  C   UNL A   1      36.472  31.441  30.689  1.00  0.00     0.091 A 
ATOM     80  F   UNL A   1      37.898  31.330  28.778  1.00  0.00    -0.205 F 
ATOM     81  C   UNL A   1      36.232  31.101  32.030  1.00  0.00     0.022 A 
BRANCH  79  82
ATOM     82  S   UNL A   1      35.250  32.482  29.884  1.00  0.00     0.127 S 
ATOM     83  O   UNL A   1      36.047  33.648  29.511  1.00  0.00    -0.237 OA
ATOM     84  O   UNL A   1      34.829  31.638  28.765  1.00  0.00    -0.237 OA
ATOM     85  O   UNL A   1      34.215  32.722  30.880  1.00  0.00    -0.744 OA
ENDBRANCH  79  82
ENDBRANCH  51  75
BRANCH  63  86
ATOM     86  C   UNL A   1      44.476  34.012  29.556  1.00  0.00     0.023 A 
ATOM     87  C   UNL A   1      45.040  34.362  30.798  1.00  0.00     0.012 A 
ATOM     88  C   UNL A   1      44.409  34.977  28.530  1.00  0.00     0.148 A 
ATOM     89  C   UNL A   1      45.516  35.652  31.021  1.00  0.00     0.002 A 
ATOM     90  C   UNL A   1      44.932  36.246  28.742  1.00  0.00     0.091 A 
ATOM     91  F   UNL A   1      43.853  34.627  27.360  1.00  0.00    -0.205 F 
ATOM     92  C   UNL A   1      45.477  36.588  29.990  1.00  0.00     0.022 A 
BRANCH  90  93
ATOM     93  S   UNL A   1      45.025  37.484  27.443  1.00  0.00     0.127 S 
ATOM     94  O   UNL A   1      43.622  37.612  27.053  1.00  0.00    -0.237 OA
ATOM     95  O   UNL A   1      45.566  38.640  28.157  1.00  0.00    -0.237 OA
ATOM     96  O   UNL A   1      45.906  36.934  26.422  1.00  0.00    -0.744 OA
ENDBRANCH  90  93
ENDBRANCH  63  86
ENDBRANCH  37  38
ENDBRANCH  29  32
ENDBRANCH  27  28
ENDBRANCH  26  27
ENDBRANCH   1  26
TORSDOF 18
ENDMDL
MODEL 3
REMARK VINA RESULT:      -8.4      6.540     11.975
REMARK SMILES CC1(C)CSC[C@H](Nc2cc(C(=O)NCCCCCCNC(=O)c3ccc(-c4c5nc(c(-c6cccc(S(=O)(=O)[O-])c6F)c6ccc([nH]6)c(-c6cccc(S(=O)(=O)[O-])c6F)c6nc(c(-c7cccc(S(=O)(=O)[O-])c7F)c7ccc4[nH]7)C=C6)C=C5)cc3)ccc2F)C1
REMARK SMILES IDX 18 1 17 2 16 3 15 4 14 5 12 6 13 7 11 9 9 10 10 11 89 12
REMARK SMILES IDX 88 13 90 14 87 15 8 16 7 18 1 19 2 20 3 21 4 22 91 23 5 24
REMARK SMILES IDX 6 25 19 26 20 27 21 28 22 29 23 31 24 32 25 33 86 34 26 35
REMARK SMILES IDX 85 36 27 37 28 38 29 39 79 40 30 41 84 42 78 43 80 44 31 45
REMARK SMILES IDX 83 46 77 47 76 48 32 50 64 51 44 52 63 53 45 54 48 55 62 56
REMARK SMILES IDX 81 57 46 58 47 59 61 61 82 62 49 63 33 64 34 65 42 66 35 67
REMARK SMILES IDX 37 68 43 69 36 70 38 71 39 72 40 73 41 74 65 75 66 76 74 77
REMARK SMILES IDX 67 78 69 79 75 80 68 81 70 82 71 83 72 84 73 85 50 86 51 87
REMARK SMILES IDX 59 88 52 89 54 90 60 91 53 92 55 93 56 94 57 95 58 96
REMARK H PARENT 14 8 8 17 21 30 80 49 48 60
REMARK Flexibility Score: inf
ROOT
ATOM      1  C   UNL A   1      40.448  22.304  27.787  1.00  0.00     0.002 C 
ENDROOT
BRANCH   1   2
ATOM      2  C   UNL A   1      40.136  23.063  26.490  1.00  0.00     0.002 C 
BRANCH   2   3
ATOM      3  C   UNL A   1      38.721  23.657  26.421  1.00  0.00     0.021 C 
BRANCH   3   4
ATOM      4  C   UNL A   1      37.689  22.669  25.876  1.00  0.00     0.116 C 
BRANCH   4   5
ATOM      5  N   UNL A   1      37.418  22.968  24.486  1.00  0.00    -0.352 N 
ATOM      6  C   UNL A   1      36.322  22.816  23.685  1.00  0.00     0.251 C 
ATOM      7  O   UNL A   1      36.473  23.104  22.495  1.00  0.00    -0.269 OA
ATOM      8  H   UNL A   1      38.188  23.364  24.018  1.00  0.00     0.163 HD
BRANCH   6   9
ATOM      9  C   UNL A   1      34.967  22.398  24.158  1.00  0.00     0.042 A 
ATOM     10  C   UNL A   1      32.678  23.199  24.571  1.00  0.00     0.071 A 
ATOM     11  C   UNL A   1      33.977  23.396  24.088  1.00  0.00     0.042 A 
ATOM     12  C   UNL A   1      32.384  21.966  25.162  1.00  0.00     0.146 A 
ATOM     13  C   UNL A   1      33.324  20.941  25.191  1.00  0.00     0.042 A 
ATOM     14  F   UNL A   1      31.167  21.732  25.676  1.00  0.00    -0.205 F 
ATOM     15  C   UNL A   1      34.602  21.148  24.661  1.00  0.00     0.017 A 
BRANCH  10  16
ATOM     16  N   UNL A   1      31.790  24.271  24.537  1.00  0.00    -0.379 N 
ATOM     17  H   UNL A   1      30.822  24.117  24.444  1.00  0.00     0.160 HD
BRANCH  16  18
ATOM     18  C   UNL A   1      32.322  25.634  24.640  1.00  0.00     0.089 C 
ATOM     19  C   UNL A   1      33.769  27.811  26.367  1.00  0.00     0.012 C 
ATOM     20  C   UNL A   1      32.237  27.673  26.252  1.00  0.00    -0.024 C 
ATOM     21  C   UNL A   1      31.629  28.095  27.606  1.00  0.00     0.012 C 
ATOM     22  C   UNL A   1      31.665  28.597  25.159  1.00  0.00     0.076 C 
ATOM     23  C   UNL A   1      31.831  26.208  25.980  1.00  0.00     0.033 C 
ATOM     24  S   UNL A   1      32.263  28.221  23.486  1.00  0.00    -0.159 SA
ATOM     25  C   UNL A   1      31.845  26.455  23.426  1.00  0.00     0.094 C 
ENDBRANCH  16  18
ENDBRANCH  10  16
ENDBRANCH   6   9
ENDBRANCH   4   5
ENDBRANCH   3   4
ENDBRANCH   2   3
ENDBRANCH   1   2
BRANCH   1  26
ATOM     26  C   UNL A   1      40.868  20.845  27.588  1.00  0.00     0.021 C 
BRANCH  26  27
ATOM     27  C   UNL A   1      40.685  20.338  26.162  1.00  0.00     0.116 C 
BRANCH  27  28
ATOM     28  N   UNL A   1      41.847  19.587  25.714  1.00  0.00    -0.352 N 
ATOM     29  C   UNL A   1      43.090  20.048  25.361  1.00  0.00     0.251 C 
ATOM     30  H   UNL A   1      41.725  18.611  25.657  1.00  0.00     0.163 HD
ATOM     31  O   UNL A   1      43.871  19.316  24.763  1.00  0.00    -0.269 OA
BRANCH  29  32
ATOM     32  C   UNL A   1      43.477  21.433  25.703  1.00  0.00     0.039 A 
ATOM     33  C   UNL A   1      43.288  22.445  24.760  1.00  0.00     0.014 A 
ATOM     34  C   UNL A   1      44.034  21.723  26.952  1.00  0.00     0.014 A 
ATOM     35  C   UNL A   1      43.616  23.761  25.090  1.00  0.00     0.010 A 
ATOM     36  C   UNL A   1      44.289  23.044  27.304  1.00  0.00     0.010 A 
ATOM     37  C   UNL A   1      44.094  24.074  26.373  1.00  0.00    -0.014 A 
BRANCH  37  38
ATOM     38  C   UNL A   1      44.391  25.474  26.765  1.00  0.00     0.031 A 
ATOM     39  C   UNL A   1      45.782  26.025  26.607  1.00  0.00     0.074 A 
ATOM     40  C   UNL A   1      43.425  26.223  27.330  1.00  0.00     0.049 A 
ATOM     41  N   UNL A   1      46.241  27.203  26.939  1.00  0.00    -0.248 NA
ATOM     42  C   UNL A   1      46.794  25.130  26.020  1.00  0.00     0.031 C 
ATOM     43  C   UNL A   1      42.056  25.776  27.594  1.00  0.00     0.029 A 
ATOM     44  N   UNL A   1      43.450  27.512  27.801  1.00  0.00    -0.354 N 
ATOM     45  C   UNL A   1      47.595  27.184  26.626  1.00  0.00     0.074 A 
ATOM     46  C   UNL A   1      47.894  25.862  26.122  1.00  0.00     0.031 C 
ATOM     47  C   UNL A   1      41.367  26.780  28.157  1.00  0.00     0.029 A 
ATOM     48  C   UNL A   1      42.252  27.929  28.330  1.00  0.00     0.049 A 
ATOM     49  H   UNL A   1      44.251  28.084  27.763  1.00  0.00     0.167 HD
ATOM     50  C   UNL A   1      48.500  28.187  26.716  1.00  0.00     0.034 A 
ATOM     51  C   UNL A   1      41.901  29.104  28.891  1.00  0.00     0.034 A 
ATOM     52  C   UNL A   1      48.187  29.509  27.186  1.00  0.00     0.049 A 
ATOM     53  C   UNL A   1      42.920  30.206  28.972  1.00  0.00     0.074 A 
ATOM     54  C   UNL A   1      49.019  30.613  27.257  1.00  0.00     0.029 A 
ATOM     55  N   UNL A   1      46.949  29.909  27.666  1.00  0.00    -0.354 N 
ATOM     56  N   UNL A   1      44.165  30.209  28.558  1.00  0.00    -0.248 NA
ATOM     57  C   UNL A   1      42.483  31.477  29.567  1.00  0.00     0.031 C 
ATOM     58  C   UNL A   1      48.290  31.672  27.805  1.00  0.00     0.029 A 
ATOM     59  C   UNL A   1      46.994  31.240  28.043  1.00  0.00     0.049 A 
ATOM     60  H   UNL A   1      46.155  29.330  27.730  1.00  0.00     0.167 HD
ATOM     61  C   UNL A   1      44.650  31.487  28.811  1.00  0.00     0.074 A 
ATOM     62  C   UNL A   1      43.559  32.237  29.401  1.00  0.00     0.031 C 
ATOM     63  C   UNL A   1      45.889  31.988  28.585  1.00  0.00     0.034 A 
BRANCH  50  64
ATOM     64  C   UNL A   1      49.903  27.913  26.238  1.00  0.00     0.023 A 
ATOM     65  C   UNL A   1      50.898  27.567  27.175  1.00  0.00     0.012 A 
ATOM     66  C   UNL A   1      50.222  27.923  24.866  1.00  0.00     0.148 A 
ATOM     67  C   UNL A   1      52.195  27.269  26.761  1.00  0.00     0.002 A 
ATOM     68  C   UNL A   1      51.504  27.577  24.456  1.00  0.00     0.091 A 
ATOM     69  F   UNL A   1      49.269  28.274  23.989  1.00  0.00    -0.205 F 
ATOM     70  C   UNL A   1      52.494  27.261  25.401  1.00  0.00     0.022 A 
BRANCH  68  71
ATOM     71  S   UNL A   1      51.970  27.451  22.725  1.00  0.00     0.127 S 
ATOM     72  O   UNL A   1      53.182  26.637  22.804  1.00  0.00    -0.237 OA
ATOM     73  O   UNL A   1      50.814  26.768  22.145  1.00  0.00    -0.237 OA
ATOM     74  O   UNL A   1      52.166  28.817  22.261  1.00  0.00    -0.744 OA
ENDBRANCH  68  71
ENDBRANCH  50  64
BRANCH  51  75
ATOM     75  C   UNL A   1      40.494  29.313  29.332  1.00  0.00     0.023 A 
ATOM     76  C   UNL A   1      39.527  29.692  28.380  1.00  0.00     0.012 A 
ATOM     77  C   UNL A   1      40.093  29.066  30.659  1.00  0.00     0.148 A 
ATOM     78  C   UNL A   1      38.188  29.834  28.745  1.00  0.00     0.002 A 
ATOM     79  C   UNL A   1      38.749  29.156  31.004  1.00  0.00     0.091 A 
ATOM     80  F   UNL A   1      41.030  28.712  31.549  1.00  0.00    -0.205 F 
ATOM     81  C   UNL A   1      37.797  29.555  30.051  1.00  0.00     0.022 A 
BRANCH  79  82
ATOM     82  S   UNL A   1      38.129  28.679  32.621  1.00  0.00     0.127 S 
ATOM     83  O   UNL A   1      39.004  29.437  33.512  1.00  0.00    -0.237 OA
ATOM     84  O   UNL A   1      36.746  29.153  32.562  1.00  0.00    -0.237 OA
ATOM     85  O   UNL A   1      38.268  27.231  32.688  1.00  0.00    -0.744 OA
ENDBRANCH  79  82
ENDBRANCH  51  75
BRANCH  63  86
ATOM     86  C   UNL A   1      46.149  33.428  28.947  1.00  0.00     0.023 A 
ATOM     87  C   UNL A   1      46.713  33.744  30.198  1.00  0.00     0.012 A 
ATOM     88  C   UNL A   1      45.949  34.452  27.998  1.00  0.00     0.148 A 
ATOM     89  C   UNL A   1      47.058  35.058  30.507  1.00  0.00     0.002 A 
ATOM     90  C   UNL A   1      46.343  35.751  28.294  1.00  0.00     0.091 A 
ATOM     91  F   UNL A   1      45.396  34.131  26.820  1.00  0.00    -0.205 F 
ATOM     92  C   UNL A   1      46.888  36.057  29.551  1.00  0.00     0.022 A 
BRANCH  90  93
ATOM     93  S   UNL A   1      46.264  37.083  27.091  1.00  0.00     0.127 S 
ATOM     94  O   UNL A   1      47.087  38.109  27.729  1.00  0.00    -0.237 OA
ATOM     95  O   UNL A   1      46.865  36.467  25.909  1.00  0.00    -0.237 OA
ATOM     96  O   UNL A   1      44.854  37.418  26.950  1.00  0.00    -0.744 OA
ENDBRANCH  90  93
ENDBRANCH  63  86
ENDBRANCH  37  38
ENDBRANCH  29  32
ENDBRANCH  27  28
ENDBRANCH  26  27
ENDBRANCH   1  26
TORSDOF 18
ENDMDL
