MODEL 1
REMARK VINA RESULT:     -12.0      0.000      0.000
REMARK SMILES O=C(NCCCCCCNC(=O)c1ccc(-c2c3nc(c(-c4cccc(S(=O)(=O)[O-])c4F)c4ccc([nH]4)c(-c4cccc(S(=O)(=O)[O-])c4F)c4nc(c(-c5cccc(S(=O)(=O)[O-])c5F)c5ccc2[nH]5)C=C4)C=C3)cc1)C1=Cc2c(Cl)cc(Cl)cc2O[C@@H]1C(F)(F)F
REMARK SMILES IDX 7 1 6 2 5 3 4 4 3 5 1 6 2 7 76 9 77 10 87 11 78 12 86 13
REMARK SMILES IDX 79 14 85 15 80 16 81 17 84 18 82 19 83 20 88 21 89 22 90 23
REMARK SMILES IDX 91 24 8 25 9 26 10 27 11 28 12 30 13 31 14 32 75 33 15 34
REMARK SMILES IDX 74 35 16 36 17 37 18 38 68 39 19 40 73 41 67 42 69 43 20 44
REMARK SMILES IDX 72 45 66 46 65 47 21 49 53 50 33 51 52 52 34 53 37 54 51 55
REMARK SMILES IDX 70 56 35 57 36 58 50 60 71 61 38 62 22 63 23 64 31 65 24 66
REMARK SMILES IDX 26 67 32 68 25 69 27 70 28 71 29 72 30 73 54 74 55 75 63 76
REMARK SMILES IDX 56 77 58 78 64 79 57 80 59 81 60 82 61 83 62 84 39 85 40 86
REMARK SMILES IDX 48 87 41 88 43 89 49 90 42 91 44 92 45 93 46 94 47 95
REMARK H PARENT 3 8 10 29 69 48 37 59
REMARK Flexibility Score: inf
ROOT
ATOM      1  C   UNL A   1      33.672  28.256  23.862  1.00  0.00     0.002 C 
ENDROOT
BRANCH   1   2
ATOM      2  C   UNL A   1      33.099  27.583  22.609  1.00  0.00     0.002 C 
BRANCH   2   3
ATOM      3  C   UNL A   1      31.605  27.273  22.614  1.00  0.00     0.021 C 
BRANCH   3   4
ATOM      4  C   UNL A   1      31.209  25.819  22.380  1.00  0.00     0.116 C 
BRANCH   4   5
ATOM      5  N   UNL A   1      32.212  24.996  21.727  1.00  0.00    -0.352 N 
ATOM      6  O   UNL A   1      33.683  23.316  21.491  1.00  0.00    -0.270 OA
ATOM      7  C   UNL A   1      32.997  24.004  22.248  1.00  0.00     0.251 C 
ATOM      8  H   UNL A   1      32.346  25.179  20.769  1.00  0.00     0.163 HD
BRANCH   7   9
ATOM      9  C   UNL A   1      32.984  23.654  23.699  1.00  0.00     0.067 C 
ATOM     10  C   UNL A   1      32.696  22.416  24.137  1.00  0.00     0.027 C 
ATOM     11  C   UNL A   1      33.902  24.524  24.523  1.00  0.00     0.314 C 
ATOM     12  C   UNL A   1      33.903  21.715  24.664  1.00  0.00     0.036 A 
ATOM     13  O   UNL A   1      35.133  23.829  24.852  1.00  0.00    -0.475 OA
ATOM     14  C   UNL A   1      33.966  20.308  24.683  1.00  0.00     0.053 A 
ATOM     15  C   UNL A   1      35.077  22.456  24.888  1.00  0.00     0.130 A 
ATOM     16  Cl  UNL A   1      32.566  19.335  24.383  1.00  0.00    -0.083 Cl
ATOM     17  C   UNL A   1      35.193  19.660  24.819  1.00  0.00     0.042 A 
ATOM     18  C   UNL A   1      36.299  21.805  25.041  1.00  0.00     0.067 A 
ATOM     19  C   UNL A   1      36.355  20.415  24.966  1.00  0.00     0.046 A 
ATOM     20  Cl  UNL A   1      37.883  19.629  24.962  1.00  0.00    -0.084 Cl
BRANCH  11  21
ATOM     21  C   UNL A   1      33.215  25.079  25.781  1.00  0.00     0.429 C 
ATOM     22  F   UNL A   1      33.258  24.188  26.800  1.00  0.00    -0.167 F 
ATOM     23  F   UNL A   1      33.819  26.209  26.224  1.00  0.00    -0.167 F 
ATOM     24  F   UNL A   1      31.913  25.384  25.567  1.00  0.00    -0.167 F 
ENDBRANCH  11  21
ENDBRANCH   7   9
ENDBRANCH   4   5
ENDBRANCH   3   4
ENDBRANCH   2   3
ENDBRANCH   1   2
BRANCH   1  25
ATOM     25  C   UNL A   1      32.833  29.362  24.513  1.00  0.00     0.021 C 
BRANCH  25  26
ATOM     26  C   UNL A   1      33.004  29.557  26.019  1.00  0.00     0.116 C 
BRANCH  26  27
ATOM     27  N   UNL A   1      32.847  30.938  26.434  1.00  0.00    -0.352 N 
ATOM     28  C   UNL A   1      33.573  31.686  27.330  1.00  0.00     0.251 C 
ATOM     29  H   UNL A   1      32.103  31.418  26.004  1.00  0.00     0.163 HD
ATOM     30  O   UNL A   1      33.175  32.812  27.626  1.00  0.00    -0.269 OA
BRANCH  28  31
ATOM     31  C   UNL A   1      34.809  31.158  27.959  1.00  0.00     0.039 A 
ATOM     32  C   UNL A   1      35.940  31.981  27.993  1.00  0.00     0.014 A 
ATOM     33  C   UNL A   1      34.889  29.858  28.463  1.00  0.00     0.014 A 
ATOM     34  C   UNL A   1      37.127  31.520  28.572  1.00  0.00     0.010 A 
ATOM     35  C   UNL A   1      36.054  29.422  29.100  1.00  0.00     0.010 A 
ATOM     36  C   UNL A   1      37.190  30.245  29.153  1.00  0.00    -0.014 A 
BRANCH  36  37
ATOM     37  C   UNL A   1      38.430  29.764  29.821  1.00  0.00     0.031 A 
ATOM     38  C   UNL A   1      38.845  30.317  31.160  1.00  0.00     0.074 A 
ATOM     39  C   UNL A   1      39.224  28.872  29.194  1.00  0.00     0.049 A 
ATOM     40  N   UNL A   1      39.912  30.052  31.868  1.00  0.00    -0.248 NA
ATOM     41  C   UNL A   1      37.954  31.315  31.775  1.00  0.00     0.031 C 
ATOM     42  C   UNL A   1      38.978  28.312  27.863  1.00  0.00     0.029 A 
ATOM     43  N   UNL A   1      40.412  28.301  29.578  1.00  0.00    -0.354 N 
ATOM     44  C   UNL A   1      39.839  30.865  32.993  1.00  0.00     0.074 A 
ATOM     45  C   UNL A   1      38.638  31.661  32.857  1.00  0.00     0.031 C 
ATOM     46  C   UNL A   1      39.984  27.484  27.541  1.00  0.00     0.029 A 
ATOM     47  C   UNL A   1      40.961  27.473  28.625  1.00  0.00     0.049 A 
ATOM     48  H   UNL A   1      40.833  28.469  30.453  1.00  0.00     0.167 HD
ATOM     49  C   UNL A   1      40.675  30.925  34.058  1.00  0.00     0.034 A 
ATOM     50  C   UNL A   1      42.124  26.791  28.617  1.00  0.00     0.034 A 
ATOM     51  C   UNL A   1      41.849  30.108  34.212  1.00  0.00     0.049 A 
ATOM     52  C   UNL A   1      43.017  26.850  29.827  1.00  0.00     0.074 A 
ATOM     53  C   UNL A   1      42.719  30.047  35.287  1.00  0.00     0.029 A 
ATOM     54  N   UNL A   1      42.323  29.215  33.264  1.00  0.00    -0.354 N 
ATOM     55  N   UNL A   1      42.850  27.513  30.945  1.00  0.00    -0.248 NA
ATOM     56  C   UNL A   1      44.241  26.035  29.791  1.00  0.00     0.031 C 
ATOM     57  C   UNL A   1      43.729  29.130  34.981  1.00  0.00     0.029 A 
ATOM     58  C   UNL A   1      43.474  28.600  33.726  1.00  0.00     0.049 A 
ATOM     59  H   UNL A   1      41.902  29.041  32.392  1.00  0.00     0.167 HD
ATOM     60  C   UNL A   1      43.925  27.170  31.757  1.00  0.00     0.074 A 
ATOM     61  C   UNL A   1      44.725  26.220  31.012  1.00  0.00     0.031 C 
ATOM     62  C   UNL A   1      44.232  27.614  33.001  1.00  0.00     0.034 A 
BRANCH  49  63
ATOM     63  C   UNL A   1      40.319  31.871  35.178  1.00  0.00     0.023 A 
ATOM     64  C   UNL A   1      40.954  33.129  35.248  1.00  0.00     0.012 A 
ATOM     65  C   UNL A   1      39.313  31.553  36.110  1.00  0.00     0.148 A 
ATOM     66  C   UNL A   1      40.617  34.041  36.247  1.00  0.00     0.002 A 
ATOM     67  C   UNL A   1      38.951  32.486  37.076  1.00  0.00     0.091 A 
ATOM     68  F   UNL A   1      38.731  30.347  36.038  1.00  0.00    -0.205 F 
ATOM     69  C   UNL A   1      39.609  33.724  37.153  1.00  0.00     0.022 A 
BRANCH  67  70
ATOM     70  S   UNL A   1      37.612  32.209  38.243  1.00  0.00     0.127 S 
ATOM     71  O   UNL A   1      36.571  33.087  37.711  1.00  0.00    -0.237 OA
ATOM     72  O   UNL A   1      37.350  30.781  38.076  1.00  0.00    -0.237 OA
ATOM     73  O   UNL A   1      38.135  32.584  39.550  1.00  0.00    -0.744 OA
ENDBRANCH  67  70
ENDBRANCH  49  63
BRANCH  50  74
ATOM     74  C   UNL A   1      42.488  25.952  27.441  1.00  0.00     0.023 A 
ATOM     75  C   UNL A   1      43.219  26.520  26.379  1.00  0.00     0.012 A 
ATOM     76  C   UNL A   1      42.130  24.591  27.376  1.00  0.00     0.148 A 
ATOM     77  C   UNL A   1      43.554  25.759  25.258  1.00  0.00     0.002 A 
ATOM     78  C   UNL A   1      42.516  23.824  26.283  1.00  0.00     0.091 A 
ATOM     79  F   UNL A   1      41.423  24.071  28.390  1.00  0.00    -0.205 F 
ATOM     80  C   UNL A   1      43.212  24.410  25.215  1.00  0.00     0.022 A 
BRANCH  78  81
ATOM     81  S   UNL A   1      42.234  22.052  26.206  1.00  0.00     0.127 S 
ATOM     82  O   UNL A   1      40.794  21.988  25.977  1.00  0.00    -0.237 OA
ATOM     83  O   UNL A   1      43.060  21.662  25.063  1.00  0.00    -0.237 OA
ATOM     84  O   UNL A   1      42.698  21.526  27.485  1.00  0.00    -0.744 OA
ENDBRANCH  78  81
ENDBRANCH  50  74
BRANCH  62  85
ATOM     85  C   UNL A   1      45.465  27.053  33.662  1.00  0.00     0.023 A 
ATOM     86  C   UNL A   1      46.688  27.745  33.568  1.00  0.00     0.012 A 
ATOM     87  C   UNL A   1      45.392  25.878  34.436  1.00  0.00     0.148 A 
ATOM     88  C   UNL A   1      47.828  27.259  34.208  1.00  0.00     0.002 A 
ATOM     89  C   UNL A   1      46.520  25.427  35.111  1.00  0.00     0.091 A 
ATOM     90  F   UNL A   1      44.224  25.224  34.497  1.00  0.00    -0.205 F 
ATOM     91  C   UNL A   1      47.742  26.108  34.988  1.00  0.00     0.022 A 
BRANCH  89  92
ATOM     92  S   UNL A   1      46.481  24.009  36.214  1.00  0.00     0.127 S 
ATOM     93  O   UNL A   1      47.820  24.050  36.799  1.00  0.00    -0.237 OA
ATOM     94  O   UNL A   1      45.401  24.362  37.135  1.00  0.00    -0.237 OA
ATOM     95  O   UNL A   1      46.204  22.853  35.371  1.00  0.00    -0.744 OA
ENDBRANCH  89  92
ENDBRANCH  62  85
ENDBRANCH  36  37
ENDBRANCH  28  31
ENDBRANCH  26  27
ENDBRANCH  25  26
ENDBRANCH   1  25
TORSDOF 17
ENDMDL
MODEL 2
REMARK VINA RESULT:     -11.9      3.416      4.986
REMARK SMILES O=C(NCCCCCCNC(=O)c1ccc(-c2c3nc(c(-c4cccc(S(=O)(=O)[O-])c4F)c4ccc([nH]4)c(-c4cccc(S(=O)(=O)[O-])c4F)c4nc(c(-c5cccc(S(=O)(=O)[O-])c5F)c5ccc2[nH]5)C=C4)C=C3)cc1)C1=Cc2c(Cl)cc(Cl)cc2O[C@@H]1C(F)(F)F
REMARK SMILES IDX 7 1 6 2 5 3 4 4 3 5 1 6 2 7 76 9 77 10 87 11 78 12 86 13
REMARK SMILES IDX 79 14 85 15 80 16 81 17 84 18 82 19 83 20 88 21 89 22 90 23
REMARK SMILES IDX 91 24 8 25 9 26 10 27 11 28 12 30 13 31 14 32 75 33 15 34
REMARK SMILES IDX 74 35 16 36 17 37 18 38 68 39 19 40 73 41 67 42 69 43 20 44
REMARK SMILES IDX 72 45 66 46 65 47 21 49 53 50 33 51 52 52 34 53 37 54 51 55
REMARK SMILES IDX 70 56 35 57 36 58 50 60 71 61 38 62 22 63 23 64 31 65 24 66
REMARK SMILES IDX 26 67 32 68 25 69 27 70 28 71 29 72 30 73 54 74 55 75 63 76
REMARK SMILES IDX 56 77 58 78 64 79 57 80 59 81 60 82 61 83 62 84 39 85 40 86
REMARK SMILES IDX 48 87 41 88 43 89 49 90 42 91 44 92 45 93 46 94 47 95
REMARK H PARENT 3 8 10 29 69 48 37 59
REMARK Flexibility Score: inf
ROOT
ATOM      1  C   UNL A   1      32.931  26.688  26.192  1.00  0.00     0.002 C 
ENDROOT
BRANCH   1   2
ATOM      2  C   UNL A   1      34.197  25.935  25.765  1.00  0.00     0.002 C 
BRANCH   2   3
ATOM      3  C   UNL A   1      34.192  25.310  24.373  1.00  0.00     0.021 C 
BRANCH   3   4
ATOM      4  C   UNL A   1      33.136  25.823  23.399  1.00  0.00     0.116 C 
BRANCH   4   5
ATOM      5  N   UNL A   1      33.386  27.141  22.844  1.00  0.00    -0.352 N 
ATOM      6  O   UNL A   1      33.083  29.340  22.507  1.00  0.00    -0.270 OA
ATOM      7  C   UNL A   1      32.623  28.275  22.916  1.00  0.00     0.251 C 
ATOM      8  H   UNL A   1      34.228  27.233  22.342  1.00  0.00     0.163 HD
BRANCH   7   9
ATOM      9  C   UNL A   1      31.278  28.293  23.564  1.00  0.00     0.067 C 
ATOM     10  C   UNL A   1      30.854  29.327  24.312  1.00  0.00     0.027 C 
ATOM     11  C   UNL A   1      30.258  27.459  22.828  1.00  0.00     0.314 C 
ATOM     12  C   UNL A   1      29.793  30.117  23.623  1.00  0.00     0.036 A 
ATOM     13  O   UNL A   1      29.366  28.291  22.041  1.00  0.00    -0.475 OA
ATOM     14  C   UNL A   1      29.581  31.471  23.946  1.00  0.00     0.053 A 
ATOM     15  C   UNL A   1      29.191  29.586  22.468  1.00  0.00     0.130 A 
ATOM     16  Cl  UNL A   1      30.317  32.197  25.334  1.00  0.00    -0.083 Cl
ATOM     17  C   UNL A   1      28.870  32.299  23.078  1.00  0.00     0.042 A 
ATOM     18  C   UNL A   1      28.467  30.412  21.612  1.00  0.00     0.067 A 
ATOM     19  C   UNL A   1      28.344  31.770  21.901  1.00  0.00     0.046 A 
ATOM     20  Cl  UNL A   1      27.618  32.818  20.749  1.00  0.00    -0.084 Cl
BRANCH  11  21
ATOM     21  C   UNL A   1      29.477  26.523  23.763  1.00  0.00     0.429 C 
ATOM     22  F   UNL A   1      29.814  26.727  25.059  1.00  0.00    -0.167 F 
ATOM     23  F   UNL A   1      28.139  26.725  23.671  1.00  0.00    -0.167 F 
ATOM     24  F   UNL A   1      29.699  25.215  23.490  1.00  0.00    -0.167 F 
ENDBRANCH  11  21
ENDBRANCH   7   9
ENDBRANCH   4   5
ENDBRANCH   3   4
ENDBRANCH   2   3
ENDBRANCH   1   2
BRANCH   1  25
ATOM     25  C   UNL A   1      33.117  28.052  26.866  1.00  0.00     0.021 C 
BRANCH  25  26
ATOM     26  C   UNL A   1      33.919  29.096  26.091  1.00  0.00     0.116 C 
BRANCH  26  27
ATOM     27  N   UNL A   1      33.803  30.431  26.649  1.00  0.00    -0.352 N 
ATOM     28  C   UNL A   1      34.557  31.064  27.607  1.00  0.00     0.251 C 
ATOM     29  H   UNL A   1      33.065  30.970  26.281  1.00  0.00     0.163 HD
ATOM     30  O   UNL A   1      34.192  32.162  28.022  1.00  0.00    -0.269 OA
BRANCH  28  31
ATOM     31  C   UNL A   1      35.787  30.444  28.160  1.00  0.00     0.039 A 
ATOM     32  C   UNL A   1      36.995  30.648  27.484  1.00  0.00     0.014 A 
ATOM     33  C   UNL A   1      35.762  29.629  29.294  1.00  0.00     0.014 A 
ATOM     34  C   UNL A   1      38.176  30.077  27.968  1.00  0.00     0.010 A 
ATOM     35  C   UNL A   1      36.952  29.115  29.814  1.00  0.00     0.010 A 
ATOM     36  C   UNL A   1      38.172  29.324  29.153  1.00  0.00    -0.014 A 
BRANCH  36  37
ATOM     37  C   UNL A   1      39.432  28.758  29.709  1.00  0.00     0.031 A 
ATOM     38  C   UNL A   1      40.087  29.383  30.914  1.00  0.00     0.074 A 
ATOM     39  C   UNL A   1      40.025  27.716  29.092  1.00  0.00     0.049 A 
ATOM     40  N   UNL A   1      41.206  29.056  31.507  1.00  0.00    -0.248 NA
ATOM     41  C   UNL A   1      39.408  30.540  31.519  1.00  0.00     0.031 C 
ATOM     42  C   UNL A   1      39.535  27.064  27.875  1.00  0.00     0.029 A 
ATOM     43  N   UNL A   1      41.184  27.040  29.385  1.00  0.00    -0.354 N 
ATOM     44  C   UNL A   1      41.381  29.977  32.532  1.00  0.00     0.074 A 
ATOM     45  C   UNL A   1      40.270  30.901  32.459  1.00  0.00     0.031 C 
ATOM     46  C   UNL A   1      40.388  26.089  27.525  1.00  0.00     0.029 A 
ATOM     47  C   UNL A   1      41.498  26.061  28.471  1.00  0.00     0.049 A 
ATOM     48  H   UNL A   1      41.738  27.238  30.175  1.00  0.00     0.167 HD
ATOM     49  C   UNL A   1      42.359  30.035  33.469  1.00  0.00     0.034 A 
ATOM     50  C   UNL A   1      42.566  25.240  28.394  1.00  0.00     0.034 A 
ATOM     51  C   UNL A   1      43.444  29.095  33.565  1.00  0.00     0.049 A 
ATOM     52  C   UNL A   1      43.619  25.303  29.467  1.00  0.00     0.074 A 
ATOM     53  C   UNL A   1      44.442  29.030  34.522  1.00  0.00     0.029 A 
ATOM     54  N   UNL A   1      43.678  28.061  32.673  1.00  0.00    -0.354 N 
ATOM     55  N   UNL A   1      43.684  26.088  30.514  1.00  0.00    -0.248 NA
ATOM     56  C   UNL A   1      44.727  24.340  29.369  1.00  0.00     0.031 C 
ATOM     57  C   UNL A   1      45.291  27.967  34.197  1.00  0.00     0.029 A 
ATOM     58  C   UNL A   1      44.806  27.353  33.053  1.00  0.00     0.049 A 
ATOM     59  H   UNL A   1      43.124  27.858  31.886  1.00  0.00     0.167 HD
ATOM     60  C   UNL A   1      44.816  25.693  31.217  1.00  0.00     0.074 A 
ATOM     61  C   UNL A   1      45.394  24.582  30.490  1.00  0.00     0.031 C 
ATOM     62  C   UNL A   1      45.340  26.214  32.354  1.00  0.00     0.034 A 
BRANCH  49  63
ATOM     63  C   UNL A   1      42.270  31.122  34.510  1.00  0.00     0.023 A 
ATOM     64  C   UNL A   1      41.636  30.850  35.741  1.00  0.00     0.012 A 
ATOM     65  C   UNL A   1      42.873  32.379  34.308  1.00  0.00     0.148 A 
ATOM     66  C   UNL A   1      41.574  31.822  36.739  1.00  0.00     0.002 A 
ATOM     67  C   UNL A   1      42.846  33.326  35.325  1.00  0.00     0.091 A 
ATOM     68  F   UNL A   1      43.458  32.625  33.126  1.00  0.00    -0.205 F 
ATOM     69  C   UNL A   1      42.188  33.054  36.535  1.00  0.00     0.022 A 
BRANCH  67  70
ATOM     70  S   UNL A   1      43.674  34.917  35.196  1.00  0.00     0.127 S 
ATOM     71  O   UNL A   1      43.375  35.511  36.497  1.00  0.00    -0.237 OA
ATOM     72  O   UNL A   1      45.069  34.522  35.011  1.00  0.00    -0.237 OA
ATOM     73  O   UNL A   1      43.074  35.589  34.051  1.00  0.00    -0.744 OA
ENDBRANCH  67  70
ENDBRANCH  49  63
BRANCH  50  74
ATOM     74  C   UNL A   1      42.666  24.250  27.284  1.00  0.00     0.023 A 
ATOM     75  C   UNL A   1      43.415  24.567  26.134  1.00  0.00     0.012 A 
ATOM     76  C   UNL A   1      42.039  22.992  27.368  1.00  0.00     0.148 A 
ATOM     77  C   UNL A   1      43.508  23.665  25.073  1.00  0.00     0.002 A 
ATOM     78  C   UNL A   1      42.182  22.076  26.333  1.00  0.00     0.091 A 
ATOM     79  F   UNL A   1      41.319  22.714  28.464  1.00  0.00    -0.205 F 
ATOM     80  C   UNL A   1      42.900  22.416  25.177  1.00  0.00     0.022 A 
BRANCH  78  81
ATOM     81  S   UNL A   1      41.545  20.400  26.440  1.00  0.00     0.127 S 
ATOM     82  O   UNL A   1      42.092  19.953  27.718  1.00  0.00    -0.237 OA
ATOM     83  O   UNL A   1      40.099  20.622  26.432  1.00  0.00    -0.237 OA
ATOM     84  O   UNL A   1      42.051  19.713  25.257  1.00  0.00    -0.744 OA
ENDBRANCH  78  81
ENDBRANCH  50  74
BRANCH  62  85
ATOM     85  C   UNL A   1      46.582  25.569  32.914  1.00  0.00     0.023 A 
ATOM     86  C   UNL A   1      47.852  26.065  32.558  1.00  0.00     0.012 A 
ATOM     87  C   UNL A   1      46.487  24.518  33.849  1.00  0.00     0.148 A 
ATOM     88  C   UNL A   1      49.009  25.504  33.099  1.00  0.00     0.002 A 
ATOM     89  C   UNL A   1      47.641  23.998  34.420  1.00  0.00     0.091 A 
ATOM     90  F   UNL A   1      45.271  24.048  34.160  1.00  0.00    -0.205 F 
ATOM     91  C   UNL A   1      48.904  24.480  34.038  1.00  0.00     0.022 A 
BRANCH  89  92
ATOM     92  S   UNL A   1      47.600  22.744  35.707  1.00  0.00     0.127 S 
ATOM     93  O   UNL A   1      47.743  21.514  34.929  1.00  0.00    -0.237 OA
ATOM     94  O   UNL A   1      48.767  23.093  36.518  1.00  0.00    -0.237 OA
ATOM     95  O   UNL A   1      46.321  22.909  36.386  1.00  0.00    -0.744 OA
ENDBRANCH  89  92
ENDBRANCH  62  85
ENDBRANCH  36  37
ENDBRANCH  28  31
ENDBRANCH  26  27
ENDBRANCH  25  26
ENDBRANCH   1  25
TORSDOF 17
ENDMDL
MODEL 3
REMARK VINA RESULT:     -11.8      1.918      2.618
REMARK SMILES O=C(NCCCCCCNC(=O)c1ccc(-c2c3nc(c(-c4cccc(S(=O)(=O)[O-])c4F)c4ccc([nH]4)c(-c4cccc(S(=O)(=O)[O-])c4F)c4nc(c(-c5cccc(S(=O)(=O)[O-])c5F)c5ccc2[nH]5)C=C4)C=C3)cc1)C1=Cc2c(Cl)cc(Cl)cc2O[C@@H]1C(F)(F)F
REMARK SMILES IDX 7 1 6 2 5 3 4 4 3 5 1 6 2 7 76 9 77 10 87 11 78 12 86 13
REMARK SMILES IDX 79 14 85 15 80 16 81 17 84 18 82 19 83 20 88 21 89 22 90 23
REMARK SMILES IDX 91 24 8 25 9 26 10 27 11 28 12 30 13 31 14 32 75 33 15 34
REMARK SMILES IDX 74 35 16 36 17 37 18 38 68 39 19 40 73 41 67 42 69 43 20 44
REMARK SMILES IDX 72 45 66 46 65 47 21 49 53 50 33 51 52 52 34 53 37 54 51 55
REMARK SMILES IDX 70 56 35 57 36 58 50 60 71 61 38 62 22 63 23 64 31 65 24 66
REMARK SMILES IDX 26 67 32 68 25 69 27 70 28 71 29 72 30 73 54 74 55 75 63 76
REMARK SMILES IDX 56 77 58 78 64 79 57 80 59 81 60 82 61 83 62 84 39 85 40 86
REMARK SMILES IDX 48 87 41 88 43 89 49 90 42 91 44 92 45 93 46 94 47 95
REMARK H PARENT 3 8 10 29 69 48 37 59
REMARK Flexibility Score: inf
ROOT
ATOM      1  C   UNL A   1      33.728  28.016  24.681  1.00  0.00     0.002 C 
ENDROOT
BRANCH   1   2
ATOM      2  C   UNL A   1      33.710  27.086  25.901  1.00  0.00     0.002 C 
BRANCH   2   3
ATOM      3  C   UNL A   1      33.837  25.589  25.630  1.00  0.00     0.021 C 
BRANCH   3   4
ATOM      4  C   UNL A   1      32.681  24.711  26.097  1.00  0.00     0.116 C 
BRANCH   4   5
ATOM      5  N   UNL A   1      33.044  23.622  26.986  1.00  0.00    -0.352 N 
ATOM      6  O   UNL A   1      33.880  21.627  27.588  1.00  0.00    -0.270 OA
ATOM      7  C   UNL A   1      33.476  22.360  26.685  1.00  0.00     0.251 C 
ATOM      8  H   UNL A   1      32.966  23.822  27.947  1.00  0.00     0.163 HD
BRANCH   7   9
ATOM      9  C   UNL A   1      33.569  21.861  25.281  1.00  0.00     0.067 C 
ATOM     10  C   UNL A   1      34.615  21.138  24.842  1.00  0.00     0.027 C 
ATOM     11  C   UNL A   1      32.219  21.654  24.638  1.00  0.00     0.314 C 
ATOM     12  C   UNL A   1      34.252  19.709  24.618  1.00  0.00     0.036 A 
ATOM     13  O   UNL A   1      31.858  20.247  24.612  1.00  0.00    -0.475 OA
ATOM     14  C   UNL A   1      35.233  18.701  24.671  1.00  0.00     0.053 A 
ATOM     15  C   UNL A   1      32.894  19.343  24.621  1.00  0.00     0.130 A 
ATOM     16  Cl  UNL A   1      36.922  19.082  24.703  1.00  0.00    -0.083 Cl
ATOM     17  C   UNL A   1      34.863  17.366  24.830  1.00  0.00     0.042 A 
ATOM     18  C   UNL A   1      32.527  18.007  24.762  1.00  0.00     0.067 A 
ATOM     19  C   UNL A   1      33.513  17.032  24.905  1.00  0.00     0.046 A 
ATOM     20  Cl  UNL A   1      33.057  15.416  25.271  1.00  0.00    -0.084 Cl
BRANCH  11  21
ATOM     21  C   UNL A   1      32.129  22.285  23.240  1.00  0.00     0.429 C 
ATOM     22  F   UNL A   1      32.239  21.349  22.268  1.00  0.00    -0.167 F 
ATOM     23  F   UNL A   1      30.940  22.908  23.048  1.00  0.00    -0.167 F 
ATOM     24  F   UNL A   1      33.098  23.206  23.025  1.00  0.00    -0.167 F 
ENDBRANCH  11  21
ENDBRANCH   7   9
ENDBRANCH   4   5
ENDBRANCH   3   4
ENDBRANCH   2   3
ENDBRANCH   1   2
BRANCH   1  25
ATOM     25  C   UNL A   1      32.851  29.272  24.740  1.00  0.00     0.021 C 
BRANCH  25  26
ATOM     26  C   UNL A   1      32.254  29.628  26.101  1.00  0.00     0.116 C 
BRANCH  26  27
ATOM     27  N   UNL A   1      32.163  31.059  26.324  1.00  0.00    -0.352 N 
ATOM     28  C   UNL A   1      32.935  31.890  27.100  1.00  0.00     0.251 C 
ATOM     29  H   UNL A   1      31.430  31.507  25.843  1.00  0.00     0.163 HD
ATOM     30  O   UNL A   1      32.590  33.061  27.243  1.00  0.00    -0.269 OA
BRANCH  28  31
ATOM     31  C   UNL A   1      34.161  31.400  27.779  1.00  0.00     0.039 A 
ATOM     32  C   UNL A   1      35.150  32.329  28.115  1.00  0.00     0.014 A 
ATOM     33  C   UNL A   1      34.373  30.044  28.040  1.00  0.00     0.014 A 
ATOM     34  C   UNL A   1      36.323  31.909  28.750  1.00  0.00     0.010 A 
ATOM     35  C   UNL A   1      35.513  29.633  28.734  1.00  0.00     0.010 A 
ATOM     36  C   UNL A   1      36.507  30.559  29.089  1.00  0.00    -0.014 A 
BRANCH  36  37
ATOM     37  C   UNL A   1      37.725  30.107  29.815  1.00  0.00     0.031 A 
ATOM     38  C   UNL A   1      38.034  30.630  31.195  1.00  0.00     0.074 A 
ATOM     39  C   UNL A   1      38.592  29.272  29.209  1.00  0.00     0.049 A 
ATOM     40  N   UNL A   1      39.069  30.386  31.958  1.00  0.00    -0.248 NA
ATOM     41  C   UNL A   1      37.066  31.568  31.786  1.00  0.00     0.031 C 
ATOM     42  C   UNL A   1      38.451  28.748  27.849  1.00  0.00     0.029 A 
ATOM     43  N   UNL A   1      39.780  28.738  29.646  1.00  0.00    -0.354 N 
ATOM     44  C   UNL A   1      38.893  31.155  33.102  1.00  0.00     0.074 A 
ATOM     45  C   UNL A   1      37.669  31.904  32.918  1.00  0.00     0.031 C 
ATOM     46  C   UNL A   1      39.510  27.975  27.562  1.00  0.00     0.029 A 
ATOM     47  C   UNL A   1      40.420  27.967  28.702  1.00  0.00     0.049 A 
ATOM     48  H   UNL A   1      40.140  28.892  30.550  1.00  0.00     0.167 HD
ATOM     49  C   UNL A   1      39.660  31.213  34.217  1.00  0.00     0.034 A 
ATOM     50  C   UNL A   1      41.610  27.335  28.744  1.00  0.00     0.034 A 
ATOM     51  C   UNL A   1      40.858  30.440  34.415  1.00  0.00     0.049 A 
ATOM     52  C   UNL A   1      42.427  27.389  30.007  1.00  0.00     0.074 A 
ATOM     53  C   UNL A   1      41.664  30.378  35.539  1.00  0.00     0.029 A 
ATOM     54  N   UNL A   1      41.426  29.601  33.470  1.00  0.00    -0.354 N 
ATOM     55  N   UNL A   1      42.164  28.005  31.133  1.00  0.00    -0.248 NA
ATOM     56  C   UNL A   1      43.685  26.627  30.019  1.00  0.00     0.031 C 
ATOM     57  C   UNL A   1      42.730  29.515  35.265  1.00  0.00     0.029 A 
ATOM     58  C   UNL A   1      42.573  29.019  33.981  1.00  0.00     0.049 A 
ATOM     59  H   UNL A   1      41.066  29.441  32.568  1.00  0.00     0.167 HD
ATOM     60  C   UNL A   1      43.203  27.678  31.998  1.00  0.00     0.074 A 
ATOM     61  C   UNL A   1      44.087  26.790  31.272  1.00  0.00     0.031 C 
ATOM     62  C   UNL A   1      43.415  28.091  33.271  1.00  0.00     0.034 A 
BRANCH  49  63
ATOM     63  C   UNL A   1      39.198  32.102  35.343  1.00  0.00     0.023 A 
ATOM     64  C   UNL A   1      38.268  31.604  36.280  1.00  0.00     0.012 A 
ATOM     65  C   UNL A   1      39.731  33.394  35.520  1.00  0.00     0.148 A 
ATOM     66  C   UNL A   1      37.853  32.388  37.355  1.00  0.00     0.002 A 
ATOM     67  C   UNL A   1      39.345  34.153  36.619  1.00  0.00     0.091 A 
ATOM     68  F   UNL A   1      40.601  33.857  34.611  1.00  0.00    -0.205 F 
ATOM     69  C   UNL A   1      38.399  33.656  37.531  1.00  0.00     0.022 A 
BRANCH  67  70
ATOM     70  S   UNL A   1      40.045  35.767  36.982  1.00  0.00     0.127 S 
ATOM     71  O   UNL A   1      39.656  36.531  35.798  1.00  0.00    -0.237 OA
ATOM     72  O   UNL A   1      39.340  36.140  38.208  1.00  0.00    -0.237 OA
ATOM     73  O   UNL A   1      41.478  35.557  37.144  1.00  0.00    -0.744 OA
ENDBRANCH  67  70
ENDBRANCH  49  63
BRANCH  50  74
ATOM     74  C   UNL A   1      42.080  26.553  27.565  1.00  0.00     0.023 A 
ATOM     75  C   UNL A   1      42.838  27.190  26.563  1.00  0.00     0.012 A 
ATOM     76  C   UNL A   1      41.795  25.179  27.439  1.00  0.00     0.148 A 
ATOM     77  C   UNL A   1      43.273  26.484  25.441  1.00  0.00     0.002 A 
ATOM     78  C   UNL A   1      42.278  24.468  26.347  1.00  0.00     0.091 A 
ATOM     79  F   UNL A   1      41.060  24.594  28.395  1.00  0.00    -0.205 F 
ATOM     80  C   UNL A   1      43.001  25.122  25.338  1.00  0.00     0.022 A 
BRANCH  78  81
ATOM     81  S   UNL A   1      42.089  22.688  26.201  1.00  0.00     0.127 S 
ATOM     82  O   UNL A   1      42.762  22.419  24.934  1.00  0.00    -0.237 OA
ATOM     83  O   UNL A   1      42.796  22.209  27.390  1.00  0.00    -0.237 OA
ATOM     84  O   UNL A   1      40.652  22.444  26.222  1.00  0.00    -0.744 OA
ENDBRANCH  78  81
ENDBRANCH  50  74
BRANCH  62  85
ATOM     85  C   UNL A   1      44.630  27.559  33.988  1.00  0.00     0.023 A 
ATOM     86  C   UNL A   1      45.841  28.278  33.945  1.00  0.00     0.012 A 
ATOM     87  C   UNL A   1      44.549  26.385  34.764  1.00  0.00     0.148 A 
ATOM     88  C   UNL A   1      46.962  27.818  34.635  1.00  0.00     0.002 A 
ATOM     89  C   UNL A   1      45.656  25.961  35.489  1.00  0.00     0.091 A 
ATOM     90  F   UNL A   1      43.393  25.706  34.777  1.00  0.00    -0.205 F 
ATOM     91  C   UNL A   1      46.867  26.669  35.416  1.00  0.00     0.022 A 
BRANCH  89  92
ATOM     92  S   UNL A   1      45.599  24.547  36.595  1.00  0.00     0.127 S 
ATOM     93  O   UNL A   1      46.985  24.473  37.055  1.00  0.00    -0.237 OA
ATOM     94  O   UNL A   1      44.642  24.985  37.611  1.00  0.00    -0.237 OA
ATOM     95  O   UNL A   1      45.150  23.422  35.786  1.00  0.00    -0.744 OA
ENDBRANCH  89  92
ENDBRANCH  62  85
ENDBRANCH  36  37
ENDBRANCH  28  31
ENDBRANCH  26  27
ENDBRANCH  25  26
ENDBRANCH   1  25
TORSDOF 17
ENDMDL
