MODEL 1
REMARK VINA RESULT:     -12.3      0.000      0.000
REMARK SMILES Cc1cc(C)c2c(c1)C=C(C(=O)NCCCCCCNC(=O)c1ccc(-c3c4nc(c(-c5cccc(S(=O)(=O)[O-])c5F)c5ccc([nH]5)c(-c5cccc(S(=O)(=O)[O-])c5F)c5nc(c(-c6cccc(S(=O)(=O)[O-])c6F)c6ccc3[nH]6)C=C5)C=C4)cc1)[C@@H](C(F)(F)F)O2
REMARK SMILES IDX 17 1 16 2 15 3 14 4 13 5 11 6 12 7 10 9 1 10 2 11 3 12 8 13
REMARK SMILES IDX 4 14 7 15 5 16 6 17 9 18 91 19 86 20 87 21 88 22 89 23 90 24
REMARK SMILES IDX 18 25 19 26 20 27 21 28 22 30 23 31 24 32 85 33 25 34 84 35
REMARK SMILES IDX 26 36 27 37 28 38 78 39 29 40 83 41 77 42 79 43 30 44 82 45
REMARK SMILES IDX 76 46 75 47 31 49 63 50 43 51 62 52 44 53 47 54 61 55 80 56
REMARK SMILES IDX 45 57 46 58 60 60 81 61 48 62 32 63 33 64 41 65 34 66 36 67
REMARK SMILES IDX 42 68 35 69 37 70 38 71 39 72 40 73 64 74 65 75 73 76 66 77
REMARK SMILES IDX 68 78 74 79 67 80 69 81 70 82 71 83 72 84 49 85 50 86 58 87
REMARK SMILES IDX 51 88 53 89 59 90 52 91 54 92 55 93 56 94 57 95
REMARK H PARENT 13 8 20 29 79 48 47 59
REMARK Flexibility Score: inf
ROOT
ATOM      1  C   UNL A   1      31.058  27.860  25.501  1.00  0.00     0.002 C 
ENDROOT
BRANCH   1   2
ATOM      2  C   UNL A   1      30.787  28.470  24.120  1.00  0.00     0.002 C 
BRANCH   2   3
ATOM      3  C   UNL A   1      30.019  27.566  23.152  1.00  0.00     0.021 C 
BRANCH   3   4
ATOM      4  C   UNL A   1      30.600  26.162  23.038  1.00  0.00     0.116 C 
BRANCH   4   5
ATOM      5  N   UNL A   1      31.556  26.064  21.949  1.00  0.00    -0.352 N 
ATOM      6  C   UNL A   1      32.657  25.330  21.660  1.00  0.00     0.251 C 
ATOM      7  O   UNL A   1      33.175  25.568  20.565  1.00  0.00    -0.270 OA
ATOM      8  H   UNL A   1      31.349  26.701  21.227  1.00  0.00     0.163 HD
BRANCH   6   9
ATOM      9  C   UNL A   1      33.260  24.293  22.552  1.00  0.00     0.067 C 
ATOM     10  C   UNL A   1      32.385  18.447  24.392  1.00  0.00     0.044 C 
ATOM     11  C   UNL A   1      33.072  19.777  24.294  1.00  0.00    -0.050 A 
ATOM     12  C   UNL A   1      34.289  19.986  24.954  1.00  0.00     0.010 A 
ATOM     13  C   UNL A   1      32.540  20.796  23.490  1.00  0.00     0.015 A 
ATOM     14  C   UNL A   1      34.965  21.206  24.841  1.00  0.00    -0.008 A 
ATOM     15  C   UNL A   1      33.201  22.022  23.371  1.00  0.00     0.018 A 
ATOM     16  C   UNL A   1      36.269  21.433  25.553  1.00  0.00     0.048 C 
ATOM     17  C   UNL A   1      34.403  22.217  24.053  1.00  0.00     0.130 A 
ATOM     18  C   UNL A   1      32.681  23.079  22.513  1.00  0.00     0.025 C 
ATOM     19  O   UNL A   1      35.118  23.373  23.945  1.00  0.00    -0.475 OA
ATOM     20  C   UNL A   1      34.411  24.549  23.482  1.00  0.00     0.314 C 
BRANCH  20  21
ATOM     21  C   UNL A   1      34.016  25.411  24.695  1.00  0.00     0.429 C 
ATOM     22  F   UNL A   1      32.827  25.006  25.201  1.00  0.00    -0.167 F 
ATOM     23  F   UNL A   1      34.913  25.323  25.706  1.00  0.00    -0.167 F 
ATOM     24  F   UNL A   1      33.906  26.723  24.384  1.00  0.00    -0.167 F 
ENDBRANCH  20  21
ENDBRANCH   6   9
ENDBRANCH   4   5
ENDBRANCH   3   4
ENDBRANCH   2   3
ENDBRANCH   1   2
BRANCH   1  25
ATOM     25  C   UNL A   1      31.776  28.780  26.493  1.00  0.00     0.021 C 
BRANCH  25  26
ATOM     26  C   UNL A   1      32.815  29.699  25.862  1.00  0.00     0.116 C 
BRANCH  26  27
ATOM     27  N   UNL A   1      32.553  31.097  26.168  1.00  0.00    -0.352 N 
ATOM     28  C   UNL A   1      33.164  31.905  27.092  1.00  0.00     0.251 C 
ATOM     29  H   UNL A   1      31.839  31.520  25.639  1.00  0.00     0.163 HD
ATOM     30  O   UNL A   1      32.672  32.995  27.379  1.00  0.00    -0.269 OA
BRANCH  28  31
ATOM     31  C   UNL A   1      34.408  31.453  27.743  1.00  0.00     0.039 A 
ATOM     32  C   UNL A   1      35.467  32.351  27.880  1.00  0.00     0.014 A 
ATOM     33  C   UNL A   1      34.526  30.141  28.211  1.00  0.00     0.014 A 
ATOM     34  C   UNL A   1      36.635  31.943  28.525  1.00  0.00     0.010 A 
ATOM     35  C   UNL A   1      35.660  29.759  28.920  1.00  0.00     0.010 A 
ATOM     36  C   UNL A   1      36.733  30.650  29.067  1.00  0.00    -0.014 A 
BRANCH  36  37
ATOM     37  C   UNL A   1      37.965  30.210  29.765  1.00  0.00     0.031 A 
ATOM     38  C   UNL A   1      38.266  30.716  31.149  1.00  0.00     0.074 A 
ATOM     39  C   UNL A   1      38.832  29.391  29.138  1.00  0.00     0.049 A 
ATOM     40  N   UNL A   1      39.284  30.439  31.923  1.00  0.00    -0.248 NA
ATOM     41  C   UNL A   1      37.314  31.676  31.736  1.00  0.00     0.031 C 
ATOM     42  C   UNL A   1      38.681  28.892  27.770  1.00  0.00     0.029 A 
ATOM     43  N   UNL A   1      40.015  28.842  29.563  1.00  0.00    -0.354 N 
ATOM     44  C   UNL A   1      39.104  31.198  33.072  1.00  0.00     0.074 A 
ATOM     45  C   UNL A   1      37.909  31.989  32.878  1.00  0.00     0.031 C 
ATOM     46  C   UNL A   1      39.718  28.091  27.478  1.00  0.00     0.029 A 
ATOM     47  C   UNL A   1      40.620  28.039  28.624  1.00  0.00     0.049 A 
ATOM     48  H   UNL A   1      40.396  29.007  30.456  1.00  0.00     0.167 HD
ATOM     49  C   UNL A   1      39.841  31.204  34.207  1.00  0.00     0.034 A 
ATOM     50  C   UNL A   1      41.768  27.335  28.684  1.00  0.00     0.034 A 
ATOM     51  C   UNL A   1      41.000  30.380  34.411  1.00  0.00     0.049 A 
ATOM     52  C   UNL A   1      42.565  27.347  29.963  1.00  0.00     0.074 A 
ATOM     53  C   UNL A   1      41.769  30.252  35.553  1.00  0.00     0.029 A 
ATOM     54  N   UNL A   1      41.557  29.546  33.454  1.00  0.00    -0.354 N 
ATOM     55  N   UNL A   1      42.294  27.949  31.096  1.00  0.00    -0.248 NA
ATOM     56  C   UNL A   1      43.809  26.565  29.983  1.00  0.00     0.031 C 
ATOM     57  C   UNL A   1      42.809  29.360  35.279  1.00  0.00     0.029 A 
ATOM     58  C   UNL A   1      42.673  28.913  33.973  1.00  0.00     0.049 A 
ATOM     59  H   UNL A   1      41.211  29.423  32.541  1.00  0.00     0.167 HD
ATOM     60  C   UNL A   1      43.316  27.599  31.970  1.00  0.00     0.074 A 
ATOM     61  C   UNL A   1      44.200  26.711  31.243  1.00  0.00     0.031 C 
ATOM     62  C   UNL A   1      43.516  27.993  33.252  1.00  0.00     0.034 A 
BRANCH  49  63
ATOM     63  C   UNL A   1      39.375  32.070  35.347  1.00  0.00     0.023 A 
ATOM     64  C   UNL A   1      38.513  31.522  36.320  1.00  0.00     0.012 A 
ATOM     65  C   UNL A   1      39.850  33.386  35.507  1.00  0.00     0.148 A 
ATOM     66  C   UNL A   1      38.109  32.278  37.419  1.00  0.00     0.002 A 
ATOM     67  C   UNL A   1      39.480  34.117  36.630  1.00  0.00     0.091 A 
ATOM     68  F   UNL A   1      40.653  33.895  34.563  1.00  0.00    -0.205 F 
ATOM     69  C   UNL A   1      38.603  33.569  37.581  1.00  0.00     0.022 A 
BRANCH  67  70
ATOM     70  S   UNL A   1      40.124  35.758  36.978  1.00  0.00     0.127 S 
ATOM     71  O   UNL A   1      41.566  35.515  36.973  1.00  0.00    -0.237 OA
ATOM     72  O   UNL A   1      39.633  36.528  35.836  1.00  0.00    -0.237 OA
ATOM     73  O   UNL A   1      39.563  36.147  38.264  1.00  0.00    -0.744 OA
ENDBRANCH  67  70
ENDBRANCH  49  63
BRANCH  50  74
ATOM     74  C   UNL A   1      42.179  26.489  27.527  1.00  0.00     0.023 A 
ATOM     75  C   UNL A   1      43.002  27.044  26.527  1.00  0.00     0.012 A 
ATOM     76  C   UNL A   1      41.814  25.131  27.438  1.00  0.00     0.148 A 
ATOM     77  C   UNL A   1      43.436  26.270  25.450  1.00  0.00     0.002 A 
ATOM     78  C   UNL A   1      42.297  24.351  26.394  1.00  0.00     0.091 A 
ATOM     79  F   UNL A   1      41.022  24.623  28.393  1.00  0.00    -0.205 F 
ATOM     80  C   UNL A   1      43.095  24.921  25.390  1.00  0.00     0.022 A 
BRANCH  78  81
ATOM     81  S   UNL A   1      42.025  22.577  26.307  1.00  0.00     0.127 S 
ATOM     82  O   UNL A   1      40.568  22.499  26.262  1.00  0.00    -0.237 OA
ATOM     83  O   UNL A   1      42.700  22.231  25.055  1.00  0.00    -0.237 OA
ATOM     84  O   UNL A   1      42.652  22.022  27.499  1.00  0.00    -0.744 OA
ENDBRANCH  78  81
ENDBRANCH  50  74
BRANCH  62  85
ATOM     85  C   UNL A   1      44.737  27.482  33.972  1.00  0.00     0.023 A 
ATOM     86  C   UNL A   1      45.914  28.256  33.969  1.00  0.00     0.012 A 
ATOM     87  C   UNL A   1      44.674  26.319  34.765  1.00  0.00     0.148 A 
ATOM     88  C   UNL A   1      47.014  27.873  34.734  1.00  0.00     0.002 A 
ATOM     89  C   UNL A   1      45.756  25.972  35.565  1.00  0.00     0.091 A 
ATOM     90  F   UNL A   1      43.546  25.593  34.744  1.00  0.00    -0.205 F 
ATOM     91  C   UNL A   1      46.930  26.742  35.543  1.00  0.00     0.022 A 
BRANCH  89  92
ATOM     92  S   UNL A   1      45.705  24.599  36.723  1.00  0.00     0.127 S 
ATOM     93  O   UNL A   1      47.055  24.633  37.284  1.00  0.00    -0.237 OA
ATOM     94  O   UNL A   1      44.649  25.015  37.647  1.00  0.00    -0.237 OA
ATOM     95  O   UNL A   1      45.391  23.416  35.934  1.00  0.00    -0.744 OA
ENDBRANCH  89  92
ENDBRANCH  62  85
ENDBRANCH  36  37
ENDBRANCH  28  31
ENDBRANCH  26  27
ENDBRANCH  25  26
ENDBRANCH   1  25
TORSDOF 17
ENDMDL
MODEL 2
REMARK VINA RESULT:     -12.2      5.018     10.022
REMARK SMILES Cc1cc(C)c2c(c1)C=C(C(=O)NCCCCCCNC(=O)c1ccc(-c3c4nc(c(-c5cccc(S(=O)(=O)[O-])c5F)c5ccc([nH]5)c(-c5cccc(S(=O)(=O)[O-])c5F)c5nc(c(-c6cccc(S(=O)(=O)[O-])c6F)c6ccc3[nH]6)C=C5)C=C4)cc1)[C@@H](C(F)(F)F)O2
REMARK SMILES IDX 17 1 16 2 15 3 14 4 13 5 11 6 12 7 10 9 1 10 2 11 3 12 8 13
REMARK SMILES IDX 4 14 7 15 5 16 6 17 9 18 91 19 86 20 87 21 88 22 89 23 90 24
REMARK SMILES IDX 18 25 19 26 20 27 21 28 22 30 23 31 24 32 85 33 25 34 84 35
REMARK SMILES IDX 26 36 27 37 28 38 78 39 29 40 83 41 77 42 79 43 30 44 82 45
REMARK SMILES IDX 76 46 75 47 31 49 63 50 43 51 62 52 44 53 47 54 61 55 80 56
REMARK SMILES IDX 45 57 46 58 60 60 81 61 48 62 32 63 33 64 41 65 34 66 36 67
REMARK SMILES IDX 42 68 35 69 37 70 38 71 39 72 40 73 64 74 65 75 73 76 66 77
REMARK SMILES IDX 68 78 74 79 67 80 69 81 70 82 71 83 72 84 49 85 50 86 58 87
REMARK SMILES IDX 51 88 53 89 59 90 52 91 54 92 55 93 56 94 57 95
REMARK H PARENT 13 8 20 29 79 48 47 59
REMARK Flexibility Score: inf
ROOT
ATOM      1  C   UNL A   1      35.787  22.818  23.606  1.00  0.00     0.002 C 
ENDROOT
BRANCH   1   2
ATOM      2  C   UNL A   1      34.306  22.907  23.214  1.00  0.00     0.002 C 
BRANCH   2   3
ATOM      3  C   UNL A   1      33.359  22.050  24.058  1.00  0.00     0.021 C 
BRANCH   3   4
ATOM      4  C   UNL A   1      31.907  22.511  24.003  1.00  0.00     0.116 C 
BRANCH   4   5
ATOM      5  N   UNL A   1      31.341  22.662  25.331  1.00  0.00    -0.352 N 
ATOM      6  C   UNL A   1      30.968  23.682  26.139  1.00  0.00     0.251 C 
ATOM      7  O   UNL A   1      30.493  23.345  27.228  1.00  0.00    -0.270 OA
ATOM      8  H   UNL A   1      31.187  21.789  25.760  1.00  0.00     0.163 HD
BRANCH   6   9
ATOM      9  C   UNL A   1      31.094  25.134  25.807  1.00  0.00     0.067 C 
ATOM     10  C   UNL A   1      28.611  29.450  22.128  1.00  0.00     0.044 C 
ATOM     11  C   UNL A   1      29.507  28.891  23.193  1.00  0.00    -0.050 A 
ATOM     12  C   UNL A   1      30.363  29.742  23.905  1.00  0.00     0.010 A 
ATOM     13  C   UNL A   1      29.450  27.531  23.531  1.00  0.00     0.015 A 
ATOM     14  C   UNL A   1      31.177  29.246  24.929  1.00  0.00    -0.008 A 
ATOM     15  C   UNL A   1      30.260  27.020  24.549  1.00  0.00     0.018 A 
ATOM     16  C   UNL A   1      32.098  30.157  25.690  1.00  0.00     0.048 C 
ATOM     17  C   UNL A   1      31.119  27.880  25.233  1.00  0.00     0.130 A 
ATOM     18  C   UNL A   1      30.188  25.616  24.937  1.00  0.00     0.025 C 
ATOM     19  O   UNL A   1      31.904  27.453  26.264  1.00  0.00    -0.475 OA
ATOM     20  C   UNL A   1      32.169  26.032  26.349  1.00  0.00     0.314 C 
BRANCH  20  21
ATOM     21  C   UNL A   1      33.552  25.738  25.740  1.00  0.00     0.429 C 
ATOM     22  F   UNL A   1      34.435  26.711  26.070  1.00  0.00    -0.167 F 
ATOM     23  F   UNL A   1      34.079  24.574  26.190  1.00  0.00    -0.167 F 
ATOM     24  F   UNL A   1      33.517  25.654  24.391  1.00  0.00    -0.167 F 
ENDBRANCH  20  21
ENDBRANCH   6   9
ENDBRANCH   4   5
ENDBRANCH   3   4
ENDBRANCH   2   3
ENDBRANCH   1   2
BRANCH   1  25
ATOM     25  C   UNL A   1      36.105  21.843  24.743  1.00  0.00     0.021 C 
BRANCH  25  26
ATOM     26  C   UNL A   1      37.177  22.332  25.711  1.00  0.00     0.116 C 
BRANCH  26  27
ATOM     27  N   UNL A   1      38.176  21.307  25.970  1.00  0.00    -0.352 N 
ATOM     28  C   UNL A   1      39.487  21.457  26.343  1.00  0.00     0.251 C 
ATOM     29  H   UNL A   1      37.869  20.378  25.861  1.00  0.00     0.163 HD
ATOM     30  O   UNL A   1      40.253  20.497  26.301  1.00  0.00    -0.269 OA
BRANCH  28  31
ATOM     31  C   UNL A   1      39.970  22.779  26.784  1.00  0.00     0.039 A 
ATOM     32  C   UNL A   1      40.828  22.856  27.882  1.00  0.00     0.014 A 
ATOM     33  C   UNL A   1      39.568  23.940  26.115  1.00  0.00     0.014 A 
ATOM     34  C   UNL A   1      41.317  24.099  28.286  1.00  0.00     0.010 A 
ATOM     35  C   UNL A   1      40.116  25.168  26.471  1.00  0.00     0.010 A 
ATOM     36  C   UNL A   1      40.980  25.262  27.571  1.00  0.00    -0.014 A 
BRANCH  36  37
ATOM     37  C   UNL A   1      41.505  26.586  27.985  1.00  0.00     0.031 A 
ATOM     38  C   UNL A   1      42.938  26.947  27.707  1.00  0.00     0.074 A 
ATOM     39  C   UNL A   1      40.704  27.444  28.646  1.00  0.00     0.049 A 
ATOM     40  N   UNL A   1      43.575  28.055  27.981  1.00  0.00    -0.248 NA
ATOM     41  C   UNL A   1      43.775  25.923  27.055  1.00  0.00     0.031 C 
ATOM     42  C   UNL A   1      39.318  27.176  29.034  1.00  0.00     0.029 A 
ATOM     43  N   UNL A   1      40.943  28.709  29.119  1.00  0.00    -0.354 N 
ATOM     44  C   UNL A   1      44.882  27.858  27.555  1.00  0.00     0.074 A 
ATOM     45  C   UNL A   1      44.965  26.505  27.050  1.00  0.00     0.031 C 
ATOM     46  C   UNL A   1      38.822  28.253  29.663  1.00  0.00     0.029 A 
ATOM     47  C   UNL A   1      39.858  29.278  29.747  1.00  0.00     0.049 A 
ATOM     48  H   UNL A   1      41.808  29.168  29.019  1.00  0.00     0.167 HD
ATOM     49  C   UNL A   1      45.910  28.737  27.541  1.00  0.00     0.034 A 
ATOM     50  C   UNL A   1      39.714  30.490  30.318  1.00  0.00     0.034 A 
ATOM     51  C   UNL A   1      45.807  30.094  28.000  1.00  0.00     0.049 A 
ATOM     52  C   UNL A   1      40.869  31.456  30.279  1.00  0.00     0.074 A 
ATOM     53  C   UNL A   1      46.768  31.088  27.955  1.00  0.00     0.029 A 
ATOM     54  N   UNL A   1      44.681  30.648  28.588  1.00  0.00    -0.354 N 
ATOM     55  N   UNL A   1      42.050  31.306  29.729  1.00  0.00    -0.248 NA
ATOM     56  C   UNL A   1      40.667  32.767  30.913  1.00  0.00     0.031 C 
ATOM     57  C   UNL A   1      46.230  32.238  28.541  1.00  0.00     0.029 A 
ATOM     58  C   UNL A   1      44.926  31.966  28.928  1.00  0.00     0.049 A 
ATOM     59  H   UNL A   1      43.832  30.174  28.741  1.00  0.00     0.167 HD
ATOM     60  C   UNL A   1      42.722  32.507  29.928  1.00  0.00     0.074 A 
ATOM     61  C   UNL A   1      41.806  33.385  30.627  1.00  0.00     0.031 C 
ATOM     62  C   UNL A   1      43.988  32.844  29.581  1.00  0.00     0.034 A 
BRANCH  49  63
ATOM     63  C   UNL A   1      47.217  28.287  26.942  1.00  0.00     0.023 A 
ATOM     64  C   UNL A   1      48.295  27.977  27.796  1.00  0.00     0.012 A 
ATOM     65  C   UNL A   1      47.354  28.088  25.555  1.00  0.00     0.148 A 
ATOM     66  C   UNL A   1      49.499  27.502  27.278  1.00  0.00     0.002 A 
ATOM     67  C   UNL A   1      48.541  27.570  25.050  1.00  0.00     0.091 A 
ATOM     68  F   UNL A   1      46.325  28.406  24.758  1.00  0.00    -0.205 F 
ATOM     69  C   UNL A   1      49.618  27.287  25.908  1.00  0.00     0.022 A 
BRANCH  67  70
ATOM     70  S   UNL A   1      48.771  27.176  23.312  1.00  0.00     0.127 S 
ATOM     71  O   UNL A   1      48.145  28.329  22.664  1.00  0.00    -0.237 OA
ATOM     72  O   UNL A   1      50.228  27.132  23.198  1.00  0.00    -0.237 OA
ATOM     73  O   UNL A   1      48.102  25.902  23.096  1.00  0.00    -0.744 OA
ENDBRANCH  67  70
ENDBRANCH  49  63
BRANCH  50  74
ATOM     74  C   UNL A   1      38.396  30.887  30.891  1.00  0.00     0.023 A 
ATOM     75  C   UNL A   1      38.152  30.677  32.263  1.00  0.00     0.012 A 
ATOM     76  C   UNL A   1      37.410  31.520  30.109  1.00  0.00     0.148 A 
ATOM     77  C   UNL A   1      36.943  31.071  32.840  1.00  0.00     0.002 A 
ATOM     78  C   UNL A   1      36.233  31.961  30.701  1.00  0.00     0.091 A 
ATOM     79  F   UNL A   1      37.656  31.700  28.803  1.00  0.00    -0.205 F 
ATOM     80  C   UNL A   1      35.990  31.724  32.064  1.00  0.00     0.022 A 
BRANCH  78  81
ATOM     81  S   UNL A   1      35.007  32.931  29.814  1.00  0.00     0.127 S 
ATOM     82  O   UNL A   1      34.088  33.304  30.886  1.00  0.00    -0.237 OA
ATOM     83  O   UNL A   1      35.818  34.029  29.287  1.00  0.00    -0.237 OA
ATOM     84  O   UNL A   1      34.463  32.043  28.796  1.00  0.00    -0.744 OA
ENDBRANCH  78  81
ENDBRANCH  50  74
BRANCH  62  85
ATOM     85  C   UNL A   1      44.484  34.219  29.946  1.00  0.00     0.023 A 
ATOM     86  C   UNL A   1      45.221  34.394  31.134  1.00  0.00     0.012 A 
ATOM     87  C   UNL A   1      44.347  35.298  29.050  1.00  0.00     0.148 A 
ATOM     88  C   UNL A   1      45.804  35.624  31.431  1.00  0.00     0.002 A 
ATOM     89  C   UNL A   1      44.974  36.507  29.328  1.00  0.00     0.091 A 
ATOM     90  F   UNL A   1      43.632  35.112  27.930  1.00  0.00    -0.205 F 
ATOM     91  C   UNL A   1      45.695  36.674  30.522  1.00  0.00     0.022 A 
BRANCH  89  92
ATOM     92  S   UNL A   1      44.984  37.883  28.172  1.00  0.00     0.127 S 
ATOM     93  O   UNL A   1      43.595  38.333  28.232  1.00  0.00    -0.237 OA
ATOM     94  O   UNL A   1      45.949  38.795  28.788  1.00  0.00    -0.237 OA
ATOM     95  O   UNL A   1      45.403  37.331  26.891  1.00  0.00    -0.744 OA
ENDBRANCH  89  92
ENDBRANCH  62  85
ENDBRANCH  36  37
ENDBRANCH  28  31
ENDBRANCH  26  27
ENDBRANCH  25  26
ENDBRANCH   1  25
TORSDOF 17
ENDMDL
MODEL 3
REMARK VINA RESULT:     -12.2      1.754      2.031
REMARK SMILES Cc1cc(C)c2c(c1)C=C(C(=O)NCCCCCCNC(=O)c1ccc(-c3c4nc(c(-c5cccc(S(=O)(=O)[O-])c5F)c5ccc([nH]5)c(-c5cccc(S(=O)(=O)[O-])c5F)c5nc(c(-c6cccc(S(=O)(=O)[O-])c6F)c6ccc3[nH]6)C=C5)C=C4)cc1)[C@@H](C(F)(F)F)O2
REMARK SMILES IDX 17 1 16 2 15 3 14 4 13 5 11 6 12 7 10 9 1 10 2 11 3 12 8 13
REMARK SMILES IDX 4 14 7 15 5 16 6 17 9 18 91 19 86 20 87 21 88 22 89 23 90 24
REMARK SMILES IDX 18 25 19 26 20 27 21 28 22 30 23 31 24 32 85 33 25 34 84 35
REMARK SMILES IDX 26 36 27 37 28 38 78 39 29 40 83 41 77 42 79 43 30 44 82 45
REMARK SMILES IDX 76 46 75 47 31 49 63 50 43 51 62 52 44 53 47 54 61 55 80 56
REMARK SMILES IDX 45 57 46 58 60 60 81 61 48 62 32 63 33 64 41 65 34 66 36 67
REMARK SMILES IDX 42 68 35 69 37 70 38 71 39 72 40 73 64 74 65 75 73 76 66 77
REMARK SMILES IDX 68 78 74 79 67 80 69 81 70 82 71 83 72 84 49 85 50 86 58 87
REMARK SMILES IDX 51 88 53 89 59 90 52 91 54 92 55 93 56 94 57 95
REMARK H PARENT 13 8 20 29 79 48 47 59
REMARK Flexibility Score: inf
ROOT
ATOM      1  C   UNL A   1      31.350  27.820  25.510  1.00  0.00     0.002 C 
ENDROOT
BRANCH   1   2
ATOM      2  C   UNL A   1      30.856  28.699  24.353  1.00  0.00     0.002 C 
BRANCH   2   3
ATOM      3  C   UNL A   1      31.079  28.114  22.955  1.00  0.00     0.021 C 
BRANCH   3   4
ATOM      4  C   UNL A   1      32.548  27.889  22.616  1.00  0.00     0.116 C 
BRANCH   4   5
ATOM      5  N   UNL A   1      32.714  26.849  21.616  1.00  0.00    -0.352 N 
ATOM      6  C   UNL A   1      33.001  25.526  21.601  1.00  0.00     0.251 C 
ATOM      7  O   UNL A   1      33.023  25.005  20.481  1.00  0.00    -0.270 OA
ATOM      8  H   UNL A   1      32.582  27.199  20.705  1.00  0.00     0.163 HD
BRANCH   6   9
ATOM      9  C   UNL A   1      33.285  24.692  22.808  1.00  0.00     0.067 C 
ATOM     10  C   UNL A   1      37.440  20.648  24.980  1.00  0.00     0.044 C 
ATOM     11  C   UNL A   1      36.225  21.528  25.002  1.00  0.00    -0.050 A 
ATOM     12  C   UNL A   1      35.448  21.619  26.164  1.00  0.00     0.010 A 
ATOM     13  C   UNL A   1      35.896  22.316  23.889  1.00  0.00     0.015 A 
ATOM     14  C   UNL A   1      34.335  22.466  26.217  1.00  0.00    -0.008 A 
ATOM     15  C   UNL A   1      34.784  23.163  23.925  1.00  0.00     0.018 A 
ATOM     16  C   UNL A   1      33.498  22.560  27.462  1.00  0.00     0.048 C 
ATOM     17  C   UNL A   1      34.012  23.225  25.086  1.00  0.00     0.130 A 
ATOM     18  C   UNL A   1      34.447  24.015  22.791  1.00  0.00     0.025 C 
ATOM     19  O   UNL A   1      32.940  24.061  25.201  1.00  0.00    -0.475 OA
ATOM     20  C   UNL A   1      32.348  24.551  23.974  1.00  0.00     0.314 C 
BRANCH  20  21
ATOM     21  C   UNL A   1      31.106  23.704  23.639  1.00  0.00     0.429 C 
ATOM     22  F   UNL A   1      30.602  23.134  24.759  1.00  0.00    -0.167 F 
ATOM     23  F   UNL A   1      30.106  24.443  23.102  1.00  0.00    -0.167 F 
ATOM     24  F   UNL A   1      31.376  22.714  22.758  1.00  0.00    -0.167 F 
ENDBRANCH  20  21
ENDBRANCH   6   9
ENDBRANCH   4   5
ENDBRANCH   3   4
ENDBRANCH   2   3
ENDBRANCH   1   2
BRANCH   1  25
ATOM     25  C   UNL A   1      32.200  28.540  26.562  1.00  0.00     0.021 C 
BRANCH  25  26
ATOM     26  C   UNL A   1      33.226  29.509  25.987  1.00  0.00     0.116 C 
BRANCH  26  27
ATOM     27  N   UNL A   1      32.941  30.883  26.369  1.00  0.00    -0.352 N 
ATOM     28  C   UNL A   1      33.556  31.658  27.319  1.00  0.00     0.251 C 
ATOM     29  H   UNL A   1      32.206  31.316  25.878  1.00  0.00     0.163 HD
ATOM     30  O   UNL A   1      33.047  32.720  27.671  1.00  0.00    -0.269 OA
BRANCH  28  31
ATOM     31  C   UNL A   1      34.824  31.202  27.918  1.00  0.00     0.039 A 
ATOM     32  C   UNL A   1      35.898  32.090  27.992  1.00  0.00     0.014 A 
ATOM     33  C   UNL A   1      34.950  29.896  28.402  1.00  0.00     0.014 A 
ATOM     34  C   UNL A   1      37.091  31.679  28.588  1.00  0.00     0.010 A 
ATOM     35  C   UNL A   1      36.112  29.513  29.064  1.00  0.00     0.010 A 
ATOM     36  C   UNL A   1      37.200  30.393  29.145  1.00  0.00    -0.014 A 
BRANCH  36  37
ATOM     37  C   UNL A   1      38.459  29.951  29.793  1.00  0.00     0.031 A 
ATOM     38  C   UNL A   1      38.834  30.483  31.148  1.00  0.00     0.074 A 
ATOM     39  C   UNL A   1      39.282  29.105  29.143  1.00  0.00     0.049 A 
ATOM     40  N   UNL A   1      39.885  30.209  31.878  1.00  0.00    -0.248 NA
ATOM     41  C   UNL A   1      37.925  31.470  31.759  1.00  0.00     0.031 C 
ATOM     42  C   UNL A   1      39.057  28.578  27.796  1.00  0.00     0.029 A 
ATOM     43  N   UNL A   1      40.477  28.549  29.522  1.00  0.00    -0.354 N 
ATOM     44  C   UNL A   1      39.772  30.996  33.017  1.00  0.00     0.074 A 
ATOM     45  C   UNL A   1      38.580  31.799  32.862  1.00  0.00     0.031 C 
ATOM     46  C   UNL A   1      40.067  27.756  27.472  1.00  0.00     0.029 A 
ATOM     47  C   UNL A   1      41.024  27.716  28.574  1.00  0.00     0.049 A 
ATOM     48  H   UNL A   1      40.903  28.728  30.392  1.00  0.00     0.167 HD
ATOM     49  C   UNL A   1      40.564  31.015  34.113  1.00  0.00     0.034 A 
ATOM     50  C   UNL A   1      42.163  26.996  28.594  1.00  0.00     0.034 A 
ATOM     51  C   UNL A   1      41.720  30.179  34.280  1.00  0.00     0.049 A 
ATOM     52  C   UNL A   1      43.022  27.025  29.831  1.00  0.00     0.074 A 
ATOM     53  C   UNL A   1      42.542  30.065  35.386  1.00  0.00     0.029 A 
ATOM     54  N   UNL A   1      42.218  29.316  33.316  1.00  0.00    -0.354 N 
ATOM     55  N   UNL A   1      42.815  27.655  30.962  1.00  0.00    -0.248 NA
ATOM     56  C   UNL A   1      44.255  26.224  29.809  1.00  0.00     0.031 C 
ATOM     57  C   UNL A   1      43.555  29.151  35.081  1.00  0.00     0.029 A 
ATOM     58  C   UNL A   1      43.349  28.678  33.794  1.00  0.00     0.049 A 
ATOM     59  H   UNL A   1      41.826  29.177  32.424  1.00  0.00     0.167 HD
ATOM     60  C   UNL A   1      43.875  27.310  31.793  1.00  0.00     0.074 A 
ATOM     61  C   UNL A   1      44.710  26.393  31.044  1.00  0.00     0.031 C 
ATOM     62  C   UNL A   1      44.143  27.730  33.054  1.00  0.00     0.034 A 
BRANCH  49  63
ATOM     63  C   UNL A   1      40.167  31.913  35.255  1.00  0.00     0.023 A 
ATOM     64  C   UNL A   1      40.679  33.226  35.309  1.00  0.00     0.012 A 
ATOM     65  C   UNL A   1      39.230  31.497  36.220  1.00  0.00     0.148 A 
ATOM     66  C   UNL A   1      40.286  34.102  36.319  1.00  0.00     0.002 A 
ATOM     67  C   UNL A   1      38.808  32.391  37.198  1.00  0.00     0.091 A 
ATOM     68  F   UNL A   1      38.769  30.240  36.164  1.00  0.00    -0.205 F 
ATOM     69  C   UNL A   1      39.342  33.689  37.255  1.00  0.00     0.022 A 
BRANCH  67  70
ATOM     70  S   UNL A   1      37.535  31.989  38.401  1.00  0.00     0.127 S 
ATOM     71  O   UNL A   1      38.236  32.231  39.662  1.00  0.00    -0.237 OA
ATOM     72  O   UNL A   1      36.496  32.968  38.085  1.00  0.00    -0.237 OA
ATOM     73  O   UNL A   1      37.166  30.604  38.150  1.00  0.00    -0.744 OA
ENDBRANCH  67  70
ENDBRANCH  49  63
BRANCH  50  74
ATOM     74  C   UNL A   1      42.506  26.118  27.438  1.00  0.00     0.023 A 
ATOM     75  C   UNL A   1      43.328  26.623  26.411  1.00  0.00     0.012 A 
ATOM     76  C   UNL A   1      42.075  24.778  27.375  1.00  0.00     0.148 A 
ATOM     77  C   UNL A   1      43.699  25.816  25.334  1.00  0.00     0.002 A 
ATOM     78  C   UNL A   1      42.494  23.964  26.329  1.00  0.00     0.091 A 
ATOM     79  F   UNL A   1      41.283  24.320  28.355  1.00  0.00    -0.205 F 
ATOM     80  C   UNL A   1      43.293  24.485  25.299  1.00  0.00     0.022 A 
BRANCH  78  81
ATOM     81  S   UNL A   1      42.137  22.204  26.270  1.00  0.00     0.127 S 
ATOM     82  O   UNL A   1      40.685  22.198  26.117  1.00  0.00    -0.237 OA
ATOM     83  O   UNL A   1      42.885  21.786  25.084  1.00  0.00    -0.237 OA
ATOM     84  O   UNL A   1      42.643  21.657  27.522  1.00  0.00    -0.744 OA
ENDBRANCH  78  81
ENDBRANCH  50  74
BRANCH  62  85
ATOM     85  C   UNL A   1      45.390  27.216  33.725  1.00  0.00     0.023 A 
ATOM     86  C   UNL A   1      46.570  27.984  33.668  1.00  0.00     0.012 A 
ATOM     87  C   UNL A   1      45.355  26.058  34.527  1.00  0.00     0.148 A 
ATOM     88  C   UNL A   1      47.700  27.601  34.389  1.00  0.00     0.002 A 
ATOM     89  C   UNL A   1      46.468  25.710  35.282  1.00  0.00     0.091 A 
ATOM     90  F   UNL A   1      44.224  25.337  34.557  1.00  0.00    -0.205 F 
ATOM     91  C   UNL A   1      47.644  26.474  35.208  1.00  0.00     0.022 A 
BRANCH  89  92
ATOM     92  S   UNL A   1      46.459  24.343  36.449  1.00  0.00     0.127 S 
ATOM     93  O   UNL A   1      47.815  24.407  36.992  1.00  0.00    -0.237 OA
ATOM     94  O   UNL A   1      45.408  24.744  37.385  1.00  0.00    -0.237 OA
ATOM     95  O   UNL A   1      46.158  23.149  35.672  1.00  0.00    -0.744 OA
ENDBRANCH  89  92
ENDBRANCH  62  85
ENDBRANCH  36  37
ENDBRANCH  28  31
ENDBRANCH  26  27
ENDBRANCH  25  26
ENDBRANCH   1  25
TORSDOF 17
ENDMDL
