MODEL 1
REMARK VINA RESULT:     -11.5      0.000      0.000
REMARK SMILES O=C(CCCN1C(=O)c2ccc3c4c(ccc(c24)C1=O)C(=O)NC3=O)NCCCCCCNC(=O)c1ccc(-c2c3nc(c(-c4cccc(S(=O)(=O)[O-])c4F)c4ccc([nH]4)c(-c4cccc(S(=O)(=O)[O-])c4F)c4nc(c(-c5cccc(S(=O)(=O)[O-])c5F)c5ccc2[nH]5)C=C4)C=C3)cc1
REMARK SMILES IDX 29 1 28 2 27 3 26 4 1 5 2 6 3 8 4 9 5 10 6 11 19 12 7 13
REMARK SMILES IDX 20 14 17 15 9 16 8 17 16 18 18 19 10 20 15 21 13 22 11 23
REMARK SMILES IDX 14 24 12 25 21 26 24 27 23 28 22 29 25 30 30 32 31 33 32 34
REMARK SMILES IDX 33 35 34 36 35 38 36 39 37 40 98 41 38 42 97 43 39 44 40 45
REMARK SMILES IDX 41 46 91 47 42 48 96 49 90 50 92 51 43 52 95 53 89 54 88 55
REMARK SMILES IDX 44 57 76 58 56 59 75 60 57 61 60 62 74 63 93 64 58 65 59 66
REMARK SMILES IDX 73 68 94 69 61 70 45 71 46 72 54 73 47 74 49 75 55 76 48 77
REMARK SMILES IDX 50 78 51 79 52 80 53 81 77 82 78 83 86 84 79 85 81 86 87 87
REMARK SMILES IDX 80 88 82 89 83 90 84 91 85 92 62 93 63 94 71 95 64 96 66 97
REMARK SMILES IDX 72 98 65 99 67 100 68 101 69 102 70 103
REMARK H PARENT 26 7 23 31 33 37 92 56 60 67
REMARK Flexibility Score: inf
ROOT
ATOM      1  C   UNL A   1      39.694  22.616  26.528  1.00  0.00     0.002 C 
ENDROOT
BRANCH   1   2
ATOM      2  C   UNL A   1      38.473  22.063  25.780  1.00  0.00     0.021 C 
BRANCH   2   3
ATOM      3  C   UNL A   1      37.258  22.991  25.762  1.00  0.00     0.116 C 
BRANCH   3   4
ATOM      4  N   UNL A   1      36.151  22.405  26.486  1.00  0.00    -0.356 N 
ATOM      5  O   UNL A   1      35.239  21.271  24.710  1.00  0.00    -0.275 OA
ATOM      6  C   UNL A   1      35.223  21.588  25.893  1.00  0.00     0.220 C 
ATOM      7  H   UNL A   1      36.060  22.603  27.447  1.00  0.00     0.163 HD
BRANCH   6   8
ATOM      8  C   UNL A   1      34.115  21.156  26.824  1.00  0.00     0.102 C 
BRANCH   8   9
ATOM      9  C   UNL A   1      32.915  20.517  26.122  1.00  0.00     0.032 C 
BRANCH   9  10
ATOM     10  C   UNL A   1      31.718  21.422  25.780  1.00  0.00     0.130 C 
BRANCH  10  11
ATOM     11  N   UNL A   1      31.969  22.805  25.357  1.00  0.00    -0.274 N 
ATOM     12  C   UNL A   1      31.638  23.806  26.281  1.00  0.00     0.261 C 
ATOM     13  C   UNL A   1      32.237  23.093  24.024  1.00  0.00     0.261 C 
ATOM     14  O   UNL A   1      31.205  23.579  27.407  1.00  0.00    -0.269 OA
ATOM     15  C   UNL A   1      31.821  25.218  25.856  1.00  0.00     0.049 A 
ATOM     16  C   UNL A   1      32.712  24.458  23.727  1.00  0.00     0.049 A 
ATOM     17  O   UNL A   1      32.088  22.316  23.087  1.00  0.00    -0.269 OA
ATOM     18  C   UNL A   1      31.450  26.268  26.706  1.00  0.00     0.015 A 
ATOM     19  C   UNL A   1      32.420  25.488  24.623  1.00  0.00     0.009 A 
ATOM     20  C   UNL A   1      33.393  24.711  22.531  1.00  0.00     0.015 A 
ATOM     21  C   UNL A   1      31.689  27.592  26.329  1.00  0.00     0.015 A 
ATOM     22  C   UNL A   1      32.723  26.822  24.261  1.00  0.00     0.009 A 
ATOM     23  C   UNL A   1      33.754  26.015  22.201  1.00  0.00     0.015 A 
ATOM     24  C   UNL A   1      32.335  27.864  25.117  1.00  0.00     0.048 A 
ATOM     25  C   UNL A   1      33.393  27.066  23.051  1.00  0.00     0.048 A 
ATOM     26  C   UNL A   1      32.602  29.264  24.714  1.00  0.00     0.258 C 
ATOM     27  C   UNL A   1      33.708  28.460  22.665  1.00  0.00     0.258 C 
ATOM     28  N   UNL A   1      33.283  29.438  23.533  1.00  0.00    -0.288 N 
ATOM     29  O   UNL A   1      32.221  30.212  25.391  1.00  0.00    -0.269 OA
ATOM     30  O   UNL A   1      34.296  28.720  21.624  1.00  0.00    -0.269 OA
ATOM     31  H   UNL A   1      33.490  30.367  23.280  1.00  0.00     0.173 HD
ENDBRANCH  10  11
ENDBRANCH   9  10
ENDBRANCH   8   9
ENDBRANCH   6   8
ENDBRANCH   3   4
ENDBRANCH   2   3
ENDBRANCH   1   2
BRANCH   1  32
ATOM     32  C   UNL A   1      40.593  21.561  27.180  1.00  0.00     0.002 C 
BRANCH  32  33
ATOM     33  C   UNL A   1      40.788  20.284  26.360  1.00  0.00     0.021 C 
BRANCH  33  34
ATOM     34  C   UNL A   1      41.991  19.438  26.764  1.00  0.00     0.116 C 
BRANCH  34  35
ATOM     35  N   UNL A   1      42.913  19.220  25.661  1.00  0.00    -0.352 N 
ATOM     36  C   UNL A   1      43.695  20.125  24.986  1.00  0.00     0.251 C 
ATOM     37  H   UNL A   1      42.988  18.288  25.353  1.00  0.00     0.163 HD
ATOM     38  O   UNL A   1      44.286  19.777  23.968  1.00  0.00    -0.269 OA
BRANCH  36  39
ATOM     39  C   UNL A   1      43.808  21.521  25.469  1.00  0.00     0.039 A 
ATOM     40  C   UNL A   1      44.303  21.748  26.755  1.00  0.00     0.014 A 
ATOM     41  C   UNL A   1      43.423  22.599  24.667  1.00  0.00     0.014 A 
ATOM     42  C   UNL A   1      44.462  23.057  27.215  1.00  0.00     0.010 A 
ATOM     43  C   UNL A   1      43.657  23.904  25.097  1.00  0.00     0.010 A 
ATOM     44  C   UNL A   1      44.171  24.149  26.379  1.00  0.00    -0.014 A 
BRANCH  44  45
ATOM     45  C   UNL A   1      44.429  25.542  26.831  1.00  0.00     0.031 A 
ATOM     46  C   UNL A   1      45.800  26.152  26.717  1.00  0.00     0.074 A 
ATOM     47  C   UNL A   1      43.429  26.246  27.400  1.00  0.00     0.049 A 
ATOM     48  N   UNL A   1      46.193  27.361  27.028  1.00  0.00    -0.248 NA
ATOM     49  C   UNL A   1      46.878  25.286  26.213  1.00  0.00     0.031 C 
ATOM     50  C   UNL A   1      42.076  25.743  27.645  1.00  0.00     0.029 A 
ATOM     51  N   UNL A   1      43.399  27.529  27.886  1.00  0.00    -0.354 N 
ATOM     52  C   UNL A   1      47.562  27.391  26.795  1.00  0.00     0.074 A 
ATOM     53  C   UNL A   1      47.939  26.068  26.346  1.00  0.00     0.031 C 
ATOM     54  C   UNL A   1      41.340  26.716  28.205  1.00  0.00     0.029 A 
ATOM     55  C   UNL A   1      42.174  27.899  28.391  1.00  0.00     0.049 A 
ATOM     56  H   UNL A   1      44.180  28.128  27.875  1.00  0.00     0.167 HD
ATOM     57  C   UNL A   1      48.424  28.428  26.920  1.00  0.00     0.034 A 
ATOM     58  C   UNL A   1      41.765  29.059  28.937  1.00  0.00     0.034 A 
ATOM     59  C   UNL A   1      48.040  29.751  27.339  1.00  0.00     0.049 A 
ATOM     60  C   UNL A   1      42.734  30.206  29.032  1.00  0.00     0.074 A 
ATOM     61  C   UNL A   1      48.817  30.896  27.396  1.00  0.00     0.029 A 
ATOM     62  N   UNL A   1      46.780  30.103  27.796  1.00  0.00    -0.354 N 
ATOM     63  N   UNL A   1      43.982  30.269  28.636  1.00  0.00    -0.248 NA
ATOM     64  C   UNL A   1      42.224  31.455  29.615  1.00  0.00     0.031 C 
ATOM     65  C   UNL A   1      48.038  31.928  27.931  1.00  0.00     0.029 A 
ATOM     66  C   UNL A   1      46.762  31.439  28.162  1.00  0.00     0.049 A 
ATOM     67  H   UNL A   1      46.008  29.493  27.851  1.00  0.00     0.167 HD
ATOM     68  C   UNL A   1      44.397  31.571  28.889  1.00  0.00     0.074 A 
ATOM     69  C   UNL A   1      43.257  32.270  29.446  1.00  0.00     0.031 C 
ATOM     70  C   UNL A   1      45.614  32.136  28.687  1.00  0.00     0.034 A 
BRANCH  57  71
ATOM     71  C   UNL A   1      49.872  28.181  26.575  1.00  0.00     0.023 A 
ATOM     72  C   UNL A   1      50.293  28.210  25.229  1.00  0.00     0.012 A 
ATOM     73  C   UNL A   1      50.827  27.960  27.588  1.00  0.00     0.148 A 
ATOM     74  C   UNL A   1      51.626  27.978  24.893  1.00  0.00     0.002 A 
ATOM     75  C   UNL A   1      52.163  27.781  27.249  1.00  0.00     0.091 A 
ATOM     76  F   UNL A   1      50.410  27.915  28.862  1.00  0.00    -0.205 F 
ATOM     77  C   UNL A   1      52.562  27.773  25.903  1.00  0.00     0.022 A 
BRANCH  75  78
ATOM     78  S   UNL A   1      53.457  27.594  28.482  1.00  0.00     0.127 S 
ATOM     79  O   UNL A   1      53.071  26.340  29.126  1.00  0.00    -0.237 OA
ATOM     80  O   UNL A   1      54.661  27.509  27.654  1.00  0.00    -0.237 OA
ATOM     81  O   UNL A   1      53.383  28.780  29.323  1.00  0.00    -0.744 OA
ENDBRANCH  75  78
ENDBRANCH  57  71
BRANCH  58  82
ATOM     82  C   UNL A   1      40.347  29.224  29.364  1.00  0.00     0.023 A 
ATOM     83  C   UNL A   1      39.368  29.532  28.399  1.00  0.00     0.012 A 
ATOM     84  C   UNL A   1      39.958  29.054  30.707  1.00  0.00     0.148 A 
ATOM     85  C   UNL A   1      38.033  29.702  28.767  1.00  0.00     0.002 A 
ATOM     86  C   UNL A   1      38.618  29.167  31.058  1.00  0.00     0.091 A 
ATOM     87  F   UNL A   1      40.906  28.767  31.609  1.00  0.00    -0.205 F 
ATOM     88  C   UNL A   1      37.656  29.509  30.094  1.00  0.00     0.022 A 
BRANCH  86  89
ATOM     89  S   UNL A   1      38.020  28.813  32.713  1.00  0.00     0.127 S 
ATOM     90  O   UNL A   1      38.914  29.626  33.535  1.00  0.00    -0.237 OA
ATOM     91  O   UNL A   1      36.640  29.294  32.642  1.00  0.00    -0.237 OA
ATOM     92  O   UNL A   1      38.149  27.373  32.881  1.00  0.00    -0.744 OA
ENDBRANCH  86  89
ENDBRANCH  58  82
BRANCH  70  93
ATOM     93  C   UNL A   1      45.770  33.594  29.043  1.00  0.00     0.023 A 
ATOM     94  C   UNL A   1      46.271  33.964  30.307  1.00  0.00     0.012 A 
ATOM     95  C   UNL A   1      45.452  34.599  28.108  1.00  0.00     0.148 A 
ATOM     96  C   UNL A   1      46.403  35.309  30.654  1.00  0.00     0.002 A 
ATOM     97  C   UNL A   1      45.640  35.936  28.439  1.00  0.00     0.091 A 
ATOM     98  F   UNL A   1      44.959  34.233  26.915  1.00  0.00    -0.205 F 
ATOM     99  C   UNL A   1      46.097  36.293  29.717  1.00  0.00     0.022 A 
BRANCH  97 100
ATOM    100  S   UNL A   1      45.369  37.266  27.263  1.00  0.00     0.127 S 
ATOM    101  O   UNL A   1      45.763  38.439  28.041  1.00  0.00    -0.237 OA
ATOM    102  O   UNL A   1      46.289  36.914  26.180  1.00  0.00    -0.237 OA
ATOM    103  O   UNL A   1      43.959  37.198  26.901  1.00  0.00    -0.744 OA
ENDBRANCH  97 100
ENDBRANCH  70  93
ENDBRANCH  44  45
ENDBRANCH  36  39
ENDBRANCH  34  35
ENDBRANCH  33  34
ENDBRANCH  32  33
ENDBRANCH   1  32
TORSDOF 19
ENDMDL
MODEL 2
REMARK VINA RESULT:     -11.3      1.640      2.006
REMARK SMILES O=C(CCCN1C(=O)c2ccc3c4c(ccc(c24)C1=O)C(=O)NC3=O)NCCCCCCNC(=O)c1ccc(-c2c3nc(c(-c4cccc(S(=O)(=O)[O-])c4F)c4ccc([nH]4)c(-c4cccc(S(=O)(=O)[O-])c4F)c4nc(c(-c5cccc(S(=O)(=O)[O-])c5F)c5ccc2[nH]5)C=C4)C=C3)cc1
REMARK SMILES IDX 29 1 28 2 27 3 26 4 1 5 2 6 3 8 4 9 5 10 6 11 19 12 7 13
REMARK SMILES IDX 20 14 17 15 9 16 8 17 16 18 18 19 10 20 15 21 13 22 11 23
REMARK SMILES IDX 14 24 12 25 21 26 24 27 23 28 22 29 25 30 30 32 31 33 32 34
REMARK SMILES IDX 33 35 34 36 35 38 36 39 37 40 98 41 38 42 97 43 39 44 40 45
REMARK SMILES IDX 41 46 91 47 42 48 96 49 90 50 92 51 43 52 95 53 89 54 88 55
REMARK SMILES IDX 44 57 76 58 56 59 75 60 57 61 60 62 74 63 93 64 58 65 59 66
REMARK SMILES IDX 73 68 94 69 61 70 45 71 46 72 54 73 47 74 49 75 55 76 48 77
REMARK SMILES IDX 50 78 51 79 52 80 53 81 77 82 78 83 86 84 79 85 81 86 87 87
REMARK SMILES IDX 80 88 82 89 83 90 84 91 85 92 62 93 63 94 71 95 64 96 66 97
REMARK SMILES IDX 72 98 65 99 67 100 68 101 69 102 70 103
REMARK H PARENT 26 7 23 31 33 37 92 56 60 67
REMARK Flexibility Score: inf
ROOT
ATOM      1  C   UNL A   1      39.917  23.605  26.657  1.00  0.00     0.002 C 
ENDROOT
BRANCH   1   2
ATOM      2  C   UNL A   1      38.407  23.865  26.764  1.00  0.00     0.021 C 
BRANCH   2   3
ATOM      3  C   UNL A   1      37.560  23.158  25.707  1.00  0.00     0.116 C 
BRANCH   3   4
ATOM      4  N   UNL A   1      36.289  22.741  26.259  1.00  0.00    -0.356 N 
ATOM      5  O   UNL A   1      36.018  20.883  24.937  1.00  0.00    -0.275 OA
ATOM      6  C   UNL A   1      35.616  21.629  25.822  1.00  0.00     0.220 C 
ATOM      7  H   UNL A   1      35.889  23.281  26.980  1.00  0.00     0.163 HD
BRANCH   6   8
ATOM      8  C   UNL A   1      34.275  21.433  26.488  1.00  0.00     0.102 C 
BRANCH   8   9
ATOM      9  C   UNL A   1      33.091  21.995  25.699  1.00  0.00     0.032 C 
BRANCH   9  10
ATOM     10  C   UNL A   1      33.395  22.956  24.536  1.00  0.00     0.130 C 
BRANCH  10  11
ATOM     11  N   UNL A   1      32.858  24.322  24.582  1.00  0.00    -0.274 N 
ATOM     12  C   UNL A   1      33.498  25.211  25.455  1.00  0.00     0.261 C 
ATOM     13  C   UNL A   1      31.622  24.608  24.015  1.00  0.00     0.261 C 
ATOM     14  O   UNL A   1      34.484  24.918  26.126  1.00  0.00    -0.269 OA
ATOM     15  C   UNL A   1      32.936  26.582  25.571  1.00  0.00     0.049 A 
ATOM     16  C   UNL A   1      31.268  26.035  23.892  1.00  0.00     0.049 A 
ATOM     17  O   UNL A   1      30.804  23.775  23.638  1.00  0.00    -0.269 OA
ATOM     18  C   UNL A   1      33.488  27.501  26.473  1.00  0.00     0.015 A 
ATOM     19  C   UNL A   1      31.888  26.963  24.729  1.00  0.00     0.009 A 
ATOM     20  C   UNL A   1      30.279  26.429  22.982  1.00  0.00     0.015 A 
ATOM     21  C   UNL A   1      33.000  28.808  26.526  1.00  0.00     0.015 A 
ATOM     22  C   UNL A   1      31.430  28.302  24.733  1.00  0.00     0.009 A 
ATOM     23  C   UNL A   1      29.873  27.759  22.934  1.00  0.00     0.015 A 
ATOM     24  C   UNL A   1      31.985  29.208  25.650  1.00  0.00     0.048 A 
ATOM     25  C   UNL A   1      30.427  28.683  23.827  1.00  0.00     0.048 A 
ATOM     26  C   UNL A   1      31.468  30.596  25.693  1.00  0.00     0.258 C 
ATOM     27  C   UNL A   1      29.941  30.081  23.829  1.00  0.00     0.258 C 
ATOM     28  N   UNL A   1      30.506  30.916  24.765  1.00  0.00    -0.288 N 
ATOM     29  O   UNL A   1      31.868  31.406  26.521  1.00  0.00    -0.269 OA
ATOM     30  O   UNL A   1      29.074  30.460  23.054  1.00  0.00    -0.269 OA
ATOM     31  H   UNL A   1      30.185  31.847  24.771  1.00  0.00     0.173 HD
ENDBRANCH  10  11
ENDBRANCH   9  10
ENDBRANCH   8   9
ENDBRANCH   6   8
ENDBRANCH   3   4
ENDBRANCH   2   3
ENDBRANCH   1   2
BRANCH   1  32
ATOM     32  C   UNL A   1      40.417  22.356  27.389  1.00  0.00     0.002 C 
BRANCH  32  33
ATOM     33  C   UNL A   1      40.424  21.076  26.551  1.00  0.00     0.021 C 
BRANCH  33  34
ATOM     34  C   UNL A   1      41.365  19.985  27.052  1.00  0.00     0.116 C 
BRANCH  34  35
ATOM     35  N   UNL A   1      42.254  19.498  26.009  1.00  0.00    -0.352 N 
ATOM     36  C   UNL A   1      43.243  20.161  25.326  1.00  0.00     0.251 C 
ATOM     37  H   UNL A   1      42.128  18.555  25.756  1.00  0.00     0.163 HD
ATOM     38  O   UNL A   1      43.777  19.625  24.359  1.00  0.00    -0.269 OA
BRANCH  36  39
ATOM     39  C   UNL A   1      43.650  21.524  25.738  1.00  0.00     0.039 A 
ATOM     40  C   UNL A   1      43.405  22.589  24.868  1.00  0.00     0.014 A 
ATOM     41  C   UNL A   1      44.275  21.755  26.967  1.00  0.00     0.014 A 
ATOM     42  C   UNL A   1      43.737  23.890  25.254  1.00  0.00     0.010 A 
ATOM     43  C   UNL A   1      44.532  23.061  27.382  1.00  0.00     0.010 A 
ATOM     44  C   UNL A   1      44.275  24.142  26.527  1.00  0.00    -0.014 A 
BRANCH  44  45
ATOM     45  C   UNL A   1      44.541  25.534  26.978  1.00  0.00     0.031 A 
ATOM     46  C   UNL A   1      45.921  26.127  26.886  1.00  0.00     0.074 A 
ATOM     47  C   UNL A   1      43.541  26.252  27.528  1.00  0.00     0.049 A 
ATOM     48  N   UNL A   1      46.323  27.332  27.199  1.00  0.00    -0.248 NA
ATOM     49  C   UNL A   1      46.997  25.247  26.403  1.00  0.00     0.031 C 
ATOM     50  C   UNL A   1      42.177  25.766  27.752  1.00  0.00     0.029 A 
ATOM     51  N   UNL A   1      43.517  27.537  28.009  1.00  0.00    -0.354 N 
ATOM     52  C   UNL A   1      47.697  27.346  26.990  1.00  0.00     0.074 A 
ATOM     53  C   UNL A   1      48.065  26.016  26.552  1.00  0.00     0.031 C 
ATOM     54  C   UNL A   1      41.444  26.750  28.296  1.00  0.00     0.029 A 
ATOM     55  C   UNL A   1      42.288  27.923  28.492  1.00  0.00     0.049 A 
ATOM     56  H   UNL A   1      44.306  28.127  28.009  1.00  0.00     0.167 HD
ATOM     57  C   UNL A   1      48.569  28.373  27.125  1.00  0.00     0.034 A 
ATOM     58  C   UNL A   1      41.885  29.091  29.027  1.00  0.00     0.034 A 
ATOM     59  C   UNL A   1      48.194  29.701  27.533  1.00  0.00     0.049 A 
ATOM     60  C   UNL A   1      42.866  30.226  29.134  1.00  0.00     0.074 A 
ATOM     61  C   UNL A   1      48.983  30.837  27.600  1.00  0.00     0.029 A 
ATOM     62  N   UNL A   1      46.930  30.070  27.967  1.00  0.00    -0.354 N 
ATOM     63  N   UNL A   1      44.121  30.272  28.759  1.00  0.00    -0.248 NA
ATOM     64  C   UNL A   1      42.361  31.483  29.704  1.00  0.00     0.031 C 
ATOM     65  C   UNL A   1      48.208  31.880  28.118  1.00  0.00     0.029 A 
ATOM     66  C   UNL A   1      46.922  31.407  28.329  1.00  0.00     0.049 A 
ATOM     67  H   UNL A   1      46.151  29.470  28.011  1.00  0.00     0.167 HD
ATOM     68  C   UNL A   1      44.547  31.571  29.015  1.00  0.00     0.074 A 
ATOM     69  C   UNL A   1      43.406  32.285  29.549  1.00  0.00     0.031 C 
ATOM     70  C   UNL A   1      45.774  32.120  28.832  1.00  0.00     0.034 A 
BRANCH  57  71
ATOM     71  C   UNL A   1      50.019  28.106  26.806  1.00  0.00     0.023 A 
ATOM     72  C   UNL A   1      50.930  27.824  27.845  1.00  0.00     0.012 A 
ATOM     73  C   UNL A   1      50.475  28.094  25.472  1.00  0.00     0.148 A 
ATOM     74  C   UNL A   1      52.275  27.580  27.569  1.00  0.00     0.002 A 
ATOM     75  C   UNL A   1      51.806  27.800  25.200  1.00  0.00     0.091 A 
ATOM     76  F   UNL A   1      49.603  28.385  24.496  1.00  0.00    -0.205 F 
ATOM     77  C   UNL A   1      52.710  27.559  26.247  1.00  0.00     0.022 A 
BRANCH  75  78
ATOM     78  S   UNL A   1      52.443  27.665  23.526  1.00  0.00     0.127 S 
ATOM     79  O   UNL A   1      52.532  29.070  23.131  1.00  0.00    -0.237 OA
ATOM     80  O   UNL A   1      53.735  27.011  23.741  1.00  0.00    -0.237 OA
ATOM     81  O   UNL A   1      51.474  26.867  22.790  1.00  0.00    -0.744 OA
ENDBRANCH  75  78
ENDBRANCH  57  71
BRANCH  58  82
ATOM     82  C   UNL A   1      40.461  29.274  29.429  1.00  0.00     0.023 A 
ATOM     83  C   UNL A   1      39.511  29.638  28.454  1.00  0.00     0.012 A 
ATOM     84  C   UNL A   1      40.039  29.067  30.756  1.00  0.00     0.148 A 
ATOM     85  C   UNL A   1      38.173  29.826  28.800  1.00  0.00     0.002 A 
ATOM     86  C   UNL A   1      38.695  29.199  31.083  1.00  0.00     0.091 A 
ATOM     87  F   UNL A   1      40.960  28.727  31.668  1.00  0.00    -0.205 F 
ATOM     88  C   UNL A   1      37.763  29.597  30.111  1.00  0.00     0.022 A 
BRANCH  86  89
ATOM     89  S   UNL A   1      38.052  28.803  32.711  1.00  0.00     0.127 S 
ATOM     90  O   UNL A   1      38.915  29.604  33.577  1.00  0.00    -0.237 OA
ATOM     91  O   UNL A   1      36.670  29.274  32.611  1.00  0.00    -0.237 OA
ATOM     92  O   UNL A   1      38.189  27.360  32.850  1.00  0.00    -0.744 OA
ENDBRANCH  86  89
ENDBRANCH  58  82
BRANCH  70  93
ATOM     93  C   UNL A   1      45.941  33.577  29.185  1.00  0.00     0.023 A 
ATOM     94  C   UNL A   1      46.542  33.945  30.406  1.00  0.00     0.012 A 
ATOM     95  C   UNL A   1      45.533  34.585  28.288  1.00  0.00     0.148 A 
ATOM     96  C   UNL A   1      46.686  35.288  30.751  1.00  0.00     0.002 A 
ATOM     97  C   UNL A   1      45.733  35.922  28.614  1.00  0.00     0.091 A 
ATOM     98  F   UNL A   1      44.947  34.221  27.138  1.00  0.00    -0.205 F 
ATOM     99  C   UNL A   1      46.291  36.275  29.852  1.00  0.00     0.022 A 
BRANCH  97 100
ATOM    100  S   UNL A   1      45.347  37.256  27.475  1.00  0.00     0.127 S 
ATOM    101  O   UNL A   1      45.226  38.397  28.381  1.00  0.00    -0.237 OA
ATOM    102  O   UNL A   1      46.532  37.282  26.616  1.00  0.00    -0.237 OA
ATOM    103  O   UNL A   1      44.120  36.861  26.796  1.00  0.00    -0.744 OA
ENDBRANCH  97 100
ENDBRANCH  70  93
ENDBRANCH  44  45
ENDBRANCH  36  39
ENDBRANCH  34  35
ENDBRANCH  33  34
ENDBRANCH  32  33
ENDBRANCH   1  32
TORSDOF 19
ENDMDL
MODEL 3
REMARK VINA RESULT:     -11.2      5.727      9.875
REMARK SMILES O=C(CCCN1C(=O)c2ccc3c4c(ccc(c24)C1=O)C(=O)NC3=O)NCCCCCCNC(=O)c1ccc(-c2c3nc(c(-c4cccc(S(=O)(=O)[O-])c4F)c4ccc([nH]4)c(-c4cccc(S(=O)(=O)[O-])c4F)c4nc(c(-c5cccc(S(=O)(=O)[O-])c5F)c5ccc2[nH]5)C=C4)C=C3)cc1
REMARK SMILES IDX 29 1 28 2 27 3 26 4 1 5 2 6 3 8 4 9 5 10 6 11 19 12 7 13
REMARK SMILES IDX 20 14 17 15 9 16 8 17 16 18 18 19 10 20 15 21 13 22 11 23
REMARK SMILES IDX 14 24 12 25 21 26 24 27 23 28 22 29 25 30 30 32 31 33 32 34
REMARK SMILES IDX 33 35 34 36 35 38 36 39 37 40 98 41 38 42 97 43 39 44 40 45
REMARK SMILES IDX 41 46 91 47 42 48 96 49 90 50 92 51 43 52 95 53 89 54 88 55
REMARK SMILES IDX 44 57 76 58 56 59 75 60 57 61 60 62 74 63 93 64 58 65 59 66
REMARK SMILES IDX 73 68 94 69 61 70 45 71 46 72 54 73 47 74 49 75 55 76 48 77
REMARK SMILES IDX 50 78 51 79 52 80 53 81 77 82 78 83 86 84 79 85 81 86 87 87
REMARK SMILES IDX 80 88 82 89 83 90 84 91 85 92 62 93 63 94 71 95 64 96 66 97
REMARK SMILES IDX 72 98 65 99 67 100 68 101 69 102 70 103
REMARK H PARENT 26 7 23 31 33 37 92 56 60 67
REMARK Flexibility Score: inf
ROOT
ATOM      1  C   UNL A   1      33.500  29.430  27.145  1.00  0.00     0.002 C 
ENDROOT
BRANCH   1   2
ATOM      2  C   UNL A   1      34.150  28.822  25.895  1.00  0.00     0.021 C 
BRANCH   2   3
ATOM      3  C   UNL A   1      33.394  29.076  24.592  1.00  0.00     0.116 C 
BRANCH   3   4
ATOM      4  N   UNL A   1      32.859  27.842  24.058  1.00  0.00    -0.356 N 
ATOM      5  O   UNL A   1      31.268  28.802  22.707  1.00  0.00    -0.275 OA
ATOM      6  C   UNL A   1      31.829  27.808  23.152  1.00  0.00     0.220 C 
ATOM      7  H   UNL A   1      33.251  26.989  24.357  1.00  0.00     0.163 HD
BRANCH   6   8
ATOM      8  C   UNL A   1      31.385  26.410  22.794  1.00  0.00     0.102 C 
BRANCH   8   9
ATOM      9  C   UNL A   1      30.298  25.839  23.707  1.00  0.00     0.032 C 
BRANCH   9  10
ATOM     10  C   UNL A   1      30.738  25.230  25.051  1.00  0.00     0.130 C 
BRANCH  10  11
ATOM     11  N   UNL A   1      31.899  24.332  25.080  1.00  0.00    -0.274 N 
ATOM     12  C   UNL A   1      31.650  22.986  24.782  1.00  0.00     0.261 C 
ATOM     13  C   UNL A   1      33.094  24.751  25.653  1.00  0.00     0.261 C 
ATOM     14  O   UNL A   1      30.548  22.549  24.463  1.00  0.00    -0.269 OA
ATOM     15  C   UNL A   1      32.795  22.042  24.866  1.00  0.00     0.049 A 
ATOM     16  C   UNL A   1      34.270  23.889  25.428  1.00  0.00     0.049 A 
ATOM     17  O   UNL A   1      33.237  25.755  26.342  1.00  0.00    -0.269 OA
ATOM     18  C   UNL A   1      32.604  20.672  24.644  1.00  0.00     0.015 A 
ATOM     19  C   UNL A   1      34.076  22.543  25.114  1.00  0.00     0.009 A 
ATOM     20  C   UNL A   1      35.558  24.416  25.588  1.00  0.00     0.015 A 
ATOM     21  C   UNL A   1      33.696  19.802  24.656  1.00  0.00     0.015 A 
ATOM     22  C   UNL A   1      35.195  21.678  25.067  1.00  0.00     0.009 A 
ATOM     23  C   UNL A   1      36.666  23.582  25.475  1.00  0.00     0.015 A 
ATOM     24  C   UNL A   1      34.986  20.307  24.854  1.00  0.00     0.048 A 
ATOM     25  C   UNL A   1      36.481  22.214  25.244  1.00  0.00     0.048 A 
ATOM     26  C   UNL A   1      36.151  19.392  24.858  1.00  0.00     0.258 C 
ATOM     27  C   UNL A   1      37.655  21.313  25.199  1.00  0.00     0.258 C 
ATOM     28  N   UNL A   1      37.385  19.978  25.010  1.00  0.00    -0.288 N 
ATOM     29  O   UNL A   1      36.017  18.179  24.748  1.00  0.00    -0.269 OA
ATOM     30  O   UNL A   1      38.793  21.737  25.342  1.00  0.00    -0.269 OA
ATOM     31  H   UNL A   1      38.162  19.375  24.981  1.00  0.00     0.173 HD
ENDBRANCH  10  11
ENDBRANCH   9  10
ENDBRANCH   8   9
ENDBRANCH   6   8
ENDBRANCH   3   4
ENDBRANCH   2   3
ENDBRANCH   1   2
BRANCH   1  32
ATOM     32  C   UNL A   1      32.017  29.786  27.002  1.00  0.00     0.002 C 
BRANCH  32  33
ATOM     33  C   UNL A   1      31.725  31.277  26.819  1.00  0.00     0.021 C 
BRANCH  33  34
ATOM     34  C   UNL A   1      32.943  32.188  26.930  1.00  0.00     0.116 C 
BRANCH  34  35
ATOM     35  N   UNL A   1      32.593  33.534  27.355  1.00  0.00    -0.352 N 
ATOM     36  C   UNL A   1      33.107  34.286  28.383  1.00  0.00     0.251 C 
ATOM     37  H   UNL A   1      31.883  33.970  26.830  1.00  0.00     0.163 HD
ATOM     38  O   UNL A   1      32.564  35.342  28.693  1.00  0.00    -0.269 OA
BRANCH  36  39
ATOM     39  C   UNL A   1      34.296  33.815  29.129  1.00  0.00     0.039 A 
ATOM     40  C   UNL A   1      34.143  32.776  30.049  1.00  0.00     0.014 A 
ATOM     41  C   UNL A   1      35.552  34.396  28.934  1.00  0.00     0.014 A 
ATOM     42  C   UNL A   1      35.259  32.283  30.731  1.00  0.00     0.010 A 
ATOM     43  C   UNL A   1      36.675  33.851  29.555  1.00  0.00     0.010 A 
ATOM     44  C   UNL A   1      36.541  32.794  30.467  1.00  0.00    -0.014 A 
BRANCH  44  45
ATOM     45  C   UNL A   1      37.742  32.209  31.120  1.00  0.00     0.031 A 
ATOM     46  C   UNL A   1      38.672  31.303  30.360  1.00  0.00     0.074 A 
ATOM     47  C   UNL A   1      37.966  32.453  32.427  1.00  0.00     0.049 A 
ATOM     48  N   UNL A   1      39.780  30.736  30.762  1.00  0.00    -0.248 NA
ATOM     49  C   UNL A   1      38.298  30.967  28.978  1.00  0.00     0.031 C 
ATOM     50  C   UNL A   1      37.097  33.248  33.299  1.00  0.00     0.029 A 
ATOM     51  N   UNL A   1      38.985  32.050  33.254  1.00  0.00    -0.354 N 
ATOM     52  C   UNL A   1      40.216  29.950  29.702  1.00  0.00     0.074 A 
ATOM     53  C   UNL A   1      39.233  30.088  28.649  1.00  0.00     0.031 C 
ATOM     54  C   UNL A   1      37.636  33.300  34.528  1.00  0.00     0.029 A 
ATOM     55  C   UNL A   1      38.867  32.517  34.543  1.00  0.00     0.049 A 
ATOM     56  H   UNL A   1      39.729  31.481  32.953  1.00  0.00     0.167 HD
ATOM     57  C   UNL A   1      41.340  29.201  29.602  1.00  0.00     0.034 A 
ATOM     58  C   UNL A   1      39.663  32.341  35.614  1.00  0.00     0.034 A 
ATOM     59  C   UNL A   1      42.330  29.088  30.642  1.00  0.00     0.049 A 
ATOM     60  C   UNL A   1      40.923  31.532  35.467  1.00  0.00     0.074 A 
ATOM     61  C   UNL A   1      43.552  28.441  30.601  1.00  0.00     0.029 A 
ATOM     62  N   UNL A   1      42.202  29.615  31.918  1.00  0.00    -0.354 N 
ATOM     63  N   UNL A   1      41.408  30.946  34.400  1.00  0.00    -0.248 NA
ATOM     64  C   UNL A   1      41.763  31.395  36.665  1.00  0.00     0.031 C 
ATOM     65  C   UNL A   1      44.142  28.537  31.866  1.00  0.00     0.029 A 
ATOM     66  C   UNL A   1      43.310  29.287  32.682  1.00  0.00     0.049 A 
ATOM     67  H   UNL A   1      41.437  30.148  32.235  1.00  0.00     0.167 HD
ATOM     68  C   UNL A   1      42.627  30.399  34.787  1.00  0.00     0.074 A 
ATOM     69  C   UNL A   1      42.816  30.751  36.180  1.00  0.00     0.031 C 
ATOM     70  C   UNL A   1      43.505  29.665  34.059  1.00  0.00     0.034 A 
BRANCH  57  71
ATOM     71  C   UNL A   1      41.573  28.457  28.311  1.00  0.00     0.023 A 
ATOM     72  C   UNL A   1      42.102  29.134  27.192  1.00  0.00     0.012 A 
ATOM     73  C   UNL A   1      41.309  27.076  28.215  1.00  0.00     0.148 A 
ATOM     74  C   UNL A   1      42.319  28.463  25.989  1.00  0.00     0.002 A 
ATOM     75  C   UNL A   1      41.576  26.402  27.029  1.00  0.00     0.091 A 
ATOM     76  F   UNL A   1      40.788  26.449  29.280  1.00  0.00    -0.205 F 
ATOM     77  C   UNL A   1      42.066  27.096  25.912  1.00  0.00     0.022 A 
BRANCH  75  78
ATOM     78  S   UNL A   1      41.363  24.627  26.856  1.00  0.00     0.127 S 
ATOM     79  O   UNL A   1      41.937  24.389  25.532  1.00  0.00    -0.237 OA
ATOM     80  O   UNL A   1      42.163  24.111  27.968  1.00  0.00    -0.237 OA
ATOM     81  O   UNL A   1      39.933  24.381  26.973  1.00  0.00    -0.744 OA
ENDBRANCH  75  78
ENDBRANCH  57  71
BRANCH  58  82
ATOM     82  C   UNL A   1      39.334  33.010  36.905  1.00  0.00     0.023 A 
ATOM     83  C   UNL A   1      39.910  34.262  37.198  1.00  0.00     0.012 A 
ATOM     84  C   UNL A   1      38.442  32.431  37.827  1.00  0.00     0.148 A 
ATOM     85  C   UNL A   1      39.630  34.910  38.401  1.00  0.00     0.002 A 
ATOM     86  C   UNL A   1      38.122  33.109  38.998  1.00  0.00     0.091 A 
ATOM     87  F   UNL A   1      37.910  31.238  37.531  1.00  0.00    -0.205 F 
ATOM     88  C   UNL A   1      38.728  34.339  39.296  1.00  0.00     0.022 A 
BRANCH  86  89
ATOM     89  S   UNL A   1      36.879  32.515  40.149  1.00  0.00     0.127 S 
ATOM     90  O   UNL A   1      35.696  32.430  39.295  1.00  0.00    -0.237 OA
ATOM     91  O   UNL A   1      37.440  31.226  40.556  1.00  0.00    -0.237 OA
ATOM     92  O   UNL A   1      36.816  33.508  41.212  1.00  0.00    -0.744 OA
ENDBRANCH  86  89
ENDBRANCH  58  82
BRANCH  70  93
ATOM     93  C   UNL A   1      44.771  29.217  34.746  1.00  0.00     0.023 A 
ATOM     94  C   UNL A   1      45.923  30.027  34.707  1.00  0.00     0.012 A 
ATOM     95  C   UNL A   1      44.807  28.004  35.464  1.00  0.00     0.148 A 
ATOM     96  C   UNL A   1      47.104  29.615  35.325  1.00  0.00     0.002 A 
ATOM     97  C   UNL A   1      45.971  27.627  36.125  1.00  0.00     0.091 A 
ATOM     98  F   UNL A   1      43.709  27.234  35.479  1.00  0.00    -0.205 F 
ATOM     99  C   UNL A   1      47.125  28.421  36.041  1.00  0.00     0.022 A 
BRANCH  97 100
ATOM    100  S   UNL A   1      46.058  26.157  37.154  1.00  0.00     0.127 S 
ATOM    101  O   UNL A   1      44.957  26.380  38.089  1.00  0.00    -0.237 OA
ATOM    102  O   UNL A   1      45.828  25.086  36.184  1.00  0.00    -0.237 OA
ATOM    103  O   UNL A   1      47.391  26.160  37.744  1.00  0.00    -0.744 OA
ENDBRANCH  97 100
ENDBRANCH  70  93
ENDBRANCH  44  45
ENDBRANCH  36  39
ENDBRANCH  34  35
ENDBRANCH  33  34
ENDBRANCH  32  33
ENDBRANCH   1  32
TORSDOF 19
ENDMDL
