MODEL 1
REMARK VINA RESULT:     -12.5      0.000      0.000
REMARK SMILES CS(=O)(=O)c1cc(F)ccc1N1CCC[C@@H](C(=O)NCCCCCCNC(=O)c2ccc(-c3c4nc(c(-c5cccc(S(=O)(=O)[O-])c5F)c5ccc([nH]5)c(-c5cccc(S(=O)(=O)[O-])c5F)c5nc(c(-c6cccc(S(=O)(=O)[O-])c6F)c6ccc3[nH]6)C=C5)C=C4)cc2)C1
REMARK SMILES IDX 23 1 22 2 21 3 20 4 19 5 17 6 18 7 16 9 12 10 13 11 92 12
REMARK SMILES IDX 14 13 15 14 11 15 5 16 6 17 7 18 10 19 8 20 9 21 2 22 1 23
REMARK SMILES IDX 3 24 4 25 24 26 25 27 26 28 27 29 28 31 29 32 30 33 91 34
REMARK SMILES IDX 31 35 90 36 32 37 33 38 34 39 84 40 35 41 89 42 83 43 85 44
REMARK SMILES IDX 36 45 88 46 82 47 81 48 37 50 69 51 49 52 68 53 50 54 53 55
REMARK SMILES IDX 67 56 86 57 51 58 52 59 66 61 87 62 54 63 38 64 39 65 47 66
REMARK SMILES IDX 40 67 42 68 48 69 41 70 43 71 44 72 45 73 46 74 70 75 71 76
REMARK SMILES IDX 79 77 72 78 74 79 80 80 73 81 75 82 76 83 77 84 78 85 55 86
REMARK SMILES IDX 56 87 64 88 57 89 59 90 65 91 58 92 60 93 61 94 62 95 63 96
REMARK H PARENT 19 8 26 30 85 49 53 60
REMARK Flexibility Score: inf
ROOT
ATOM      1  C   UNL A   1      30.984  29.111  24.755  1.00  0.00     0.002 C 
ENDROOT
BRANCH   1   2
ATOM      2  C   UNL A   1      30.310  29.724  23.524  1.00  0.00     0.002 C 
BRANCH   2   3
ATOM      3  C   UNL A   1      30.418  28.896  22.234  1.00  0.00     0.021 C 
BRANCH   3   4
ATOM      4  C   UNL A   1      30.619  27.397  22.466  1.00  0.00     0.116 C 
BRANCH   4   5
ATOM      5  N   UNL A   1      31.831  26.937  21.812  1.00  0.00    -0.356 N 
ATOM      6  C   UNL A   1      32.876  26.217  22.305  1.00  0.00     0.224 C 
ATOM      7  O   UNL A   1      33.890  26.121  21.611  1.00  0.00    -0.275 OA
ATOM      8  H   UNL A   1      31.909  27.184  20.862  1.00  0.00     0.163 HD
BRANCH   6   9
ATOM      9  C   UNL A   1      32.729  25.463  23.611  1.00  0.00     0.098 C 
ATOM     10  N   UNL A   1      33.780  23.621  24.836  1.00  0.00    -0.370 N 
ATOM     11  C   UNL A   1      33.991  24.403  26.055  1.00  0.00     0.116 C 
ATOM     12  C   UNL A   1      33.766  24.339  23.570  1.00  0.00     0.130 C 
ATOM     13  C   UNL A   1      32.965  25.537  26.115  1.00  0.00     0.022 C 
ATOM     14  C   UNL A   1      32.963  26.367  24.827  1.00  0.00     0.017 C 
BRANCH  10  15
ATOM     15  C   UNL A   1      33.790  22.244  24.890  1.00  0.00     0.056 A 
ATOM     16  C   UNL A   1      34.907  21.405  24.728  1.00  0.00     0.093 A 
ATOM     17  C   UNL A   1      34.757  20.004  24.739  1.00  0.00     0.061 A 
ATOM     18  C   UNL A   1      33.505  19.437  24.920  1.00  0.00     0.124 A 
ATOM     19  C   UNL A   1      32.538  21.620  25.090  1.00  0.00     0.030 A 
ATOM     20  F   UNL A   1      33.378  18.105  24.935  1.00  0.00    -0.207 F 
ATOM     21  C   UNL A   1      32.390  20.232  25.103  1.00  0.00     0.041 A 
BRANCH  16  22
ATOM     22  S   UNL A   1      36.592  21.996  24.676  1.00  0.00     0.177 S 
ATOM     23  C   UNL A   1      37.600  20.542  24.784  1.00  0.00     0.164 C 
ATOM     24  O   UNL A   1      36.817  22.740  25.907  1.00  0.00    -0.224 OA
ATOM     25  O   UNL A   1      36.845  22.649  23.406  1.00  0.00    -0.224 OA
ENDBRANCH  16  22
ENDBRANCH  10  15
ENDBRANCH   6   9
ENDBRANCH   4   5
ENDBRANCH   3   4
ENDBRANCH   2   3
ENDBRANCH   1   2
BRANCH   1  26
ATOM     26  C   UNL A   1      32.173  29.899  25.313  1.00  0.00     0.021 C 
BRANCH  26  27
ATOM     27  C   UNL A   1      31.999  30.410  26.741  1.00  0.00     0.116 C 
BRANCH  27  28
ATOM     28  N   UNL A   1      32.034  31.861  26.819  1.00  0.00    -0.352 N 
ATOM     29  C   UNL A   1      32.947  32.675  27.446  1.00  0.00     0.251 C 
ATOM     30  H   UNL A   1      31.301  32.328  26.358  1.00  0.00     0.163 HD
ATOM     31  O   UNL A   1      32.727  33.879  27.538  1.00  0.00    -0.269 OA
BRANCH  29  32
ATOM     32  C   UNL A   1      34.180  32.100  28.028  1.00  0.00     0.039 A 
ATOM     33  C   UNL A   1      35.269  32.945  28.266  1.00  0.00     0.014 A 
ATOM     34  C   UNL A   1      34.273  30.738  28.327  1.00  0.00     0.014 A 
ATOM     35  C   UNL A   1      36.429  32.434  28.855  1.00  0.00     0.010 A 
ATOM     36  C   UNL A   1      35.406  30.243  28.969  1.00  0.00     0.010 A 
ATOM     37  C   UNL A   1      36.496  31.084  29.238  1.00  0.00    -0.014 A 
BRANCH  37  38
ATOM     38  C   UNL A   1      37.690  30.544  29.937  1.00  0.00     0.031 A 
ATOM     39  C   UNL A   1      37.994  30.953  31.352  1.00  0.00     0.074 A 
ATOM     40  C   UNL A   1      38.541  29.739  29.271  1.00  0.00     0.049 A 
ATOM     41  N   UNL A   1      39.009  30.614  32.104  1.00  0.00    -0.248 NA
ATOM     42  C   UNL A   1      37.050  31.878  31.999  1.00  0.00     0.031 C 
ATOM     43  C   UNL A   1      38.390  29.323  27.876  1.00  0.00     0.029 A 
ATOM     44  N   UNL A   1      39.708  29.137  29.673  1.00  0.00    -0.354 N 
ATOM     45  C   UNL A   1      38.840  31.300  33.301  1.00  0.00     0.074 A 
ATOM     46  C   UNL A   1      37.644  32.102  33.163  1.00  0.00     0.031 C 
ATOM     47  C   UNL A   1      39.416  28.524  27.542  1.00  0.00     0.029 A 
ATOM     48  C   UNL A   1      40.309  28.388  28.688  1.00  0.00     0.049 A 
ATOM     49  H   UNL A   1      40.079  29.234  30.579  1.00  0.00     0.167 HD
ATOM     50  C   UNL A   1      39.591  31.239  34.426  1.00  0.00     0.034 A 
ATOM     51  C   UNL A   1      41.449  27.666  28.707  1.00  0.00     0.034 A 
ATOM     52  C   UNL A   1      40.750  30.402  34.578  1.00  0.00     0.049 A 
ATOM     53  C   UNL A   1      42.247  27.587  29.979  1.00  0.00     0.074 A 
ATOM     54  C   UNL A   1      41.535  30.221  35.703  1.00  0.00     0.029 A 
ATOM     55  N   UNL A   1      41.287  29.603  33.582  1.00  0.00    -0.354 N 
ATOM     56  N   UNL A   1      41.995  28.138  31.143  1.00  0.00    -0.248 NA
ATOM     57  C   UNL A   1      43.464  26.764  29.956  1.00  0.00     0.031 C 
ATOM     58  C   UNL A   1      42.552  29.316  35.384  1.00  0.00     0.029 A 
ATOM     59  C   UNL A   1      42.394  28.926  34.064  1.00  0.00     0.049 A 
ATOM     60  H   UNL A   1      40.935  29.528  32.666  1.00  0.00     0.167 HD
ATOM     61  C   UNL A   1      43.004  27.704  31.996  1.00  0.00     0.074 A 
ATOM     62  C   UNL A   1      43.861  26.831  31.221  1.00  0.00     0.031 C 
ATOM     63  C   UNL A   1      43.206  28.015  33.300  1.00  0.00     0.034 A 
BRANCH  50  64
ATOM     64  C   UNL A   1      39.139  32.042  35.617  1.00  0.00     0.023 A 
ATOM     65  C   UNL A   1      39.432  33.420  35.664  1.00  0.00     0.012 A 
ATOM     66  C   UNL A   1      38.362  31.464  36.639  1.00  0.00     0.148 A 
ATOM     67  C   UNL A   1      38.979  34.207  36.721  1.00  0.00     0.002 A 
ATOM     68  C   UNL A   1      37.881  32.263  37.670  1.00  0.00     0.091 A 
ATOM     69  F   UNL A   1      38.113  30.147  36.588  1.00  0.00    -0.205 F 
ATOM     70  C   UNL A   1      38.195  33.632  37.717  1.00  0.00     0.022 A 
BRANCH  68  71
ATOM     71  S   UNL A   1      36.800  31.632  38.960  1.00  0.00     0.127 S 
ATOM     72  O   UNL A   1      37.680  31.669  40.126  1.00  0.00    -0.237 OA
ATOM     73  O   UNL A   1      35.725  32.625  38.976  1.00  0.00    -0.237 OA
ATOM     74  O   UNL A   1      36.392  30.305  38.523  1.00  0.00    -0.744 OA
ENDBRANCH  68  71
ENDBRANCH  50  64
BRANCH  51  75
ATOM     75  C   UNL A   1      41.835  26.881  27.502  1.00  0.00     0.023 A 
ATOM     76  C   UNL A   1      42.503  27.532  26.447  1.00  0.00     0.012 A 
ATOM     77  C   UNL A   1      41.618  25.492  27.423  1.00  0.00     0.148 A 
ATOM     78  C   UNL A   1      42.939  26.818  25.331  1.00  0.00     0.002 A 
ATOM     79  C   UNL A   1      42.101  24.776  26.333  1.00  0.00     0.091 A 
ATOM     80  F   UNL A   1      40.967  24.892  28.431  1.00  0.00    -0.205 F 
ATOM     81  C   UNL A   1      42.750  25.440  25.279  1.00  0.00     0.022 A 
BRANCH  79  82
ATOM     82  S   UNL A   1      42.030  22.983  26.247  1.00  0.00     0.127 S 
ATOM     83  O   UNL A   1      42.791  22.596  27.432  1.00  0.00    -0.237 OA
ATOM     84  O   UNL A   1      40.590  22.733  26.329  1.00  0.00    -0.237 OA
ATOM     85  O   UNL A   1      42.626  22.626  24.967  1.00  0.00    -0.744 OA
ENDBRANCH  79  82
ENDBRANCH  51  75
BRANCH  63  86
ATOM     86  C   UNL A   1      44.391  27.403  34.000  1.00  0.00     0.023 A 
ATOM     87  C   UNL A   1      45.627  28.077  33.984  1.00  0.00     0.012 A 
ATOM     88  C   UNL A   1      44.245  26.236  34.777  1.00  0.00     0.148 A 
ATOM     89  C   UNL A   1      46.706  27.593  34.723  1.00  0.00     0.002 A 
ATOM     90  C   UNL A   1      45.312  25.784  35.544  1.00  0.00     0.091 A 
ATOM     91  F   UNL A   1      43.063  25.602  34.764  1.00  0.00    -0.205 F 
ATOM     92  C   UNL A   1      46.544  26.457  35.513  1.00  0.00     0.022 A 
BRANCH  90  93
ATOM     93  S   UNL A   1      45.170  24.387  36.667  1.00  0.00     0.127 S 
ATOM     94  O   UNL A   1      46.530  24.289  37.193  1.00  0.00    -0.237 OA
ATOM     95  O   UNL A   1      44.175  24.862  37.630  1.00  0.00    -0.237 OA
ATOM     96  O   UNL A   1      44.733  23.261  35.852  1.00  0.00    -0.744 OA
ENDBRANCH  90  93
ENDBRANCH  63  86
ENDBRANCH  37  38
ENDBRANCH  29  32
ENDBRANCH  27  28
ENDBRANCH  26  27
ENDBRANCH   1  26
TORSDOF 18
ENDMDL
MODEL 2
REMARK VINA RESULT:     -12.4      5.362     10.652
REMARK SMILES CS(=O)(=O)c1cc(F)ccc1N1CCC[C@@H](C(=O)NCCCCCCNC(=O)c2ccc(-c3c4nc(c(-c5cccc(S(=O)(=O)[O-])c5F)c5ccc([nH]5)c(-c5cccc(S(=O)(=O)[O-])c5F)c5nc(c(-c6cccc(S(=O)(=O)[O-])c6F)c6ccc3[nH]6)C=C5)C=C4)cc2)C1
REMARK SMILES IDX 23 1 22 2 21 3 20 4 19 5 17 6 18 7 16 9 12 10 13 11 92 12
REMARK SMILES IDX 14 13 15 14 11 15 5 16 6 17 7 18 10 19 8 20 9 21 2 22 1 23
REMARK SMILES IDX 3 24 4 25 24 26 25 27 26 28 27 29 28 31 29 32 30 33 91 34
REMARK SMILES IDX 31 35 90 36 32 37 33 38 34 39 84 40 35 41 89 42 83 43 85 44
REMARK SMILES IDX 36 45 88 46 82 47 81 48 37 50 69 51 49 52 68 53 50 54 53 55
REMARK SMILES IDX 67 56 86 57 51 58 52 59 66 61 87 62 54 63 38 64 39 65 47 66
REMARK SMILES IDX 40 67 42 68 48 69 41 70 43 71 44 72 45 73 46 74 70 75 71 76
REMARK SMILES IDX 79 77 72 78 74 79 80 80 73 81 75 82 76 83 77 84 78 85 55 86
REMARK SMILES IDX 56 87 64 88 57 89 59 90 65 91 58 92 60 93 61 94 62 95 63 96
REMARK H PARENT 19 8 26 30 85 49 53 60
REMARK Flexibility Score: inf
ROOT
ATOM      1  C   UNL A   1      35.728  21.148  24.981  1.00  0.00     0.002 C 
ENDROOT
BRANCH   1   2
ATOM      2  C   UNL A   1      34.502  20.275  24.690  1.00  0.00     0.002 C 
BRANCH   2   3
ATOM      3  C   UNL A   1      33.348  20.405  25.695  1.00  0.00     0.021 C 
BRANCH   3   4
ATOM      4  C   UNL A   1      32.062  20.984  25.101  1.00  0.00     0.116 C 
BRANCH   4   5
ATOM      5  N   UNL A   1      31.316  21.713  26.112  1.00  0.00    -0.356 N 
ATOM      6  C   UNL A   1      31.459  22.991  26.559  1.00  0.00     0.224 C 
ATOM      7  O   UNL A   1      30.838  23.323  27.571  1.00  0.00    -0.275 OA
ATOM      8  H   UNL A   1      30.592  21.203  26.543  1.00  0.00     0.163 HD
BRANCH   6   9
ATOM      9  C   UNL A   1      32.261  23.991  25.751  1.00  0.00     0.098 C 
ATOM     10  N   UNL A   1      32.295  26.387  25.242  1.00  0.00    -0.370 N 
ATOM     11  C   UNL A   1      33.689  26.568  25.648  1.00  0.00     0.116 C 
ATOM     12  C   UNL A   1      31.536  25.331  25.896  1.00  0.00     0.130 C 
ATOM     13  C   UNL A   1      34.434  25.237  25.515  1.00  0.00     0.022 C 
ATOM     14  C   UNL A   1      33.706  24.106  26.248  1.00  0.00     0.017 C 
BRANCH  10  15
ATOM     15  C   UNL A   1      31.692  27.311  24.416  1.00  0.00     0.056 A 
ATOM     16  C   UNL A   1      31.516  27.206  23.024  1.00  0.00     0.093 A 
ATOM     17  C   UNL A   1      30.941  28.265  22.295  1.00  0.00     0.061 A 
ATOM     18  C   UNL A   1      30.533  29.420  22.944  1.00  0.00     0.124 A 
ATOM     19  C   UNL A   1      31.244  28.500  25.036  1.00  0.00     0.030 A 
ATOM     20  F   UNL A   1      29.982  30.415  22.239  1.00  0.00    -0.207 F 
ATOM     21  C   UNL A   1      30.672  29.547  24.313  1.00  0.00     0.041 A 
BRANCH  16  22
ATOM     22  S   UNL A   1      31.822  25.710  22.096  1.00  0.00     0.177 S 
ATOM     23  C   UNL A   1      33.576  25.468  22.167  1.00  0.00     0.164 C 
ATOM     24  O   UNL A   1      31.507  26.004  20.705  1.00  0.00    -0.224 OA
ATOM     25  O   UNL A   1      31.167  24.589  22.742  1.00  0.00    -0.224 OA
ENDBRANCH  16  22
ENDBRANCH  10  15
ENDBRANCH   6   9
ENDBRANCH   4   5
ENDBRANCH   3   4
ENDBRANCH   2   3
ENDBRANCH   1   2
BRANCH   1  26
ATOM     26  C   UNL A   1      37.079  20.433  24.886  1.00  0.00     0.021 C 
BRANCH  26  27
ATOM     27  C   UNL A   1      38.254  21.186  25.506  1.00  0.00     0.116 C 
BRANCH  27  28
ATOM     28  N   UNL A   1      39.253  20.290  26.064  1.00  0.00    -0.352 N 
ATOM     29  C   UNL A   1      40.433  20.594  26.701  1.00  0.00     0.251 C 
ATOM     30  H   UNL A   1      39.059  19.330  25.975  1.00  0.00     0.163 HD
ATOM     31  O   UNL A   1      41.229  19.699  26.968  1.00  0.00    -0.269 OA
BRANCH  29  32
ATOM     32  C   UNL A   1      40.754  21.997  27.044  1.00  0.00     0.039 A 
ATOM     33  C   UNL A   1      41.501  22.255  28.198  1.00  0.00     0.014 A 
ATOM     34  C   UNL A   1      40.312  23.057  26.246  1.00  0.00     0.014 A 
ATOM     35  C   UNL A   1      41.853  23.569  28.518  1.00  0.00     0.010 A 
ATOM     36  C   UNL A   1      40.715  24.359  26.534  1.00  0.00     0.010 A 
ATOM     37  C   UNL A   1      41.487  24.629  27.673  1.00  0.00    -0.014 A 
BRANCH  37  38
ATOM     38  C   UNL A   1      41.921  26.020  27.958  1.00  0.00     0.031 A 
ATOM     39  C   UNL A   1      43.314  26.471  27.609  1.00  0.00     0.074 A 
ATOM     40  C   UNL A   1      41.083  26.860  28.596  1.00  0.00     0.049 A 
ATOM     41  N   UNL A   1      43.877  27.632  27.818  1.00  0.00    -0.248 NA
ATOM     42  C   UNL A   1      44.193  25.484  26.962  1.00  0.00     0.031 C 
ATOM     43  C   UNL A   1      39.731  26.521  29.045  1.00  0.00     0.029 A 
ATOM     44  N   UNL A   1      41.246  28.164  28.991  1.00  0.00    -0.354 N 
ATOM     45  C   UNL A   1      45.181  27.511  27.352  1.00  0.00     0.074 A 
ATOM     46  C   UNL A   1      45.337  26.152  26.882  1.00  0.00     0.031 C 
ATOM     47  C   UNL A   1      39.184  27.592  29.640  1.00  0.00     0.029 A 
ATOM     48  C   UNL A   1      40.150  28.687  29.637  1.00  0.00     0.049 A 
ATOM     49  H   UNL A   1      42.071  28.677  28.829  1.00  0.00     0.167 HD
ATOM     50  C   UNL A   1      46.149  28.455  27.288  1.00  0.00     0.034 A 
ATOM     51  C   UNL A   1      39.941  29.911  30.163  1.00  0.00     0.034 A 
ATOM     52  C   UNL A   1      45.976  29.819  27.709  1.00  0.00     0.049 A 
ATOM     53  C   UNL A   1      41.021  30.952  30.048  1.00  0.00     0.074 A 
ATOM     54  C   UNL A   1      46.877  30.865  27.619  1.00  0.00     0.029 A 
ATOM     55  N   UNL A   1      44.827  30.328  28.293  1.00  0.00    -0.354 N 
ATOM     56  N   UNL A   1      42.200  30.856  29.482  1.00  0.00    -0.248 NA
ATOM     57  C   UNL A   1      40.733  32.280  30.611  1.00  0.00     0.031 C 
ATOM     58  C   UNL A   1      46.274  32.007  28.156  1.00  0.00     0.029 A 
ATOM     59  C   UNL A   1      44.994  31.674  28.569  1.00  0.00     0.049 A 
ATOM     60  H   UNL A   1      44.012  29.810  28.484  1.00  0.00     0.167 HD
ATOM     61  C   UNL A   1      42.781  32.114  29.593  1.00  0.00     0.074 A 
ATOM     62  C   UNL A   1      41.818  32.962  30.266  1.00  0.00     0.031 C 
ATOM     63  C   UNL A   1      44.008  32.522  29.186  1.00  0.00     0.034 A 
BRANCH  50  64
ATOM     64  C   UNL A   1      47.466  28.070  26.666  1.00  0.00     0.023 A 
ATOM     65  C   UNL A   1      48.551  27.749  27.506  1.00  0.00     0.012 A 
ATOM     66  C   UNL A   1      47.609  27.946  25.271  1.00  0.00     0.148 A 
ATOM     67  C   UNL A   1      49.767  27.331  26.968  1.00  0.00     0.002 A 
ATOM     68  C   UNL A   1      48.812  27.491  24.743  1.00  0.00     0.091 A 
ATOM     69  F   UNL A   1      46.572  28.278  24.488  1.00  0.00    -0.205 F 
ATOM     70  C   UNL A   1      49.893  27.192  25.589  1.00  0.00     0.022 A 
BRANCH  68  71
ATOM     71  S   UNL A   1      49.051  27.207  22.985  1.00  0.00     0.127 S 
ATOM     72  O   UNL A   1      50.502  27.057  22.905  1.00  0.00    -0.237 OA
ATOM     73  O   UNL A   1      48.298  25.971  22.766  1.00  0.00    -0.237 OA
ATOM     74  O   UNL A   1      48.502  28.377  22.314  1.00  0.00    -0.744 OA
ENDBRANCH  68  71
ENDBRANCH  50  64
BRANCH  51  75
ATOM     75  C   UNL A   1      38.612  30.237  30.752  1.00  0.00     0.023 A 
ATOM     76  C   UNL A   1      38.358  29.895  32.094  1.00  0.00     0.012 A 
ATOM     77  C   UNL A   1      37.634  30.943  30.025  1.00  0.00     0.148 A 
ATOM     78  C   UNL A   1      37.149  30.241  32.701  1.00  0.00     0.002 A 
ATOM     79  C   UNL A   1      36.454  31.331  30.650  1.00  0.00     0.091 A 
ATOM     80  F   UNL A   1      37.891  31.247  28.744  1.00  0.00    -0.205 F 
ATOM     81  C   UNL A   1      36.204  30.969  31.983  1.00  0.00     0.022 A 
BRANCH  79  82
ATOM     82  S   UNL A   1      35.244  32.392  29.852  1.00  0.00     0.127 S 
ATOM     83  O   UNL A   1      34.742  31.527  28.788  1.00  0.00    -0.237 OA
ATOM     84  O   UNL A   1      34.299  32.645  30.940  1.00  0.00    -0.237 OA
ATOM     85  O   UNL A   1      35.981  33.570  29.415  1.00  0.00    -0.744 OA
ENDBRANCH  79  82
ENDBRANCH  51  75
BRANCH  63  86
ATOM     86  C   UNL A   1      44.397  33.956  29.433  1.00  0.00     0.023 A 
ATOM     87  C   UNL A   1      44.981  34.312  30.664  1.00  0.00     0.012 A 
ATOM     88  C   UNL A   1      44.304  34.915  28.404  1.00  0.00     0.148 A 
ATOM     89  C   UNL A   1      45.459  35.605  30.872  1.00  0.00     0.002 A 
ATOM     90  C   UNL A   1      44.821  36.189  28.605  1.00  0.00     0.091 A 
ATOM     91  F   UNL A   1      43.729  34.558  27.247  1.00  0.00    -0.205 F 
ATOM     92  C   UNL A   1      45.392  36.538  29.840  1.00  0.00     0.022 A 
BRANCH  90  93
ATOM     93  S   UNL A   1      44.868  37.427  27.303  1.00  0.00     0.127 S 
ATOM     94  O   UNL A   1      45.810  36.829  26.358  1.00  0.00    -0.237 OA
ATOM     95  O   UNL A   1      43.478  37.452  26.846  1.00  0.00    -0.237 OA
ATOM     96  O   UNL A   1      45.318  38.659  27.937  1.00  0.00    -0.744 OA
ENDBRANCH  90  93
ENDBRANCH  63  86
ENDBRANCH  37  38
ENDBRANCH  29  32
ENDBRANCH  27  28
ENDBRANCH  26  27
ENDBRANCH   1  26
TORSDOF 18
ENDMDL
MODEL 3
REMARK VINA RESULT:     -12.2      1.665      2.061
REMARK SMILES CS(=O)(=O)c1cc(F)ccc1N1CCC[C@@H](C(=O)NCCCCCCNC(=O)c2ccc(-c3c4nc(c(-c5cccc(S(=O)(=O)[O-])c5F)c5ccc([nH]5)c(-c5cccc(S(=O)(=O)[O-])c5F)c5nc(c(-c6cccc(S(=O)(=O)[O-])c6F)c6ccc3[nH]6)C=C5)C=C4)cc2)C1
REMARK SMILES IDX 23 1 22 2 21 3 20 4 19 5 17 6 18 7 16 9 12 10 13 11 92 12
REMARK SMILES IDX 14 13 15 14 11 15 5 16 6 17 7 18 10 19 8 20 9 21 2 22 1 23
REMARK SMILES IDX 3 24 4 25 24 26 25 27 26 28 27 29 28 31 29 32 30 33 91 34
REMARK SMILES IDX 31 35 90 36 32 37 33 38 34 39 84 40 35 41 89 42 83 43 85 44
REMARK SMILES IDX 36 45 88 46 82 47 81 48 37 50 69 51 49 52 68 53 50 54 53 55
REMARK SMILES IDX 67 56 86 57 51 58 52 59 66 61 87 62 54 63 38 64 39 65 47 66
REMARK SMILES IDX 40 67 42 68 48 69 41 70 43 71 44 72 45 73 46 74 70 75 71 76
REMARK SMILES IDX 79 77 72 78 74 79 80 80 73 81 75 82 76 83 77 84 78 85 55 86
REMARK SMILES IDX 56 87 64 88 57 89 59 90 65 91 58 92 60 93 61 94 62 95 63 96
REMARK H PARENT 19 8 26 30 85 49 53 60
REMARK Flexibility Score: inf
ROOT
ATOM      1  C   UNL A   1      31.045  28.944  24.779  1.00  0.00     0.002 C 
ENDROOT
BRANCH   1   2
ATOM      2  C   UNL A   1      30.251  29.457  23.573  1.00  0.00     0.002 C 
BRANCH   2   3
ATOM      3  C   UNL A   1      30.066  28.449  22.430  1.00  0.00     0.021 C 
BRANCH   3   4
ATOM      4  C   UNL A   1      30.548  27.034  22.757  1.00  0.00     0.116 C 
BRANCH   4   5
ATOM      5  N   UNL A   1      31.579  26.617  21.823  1.00  0.00    -0.356 N 
ATOM      6  C   UNL A   1      32.772  26.002  22.048  1.00  0.00     0.224 C 
ATOM      7  O   UNL A   1      33.572  25.931  21.113  1.00  0.00    -0.275 OA
ATOM      8  H   UNL A   1      31.385  26.810  20.877  1.00  0.00     0.163 HD
BRANCH   6   9
ATOM      9  C   UNL A   1      33.035  25.321  23.377  1.00  0.00     0.098 C 
ATOM     10  N   UNL A   1      34.791  24.041  24.508  1.00  0.00    -0.370 N 
ATOM     11  C   UNL A   1      34.831  24.917  25.679  1.00  0.00     0.116 C 
ATOM     12  C   UNL A   1      34.395  24.634  23.239  1.00  0.00     0.130 C 
ATOM     13  C   UNL A   1      33.480  25.620  25.835  1.00  0.00     0.022 C 
ATOM     14  C   UNL A   1      33.053  26.319  24.541  1.00  0.00     0.017 C 
BRANCH  10  15
ATOM     15  C   UNL A   1      35.295  22.762  24.587  1.00  0.00     0.056 A 
ATOM     16  C   UNL A   1      34.558  21.577  24.763  1.00  0.00     0.093 A 
ATOM     17  C   UNL A   1      35.216  20.338  24.896  1.00  0.00     0.061 A 
ATOM     18  C   UNL A   1      36.600  20.273  24.845  1.00  0.00     0.124 A 
ATOM     19  C   UNL A   1      36.702  22.643  24.523  1.00  0.00     0.030 A 
ATOM     20  F   UNL A   1      37.211  19.089  24.966  1.00  0.00    -0.207 F 
ATOM     21  C   UNL A   1      37.353  21.415  24.652  1.00  0.00     0.041 A 
BRANCH  16  22
ATOM     22  S   UNL A   1      32.776  21.493  24.658  1.00  0.00     0.177 S 
ATOM     23  C   UNL A   1      32.369  19.802  25.001  1.00  0.00     0.164 C 
ATOM     24  O   UNL A   1      32.424  21.722  23.264  1.00  0.00    -0.224 OA
ATOM     25  O   UNL A   1      32.184  22.334  25.679  1.00  0.00    -0.224 OA
ENDBRANCH  16  22
ENDBRANCH  10  15
ENDBRANCH   6   9
ENDBRANCH   4   5
ENDBRANCH   3   4
ENDBRANCH   2   3
ENDBRANCH   1   2
BRANCH   1  26
ATOM     26  C   UNL A   1      32.142  29.884  25.289  1.00  0.00     0.021 C 
BRANCH  26  27
ATOM     27  C   UNL A   1      31.953  30.383  26.719  1.00  0.00     0.116 C 
BRANCH  27  28
ATOM     28  N   UNL A   1      31.960  31.834  26.806  1.00  0.00    -0.352 N 
ATOM     29  C   UNL A   1      32.856  32.662  27.437  1.00  0.00     0.251 C 
ATOM     30  H   UNL A   1      31.217  32.289  26.347  1.00  0.00     0.163 HD
ATOM     31  O   UNL A   1      32.612  33.861  27.537  1.00  0.00    -0.269 OA
BRANCH  29  32
ATOM     32  C   UNL A   1      34.101  32.109  28.015  1.00  0.00     0.039 A 
ATOM     33  C   UNL A   1      35.140  32.987  28.341  1.00  0.00     0.014 A 
ATOM     34  C   UNL A   1      34.254  30.736  28.225  1.00  0.00     0.014 A 
ATOM     35  C   UNL A   1      36.308  32.493  28.929  1.00  0.00     0.010 A 
ATOM     36  C   UNL A   1      35.393  30.253  28.866  1.00  0.00     0.010 A 
ATOM     37  C   UNL A   1      36.432  31.126  29.222  1.00  0.00    -0.014 A 
BRANCH  37  38
ATOM     38  C   UNL A   1      37.633  30.597  29.918  1.00  0.00     0.031 A 
ATOM     39  C   UNL A   1      37.969  31.054  31.311  1.00  0.00     0.074 A 
ATOM     40  C   UNL A   1      38.462  29.758  29.267  1.00  0.00     0.049 A 
ATOM     41  N   UNL A   1      38.994  30.731  32.056  1.00  0.00    -0.248 NA
ATOM     42  C   UNL A   1      37.048  32.014  31.941  1.00  0.00     0.031 C 
ATOM     43  C   UNL A   1      38.280  29.293  27.891  1.00  0.00     0.029 A 
ATOM     44  N   UNL A   1      39.629  29.158  29.669  1.00  0.00    -0.354 N 
ATOM     45  C   UNL A   1      38.856  31.463  33.230  1.00  0.00     0.074 A 
ATOM     46  C   UNL A   1      37.667  32.274  33.085  1.00  0.00     0.031 C 
ATOM     47  C   UNL A   1      39.290  28.470  27.568  1.00  0.00     0.029 A 
ATOM     48  C   UNL A   1      40.203  28.365  28.702  1.00  0.00     0.049 A 
ATOM     49  H   UNL A   1      40.019  29.283  30.564  1.00  0.00     0.167 HD
ATOM     50  C   UNL A   1      39.628  31.434  34.342  1.00  0.00     0.034 A 
ATOM     51  C   UNL A   1      41.334  27.630  28.725  1.00  0.00     0.034 A 
ATOM     52  C   UNL A   1      40.780  30.589  34.503  1.00  0.00     0.049 A 
ATOM     53  C   UNL A   1      42.156  27.589  29.985  1.00  0.00     0.074 A 
ATOM     54  C   UNL A   1      41.584  30.440  35.620  1.00  0.00     0.029 A 
ATOM     55  N   UNL A   1      41.289  29.747  33.527  1.00  0.00    -0.354 N 
ATOM     56  N   UNL A   1      41.933  28.185  31.132  1.00  0.00    -0.248 NA
ATOM     57  C   UNL A   1      43.363  26.750  29.969  1.00  0.00     0.031 C 
ATOM     58  C   UNL A   1      42.585  29.512  35.315  1.00  0.00     0.029 A 
ATOM     59  C   UNL A   1      42.396  29.075  34.014  1.00  0.00     0.049 A 
ATOM     60  H   UNL A   1      40.918  29.643  32.622  1.00  0.00     0.167 HD
ATOM     61  C   UNL A   1      42.952  27.770  31.981  1.00  0.00     0.074 A 
ATOM     62  C   UNL A   1      43.785  26.860  31.223  1.00  0.00     0.031 C 
ATOM     63  C   UNL A   1      43.183  28.127  33.269  1.00  0.00     0.034 A 
BRANCH  50  64
ATOM     64  C   UNL A   1      39.208  32.286  35.511  1.00  0.00     0.023 A 
ATOM     65  C   UNL A   1      38.344  31.739  36.481  1.00  0.00     0.012 A 
ATOM     66  C   UNL A   1      39.724  33.583  35.696  1.00  0.00     0.148 A 
ATOM     67  C   UNL A   1      37.981  32.477  37.606  1.00  0.00     0.002 A 
ATOM     68  C   UNL A   1      39.389  34.298  36.839  1.00  0.00     0.091 A 
ATOM     69  F   UNL A   1      40.527  34.094  34.750  1.00  0.00    -0.205 F 
ATOM     70  C   UNL A   1      38.512  33.750  37.791  1.00  0.00     0.022 A 
BRANCH  68  71
ATOM     71  S   UNL A   1      40.080  35.916  37.206  1.00  0.00     0.127 S 
ATOM     72  O   UNL A   1      39.703  36.674  36.015  1.00  0.00    -0.237 OA
ATOM     73  O   UNL A   1      39.357  36.293  38.422  1.00  0.00    -0.237 OA
ATOM     74  O   UNL A   1      41.508  35.707  37.392  1.00  0.00    -0.744 OA
ENDBRANCH  68  71
ENDBRANCH  50  64
BRANCH  51  75
ATOM     75  C   UNL A   1      41.689  26.796  27.543  1.00  0.00     0.023 A 
ATOM     76  C   UNL A   1      42.342  27.401  26.452  1.00  0.00     0.012 A 
ATOM     77  C   UNL A   1      41.456  25.408  27.521  1.00  0.00     0.148 A 
ATOM     78  C   UNL A   1      42.748  26.641  25.355  1.00  0.00     0.002 A 
ATOM     79  C   UNL A   1      41.910  24.647  26.449  1.00  0.00     0.091 A 
ATOM     80  F   UNL A   1      40.820  24.853  28.564  1.00  0.00    -0.205 F 
ATOM     81  C   UNL A   1      42.544  25.264  25.359  1.00  0.00     0.022 A 
BRANCH  79  82
ATOM     82  S   UNL A   1      41.820  22.853  26.433  1.00  0.00     0.127 S 
ATOM     83  O   UNL A   1      42.568  22.503  27.637  1.00  0.00    -0.237 OA
ATOM     84  O   UNL A   1      40.377  22.622  26.513  1.00  0.00    -0.237 OA
ATOM     85  O   UNL A   1      42.421  22.441  25.172  1.00  0.00    -0.744 OA
ENDBRANCH  79  82
ENDBRANCH  51  75
BRANCH  63  86
ATOM     86  C   UNL A   1      44.374  27.527  33.969  1.00  0.00     0.023 A 
ATOM     87  C   UNL A   1      45.574  28.260  34.044  1.00  0.00     0.012 A 
ATOM     88  C   UNL A   1      44.263  26.303  34.660  1.00  0.00     0.148 A 
ATOM     89  C   UNL A   1      46.651  27.780  34.788  1.00  0.00     0.002 A 
ATOM     90  C   UNL A   1      45.326  25.852  35.433  1.00  0.00     0.091 A 
ATOM     91  F   UNL A   1      43.117  25.614  34.560  1.00  0.00    -0.205 F 
ATOM     92  C   UNL A   1      46.522  26.585  35.492  1.00  0.00     0.022 A 
BRANCH  90  93
ATOM     93  S   UNL A   1      45.219  24.376  36.453  1.00  0.00     0.127 S 
ATOM     94  O   UNL A   1      46.544  23.787  36.264  1.00  0.00    -0.237 OA
ATOM     95  O   UNL A   1      44.982  24.934  37.784  1.00  0.00    -0.237 OA
ATOM     96  O   UNL A   1      44.109  23.598  35.917  1.00  0.00    -0.744 OA
ENDBRANCH  90  93
ENDBRANCH  63  86
ENDBRANCH  37  38
ENDBRANCH  29  32
ENDBRANCH  27  28
ENDBRANCH  26  27
ENDBRANCH   1  26
TORSDOF 18
ENDMDL
