MODEL 1
REMARK VINA RESULT:     -11.2      0.000      0.000
REMARK SMILES CS(=O)(=O)c1ccc(/C=C(/C(=O)NCCCCCCNC(=O)c2ccc(-c3c4nc(c(-c5cccc(S(=O)(=O)[O-])c5F)c5ccc([nH]5)c(-c5cccc(S(=O)(=O)[O-])c5F)c5nc(c(-c6cccc(S(=O)(=O)[O-])c6F)c6ccc3[nH]6)C=C5)C=C4)cc2)c2ccc(-c3ccc(S(C)(=O)=O)cc3)cc2)cc1
REMARK SMILES IDX 16 1 15 2 14 3 13 4 11 5 12 6 10 8 9 9 8 10 5 11 6 12 103 13
REMARK SMILES IDX 7 14 102 15 2 16 1 17 3 18 4 19 86 20 87 21 101 22 88 23
REMARK SMILES IDX 100 24 89 25 90 26 91 27 99 28 92 29 98 30 93 31 94 32 95 33
REMARK SMILES IDX 96 34 97 35 17 36 18 37 19 38 20 39 21 40 22 42 23 43 24 44
REMARK SMILES IDX 85 45 25 46 84 47 26 48 27 49 28 50 78 51 29 52 83 53 77 54
REMARK SMILES IDX 79 55 30 56 82 57 76 58 75 59 31 61 63 62 43 63 62 64 44 65
REMARK SMILES IDX 47 66 61 67 80 68 45 69 46 70 60 72 81 73 48 74 32 75 33 76
REMARK SMILES IDX 41 77 34 78 36 79 42 80 35 81 37 82 38 83 39 84 40 85 64 86
REMARK SMILES IDX 65 87 73 88 66 89 68 90 74 91 67 92 69 93 70 94 71 95 72 96
REMARK SMILES IDX 49 97 50 98 58 99 51 100 53 101 59 102 52 103 54 104 55 105
REMARK SMILES IDX 56 106 57 107
REMARK H PARENT 13 7 20 41 79 60 47 71
REMARK Flexibility Score: inf
ROOT
ATOM      1  C   UNL A   1      33.376  22.900  26.901  1.00  0.00     0.002 C 
ENDROOT
BRANCH   1   2
ATOM      2  C   UNL A   1      31.941  23.431  27.063  1.00  0.00     0.021 C 
BRANCH   2   3
ATOM      3  C   UNL A   1      31.114  23.321  25.780  1.00  0.00     0.116 C 
BRANCH   3   4
ATOM      4  N   UNL A   1      32.012  23.307  24.645  1.00  0.00    -0.352 N 
ATOM      5  C   UNL A   1      32.242  24.162  23.620  1.00  0.00     0.251 C 
ATOM      6  O   UNL A   1      32.984  23.739  22.728  1.00  0.00    -0.269 OA
ATOM      7  H   UNL A   1      32.577  22.502  24.611  1.00  0.00     0.163 HD
BRANCH   5   8
ATOM      8  C   UNL A   1      31.740  25.590  23.594  1.00  0.00     0.047 C 
ATOM      9  C   UNL A   1      30.895  26.061  22.646  1.00  0.00     0.022 C 
BRANCH   9  10
ATOM     10  C   UNL A   1      30.190  27.364  22.586  1.00  0.00    -0.025 A 
ATOM     11  C   UNL A   1      28.810  29.809  22.770  1.00  0.00     0.067 A 
ATOM     12  C   UNL A   1      30.087  29.764  22.206  1.00  0.00     0.021 A 
ATOM     13  C   UNL A   1      28.188  28.636  23.193  1.00  0.00     0.021 A 
ATOM     14  C   UNL A   1      30.757  28.542  22.089  1.00  0.00     0.009 A 
ATOM     15  C   UNL A   1      28.881  27.422  23.098  1.00  0.00     0.009 A 
BRANCH  11  16
ATOM     16  S   UNL A   1      28.014  31.390  22.941  1.00  0.00     0.175 S 
ATOM     17  C   UNL A   1      29.220  32.486  23.633  1.00  0.00     0.163 C 
ATOM     18  O   UNL A   1      26.969  31.230  23.937  1.00  0.00    -0.224 OA
ATOM     19  O   UNL A   1      27.697  31.841  21.600  1.00  0.00    -0.224 OA
ENDBRANCH  11  16
ENDBRANCH   9  10
BRANCH   8  20
ATOM     20  C   UNL A   1      32.365  26.508  24.577  1.00  0.00    -0.013 A 
ATOM     21  C   UNL A   1      33.551  27.159  24.208  1.00  0.00     0.009 A 
ATOM     22  C   UNL A   1      31.788  26.811  25.812  1.00  0.00     0.009 A 
ATOM     23  C   UNL A   1      34.133  28.114  25.039  1.00  0.00     0.009 A 
ATOM     24  C   UNL A   1      32.356  27.799  26.628  1.00  0.00     0.009 A 
ATOM     25  C   UNL A   1      33.533  28.474  26.253  1.00  0.00    -0.018 A 
BRANCH  25  26
ATOM     26  C   UNL A   1      34.131  29.527  27.095  1.00  0.00    -0.018 A 
ATOM     27  C   UNL A   1      35.379  29.333  27.722  1.00  0.00     0.010 A 
ATOM     28  C   UNL A   1      33.470  30.748  27.310  1.00  0.00     0.010 A 
ATOM     29  C   UNL A   1      35.933  30.307  28.554  1.00  0.00     0.021 A 
ATOM     30  C   UNL A   1      34.015  31.731  28.139  1.00  0.00     0.021 A 
ATOM     31  C   UNL A   1      35.235  31.495  28.771  1.00  0.00     0.067 A 
BRANCH  31  32
ATOM     32  S   UNL A   1      35.920  32.711  29.866  1.00  0.00     0.175 S 
ATOM     33  C   UNL A   1      35.625  32.028  31.477  1.00  0.00     0.163 C 
ATOM     34  O   UNL A   1      37.350  32.743  29.640  1.00  0.00    -0.224 OA
ATOM     35  O   UNL A   1      35.117  33.916  29.754  1.00  0.00    -0.224 OA
ENDBRANCH  31  32
ENDBRANCH  25  26
ENDBRANCH   8  20
ENDBRANCH   5   8
ENDBRANCH   3   4
ENDBRANCH   2   3
ENDBRANCH   1   2
BRANCH   1  36
ATOM     36  C   UNL A   1      34.407  23.964  26.504  1.00  0.00     0.002 C 
BRANCH  36  37
ATOM     37  C   UNL A   1      35.536  23.447  25.610  1.00  0.00     0.021 C 
BRANCH  37  38
ATOM     38  C   UNL A   1      36.932  23.750  26.142  1.00  0.00     0.116 C 
BRANCH  38  39
ATOM     39  N   UNL A   1      37.745  22.547  26.218  1.00  0.00    -0.352 N 
ATOM     40  C   UNL A   1      39.099  22.433  26.404  1.00  0.00     0.251 C 
ATOM     41  H   UNL A   1      37.257  21.697  26.122  1.00  0.00     0.163 HD
ATOM     42  O   UNL A   1      39.663  21.363  26.194  1.00  0.00    -0.269 OA
BRANCH  40  43
ATOM     43  C   UNL A   1      39.873  23.610  26.851  1.00  0.00     0.039 A 
ATOM     44  C   UNL A   1      40.789  23.465  27.894  1.00  0.00     0.014 A 
ATOM     45  C   UNL A   1      39.691  24.853  26.237  1.00  0.00     0.014 A 
ATOM     46  C   UNL A   1      41.558  24.560  28.290  1.00  0.00     0.010 A 
ATOM     47  C   UNL A   1      40.515  25.920  26.579  1.00  0.00     0.010 A 
ATOM     48  C   UNL A   1      41.449  25.789  27.617  1.00  0.00    -0.014 A 
BRANCH  48  49
ATOM     49  C   UNL A   1      42.307  26.944  27.983  1.00  0.00     0.031 A 
ATOM     50  C   UNL A   1      43.691  27.073  27.407  1.00  0.00     0.074 A 
ATOM     51  C   UNL A   1      41.867  27.834  28.893  1.00  0.00     0.049 A 
ATOM     52  N   UNL A   1      44.598  27.986  27.643  1.00  0.00    -0.248 NA
ATOM     53  C   UNL A   1      44.125  26.028  26.465  1.00  0.00     0.031 C 
ATOM     54  C   UNL A   1      40.575  27.774  29.580  1.00  0.00     0.029 A 
ATOM     55  N   UNL A   1      42.468  28.952  29.416  1.00  0.00    -0.354 N 
ATOM     56  C   UNL A   1      45.715  27.610  26.908  1.00  0.00     0.074 A 
ATOM     57  C   UNL A   1      45.388  26.365  26.248  1.00  0.00     0.031 C 
ATOM     58  C   UNL A   1      40.477  28.812  30.426  1.00  0.00     0.029 A 
ATOM     59  C   UNL A   1      41.710  29.590  30.371  1.00  0.00     0.049 A 
ATOM     60  H   UNL A   1      43.358  29.267  29.135  1.00  0.00     0.167 HD
ATOM     61  C   UNL A   1      46.898  28.255  26.772  1.00  0.00     0.034 A 
ATOM     62  C   UNL A   1      41.982  30.672  31.126  1.00  0.00     0.034 A 
ATOM     63  C   UNL A   1      47.208  29.509  27.404  1.00  0.00     0.049 A 
ATOM     64  C   UNL A   1      43.293  31.384  30.936  1.00  0.00     0.074 A 
ATOM     65  C   UNL A   1      48.344  30.285  27.263  1.00  0.00     0.029 A 
ATOM     66  N   UNL A   1      46.387  30.163  28.308  1.00  0.00    -0.354 N 
ATOM     67  N   UNL A   1      44.278  31.097  30.120  1.00  0.00    -0.248 NA
ATOM     68  C   UNL A   1      43.518  32.590  31.746  1.00  0.00     0.031 C 
ATOM     69  C   UNL A   1      48.226  31.391  28.111  1.00  0.00     0.029 A 
ATOM     70  C   UNL A   1      46.998  31.325  28.748  1.00  0.00     0.049 A 
ATOM     71  H   UNL A   1      45.499  29.848  28.597  1.00  0.00     0.167 HD
ATOM     72  C   UNL A   1      45.220  32.105  30.288  1.00  0.00     0.074 A 
ATOM     73  C   UNL A   1      44.678  33.020  31.271  1.00  0.00     0.031 C 
ATOM     74  C   UNL A   1      46.428  32.253  29.692  1.00  0.00     0.034 A 
BRANCH  61  75
ATOM     75  C   UNL A   1      47.937  27.635  25.872  1.00  0.00     0.023 A 
ATOM     76  C   UNL A   1      47.770  27.682  24.473  1.00  0.00     0.012 A 
ATOM     77  C   UNL A   1      49.105  27.058  26.408  1.00  0.00     0.148 A 
ATOM     78  C   UNL A   1      48.729  27.132  23.623  1.00  0.00     0.002 A 
ATOM     79  C   UNL A   1      50.079  26.556  25.553  1.00  0.00     0.091 A 
ATOM     80  F   UNL A   1      49.237  27.003  27.741  1.00  0.00    -0.205 F 
ATOM     81  C   UNL A   1      49.887  26.580  24.162  1.00  0.00     0.022 A 
BRANCH  79  82
ATOM     82  S   UNL A   1      51.642  25.899  26.145  1.00  0.00     0.127 S 
ATOM     83  O   UNL A   1      51.212  24.665  26.802  1.00  0.00    -0.237 OA
ATOM     84  O   UNL A   1      52.382  25.700  24.899  1.00  0.00    -0.237 OA
ATOM     85  O   UNL A   1      52.198  26.913  27.029  1.00  0.00    -0.744 OA
ENDBRANCH  79  82
ENDBRANCH  61  75
BRANCH  62  86
ATOM     86  C   UNL A   1      40.970  31.177  32.096  1.00  0.00     0.023 A 
ATOM     87  C   UNL A   1      40.020  32.128  31.678  1.00  0.00     0.012 A 
ATOM     88  C   UNL A   1      40.932  30.704  33.422  1.00  0.00     0.148 A 
ATOM     89  C   UNL A   1      39.073  32.628  32.574  1.00  0.00     0.002 A 
ATOM     90  C   UNL A   1      39.950  31.162  34.292  1.00  0.00     0.091 A 
ATOM     91  F   UNL A   1      41.852  29.805  33.800  1.00  0.00    -0.205 F 
ATOM     92  C   UNL A   1      39.032  32.138  33.876  1.00  0.00     0.022 A 
BRANCH  90  93
ATOM     93  S   UNL A   1      39.742  30.490  35.945  1.00  0.00     0.127 S 
ATOM     94  O   UNL A   1      38.294  30.319  36.017  1.00  0.00    -0.237 OA
ATOM     95  O   UNL A   1      40.509  29.246  35.861  1.00  0.00    -0.237 OA
ATOM     96  O   UNL A   1      40.307  31.483  36.850  1.00  0.00    -0.744 OA
ENDBRANCH  90  93
ENDBRANCH  62  86
BRANCH  74  97
ATOM     97  C   UNL A   1      47.239  33.472  30.048  1.00  0.00     0.023 A 
ATOM     98  C   UNL A   1      48.145  33.430  31.126  1.00  0.00     0.012 A 
ATOM     99  C   UNL A   1      47.150  34.640  29.264  1.00  0.00     0.148 A 
ATOM    100  C   UNL A   1      48.923  34.544  31.440  1.00  0.00     0.002 A 
ATOM    101  C   UNL A   1      47.967  35.726  29.550  1.00  0.00     0.091 A 
ATOM    102  F   UNL A   1      46.270  34.667  28.253  1.00  0.00    -0.205 F 
ATOM    103  C   UNL A   1      48.844  35.686  30.647  1.00  0.00     0.022 A 
BRANCH 101 104
ATOM    104  S   UNL A   1      48.008  37.200  28.524  1.00  0.00     0.127 S 
ATOM    105  O   UNL A   1      46.618  37.649  28.594  1.00  0.00    -0.237 OA
ATOM    106  O   UNL A   1      48.960  38.048  29.240  1.00  0.00    -0.237 OA
ATOM    107  O   UNL A   1      48.456  36.762  27.208  1.00  0.00    -0.744 OA
ENDBRANCH 101 104
ENDBRANCH  74  97
ENDBRANCH  48  49
ENDBRANCH  40  43
ENDBRANCH  38  39
ENDBRANCH  37  38
ENDBRANCH  36  37
ENDBRANCH   1  36
TORSDOF 21
ENDMDL
MODEL 2
REMARK VINA RESULT:     -11.2      5.084     10.200
REMARK SMILES CS(=O)(=O)c1ccc(/C=C(/C(=O)NCCCCCCNC(=O)c2ccc(-c3c4nc(c(-c5cccc(S(=O)(=O)[O-])c5F)c5ccc([nH]5)c(-c5cccc(S(=O)(=O)[O-])c5F)c5nc(c(-c6cccc(S(=O)(=O)[O-])c6F)c6ccc3[nH]6)C=C5)C=C4)cc2)c2ccc(-c3ccc(S(C)(=O)=O)cc3)cc2)cc1
REMARK SMILES IDX 16 1 15 2 14 3 13 4 11 5 12 6 10 8 9 9 8 10 5 11 6 12 103 13
REMARK SMILES IDX 7 14 102 15 2 16 1 17 3 18 4 19 86 20 87 21 101 22 88 23
REMARK SMILES IDX 100 24 89 25 90 26 91 27 99 28 92 29 98 30 93 31 94 32 95 33
REMARK SMILES IDX 96 34 97 35 17 36 18 37 19 38 20 39 21 40 22 42 23 43 24 44
REMARK SMILES IDX 85 45 25 46 84 47 26 48 27 49 28 50 78 51 29 52 83 53 77 54
REMARK SMILES IDX 79 55 30 56 82 57 76 58 75 59 31 61 63 62 43 63 62 64 44 65
REMARK SMILES IDX 47 66 61 67 80 68 45 69 46 70 60 72 81 73 48 74 32 75 33 76
REMARK SMILES IDX 41 77 34 78 36 79 42 80 35 81 37 82 38 83 39 84 40 85 64 86
REMARK SMILES IDX 65 87 73 88 66 89 68 90 74 91 67 92 69 93 70 94 71 95 72 96
REMARK SMILES IDX 49 97 50 98 58 99 51 100 53 101 59 102 52 103 54 104 55 105
REMARK SMILES IDX 56 106 57 107
REMARK H PARENT 13 7 20 41 79 60 47 71
REMARK Flexibility Score: inf
ROOT
ATOM      1  C   UNL A   1      43.654  23.089  24.724  1.00  0.00     0.002 C 
ENDROOT
BRANCH   1   2
ATOM      2  C   UNL A   1      44.444  21.787  24.939  1.00  0.00     0.021 C 
BRANCH   2   3
ATOM      3  C   UNL A   1      45.679  21.976  25.822  1.00  0.00     0.116 C 
BRANCH   3   4
ATOM      4  N   UNL A   1      45.282  22.635  27.048  1.00  0.00    -0.352 N 
ATOM      5  C   UNL A   1      45.628  23.802  27.641  1.00  0.00     0.251 C 
ATOM      6  O   UNL A   1      45.198  23.967  28.787  1.00  0.00    -0.269 OA
ATOM      7  H   UNL A   1      44.616  22.123  27.561  1.00  0.00     0.163 HD
BRANCH   5   8
ATOM      8  C   UNL A   1      46.389  24.905  26.936  1.00  0.00     0.047 C 
ATOM      9  C   UNL A   1      47.565  24.702  26.297  1.00  0.00     0.022 C 
BRANCH   9  10
ATOM     10  C   UNL A   1      48.328  25.630  25.427  1.00  0.00    -0.025 A 
ATOM     11  C   UNL A   1      50.000  27.186  23.784  1.00  0.00     0.067 A 
ATOM     12  C   UNL A   1      48.719  26.838  23.352  1.00  0.00     0.021 A 
ATOM     13  C   UNL A   1      50.438  26.814  25.053  1.00  0.00     0.021 A 
ATOM     14  C   UNL A   1      47.880  26.090  24.185  1.00  0.00     0.009 A 
ATOM     15  C   UNL A   1      49.600  26.039  25.867  1.00  0.00     0.009 A 
BRANCH  11  16
ATOM     16  S   UNL A   1      51.049  28.099  22.676  1.00  0.00     0.175 S 
ATOM     17  C   UNL A   1      51.803  26.908  21.604  1.00  0.00     0.163 C 
ATOM     18  O   UNL A   1      52.112  28.675  23.481  1.00  0.00    -0.224 OA
ATOM     19  O   UNL A   1      50.179  28.946  21.884  1.00  0.00    -0.224 OA
ENDBRANCH  11  16
ENDBRANCH   9  10
BRANCH   8  20
ATOM     20  C   UNL A   1      45.856  26.276  27.130  1.00  0.00    -0.013 A 
ATOM     21  C   UNL A   1      46.556  27.139  27.985  1.00  0.00     0.009 A 
ATOM     22  C   UNL A   1      44.743  26.766  26.444  1.00  0.00     0.009 A 
ATOM     23  C   UNL A   1      46.174  28.470  28.130  1.00  0.00     0.009 A 
ATOM     24  C   UNL A   1      44.385  28.116  26.564  1.00  0.00     0.009 A 
ATOM     25  C   UNL A   1      45.098  28.994  27.401  1.00  0.00    -0.018 A 
BRANCH  25  26
ATOM     26  C   UNL A   1      44.740  30.420  27.523  1.00  0.00    -0.018 A 
ATOM     27  C   UNL A   1      44.383  31.178  26.389  1.00  0.00     0.010 A 
ATOM     28  C   UNL A   1      44.760  31.069  28.768  1.00  0.00     0.010 A 
ATOM     29  C   UNL A   1      44.085  32.538  26.489  1.00  0.00     0.021 A 
ATOM     30  C   UNL A   1      44.460  32.429  28.882  1.00  0.00     0.021 A 
ATOM     31  C   UNL A   1      44.143  33.158  27.737  1.00  0.00     0.067 A 
BRANCH  31  32
ATOM     32  S   UNL A   1      43.809  34.897  27.853  1.00  0.00     0.175 S 
ATOM     33  C   UNL A   1      42.515  34.989  29.063  1.00  0.00     0.163 C 
ATOM     34  O   UNL A   1      44.990  35.531  28.398  1.00  0.00    -0.224 OA
ATOM     35  O   UNL A   1      43.245  35.329  26.585  1.00  0.00    -0.224 OA
ENDBRANCH  31  32
ENDBRANCH  25  26
ENDBRANCH   8  20
ENDBRANCH   5   8
ENDBRANCH   3   4
ENDBRANCH   2   3
ENDBRANCH   1   2
BRANCH   1  36
ATOM     36  C   UNL A   1      42.334  23.169  25.503  1.00  0.00     0.002 C 
BRANCH  36  37
ATOM     37  C   UNL A   1      41.810  21.819  25.998  1.00  0.00     0.021 C 
BRANCH  37  38
ATOM     38  C   UNL A   1      40.530  21.920  26.820  1.00  0.00     0.116 C 
BRANCH  38  39
ATOM     39  N   UNL A   1      39.414  22.387  26.013  1.00  0.00    -0.352 N 
ATOM     40  C   UNL A   1      38.731  23.573  26.093  1.00  0.00     0.251 C 
ATOM     41  H   UNL A   1      39.107  21.766  25.313  1.00  0.00     0.163 HD
ATOM     42  O   UNL A   1      37.659  23.708  25.509  1.00  0.00    -0.269 OA
BRANCH  40  43
ATOM     43  C   UNL A   1      39.289  24.682  26.894  1.00  0.00     0.039 A 
ATOM     44  C   UNL A   1      40.151  25.594  26.284  1.00  0.00     0.014 A 
ATOM     45  C   UNL A   1      38.959  24.816  28.246  1.00  0.00     0.014 A 
ATOM     46  C   UNL A   1      40.645  26.671  27.021  1.00  0.00     0.010 A 
ATOM     47  C   UNL A   1      39.388  25.933  28.955  1.00  0.00     0.010 A 
ATOM     48  C   UNL A   1      40.245  26.867  28.353  1.00  0.00    -0.014 A 
BRANCH  48  49
ATOM     49  C   UNL A   1      40.709  28.044  29.130  1.00  0.00     0.031 A 
ATOM     50  C   UNL A   1      42.037  28.010  29.839  1.00  0.00     0.074 A 
ATOM     51  C   UNL A   1      39.900  29.113  29.260  1.00  0.00     0.049 A 
ATOM     52  N   UNL A   1      42.587  28.923  30.597  1.00  0.00    -0.248 NA
ATOM     53  C   UNL A   1      42.839  26.783  29.701  1.00  0.00     0.031 C 
ATOM     54  C   UNL A   1      38.558  29.234  28.685  1.00  0.00     0.029 A 
ATOM     55  N   UNL A   1      40.077  30.293  29.937  1.00  0.00    -0.354 N 
ATOM     56  C   UNL A   1      43.778  28.371  31.051  1.00  0.00     0.074 A 
ATOM     57  C   UNL A   1      43.854  27.029  30.515  1.00  0.00     0.031 C 
ATOM     58  C   UNL A   1      38.038  30.423  29.026  1.00  0.00     0.029 A 
ATOM     59  C   UNL A   1      38.990  31.134  29.873  1.00  0.00     0.049 A 
ATOM     60  H   UNL A   1      40.903  30.517  30.424  1.00  0.00     0.167 HD
ATOM     61  C   UNL A   1      44.737  28.937  31.822  1.00  0.00     0.034 A 
ATOM     62  C   UNL A   1      38.779  32.337  30.441  1.00  0.00     0.034 A 
ATOM     63  C   UNL A   1      44.672  30.281  32.327  1.00  0.00     0.049 A 
ATOM     64  C   UNL A   1      39.870  32.954  31.273  1.00  0.00     0.074 A 
ATOM     65  C   UNL A   1      45.628  30.977  33.045  1.00  0.00     0.029 A 
ATOM     66  N   UNL A   1      43.587  31.131  32.180  1.00  0.00    -0.354 N 
ATOM     67  N   UNL A   1      41.055  32.477  31.564  1.00  0.00    -0.248 NA
ATOM     68  C   UNL A   1      39.609  34.291  31.825  1.00  0.00     0.031 C 
ATOM     69  C   UNL A   1      45.105  32.234  33.366  1.00  0.00     0.029 A 
ATOM     70  C   UNL A   1      43.841  32.338  32.810  1.00  0.00     0.049 A 
ATOM     71  H   UNL A   1      42.756  30.909  31.700  1.00  0.00     0.167 HD
ATOM     72  C   UNL A   1      41.695  33.468  32.299  1.00  0.00     0.074 A 
ATOM     73  C   UNL A   1      40.772  34.580  32.392  1.00  0.00     0.031 C 
ATOM     74  C   UNL A   1      42.931  33.454  32.856  1.00  0.00     0.034 A 
BRANCH  61  75
ATOM     75  C   UNL A   1      45.960  28.115  32.138  1.00  0.00     0.023 A 
ATOM     76  C   UNL A   1      47.139  28.296  31.385  1.00  0.00     0.012 A 
ATOM     77  C   UNL A   1      45.963  27.208  33.217  1.00  0.00     0.148 A 
ATOM     78  C   UNL A   1      48.287  27.560  31.674  1.00  0.00     0.002 A 
ATOM     79  C   UNL A   1      47.127  26.515  33.529  1.00  0.00     0.091 A 
ATOM     80  F   UNL A   1      44.828  27.035  33.908  1.00  0.00    -0.205 F 
ATOM     81  C   UNL A   1      48.285  26.679  32.752  1.00  0.00     0.022 A 
BRANCH  79  82
ATOM     82  S   UNL A   1      47.250  25.420  34.947  1.00  0.00     0.127 S 
ATOM     83  O   UNL A   1      45.851  25.311  35.358  1.00  0.00    -0.237 OA
ATOM     84  O   UNL A   1      47.805  24.206  34.348  1.00  0.00    -0.237 OA
ATOM     85  O   UNL A   1      48.127  26.086  35.898  1.00  0.00    -0.744 OA
ENDBRANCH  79  82
ENDBRANCH  61  75
BRANCH  62  86
ATOM     86  C   UNL A   1      37.498  33.060  30.202  1.00  0.00     0.023 A 
ATOM     87  C   UNL A   1      37.178  33.498  28.903  1.00  0.00     0.012 A 
ATOM     88  C   UNL A   1      36.587  33.295  31.250  1.00  0.00     0.148 A 
ATOM     89  C   UNL A   1      35.992  34.191  28.658  1.00  0.00     0.002 A 
ATOM     90  C   UNL A   1      35.381  33.933  30.989  1.00  0.00     0.091 A 
ATOM     91  F   UNL A   1      36.915  32.876  32.481  1.00  0.00    -0.205 F 
ATOM     92  C   UNL A   1      35.089  34.400  29.698  1.00  0.00     0.022 A 
BRANCH  90  93
ATOM     93  S   UNL A   1      34.105  34.127  32.239  1.00  0.00     0.127 S 
ATOM     94  O   UNL A   1      33.780  32.738  32.551  1.00  0.00    -0.237 OA
ATOM     95  O   UNL A   1      34.825  34.847  33.291  1.00  0.00    -0.237 OA
ATOM     96  O   UNL A   1      33.043  34.897  31.604  1.00  0.00    -0.744 OA
ENDBRANCH  90  93
ENDBRANCH  62  86
BRANCH  74  97
ATOM     97  C   UNL A   1      43.385  34.694  33.583  1.00  0.00     0.023 A 
ATOM     98  C   UNL A   1      44.060  35.716  32.885  1.00  0.00     0.012 A 
ATOM     99  C   UNL A   1      43.076  34.874  34.946  1.00  0.00     0.148 A 
ATOM    100  C   UNL A   1      44.453  36.881  33.542  1.00  0.00     0.002 A 
ATOM    101  C   UNL A   1      43.422  36.061  35.580  1.00  0.00     0.091 A 
ATOM    102  F   UNL A   1      42.448  33.885  35.596  1.00  0.00    -0.205 F 
ATOM    103  C   UNL A   1      44.124  37.059  34.885  1.00  0.00     0.022 A 
BRANCH 101 104
ATOM    104  S   UNL A   1      42.953  36.421  37.276  1.00  0.00     0.127 S 
ATOM    105  O   UNL A   1      43.593  35.325  38.001  1.00  0.00    -0.237 OA
ATOM    106  O   UNL A   1      43.560  37.734  37.491  1.00  0.00    -0.237 OA
ATOM    107  O   UNL A   1      41.496  36.416  37.299  1.00  0.00    -0.744 OA
ENDBRANCH 101 104
ENDBRANCH  74  97
ENDBRANCH  48  49
ENDBRANCH  40  43
ENDBRANCH  38  39
ENDBRANCH  37  38
ENDBRANCH  36  37
ENDBRANCH   1  36
TORSDOF 21
ENDMDL
MODEL 3
REMARK VINA RESULT:     -10.9      5.209     10.107
REMARK SMILES CS(=O)(=O)c1ccc(/C=C(/C(=O)NCCCCCCNC(=O)c2ccc(-c3c4nc(c(-c5cccc(S(=O)(=O)[O-])c5F)c5ccc([nH]5)c(-c5cccc(S(=O)(=O)[O-])c5F)c5nc(c(-c6cccc(S(=O)(=O)[O-])c6F)c6ccc3[nH]6)C=C5)C=C4)cc2)c2ccc(-c3ccc(S(C)(=O)=O)cc3)cc2)cc1
REMARK SMILES IDX 16 1 15 2 14 3 13 4 11 5 12 6 10 8 9 9 8 10 5 11 6 12 103 13
REMARK SMILES IDX 7 14 102 15 2 16 1 17 3 18 4 19 86 20 87 21 101 22 88 23
REMARK SMILES IDX 100 24 89 25 90 26 91 27 99 28 92 29 98 30 93 31 94 32 95 33
REMARK SMILES IDX 96 34 97 35 17 36 18 37 19 38 20 39 21 40 22 42 23 43 24 44
REMARK SMILES IDX 85 45 25 46 84 47 26 48 27 49 28 50 78 51 29 52 83 53 77 54
REMARK SMILES IDX 79 55 30 56 82 57 76 58 75 59 31 61 63 62 43 63 62 64 44 65
REMARK SMILES IDX 47 66 61 67 80 68 45 69 46 70 60 72 81 73 48 74 32 75 33 76
REMARK SMILES IDX 41 77 34 78 36 79 42 80 35 81 37 82 38 83 39 84 40 85 64 86
REMARK SMILES IDX 65 87 73 88 66 89 68 90 74 91 67 92 69 93 70 94 71 95 72 96
REMARK SMILES IDX 49 97 50 98 58 99 51 100 53 101 59 102 52 103 54 104 55 105
REMARK SMILES IDX 56 106 57 107
REMARK H PARENT 13 7 20 41 79 60 47 71
REMARK Flexibility Score: inf
ROOT
ATOM      1  C   UNL A   1      35.192  32.738  32.128  1.00  0.00     0.002 C 
ENDROOT
BRANCH   1   2
ATOM      2  C   UNL A   1      34.510  33.955  32.775  1.00  0.00     0.021 C 
BRANCH   2   3
ATOM      3  C   UNL A   1      35.486  35.092  33.088  1.00  0.00     0.116 C 
BRANCH   3   4
ATOM      4  N   UNL A   1      36.693  34.898  32.313  1.00  0.00    -0.352 N 
ATOM      5  C   UNL A   1      37.950  34.497  32.619  1.00  0.00     0.251 C 
ATOM      6  O   UNL A   1      38.781  34.606  31.712  1.00  0.00    -0.269 OA
ATOM      7  H   UNL A   1      36.574  35.102  31.358  1.00  0.00     0.163 HD
BRANCH   5   8
ATOM      8  C   UNL A   1      38.323  33.842  33.932  1.00  0.00     0.047 C 
ATOM      9  C   UNL A   1      38.080  34.409  35.137  1.00  0.00     0.022 C 
BRANCH   9  10
ATOM     10  C   UNL A   1      38.226  33.824  36.493  1.00  0.00    -0.025 A 
ATOM     11  C   UNL A   1      38.477  32.995  39.169  1.00  0.00     0.067 A 
ATOM     12  C   UNL A   1      37.494  32.435  38.350  1.00  0.00     0.021 A 
ATOM     13  C   UNL A   1      39.375  33.925  38.652  1.00  0.00     0.021 A 
ATOM     14  C   UNL A   1      37.392  32.828  37.012  1.00  0.00     0.009 A 
ATOM     15  C   UNL A   1      39.245  34.333  37.317  1.00  0.00     0.009 A 
BRANCH  11  16
ATOM     16  S   UNL A   1      38.541  32.499  40.876  1.00  0.00     0.175 S 
ATOM     17  C   UNL A   1      37.293  31.260  41.086  1.00  0.00     0.163 C 
ATOM     18  O   UNL A   1      38.130  33.649  41.664  1.00  0.00    -0.224 OA
ATOM     19  O   UNL A   1      39.838  31.886  41.082  1.00  0.00    -0.224 OA
ENDBRANCH  11  16
ENDBRANCH   9  10
BRANCH   8  20
ATOM     20  C   UNL A   1      39.136  32.606  33.824  1.00  0.00    -0.013 A 
ATOM     21  C   UNL A   1      40.459  32.646  34.288  1.00  0.00     0.009 A 
ATOM     22  C   UNL A   1      38.623  31.393  33.359  1.00  0.00     0.009 A 
ATOM     23  C   UNL A   1      41.243  31.496  34.316  1.00  0.00     0.009 A 
ATOM     24  C   UNL A   1      39.403  30.231  33.424  1.00  0.00     0.009 A 
ATOM     25  C   UNL A   1      40.723  30.259  33.911  1.00  0.00    -0.018 A 
BRANCH  25  26
ATOM     26  C   UNL A   1      41.549  29.039  33.999  1.00  0.00    -0.018 A 
ATOM     27  C   UNL A   1      42.179  28.506  32.857  1.00  0.00     0.010 A 
ATOM     28  C   UNL A   1      41.720  28.365  35.220  1.00  0.00     0.010 A 
ATOM     29  C   UNL A   1      42.928  27.329  32.923  1.00  0.00     0.021 A 
ATOM     30  C   UNL A   1      42.468  27.188  35.300  1.00  0.00     0.021 A 
ATOM     31  C   UNL A   1      43.051  26.668  34.145  1.00  0.00     0.067 A 
BRANCH  31  32
ATOM     32  S   UNL A   1      43.964  25.149  34.215  1.00  0.00     0.175 S 
ATOM     33  C   UNL A   1      45.098  25.410  35.555  1.00  0.00     0.163 C 
ATOM     34  O   UNL A   1      43.039  24.104  34.599  1.00  0.00    -0.224 OA
ATOM     35  O   UNL A   1      44.750  25.043  32.998  1.00  0.00    -0.224 OA
ENDBRANCH  31  32
ENDBRANCH  25  26
ENDBRANCH   8  20
ENDBRANCH   5   8
ENDBRANCH   3   4
ENDBRANCH   2   3
ENDBRANCH   1   2
BRANCH   1  36
ATOM     36  C   UNL A   1      34.649  32.367  30.742  1.00  0.00     0.002 C 
BRANCH  36  37
ATOM     37  C   UNL A   1      34.942  33.399  29.651  1.00  0.00     0.021 C 
BRANCH  37  38
ATOM     38  C   UNL A   1      35.115  32.795  28.262  1.00  0.00     0.116 C 
BRANCH  38  39
ATOM     39  N   UNL A   1      34.345  31.570  28.115  1.00  0.00    -0.352 N 
ATOM     40  C   UNL A   1      34.795  30.280  27.988  1.00  0.00     0.251 C 
ATOM     41  H   UNL A   1      33.367  31.681  28.103  1.00  0.00     0.163 HD
ATOM     42  O   UNL A   1      34.029  29.393  27.622  1.00  0.00    -0.269 OA
BRANCH  40  43
ATOM     43  C   UNL A   1      36.208  29.971  28.288  1.00  0.00     0.039 A 
ATOM     44  C   UNL A   1      37.155  30.066  27.268  1.00  0.00     0.014 A 
ATOM     45  C   UNL A   1      36.593  29.588  29.576  1.00  0.00     0.014 A 
ATOM     46  C   UNL A   1      38.499  29.822  27.552  1.00  0.00     0.010 A 
ATOM     47  C   UNL A   1      37.940  29.424  29.875  1.00  0.00     0.010 A 
ATOM     48  C   UNL A   1      38.908  29.527  28.864  1.00  0.00    -0.014 A 
BRANCH  48  49
ATOM     49  C   UNL A   1      40.341  29.330  29.197  1.00  0.00     0.031 A 
ATOM     50  C   UNL A   1      41.005  28.005  28.937  1.00  0.00     0.074 A 
ATOM     51  C   UNL A   1      41.023  30.321  29.802  1.00  0.00     0.049 A 
ATOM     52  N   UNL A   1      42.231  27.634  29.201  1.00  0.00    -0.248 NA
ATOM     53  C   UNL A   1      40.179  26.949  28.328  1.00  0.00     0.031 C 
ATOM     54  C   UNL A   1      40.469  31.625  30.176  1.00  0.00     0.029 A 
ATOM     55  N   UNL A   1      42.325  30.380  30.234  1.00  0.00    -0.354 N 
ATOM     56  C   UNL A   1      42.315  26.300  28.822  1.00  0.00     0.074 A 
ATOM     57  C   UNL A   1      41.004  25.913  28.346  1.00  0.00     0.031 C 
ATOM     58  C   UNL A   1      41.425  32.355  30.772  1.00  0.00     0.029 A 
ATOM     59  C   UNL A   1      42.647  31.563  30.857  1.00  0.00     0.049 A 
ATOM     60  H   UNL A   1      42.967  29.643  30.110  1.00  0.00     0.167 HD
ATOM     61  C   UNL A   1      43.390  25.477  28.843  1.00  0.00     0.034 A 
ATOM     62  C   UNL A   1      43.793  31.962  31.441  1.00  0.00     0.034 A 
ATOM     63  C   UNL A   1      44.698  25.874  29.287  1.00  0.00     0.049 A 
ATOM     64  C   UNL A   1      44.980  31.037  31.428  1.00  0.00     0.074 A 
ATOM     65  C   UNL A   1      45.872  25.142  29.268  1.00  0.00     0.029 A 
ATOM     66  N   UNL A   1      45.005  27.106  29.844  1.00  0.00    -0.354 N 
ATOM     67  N   UNL A   1      45.080  29.831  30.924  1.00  0.00    -0.248 NA
ATOM     68  C   UNL A   1      46.221  31.541  32.031  1.00  0.00     0.031 C 
ATOM     69  C   UNL A   1      46.880  25.918  29.849  1.00  0.00     0.029 A 
ATOM     70  C   UNL A   1      46.345  27.149  30.190  1.00  0.00     0.049 A 
ATOM     71  H   UNL A   1      44.363  27.842  29.977  1.00  0.00     0.167 HD
ATOM     72  C   UNL A   1      46.402  29.447  31.114  1.00  0.00     0.074 A 
ATOM     73  C   UNL A   1      47.069  30.558  31.762  1.00  0.00     0.031 C 
ATOM     74  C   UNL A   1      47.007  28.277  30.792  1.00  0.00     0.034 A 
BRANCH  61  75
ATOM     75  C   UNL A   1      43.207  24.070  28.334  1.00  0.00     0.023 A 
ATOM     76  C   UNL A   1      42.414  23.159  29.063  1.00  0.00     0.012 A 
ATOM     77  C   UNL A   1      43.768  23.666  27.106  1.00  0.00     0.148 A 
ATOM     78  C   UNL A   1      42.216  21.859  28.599  1.00  0.00     0.002 A 
ATOM     79  C   UNL A   1      43.525  22.384  26.627  1.00  0.00     0.091 A 
ATOM     80  F   UNL A   1      44.535  24.538  26.438  1.00  0.00    -0.205 F 
ATOM     81  C   UNL A   1      42.761  21.476  27.377  1.00  0.00     0.022 A 
BRANCH  79  82
ATOM     82  S   UNL A   1      44.115  21.821  25.027  1.00  0.00     0.127 S 
ATOM     83  O   UNL A   1      43.637  20.439  25.007  1.00  0.00    -0.237 OA
ATOM     84  O   UNL A   1      43.416  22.721  24.109  1.00  0.00    -0.237 OA
ATOM     85  O   UNL A   1      45.562  21.978  25.051  1.00  0.00    -0.744 OA
ENDBRANCH  79  82
ENDBRANCH  61  75
BRANCH  62  86
ATOM     86  C   UNL A   1      43.889  33.320  32.045  1.00  0.00     0.023 A 
ATOM     87  C   UNL A   1      43.867  34.455  31.213  1.00  0.00     0.012 A 
ATOM     88  C   UNL A   1      43.980  33.493  33.440  1.00  0.00     0.148 A 
ATOM     89  C   UNL A   1      43.972  35.737  31.755  1.00  0.00     0.002 A 
ATOM     90  C   UNL A   1      44.025  34.773  33.977  1.00  0.00     0.091 A 
ATOM     91  F   UNL A   1      44.008  32.398  34.213  1.00  0.00    -0.205 F 
ATOM     92  C   UNL A   1      44.040  35.896  33.136  1.00  0.00     0.022 A 
BRANCH  90  93
ATOM     93  S   UNL A   1      43.982  35.074  35.748  1.00  0.00     0.127 S 
ATOM     94  O   UNL A   1      42.693  34.496  36.119  1.00  0.00    -0.237 OA
ATOM     95  O   UNL A   1      45.152  34.325  36.207  1.00  0.00    -0.237 OA
ATOM     96  O   UNL A   1      44.095  36.519  35.906  1.00  0.00    -0.744 OA
ENDBRANCH  90  93
ENDBRANCH  62  86
BRANCH  74  97
ATOM     97  C   UNL A   1      48.478  28.144  31.092  1.00  0.00     0.023 A 
ATOM     98  C   UNL A   1      48.904  27.700  32.360  1.00  0.00     0.012 A 
ATOM     99  C   UNL A   1      49.435  28.395  30.089  1.00  0.00     0.148 A 
ATOM    100  C   UNL A   1      50.262  27.542  32.635  1.00  0.00     0.002 A 
ATOM    101  C   UNL A   1      50.782  28.183  30.353  1.00  0.00     0.091 A 
ATOM    102  F   UNL A   1      49.011  28.833  28.895  1.00  0.00    -0.205 F 
ATOM    103  C   UNL A   1      51.200  27.771  31.630  1.00  0.00     0.022 A 
BRANCH 101 104
ATOM    104  S   UNL A   1      52.052  28.354  29.093  1.00  0.00     0.127 S 
ATOM    105  O   UNL A   1      51.994  29.787  28.807  1.00  0.00    -0.237 OA
ATOM    106  O   UNL A   1      53.253  27.922  29.806  1.00  0.00    -0.237 OA
ATOM    107  O   UNL A   1      51.650  27.483  27.997  1.00  0.00    -0.744 OA
ENDBRANCH 101 104
ENDBRANCH  74  97
ENDBRANCH  48  49
ENDBRANCH  40  43
ENDBRANCH  38  39
ENDBRANCH  37  38
ENDBRANCH  36  37
ENDBRANCH   1  36
TORSDOF 21
ENDMDL
