MODEL 1
REMARK VINA RESULT:      -9.3      0.000      0.000
REMARK SMILES O=C(NCCCCCCNC(=O)C1(Cc2nccs2)CC1)c1ccc(-c2c3nc(c(-c4cccc(S(=O)(=O)[O-])c4F)c4ccc([nH]4)c(-c4cccc(S(=O)(=O)[O-])c4F)c4nc(c(-c5cccc(S(=O)(=O)[O-])c5F)c5ccc2[nH]5)C=C4)C=C3)cc1
REMARK SMILES IDX 6 1 5 2 4 3 3 4 1 5 2 6 22 8 23 9 84 10 24 11 83 12 25 13
REMARK SMILES IDX 26 14 27 15 77 16 28 17 82 18 76 19 78 20 29 21 81 22 75 23
REMARK SMILES IDX 74 24 30 26 62 27 42 28 61 29 43 30 46 31 60 32 79 33 44 34
REMARK SMILES IDX 45 35 59 37 80 38 47 39 31 40 32 41 40 42 33 43 35 44 41 45
REMARK SMILES IDX 34 46 36 47 37 48 38 49 39 50 63 51 64 52 72 53 65 54 67 55
REMARK SMILES IDX 73 56 66 57 68 58 69 59 70 60 71 61 48 62 49 63 57 64 50 65
REMARK SMILES IDX 52 66 58 67 51 68 53 69 54 70 55 71 56 72 7 73 8 74 9 75
REMARK SMILES IDX 10 76 11 77 12 79 13 80 20 81 21 82 14 83 15 84 16 85 19 86
REMARK SMILES IDX 17 87 18 88
REMARK H PARENT 3 7 78 25 46 36 10 78
REMARK Flexibility Score: inf
ROOT
ATOM      1  C   UNL A   1      35.052  22.590  23.725  1.00  0.00     0.002 C 
ENDROOT
BRANCH   1   2
ATOM      2  C   UNL A   1      36.562  22.667  23.937  1.00  0.00     0.021 C 
BRANCH   2   3
ATOM      3  C   UNL A   1      37.003  22.618  25.395  1.00  0.00     0.116 C 
BRANCH   3   4
ATOM      4  N   UNL A   1      37.856  21.474  25.675  1.00  0.00    -0.352 N 
ATOM      5  O   UNL A   1      39.798  20.430  26.164  1.00  0.00    -0.269 OA
ATOM      6  C   UNL A   1      39.142  21.467  26.166  1.00  0.00     0.251 C 
ATOM      7  H   UNL A   1      37.463  20.591  25.490  1.00  0.00     0.163 HD
BRANCH   6   8
ATOM      8  C   UNL A   1      39.727  22.729  26.672  1.00  0.00     0.039 A 
ATOM      9  C   UNL A   1      39.335  23.950  26.121  1.00  0.00     0.014 A 
ATOM     10  C   UNL A   1      40.688  22.692  27.685  1.00  0.00     0.014 A 
ATOM     11  C   UNL A   1      40.008  25.112  26.474  1.00  0.00     0.010 A 
ATOM     12  C   UNL A   1      41.297  23.879  28.109  1.00  0.00     0.010 A 
ATOM     13  C   UNL A   1      40.983  25.096  27.486  1.00  0.00    -0.014 A 
BRANCH  13  14
ATOM     14  C   UNL A   1      41.574  26.388  27.925  1.00  0.00     0.031 A 
ATOM     15  C   UNL A   1      42.993  26.766  27.603  1.00  0.00     0.074 A 
ATOM     16  C   UNL A   1      40.782  27.247  28.598  1.00  0.00     0.049 A 
ATOM     17  N   UNL A   1      43.616  27.891  27.848  1.00  0.00    -0.248 NA
ATOM     18  C   UNL A   1      43.827  25.758  26.929  1.00  0.00     0.031 C 
ATOM     19  C   UNL A   1      39.408  26.963  29.023  1.00  0.00     0.029 A 
ATOM     20  N   UNL A   1      41.004  28.528  29.034  1.00  0.00    -0.354 N 
ATOM     21  C   UNL A   1      44.915  27.722  27.386  1.00  0.00     0.074 A 
ATOM     22  C   UNL A   1      44.999  26.376  26.859  1.00  0.00     0.031 C 
ATOM     23  C   UNL A   1      38.897  28.047  29.621  1.00  0.00     0.029 A 
ATOM     24  C   UNL A   1      39.919  29.085  29.670  1.00  0.00     0.049 A 
ATOM     25  H   UNL A   1      41.857  29.002  28.905  1.00  0.00     0.167 HD
ATOM     26  C   UNL A   1      45.938  28.613  27.385  1.00  0.00     0.034 A 
ATOM     27  C   UNL A   1      39.762  30.293  30.242  1.00  0.00     0.034 A 
ATOM     28  C   UNL A   1      45.840  29.958  27.892  1.00  0.00     0.049 A 
ATOM     29  C   UNL A   1      40.897  31.273  30.182  1.00  0.00     0.074 A 
ATOM     30  C   UNL A   1      46.810  30.946  27.904  1.00  0.00     0.029 A 
ATOM     31  N   UNL A   1      44.708  30.506  28.477  1.00  0.00    -0.354 N 
ATOM     32  N   UNL A   1      42.078  31.132  29.630  1.00  0.00    -0.248 NA
ATOM     33  C   UNL A   1      40.668  32.589  30.792  1.00  0.00     0.031 C 
ATOM     34  C   UNL A   1      46.267  32.088  28.505  1.00  0.00     0.029 A 
ATOM     35  C   UNL A   1      44.953  31.817  28.851  1.00  0.00     0.049 A 
ATOM     36  H   UNL A   1      43.855  30.032  28.609  1.00  0.00     0.167 HD
ATOM     37  C   UNL A   1      42.730  32.343  29.816  1.00  0.00     0.074 A 
ATOM     38  C   UNL A   1      41.795  33.220  30.492  1.00  0.00     0.031 C 
ATOM     39  C   UNL A   1      43.998  32.690  29.485  1.00  0.00     0.034 A 
BRANCH  26  40
ATOM     40  C   UNL A   1      47.245  28.185  26.767  1.00  0.00     0.023 A 
ATOM     41  C   UNL A   1      48.327  27.847  27.607  1.00  0.00     0.012 A 
ATOM     42  C   UNL A   1      47.382  28.033  25.373  1.00  0.00     0.148 A 
ATOM     43  C   UNL A   1      49.529  27.389  27.070  1.00  0.00     0.002 A 
ATOM     44  C   UNL A   1      48.572  27.540  24.847  1.00  0.00     0.091 A 
ATOM     45  F   UNL A   1      46.351  28.374  24.588  1.00  0.00    -0.205 F 
ATOM     46  C   UNL A   1      49.648  27.226  25.693  1.00  0.00     0.022 A 
BRANCH  44  47
ATOM     47  S   UNL A   1      48.805  27.221  23.093  1.00  0.00     0.127 S 
ATOM     48  O   UNL A   1      50.263  27.245  22.981  1.00  0.00    -0.237 OA
ATOM     49  O   UNL A   1      48.204  25.896  22.938  1.00  0.00    -0.237 OA
ATOM     50  O   UNL A   1      48.107  28.291  22.395  1.00  0.00    -0.744 OA
ENDBRANCH  44  47
ENDBRANCH  26  40
BRANCH  27  51
ATOM     51  C   UNL A   1      38.463  30.643  30.880  1.00  0.00     0.023 A 
ATOM     52  C   UNL A   1      38.259  30.373  32.247  1.00  0.00     0.012 A 
ATOM     53  C   UNL A   1      37.449  31.291  30.149  1.00  0.00     0.148 A 
ATOM     54  C   UNL A   1      37.057  30.720  32.866  1.00  0.00     0.002 A 
ATOM     55  C   UNL A   1      36.282  31.692  30.787  1.00  0.00     0.091 A 
ATOM     56  F   UNL A   1      37.651  31.521  28.843  1.00  0.00    -0.205 F 
ATOM     57  C   UNL A   1      36.075  31.391  32.142  1.00  0.00     0.022 A 
BRANCH  55  58
ATOM     58  S   UNL A   1      35.051  32.702  29.956  1.00  0.00     0.127 S 
ATOM     59  O   UNL A   1      34.133  33.013  31.047  1.00  0.00    -0.237 OA
ATOM     60  O   UNL A   1      35.850  33.832  29.480  1.00  0.00    -0.237 OA
ATOM     61  O   UNL A   1      34.523  31.860  28.891  1.00  0.00    -0.744 OA
ENDBRANCH  55  58
ENDBRANCH  27  51
BRANCH  39  62
ATOM     62  C   UNL A   1      44.441  34.083  29.844  1.00  0.00     0.023 A 
ATOM     63  C   UNL A   1      45.099  34.310  31.070  1.00  0.00     0.012 A 
ATOM     64  C   UNL A   1      44.239  35.159  28.958  1.00  0.00     0.148 A 
ATOM     65  C   UNL A   1      45.513  35.591  31.426  1.00  0.00     0.002 A 
ATOM     66  C   UNL A   1      44.694  36.426  29.301  1.00  0.00     0.091 A 
ATOM     67  F   UNL A   1      43.590  34.928  27.807  1.00  0.00    -0.205 F 
ATOM     68  C   UNL A   1      45.319  36.647  30.538  1.00  0.00     0.022 A 
BRANCH  66  69
ATOM     69  S   UNL A   1      44.562  37.823  28.180  1.00  0.00     0.127 S 
ATOM     70  O   UNL A   1      43.114  37.973  28.059  1.00  0.00    -0.237 OA
ATOM     71  O   UNL A   1      45.225  38.891  28.930  1.00  0.00    -0.237 OA
ATOM     72  O   UNL A   1      45.258  37.423  26.964  1.00  0.00    -0.744 OA
ENDBRANCH  66  69
ENDBRANCH  39  62
ENDBRANCH  13  14
ENDBRANCH   6   8
ENDBRANCH   3   4
ENDBRANCH   2   3
ENDBRANCH   1   2
BRANCH   1  73
ATOM     73  C   UNL A   1      34.405  23.878  23.209  1.00  0.00     0.002 C 
BRANCH  73  74
ATOM     74  C   UNL A   1      33.878  24.828  24.293  1.00  0.00     0.021 C 
BRANCH  74  75
ATOM     75  C   UNL A   1      32.625  25.616  23.900  1.00  0.00     0.116 C 
BRANCH  75  76
ATOM     76  N   UNL A   1      31.668  25.674  24.982  1.00  0.00    -0.356 N 
ATOM     77  C   UNL A   1      31.409  26.643  25.911  1.00  0.00     0.226 C 
ATOM     78  H   UNL A   1      31.102  24.872  25.065  1.00  0.00     0.163 HD
ATOM     79  O   UNL A   1      30.544  26.424  26.758  1.00  0.00    -0.274 OA
BRANCH  77  80
ATOM     80  C   UNL A   1      32.063  28.004  25.832  1.00  0.00     0.056 C 
ATOM     81  C   UNL A   1      32.004  28.841  27.111  1.00  0.00     0.018 C 
ATOM     82  C   UNL A   1      33.300  28.206  26.718  1.00  0.00     0.018 C 
BRANCH  80  83
ATOM     83  C   UNL A   1      32.095  28.767  24.510  1.00  0.00     0.084 C 
BRANCH  83  84
ATOM     84  C   UNL A   1      30.779  29.171  23.910  1.00  0.00     0.094 A 
ATOM     85  N   UNL A   1      30.131  30.288  24.165  1.00  0.00    -0.250 NA
ATOM     86  S   UNL A   1      30.060  28.171  22.701  1.00  0.00    -0.127 S 
ATOM     87  C   UNL A   1      29.032  30.397  23.339  1.00  0.00     0.123 A 
ATOM     88  C   UNL A   1      28.835  29.345  22.473  1.00  0.00     0.087 A 
ENDBRANCH  83  84
ENDBRANCH  80  83
ENDBRANCH  77  80
ENDBRANCH  75  76
ENDBRANCH  74  75
ENDBRANCH  73  74
ENDBRANCH   1  73
TORSDOF 18
ENDMDL
MODEL 2
REMARK VINA RESULT:      -9.3      3.785      6.795
REMARK SMILES O=C(NCCCCCCNC(=O)C1(Cc2nccs2)CC1)c1ccc(-c2c3nc(c(-c4cccc(S(=O)(=O)[O-])c4F)c4ccc([nH]4)c(-c4cccc(S(=O)(=O)[O-])c4F)c4nc(c(-c5cccc(S(=O)(=O)[O-])c5F)c5ccc2[nH]5)C=C4)C=C3)cc1
REMARK SMILES IDX 6 1 5 2 4 3 3 4 1 5 2 6 22 8 23 9 84 10 24 11 83 12 25 13
REMARK SMILES IDX 26 14 27 15 77 16 28 17 82 18 76 19 78 20 29 21 81 22 75 23
REMARK SMILES IDX 74 24 30 26 62 27 42 28 61 29 43 30 46 31 60 32 79 33 44 34
REMARK SMILES IDX 45 35 59 37 80 38 47 39 31 40 32 41 40 42 33 43 35 44 41 45
REMARK SMILES IDX 34 46 36 47 37 48 38 49 39 50 63 51 64 52 72 53 65 54 67 55
REMARK SMILES IDX 73 56 66 57 68 58 69 59 70 60 71 61 48 62 49 63 57 64 50 65
REMARK SMILES IDX 52 66 58 67 51 68 53 69 54 70 55 71 56 72 7 73 8 74 9 75
REMARK SMILES IDX 10 76 11 77 12 79 13 80 20 81 21 82 14 83 15 84 16 85 19 86
REMARK SMILES IDX 17 87 18 88
REMARK H PARENT 3 7 78 25 46 36 10 78
REMARK Flexibility Score: inf
ROOT
ATOM      1  C   UNL A   1      42.297  21.751  28.162  1.00  0.00     0.002 C 
ENDROOT
BRANCH   1   2
ATOM      2  C   UNL A   1      40.927  21.390  27.590  1.00  0.00     0.021 C 
BRANCH   2   3
ATOM      3  C   UNL A   1      40.729  21.770  26.128  1.00  0.00     0.116 C 
BRANCH   3   4
ATOM      4  N   UNL A   1      39.327  21.957  25.791  1.00  0.00    -0.352 N 
ATOM      5  O   UNL A   1      37.290  22.922  25.933  1.00  0.00    -0.269 OA
ATOM      6  C   UNL A   1      38.500  23.004  26.128  1.00  0.00     0.251 C 
ATOM      7  H   UNL A   1      38.917  21.244  25.250  1.00  0.00     0.163 HD
BRANCH   6   8
ATOM      8  C   UNL A   1      39.083  24.214  26.748  1.00  0.00     0.039 A 
ATOM      9  C   UNL A   1      38.904  24.453  28.112  1.00  0.00     0.014 A 
ATOM     10  C   UNL A   1      39.792  25.125  25.962  1.00  0.00     0.014 A 
ATOM     11  C   UNL A   1      39.301  25.668  28.655  1.00  0.00     0.010 A 
ATOM     12  C   UNL A   1      40.277  26.307  26.535  1.00  0.00     0.010 A 
ATOM     13  C   UNL A   1      40.010  26.602  27.880  1.00  0.00    -0.014 A 
BRANCH  13  14
ATOM     14  C   UNL A   1      40.534  27.825  28.544  1.00  0.00     0.031 A 
ATOM     15  C   UNL A   1      42.008  28.086  28.685  1.00  0.00     0.074 A 
ATOM     16  C   UNL A   1      39.642  28.731  28.992  1.00  0.00     0.049 A 
ATOM     17  N   UNL A   1      42.609  29.145  29.167  1.00  0.00    -0.248 NA
ATOM     18  C   UNL A   1      42.930  27.027  28.242  1.00  0.00     0.031 C 
ATOM     19  C   UNL A   1      38.186  28.556  28.967  1.00  0.00     0.029 A 
ATOM     20  N   UNL A   1      39.815  29.974  29.542  1.00  0.00    -0.354 N 
ATOM     21  C   UNL A   1      43.971  28.875  29.110  1.00  0.00     0.074 A 
ATOM     22  C   UNL A   1      44.110  27.542  28.561  1.00  0.00     0.031 C 
ATOM     23  C   UNL A   1      37.599  29.664  29.439  1.00  0.00     0.029 A 
ATOM     24  C   UNL A   1      38.633  30.606  29.850  1.00  0.00     0.049 A 
ATOM     25  H   UNL A   1      40.700  30.376  29.701  1.00  0.00     0.167 HD
ATOM     26  C   UNL A   1      45.009  29.672  29.465  1.00  0.00     0.034 A 
ATOM     27  C   UNL A   1      38.400  31.808  30.411  1.00  0.00     0.034 A 
ATOM     28  C   UNL A   1      44.862  31.007  29.990  1.00  0.00     0.049 A 
ATOM     29  C   UNL A   1      39.570  32.685  30.748  1.00  0.00     0.074 A 
ATOM     30  C   UNL A   1      45.853  31.906  30.345  1.00  0.00     0.029 A 
ATOM     31  N   UNL A   1      43.650  31.635  30.234  1.00  0.00    -0.354 N 
ATOM     32  N   UNL A   1      40.848  32.457  30.571  1.00  0.00    -0.248 NA
ATOM     33  C   UNL A   1      39.265  33.999  31.330  1.00  0.00     0.031 C 
ATOM     34  C   UNL A   1      45.240  33.073  30.815  1.00  0.00     0.029 A 
ATOM     35  C   UNL A   1      43.867  32.909  30.733  1.00  0.00     0.049 A 
ATOM     36  H   UNL A   1      42.765  31.234  30.077  1.00  0.00     0.167 HD
ATOM     37  C   UNL A   1      41.501  33.601  31.010  1.00  0.00     0.074 A 
ATOM     38  C   UNL A   1      40.473  34.537  31.418  1.00  0.00     0.031 C 
ATOM     39  C   UNL A   1      42.832  33.844  31.096  1.00  0.00     0.034 A 
BRANCH  26  40
ATOM     40  C   UNL A   1      46.406  29.150  29.248  1.00  0.00     0.023 A 
ATOM     41  C   UNL A   1      47.075  28.508  30.311  1.00  0.00     0.012 A 
ATOM     42  C   UNL A   1      47.024  29.211  27.983  1.00  0.00     0.148 A 
ATOM     43  C   UNL A   1      48.343  27.959  30.127  1.00  0.00     0.002 A 
ATOM     44  C   UNL A   1      48.274  28.627  27.797  1.00  0.00     0.091 A 
ATOM     45  F   UNL A   1      46.383  29.838  26.988  1.00  0.00    -0.205 F 
ATOM     46  C   UNL A   1      48.937  28.009  28.870  1.00  0.00     0.022 A 
BRANCH  44  47
ATOM     47  S   UNL A   1      49.095  28.570  26.199  1.00  0.00     0.127 S 
ATOM     48  O   UNL A   1      49.689  29.904  26.126  1.00  0.00    -0.237 OA
ATOM     49  O   UNL A   1      50.057  27.484  26.385  1.00  0.00    -0.237 OA
ATOM     50  O   UNL A   1      48.051  28.297  25.221  1.00  0.00    -0.744 OA
ENDBRANCH  44  47
ENDBRANCH  26  40
BRANCH  27  51
ATOM     51  C   UNL A   1      36.998  32.252  30.646  1.00  0.00     0.023 A 
ATOM     52  C   UNL A   1      36.443  32.165  31.936  1.00  0.00     0.012 A 
ATOM     53  C   UNL A   1      36.232  32.809  29.604  1.00  0.00     0.148 A 
ATOM     54  C   UNL A   1      35.140  32.603  32.178  1.00  0.00     0.002 A 
ATOM     55  C   UNL A   1      34.961  33.303  29.866  1.00  0.00     0.091 A 
ATOM     56  F   UNL A   1      36.769  32.865  28.376  1.00  0.00    -0.205 F 
ATOM     57  C   UNL A   1      34.404  33.184  31.148  1.00  0.00     0.022 A 
BRANCH  55  58
ATOM     58  S   UNL A   1      34.027  34.209  28.628  1.00  0.00     0.127 S 
ATOM     59  O   UNL A   1      33.778  33.178  27.626  1.00  0.00    -0.237 OA
ATOM     60  O   UNL A   1      32.846  34.634  29.381  1.00  0.00    -0.237 OA
ATOM     61  O   UNL A   1      34.896  35.306  28.221  1.00  0.00    -0.744 OA
ENDBRANCH  55  58
ENDBRANCH  27  51
BRANCH  39  62
ATOM     62  C   UNL A   1      43.248  35.182  31.645  1.00  0.00     0.023 A 
ATOM     63  C   UNL A   1      43.430  35.338  33.034  1.00  0.00     0.012 A 
ATOM     64  C   UNL A   1      43.492  36.273  30.789  1.00  0.00     0.148 A 
ATOM     65  C   UNL A   1      43.808  36.569  33.567  1.00  0.00     0.002 A 
ATOM     66  C   UNL A   1      43.912  37.485  31.323  1.00  0.00     0.091 A 
ATOM     67  F   UNL A   1      43.291  36.112  29.473  1.00  0.00    -0.205 F 
ATOM     68  C   UNL A   1      44.059  37.639  32.711  1.00  0.00     0.022 A 
BRANCH  66  69
ATOM     69  S   UNL A   1      44.339  38.888  30.286  1.00  0.00     0.127 S 
ATOM     70  O   UNL A   1      44.644  39.913  31.282  1.00  0.00    -0.237 OA
ATOM     71  O   UNL A   1      45.501  38.391  29.547  1.00  0.00    -0.237 OA
ATOM     72  O   UNL A   1      43.167  39.142  29.459  1.00  0.00    -0.744 OA
ENDBRANCH  66  69
ENDBRANCH  39  62
ENDBRANCH  13  14
ENDBRANCH   6   8
ENDBRANCH   3   4
ENDBRANCH   2   3
ENDBRANCH   1   2
BRANCH   1  73
ATOM     73  C   UNL A   1      42.305  22.953  29.110  1.00  0.00     0.002 C 
BRANCH  73  74
ATOM     74  C   UNL A   1      43.649  23.687  29.226  1.00  0.00     0.021 C 
BRANCH  74  75
ATOM     75  C   UNL A   1      44.782  23.081  28.395  1.00  0.00     0.116 C 
BRANCH  75  76
ATOM     76  N   UNL A   1      45.670  24.099  27.877  1.00  0.00    -0.356 N 
ATOM     77  C   UNL A   1      45.820  24.615  26.620  1.00  0.00     0.226 C 
ATOM     78  H   UNL A   1      46.274  24.489  28.550  1.00  0.00     0.163 HD
ATOM     79  O   UNL A   1      46.687  25.469  26.439  1.00  0.00    -0.274 OA
BRANCH  77  80
ATOM     80  C   UNL A   1      44.867  24.255  25.502  1.00  0.00     0.056 C 
ATOM     81  C   UNL A   1      43.380  24.315  25.857  1.00  0.00     0.018 C 
ATOM     82  C   UNL A   1      43.965  25.389  24.997  1.00  0.00     0.018 C 
BRANCH  80  83
ATOM     83  C   UNL A   1      45.280  23.247  24.434  1.00  0.00     0.084 C 
BRANCH  83  84
ATOM     84  C   UNL A   1      45.067  21.790  24.733  1.00  0.00     0.094 A 
ATOM     85  N   UNL A   1      43.909  21.225  25.001  1.00  0.00    -0.250 NA
ATOM     86  S   UNL A   1      46.402  20.703  24.630  1.00  0.00    -0.127 S 
ATOM     87  C   UNL A   1      44.059  19.857  25.088  1.00  0.00     0.123 A 
ATOM     88  C   UNL A   1      45.341  19.389  24.909  1.00  0.00     0.087 A 
ENDBRANCH  83  84
ENDBRANCH  80  83
ENDBRANCH  77  80
ENDBRANCH  75  76
ENDBRANCH  74  75
ENDBRANCH  73  74
ENDBRANCH   1  73
TORSDOF 18
ENDMDL
MODEL 3
REMARK VINA RESULT:      -9.3      5.438     10.403
REMARK SMILES O=C(NCCCCCCNC(=O)C1(Cc2nccs2)CC1)c1ccc(-c2c3nc(c(-c4cccc(S(=O)(=O)[O-])c4F)c4ccc([nH]4)c(-c4cccc(S(=O)(=O)[O-])c4F)c4nc(c(-c5cccc(S(=O)(=O)[O-])c5F)c5ccc2[nH]5)C=C4)C=C3)cc1
REMARK SMILES IDX 6 1 5 2 4 3 3 4 1 5 2 6 22 8 23 9 84 10 24 11 83 12 25 13
REMARK SMILES IDX 26 14 27 15 77 16 28 17 82 18 76 19 78 20 29 21 81 22 75 23
REMARK SMILES IDX 74 24 30 26 62 27 42 28 61 29 43 30 46 31 60 32 79 33 44 34
REMARK SMILES IDX 45 35 59 37 80 38 47 39 31 40 32 41 40 42 33 43 35 44 41 45
REMARK SMILES IDX 34 46 36 47 37 48 38 49 39 50 63 51 64 52 72 53 65 54 67 55
REMARK SMILES IDX 73 56 66 57 68 58 69 59 70 60 71 61 48 62 49 63 57 64 50 65
REMARK SMILES IDX 52 66 58 67 51 68 53 69 54 70 55 71 56 72 7 73 8 74 9 75
REMARK SMILES IDX 10 76 11 77 12 79 13 80 20 81 21 82 14 83 15 84 16 85 19 86
REMARK SMILES IDX 17 87 18 88
REMARK H PARENT 3 7 78 25 46 36 10 78
REMARK Flexibility Score: inf
ROOT
ATOM      1  C   UNL A   1      31.331  27.799  24.913  1.00  0.00     0.002 C 
ENDROOT
BRANCH   1   2
ATOM      2  C   UNL A   1      32.541  28.457  24.253  1.00  0.00     0.021 C 
BRANCH   2   3
ATOM      3  C   UNL A   1      33.460  29.203  25.213  1.00  0.00     0.116 C 
BRANCH   3   4
ATOM      4  N   UNL A   1      32.847  30.415  25.733  1.00  0.00    -0.352 N 
ATOM      5  O   UNL A   1      32.486  32.047  27.252  1.00  0.00    -0.269 OA
ATOM      6  C   UNL A   1      33.221  31.160  26.828  1.00  0.00     0.251 C 
ATOM      7  H   UNL A   1      32.064  30.746  25.236  1.00  0.00     0.163 HD
BRANCH   6   8
ATOM      8  C   UNL A   1      34.506  30.861  27.498  1.00  0.00     0.039 A 
ATOM      9  C   UNL A   1      34.748  29.581  28.003  1.00  0.00     0.014 A 
ATOM     10  C   UNL A   1      35.464  31.866  27.645  1.00  0.00     0.014 A 
ATOM     11  C   UNL A   1      35.875  29.350  28.780  1.00  0.00     0.010 A 
ATOM     12  C   UNL A   1      36.646  31.602  28.347  1.00  0.00     0.010 A 
ATOM     13  C   UNL A   1      36.849  30.350  28.946  1.00  0.00    -0.014 A 
BRANCH  13  14
ATOM     14  C   UNL A   1      38.102  30.009  29.670  1.00  0.00     0.031 A 
ATOM     15  C   UNL A   1      38.397  30.539  31.045  1.00  0.00     0.074 A 
ATOM     16  C   UNL A   1      38.968  29.167  29.070  1.00  0.00     0.049 A 
ATOM     17  N   UNL A   1      39.409  30.261  31.829  1.00  0.00    -0.248 NA
ATOM     18  C   UNL A   1      37.450  31.509  31.617  1.00  0.00     0.031 C 
ATOM     19  C   UNL A   1      38.817  28.640  27.710  1.00  0.00     0.029 A 
ATOM     20  N   UNL A   1      40.131  28.598  29.517  1.00  0.00    -0.354 N 
ATOM     21  C   UNL A   1      39.238  31.036  32.970  1.00  0.00     0.074 A 
ATOM     22  C   UNL A   1      38.030  31.811  32.771  1.00  0.00     0.031 C 
ATOM     23  C   UNL A   1      39.824  27.796  27.449  1.00  0.00     0.029 A 
ATOM     24  C   UNL A   1      40.720  27.761  28.599  1.00  0.00     0.049 A 
ATOM     25  H   UNL A   1      40.509  28.772  30.409  1.00  0.00     0.167 HD
ATOM     26  C   UNL A   1      40.005  31.083  34.088  1.00  0.00     0.034 A 
ATOM     27  C   UNL A   1      41.861  27.049  28.663  1.00  0.00     0.034 A 
ATOM     28  C   UNL A   1      41.193  30.292  34.286  1.00  0.00     0.049 A 
ATOM     29  C   UNL A   1      42.662  27.085  29.932  1.00  0.00     0.074 A 
ATOM     30  C   UNL A   1      42.018  30.242  35.397  1.00  0.00     0.029 A 
ATOM     31  N   UNL A   1      41.727  29.412  33.356  1.00  0.00    -0.354 N 
ATOM     32  N   UNL A   1      42.413  27.731  31.044  1.00  0.00    -0.248 NA
ATOM     33  C   UNL A   1      43.881  26.268  29.967  1.00  0.00     0.031 C 
ATOM     34  C   UNL A   1      43.056  29.340  35.134  1.00  0.00     0.029 A 
ATOM     35  C   UNL A   1      42.867  28.813  33.866  1.00  0.00     0.049 A 
ATOM     36  H   UNL A   1      41.350  29.238  32.463  1.00  0.00     0.167 HD
ATOM     37  C   UNL A   1      43.439  27.392  31.916  1.00  0.00     0.074 A 
ATOM     38  C   UNL A   1      44.286  26.448  31.216  1.00  0.00     0.031 C 
ATOM     39  C   UNL A   1      43.676  27.844  33.172  1.00  0.00     0.034 A 
BRANCH  26  40
ATOM     40  C   UNL A   1      39.558  31.980  35.214  1.00  0.00     0.023 A 
ATOM     41  C   UNL A   1      39.820  33.364  35.137  1.00  0.00     0.012 A 
ATOM     42  C   UNL A   1      38.810  31.479  36.298  1.00  0.00     0.148 A 
ATOM     43  C   UNL A   1      39.366  34.230  36.131  1.00  0.00     0.002 A 
ATOM     44  C   UNL A   1      38.329  32.355  37.266  1.00  0.00     0.091 A 
ATOM     45  F   UNL A   1      38.584  30.160  36.364  1.00  0.00    -0.205 F 
ATOM     46  C   UNL A   1      38.613  33.728  37.188  1.00  0.00     0.022 A 
BRANCH  44  47
ATOM     47  S   UNL A   1      37.285  31.823  38.629  1.00  0.00     0.127 S 
ATOM     48  O   UNL A   1      38.138  32.112  39.782  1.00  0.00    -0.237 OA
ATOM     49  O   UNL A   1      36.126  32.704  38.493  1.00  0.00    -0.237 OA
ATOM     50  O   UNL A   1      37.008  30.412  38.396  1.00  0.00    -0.744 OA
ENDBRANCH  44  47
ENDBRANCH  26  40
BRANCH  27  51
ATOM     51  C   UNL A   1      42.276  26.217  27.501  1.00  0.00     0.023 A 
ATOM     52  C   UNL A   1      43.105  26.768  26.506  1.00  0.00     0.012 A 
ATOM     53  C   UNL A   1      41.896  24.864  27.406  1.00  0.00     0.148 A 
ATOM     54  C   UNL A   1      43.527  25.994  25.424  1.00  0.00     0.002 A 
ATOM     55  C   UNL A   1      42.373  24.082  26.362  1.00  0.00     0.091 A 
ATOM     56  F   UNL A   1      41.089  24.360  28.351  1.00  0.00    -0.205 F 
ATOM     57  C   UNL A   1      43.173  24.648  25.359  1.00  0.00     0.022 A 
BRANCH  55  58
ATOM     58  S   UNL A   1      42.091  22.308  26.308  1.00  0.00     0.127 S 
ATOM     59  O   UNL A   1      42.569  21.889  27.622  1.00  0.00    -0.237 OA
ATOM     60  O   UNL A   1      40.642  22.231  26.124  1.00  0.00    -0.237 OA
ATOM     61  O   UNL A   1      42.859  21.835  25.163  1.00  0.00    -0.744 OA
ENDBRANCH  55  58
ENDBRANCH  27  51
BRANCH  39  62
ATOM     62  C   UNL A   1      44.898  27.311  33.870  1.00  0.00     0.023 A 
ATOM     63  C   UNL A   1      46.111  28.026  33.792  1.00  0.00     0.012 A 
ATOM     64  C   UNL A   1      44.841  26.127  34.630  1.00  0.00     0.148 A 
ATOM     65  C   UNL A   1      47.257  27.549  34.425  1.00  0.00     0.002 A 
ATOM     66  C   UNL A   1      45.977  25.682  35.295  1.00  0.00     0.091 A 
ATOM     67  F   UNL A   1      43.685  25.449  34.673  1.00  0.00    -0.205 F 
ATOM     68  C   UNL A   1      47.188  26.383  35.184  1.00  0.00     0.022 A 
BRANCH  66  69
ATOM     69  S   UNL A   1      45.953  24.237  36.363  1.00  0.00     0.127 S 
ATOM     70  O   UNL A   1      44.547  23.845  36.302  1.00  0.00    -0.237 OA
ATOM     71  O   UNL A   1      46.870  23.325  35.677  1.00  0.00    -0.237 OA
ATOM     72  O   UNL A   1      46.424  24.697  37.662  1.00  0.00    -0.744 OA
ENDBRANCH  66  69
ENDBRANCH  39  62
ENDBRANCH  13  14
ENDBRANCH   6   8
ENDBRANCH   3   4
ENDBRANCH   2   3
ENDBRANCH   1   2
BRANCH   1  73
ATOM     73  C   UNL A   1      30.345  27.139  23.945  1.00  0.00     0.002 C 
BRANCH  73  74
ATOM     74  C   UNL A   1      30.984  26.306  22.825  1.00  0.00     0.021 C 
BRANCH  74  75
ATOM     75  C   UNL A   1      31.155  24.820  23.151  1.00  0.00     0.116 C 
BRANCH  75  76
ATOM     76  N   UNL A   1      32.366  24.281  22.573  1.00  0.00    -0.356 N 
ATOM     77  C   UNL A   1      33.561  23.930  23.138  1.00  0.00     0.226 C 
ATOM     78  H   UNL A   1      32.323  24.142  21.599  1.00  0.00     0.163 HD
ATOM     79  O   UNL A   1      34.456  23.516  22.402  1.00  0.00    -0.274 OA
BRANCH  77  80
ATOM     80  C   UNL A   1      33.748  23.918  24.638  1.00  0.00     0.056 C 
ATOM     81  C   UNL A   1      35.149  24.286  25.132  1.00  0.00     0.018 C 
ATOM     82  C   UNL A   1      34.040  25.277  25.289  1.00  0.00     0.018 C 
BRANCH  80  83
ATOM     83  C   UNL A   1      32.942  22.956  25.507  1.00  0.00     0.084 C 
BRANCH  83  84
ATOM     84  C   UNL A   1      33.108  21.485  25.253  1.00  0.00     0.094 A 
ATOM     85  N   UNL A   1      32.130  20.610  25.152  1.00  0.00    -0.250 NA
ATOM     86  S   UNL A   1      34.686  20.853  24.960  1.00  0.00    -0.127 S 
ATOM     87  C   UNL A   1      32.632  19.381  24.781  1.00  0.00     0.123 A 
ATOM     88  C   UNL A   1      33.998  19.321  24.624  1.00  0.00     0.087 A 
ENDBRANCH  83  84
ENDBRANCH  80  83
ENDBRANCH  77  80
ENDBRANCH  75  76
ENDBRANCH  74  75
ENDBRANCH  73  74
ENDBRANCH   1  73
TORSDOF 18
ENDMDL
