MODEL 1
REMARK VINA RESULT:     -12.2      0.000      0.000
REMARK SMILES O=C(NCCCCCCNC(=O)c1ccc(-c2c3nc(c(-c4cccc(S(=O)(=O)[O-])c4F)c4ccc([nH]4)c(-c4cccc(S(=O)(=O)[O-])c4F)c4nc(c(-c5cccc(S(=O)(=O)[O-])c5F)c5ccc2[nH]5)C=C4)C=C3)cc1)C1=Cc2ccc(Cl)c(Cl)c2O[C@@H]1C(F)(F)F
REMARK SMILES IDX 7 1 6 2 5 3 4 4 3 5 1 6 2 7 76 9 77 10 87 11 78 12 86 13
REMARK SMILES IDX 79 14 85 15 80 16 83 17 81 18 84 19 82 20 88 21 89 22 90 23
REMARK SMILES IDX 91 24 8 25 9 26 10 27 11 28 12 30 13 31 14 32 75 33 15 34
REMARK SMILES IDX 74 35 16 36 17 37 18 38 68 39 19 40 73 41 67 42 69 43 20 44
REMARK SMILES IDX 72 45 66 46 65 47 21 49 53 50 33 51 52 52 34 53 37 54 51 55
REMARK SMILES IDX 70 56 35 57 36 58 50 60 71 61 38 62 22 63 23 64 31 65 24 66
REMARK SMILES IDX 26 67 32 68 25 69 27 70 28 71 29 72 30 73 54 74 55 75 63 76
REMARK SMILES IDX 56 77 58 78 64 79 57 80 59 81 60 82 61 83 62 84 39 85 40 86
REMARK SMILES IDX 48 87 41 88 43 89 49 90 42 91 44 92 45 93 46 94 47 95
REMARK H PARENT 3 8 10 29 69 48 37 59
REMARK Flexibility Score: inf
ROOT
ATOM      1  C   UNL A   1      31.687  30.626  26.293  1.00  0.00     0.002 C 
ENDROOT
BRANCH   1   2
ATOM      2  C   UNL A   1      32.275  29.551  27.214  1.00  0.00     0.002 C 
BRANCH   2   3
ATOM      3  C   UNL A   1      31.442  28.289  27.423  1.00  0.00     0.021 C 
BRANCH   3   4
ATOM      4  C   UNL A   1      31.398  27.300  26.263  1.00  0.00     0.116 C 
BRANCH   4   5
ATOM      5  N   UNL A   1      30.668  26.072  26.526  1.00  0.00    -0.352 N 
ATOM      6  O   UNL A   1      30.347  23.873  26.843  1.00  0.00    -0.270 OA
ATOM      7  C   UNL A   1      31.084  24.772  26.438  1.00  0.00     0.251 C 
ATOM      8  H   UNL A   1      29.733  26.195  26.810  1.00  0.00     0.163 HD
BRANCH   7   9
ATOM      9  C   UNL A   1      32.446  24.400  25.954  1.00  0.00     0.067 C 
ATOM     10  C   UNL A   1      33.180  23.445  26.551  1.00  0.00     0.025 C 
ATOM     11  C   UNL A   1      32.617  24.631  24.471  1.00  0.00     0.314 C 
ATOM     12  C   UNL A   1      33.287  22.223  25.715  1.00  0.00     0.019 A 
ATOM     13  O   UNL A   1      32.496  23.393  23.729  1.00  0.00    -0.474 OA
ATOM     14  C   UNL A   1      33.590  21.016  26.354  1.00  0.00     0.013 A 
ATOM     15  C   UNL A   1      32.822  22.226  24.387  1.00  0.00     0.148 A 
ATOM     16  C   UNL A   1      33.331  19.810  25.706  1.00  0.00     0.023 A 
ATOM     17  C   UNL A   1      32.566  21.010  23.736  1.00  0.00     0.102 A 
ATOM     18  C   UNL A   1      32.792  19.803  24.414  1.00  0.00     0.063 A 
ATOM     19  Cl  UNL A   1      31.859  21.032  22.152  1.00  0.00    -0.079 Cl
ATOM     20  Cl  UNL A   1      32.337  18.272  23.756  1.00  0.00    -0.083 Cl
BRANCH  11  21
ATOM     21  C   UNL A   1      33.925  25.369  24.144  1.00  0.00     0.429 C 
ATOM     22  F   UNL A   1      34.266  26.234  25.128  1.00  0.00    -0.167 F 
ATOM     23  F   UNL A   1      34.963  24.506  24.007  1.00  0.00    -0.167 F 
ATOM     24  F   UNL A   1      33.848  26.077  22.993  1.00  0.00    -0.167 F 
ENDBRANCH  11  21
ENDBRANCH   7   9
ENDBRANCH   4   5
ENDBRANCH   3   4
ENDBRANCH   2   3
ENDBRANCH   1   2
BRANCH   1  25
ATOM     25  C   UNL A   1      31.520  32.035  26.873  1.00  0.00     0.021 C 
BRANCH  25  26
ATOM     26  C   UNL A   1      32.791  32.865  27.036  1.00  0.00     0.116 C 
BRANCH  26  27
ATOM     27  N   UNL A   1      32.558  34.151  27.669  1.00  0.00    -0.352 N 
ATOM     28  C   UNL A   1      33.153  34.716  28.771  1.00  0.00     0.251 C 
ATOM     29  H   UNL A   1      31.865  34.705  27.241  1.00  0.00     0.163 HD
ATOM     30  O   UNL A   1      32.711  35.776  29.211  1.00  0.00    -0.269 OA
BRANCH  28  31
ATOM     31  C   UNL A   1      34.300  34.063  29.447  1.00  0.00     0.039 A 
ATOM     32  C   UNL A   1      35.594  34.438  29.073  1.00  0.00     0.014 A 
ATOM     33  C   UNL A   1      34.120  33.058  30.400  1.00  0.00     0.014 A 
ATOM     34  C   UNL A   1      36.702  33.844  29.686  1.00  0.00     0.010 A 
ATOM     35  C   UNL A   1      35.225  32.512  31.059  1.00  0.00     0.010 A 
ATOM     36  C   UNL A   1      36.529  32.892  30.703  1.00  0.00    -0.014 A 
BRANCH  36  37
ATOM     37  C   UNL A   1      37.697  32.290  31.401  1.00  0.00     0.031 A 
ATOM     38  C   UNL A   1      38.459  31.152  30.776  1.00  0.00     0.074 A 
ATOM     39  C   UNL A   1      38.028  32.720  32.636  1.00  0.00     0.049 A 
ATOM     40  N   UNL A   1      39.474  30.478  31.254  1.00  0.00    -0.248 NA
ATOM     41  C   UNL A   1      38.010  30.694  29.451  1.00  0.00     0.031 C 
ATOM     42  C   UNL A   1      37.327  33.764  33.384  1.00  0.00     0.029 A 
ATOM     43  N   UNL A   1      39.023  32.312  33.490  1.00  0.00    -0.354 N 
ATOM     44  C   UNL A   1      39.760  29.496  30.313  1.00  0.00     0.074 A 
ATOM     45  C   UNL A   1      38.793  29.645  29.246  1.00  0.00     0.031 C 
ATOM     46  C   UNL A   1      37.914  33.919  34.581  1.00  0.00     0.029 A 
ATOM     47  C   UNL A   1      39.015  32.968  34.700  1.00  0.00     0.049 A 
ATOM     48  H   UNL A   1      39.681  31.618  33.259  1.00  0.00     0.167 HD
ATOM     49  C   UNL A   1      40.751  28.572  30.320  1.00  0.00     0.034 A 
ATOM     50  C   UNL A   1      39.800  32.816  35.786  1.00  0.00     0.034 A 
ATOM     51  C   UNL A   1      41.742  28.459  31.357  1.00  0.00     0.049 A 
ATOM     52  C   UNL A   1      40.919  31.810  35.749  1.00  0.00     0.074 A 
ATOM     53  C   UNL A   1      42.843  27.621  31.405  1.00  0.00     0.029 A 
ATOM     54  N   UNL A   1      41.751  29.197  32.528  1.00  0.00    -0.354 N 
ATOM     55  N   UNL A   1      41.272  31.005  34.777  1.00  0.00    -0.248 NA
ATOM     56  C   UNL A   1      41.769  31.717  36.945  1.00  0.00     0.031 C 
ATOM     57  C   UNL A   1      43.503  27.835  32.619  1.00  0.00     0.029 A 
ATOM     58  C   UNL A   1      42.828  28.826  33.314  1.00  0.00     0.049 A 
ATOM     59  H   UNL A   1      41.088  29.884  32.768  1.00  0.00     0.167 HD
ATOM     60  C   UNL A   1      42.406  30.339  35.228  1.00  0.00     0.074 A 
ATOM     61  C   UNL A   1      42.692  30.850  36.553  1.00  0.00     0.031 C 
ATOM     62  C   UNL A   1      43.137  29.380  34.608  1.00  0.00     0.034 A 
BRANCH  49  63
ATOM     63  C   UNL A   1      40.847  27.633  29.145  1.00  0.00     0.023 A 
ATOM     64  C   UNL A   1      40.023  26.489  29.099  1.00  0.00     0.012 A 
ATOM     65  C   UNL A   1      41.694  27.918  28.057  1.00  0.00     0.148 A 
ATOM     66  C   UNL A   1      40.067  25.626  28.004  1.00  0.00     0.002 A 
ATOM     67  C   UNL A   1      41.700  27.077  26.949  1.00  0.00     0.091 A 
ATOM     68  F   UNL A   1      42.483  29.000  28.126  1.00  0.00    -0.205 F 
ATOM     69  C   UNL A   1      40.896  25.925  26.926  1.00  0.00     0.022 A 
BRANCH  67  70
ATOM     70  S   UNL A   1      42.673  27.416  25.478  1.00  0.00     0.127 S 
ATOM     71  O   UNL A   1      41.999  28.599  24.945  1.00  0.00    -0.237 OA
ATOM     72  O   UNL A   1      44.000  27.671  26.039  1.00  0.00    -0.237 OA
ATOM     73  O   UNL A   1      42.582  26.221  24.652  1.00  0.00    -0.744 OA
ENDBRANCH  67  70
ENDBRANCH  49  63
BRANCH  50  74
ATOM     74  C   UNL A   1      39.598  33.687  36.980  1.00  0.00     0.023 A 
ATOM     75  C   UNL A   1      40.064  35.015  36.952  1.00  0.00     0.012 A 
ATOM     76  C   UNL A   1      38.936  33.215  38.129  1.00  0.00     0.148 A 
ATOM     77  C   UNL A   1      39.905  35.849  38.060  1.00  0.00     0.002 A 
ATOM     78  C   UNL A   1      38.732  34.067  39.209  1.00  0.00     0.091 A 
ATOM     79  F   UNL A   1      38.511  31.944  38.141  1.00  0.00    -0.205 F 
ATOM     80  C   UNL A   1      39.231  35.378  39.183  1.00  0.00     0.022 A 
BRANCH  78  81
ATOM     81  S   UNL A   1      37.767  33.586  40.645  1.00  0.00     0.127 S 
ATOM     82  O   UNL A   1      38.613  32.557  41.243  1.00  0.00    -0.237 OA
ATOM     83  O   UNL A   1      37.695  34.839  41.396  1.00  0.00    -0.237 OA
ATOM     84  O   UNL A   1      36.487  33.127  40.119  1.00  0.00    -0.744 OA
ENDBRANCH  78  81
ENDBRANCH  50  74
BRANCH  62  85
ATOM     85  C   UNL A   1      44.343  28.839  35.330  1.00  0.00     0.023 A 
ATOM     86  C   UNL A   1      45.603  29.439  35.140  1.00  0.00     0.012 A 
ATOM     87  C   UNL A   1      44.212  27.783  36.255  1.00  0.00     0.148 A 
ATOM     88  C   UNL A   1      46.720  28.976  35.834  1.00  0.00     0.002 A 
ATOM     89  C   UNL A   1      45.321  27.360  36.980  1.00  0.00     0.091 A 
ATOM     90  F   UNL A   1      43.010  27.212  36.409  1.00  0.00    -0.205 F 
ATOM     91  C   UNL A   1      46.577  27.948  36.762  1.00  0.00     0.022 A 
BRANCH  89  92
ATOM     92  S   UNL A   1      45.210  26.110  38.264  1.00  0.00     0.127 S 
ATOM     93  O   UNL A   1      44.634  24.982  37.534  1.00  0.00    -0.237 OA
ATOM     94  O   UNL A   1      46.612  25.935  38.649  1.00  0.00    -0.237 OA
ATOM     95  O   UNL A   1      44.366  26.679  39.306  1.00  0.00    -0.744 OA
ENDBRANCH  89  92
ENDBRANCH  62  85
ENDBRANCH  36  37
ENDBRANCH  28  31
ENDBRANCH  26  27
ENDBRANCH  25  26
ENDBRANCH   1  25
TORSDOF 17
ENDMDL
MODEL 2
REMARK VINA RESULT:     -12.1      3.680      8.421
REMARK SMILES O=C(NCCCCCCNC(=O)c1ccc(-c2c3nc(c(-c4cccc(S(=O)(=O)[O-])c4F)c4ccc([nH]4)c(-c4cccc(S(=O)(=O)[O-])c4F)c4nc(c(-c5cccc(S(=O)(=O)[O-])c5F)c5ccc2[nH]5)C=C4)C=C3)cc1)C1=Cc2ccc(Cl)c(Cl)c2O[C@@H]1C(F)(F)F
REMARK SMILES IDX 7 1 6 2 5 3 4 4 3 5 1 6 2 7 76 9 77 10 87 11 78 12 86 13
REMARK SMILES IDX 79 14 85 15 80 16 83 17 81 18 84 19 82 20 88 21 89 22 90 23
REMARK SMILES IDX 91 24 8 25 9 26 10 27 11 28 12 30 13 31 14 32 75 33 15 34
REMARK SMILES IDX 74 35 16 36 17 37 18 38 68 39 19 40 73 41 67 42 69 43 20 44
REMARK SMILES IDX 72 45 66 46 65 47 21 49 53 50 33 51 52 52 34 53 37 54 51 55
REMARK SMILES IDX 70 56 35 57 36 58 50 60 71 61 38 62 22 63 23 64 31 65 24 66
REMARK SMILES IDX 26 67 32 68 25 69 27 70 28 71 29 72 30 73 54 74 55 75 63 76
REMARK SMILES IDX 56 77 58 78 64 79 57 80 59 81 60 82 61 83 62 84 39 85 40 86
REMARK SMILES IDX 48 87 41 88 43 89 49 90 42 91 44 92 45 93 46 94 47 95
REMARK H PARENT 3 8 10 29 69 48 37 59
REMARK Flexibility Score: inf
ROOT
ATOM      1  C   UNL A   1      31.551  28.403  24.973  1.00  0.00     0.002 C 
ENDROOT
BRANCH   1   2
ATOM      2  C   UNL A   1      30.828  27.156  24.453  1.00  0.00     0.002 C 
BRANCH   2   3
ATOM      3  C   UNL A   1      31.207  26.668  23.057  1.00  0.00     0.021 C 
BRANCH   3   4
ATOM      4  C   UNL A   1      32.698  26.591  22.742  1.00  0.00     0.116 C 
BRANCH   4   5
ATOM      5  N   UNL A   1      33.106  25.431  21.969  1.00  0.00    -0.352 N 
ATOM      6  O   UNL A   1      33.450  23.263  21.500  1.00  0.00    -0.270 OA
ATOM      7  C   UNL A   1      33.222  24.123  22.350  1.00  0.00     0.251 C 
ATOM      8  H   UNL A   1      33.333  25.615  21.028  1.00  0.00     0.163 HD
BRANCH   7   9
ATOM      9  C   UNL A   1      32.986  23.677  23.756  1.00  0.00     0.067 C 
ATOM     10  C   UNL A   1      32.134  22.682  24.056  1.00  0.00     0.025 C 
ATOM     11  C   UNL A   1      34.189  23.899  24.643  1.00  0.00     0.314 C 
ATOM     12  C   UNL A   1      32.845  21.457  24.500  1.00  0.00     0.019 A 
ATOM     13  O   UNL A   1      34.930  22.670  24.842  1.00  0.00    -0.474 OA
ATOM     14  C   UNL A   1      32.173  20.234  24.393  1.00  0.00     0.013 A 
ATOM     15  C   UNL A   1      34.230  21.487  24.748  1.00  0.00     0.148 A 
ATOM     16  C   UNL A   1      32.899  19.044  24.429  1.00  0.00     0.023 A 
ATOM     17  C   UNL A   1      34.956  20.287  24.786  1.00  0.00     0.102 A 
ATOM     18  C   UNL A   1      34.288  19.069  24.592  1.00  0.00     0.063 A 
ATOM     19  Cl  UNL A   1      36.683  20.350  24.949  1.00  0.00    -0.079 Cl
ATOM     20  Cl  UNL A   1      35.128  17.566  24.446  1.00  0.00    -0.083 Cl
BRANCH  11  21
ATOM     21  C   UNL A   1      33.812  24.564  25.977  1.00  0.00     0.429 C 
ATOM     22  F   UNL A   1      34.485  25.724  26.160  1.00  0.00    -0.167 F 
ATOM     23  F   UNL A   1      32.491  24.867  26.026  1.00  0.00    -0.167 F 
ATOM     24  F   UNL A   1      34.075  23.772  27.043  1.00  0.00    -0.167 F 
ENDBRANCH  11  21
ENDBRANCH   7   9
ENDBRANCH   4   5
ENDBRANCH   3   4
ENDBRANCH   2   3
ENDBRANCH   1   2
BRANCH   1  25
ATOM     25  C   UNL A   1      32.433  28.239  26.215  1.00  0.00     0.021 C 
BRANCH  25  26
ATOM     26  C   UNL A   1      33.797  28.926  26.185  1.00  0.00     0.116 C 
BRANCH  26  27
ATOM     27  N   UNL A   1      33.748  30.312  26.616  1.00  0.00    -0.352 N 
ATOM     28  C   UNL A   1      34.562  30.998  27.483  1.00  0.00     0.251 C 
ATOM     29  H   UNL A   1      33.017  30.843  26.224  1.00  0.00     0.163 HD
ATOM     30  O   UNL A   1      34.263  32.148  27.801  1.00  0.00    -0.269 OA
BRANCH  28  31
ATOM     31  C   UNL A   1      35.779  30.373  28.055  1.00  0.00     0.039 A 
ATOM     32  C   UNL A   1      36.959  30.403  27.303  1.00  0.00     0.014 A 
ATOM     33  C   UNL A   1      35.764  29.719  29.289  1.00  0.00     0.014 A 
ATOM     34  C   UNL A   1      38.128  29.822  27.806  1.00  0.00     0.010 A 
ATOM     35  C   UNL A   1      36.946  29.198  29.820  1.00  0.00     0.010 A 
ATOM     36  C   UNL A   1      38.139  29.235  29.082  1.00  0.00    -0.014 A 
BRANCH  36  37
ATOM     37  C   UNL A   1      39.387  28.661  29.653  1.00  0.00     0.031 A 
ATOM     38  C   UNL A   1      40.034  29.285  30.861  1.00  0.00     0.074 A 
ATOM     39  C   UNL A   1      39.982  27.618  29.039  1.00  0.00     0.049 A 
ATOM     40  N   UNL A   1      41.141  28.947  31.471  1.00  0.00    -0.248 NA
ATOM     41  C   UNL A   1      39.362  30.455  31.449  1.00  0.00     0.031 C 
ATOM     42  C   UNL A   1      39.499  26.967  27.820  1.00  0.00     0.029 A 
ATOM     43  N   UNL A   1      41.138  26.939  29.342  1.00  0.00    -0.354 N 
ATOM     44  C   UNL A   1      41.321  29.881  32.485  1.00  0.00     0.074 A 
ATOM     45  C   UNL A   1      40.221  30.817  32.392  1.00  0.00     0.031 C 
ATOM     46  C   UNL A   1      40.347  25.983  27.481  1.00  0.00     0.029 A 
ATOM     47  C   UNL A   1      41.447  25.948  28.439  1.00  0.00     0.049 A 
ATOM     48  H   UNL A   1      41.690  27.141  30.129  1.00  0.00     0.167 HD
ATOM     49  C   UNL A   1      42.296  29.941  33.424  1.00  0.00     0.034 A 
ATOM     50  C   UNL A   1      42.502  25.110  28.384  1.00  0.00     0.034 A 
ATOM     51  C   UNL A   1      43.360  28.981  33.546  1.00  0.00     0.049 A 
ATOM     52  C   UNL A   1      43.548  25.172  29.465  1.00  0.00     0.074 A 
ATOM     53  C   UNL A   1      44.337  28.900  34.524  1.00  0.00     0.029 A 
ATOM     54  N   UNL A   1      43.594  27.940  32.663  1.00  0.00    -0.354 N 
ATOM     55  N   UNL A   1      43.607  25.960  30.510  1.00  0.00    -0.248 NA
ATOM     56  C   UNL A   1      44.653  24.207  29.377  1.00  0.00     0.031 C 
ATOM     57  C   UNL A   1      45.177  27.826  34.216  1.00  0.00     0.029 A 
ATOM     58  C   UNL A   1      44.707  27.221  33.062  1.00  0.00     0.049 A 
ATOM     59  H   UNL A   1      43.049  27.742  31.867  1.00  0.00     0.167 HD
ATOM     60  C   UNL A   1      44.731  25.561  31.224  1.00  0.00     0.074 A 
ATOM     61  C   UNL A   1      45.312  24.448  30.502  1.00  0.00     0.031 C 
ATOM     62  C   UNL A   1      45.245  26.079  32.367  1.00  0.00     0.034 A 
BRANCH  49  63
ATOM     63  C   UNL A   1      42.234  31.060  34.432  1.00  0.00     0.023 A 
ATOM     64  C   UNL A   1      41.589  30.848  35.668  1.00  0.00     0.012 A 
ATOM     65  C   UNL A   1      42.872  32.291  34.189  1.00  0.00     0.148 A 
ATOM     66  C   UNL A   1      41.551  31.856  36.632  1.00  0.00     0.002 A 
ATOM     67  C   UNL A   1      42.869  33.276  35.172  1.00  0.00     0.091 A 
ATOM     68  F   UNL A   1      43.465  32.482  33.001  1.00  0.00    -0.205 F 
ATOM     69  C   UNL A   1      42.199  33.064  36.388  1.00  0.00     0.022 A 
BRANCH  67  70
ATOM     70  S   UNL A   1      43.741  34.835  34.986  1.00  0.00     0.127 S 
ATOM     71  O   UNL A   1      43.479  35.474  36.274  1.00  0.00    -0.237 OA
ATOM     72  O   UNL A   1      45.123  34.394  34.795  1.00  0.00    -0.237 OA
ATOM     73  O   UNL A   1      43.147  35.492  33.830  1.00  0.00    -0.744 OA
ENDBRANCH  67  70
ENDBRANCH  49  63
BRANCH  50  74
ATOM     74  C   UNL A   1      42.589  24.090  27.300  1.00  0.00     0.023 A 
ATOM     75  C   UNL A   1      43.320  24.384  26.132  1.00  0.00     0.012 A 
ATOM     76  C   UNL A   1      41.970  22.831  27.423  1.00  0.00     0.148 A 
ATOM     77  C   UNL A   1      43.406  23.457  25.093  1.00  0.00     0.002 A 
ATOM     78  C   UNL A   1      42.104  21.891  26.407  1.00  0.00     0.091 A 
ATOM     79  F   UNL A   1      41.267  22.575  28.536  1.00  0.00    -0.205 F 
ATOM     80  C   UNL A   1      42.807  22.208  25.235  1.00  0.00     0.022 A 
BRANCH  78  81
ATOM     81  S   UNL A   1      41.473  20.216  26.557  1.00  0.00     0.127 S 
ATOM     82  O   UNL A   1      42.131  19.757  27.777  1.00  0.00    -0.237 OA
ATOM     83  O   UNL A   1      40.034  20.444  26.679  1.00  0.00    -0.237 OA
ATOM     84  O   UNL A   1      41.872  19.538  25.329  1.00  0.00    -0.744 OA
ENDBRANCH  78  81
ENDBRANCH  50  74
BRANCH  62  85
ATOM     85  C   UNL A   1      46.479  25.430  32.940  1.00  0.00     0.023 A 
ATOM     86  C   UNL A   1      47.754  25.908  32.580  1.00  0.00     0.012 A 
ATOM     87  C   UNL A   1      46.371  24.397  33.891  1.00  0.00     0.148 A 
ATOM     88  C   UNL A   1      48.904  25.346  33.133  1.00  0.00     0.002 A 
ATOM     89  C   UNL A   1      47.519  23.875  34.477  1.00  0.00     0.091 A 
ATOM     90  F   UNL A   1      45.150  23.943  34.207  1.00  0.00    -0.205 F 
ATOM     91  C   UNL A   1      48.786  24.340  34.089  1.00  0.00     0.022 A 
BRANCH  89  92
ATOM     92  S   UNL A   1      47.459  22.648  35.786  1.00  0.00     0.127 S 
ATOM     93  O   UNL A   1      46.440  23.208  36.673  1.00  0.00    -0.237 OA
ATOM     94  O   UNL A   1      47.045  21.444  35.065  1.00  0.00    -0.237 OA
ATOM     95  O   UNL A   1      48.806  22.587  36.340  1.00  0.00    -0.744 OA
ENDBRANCH  89  92
ENDBRANCH  62  85
ENDBRANCH  36  37
ENDBRANCH  28  31
ENDBRANCH  26  27
ENDBRANCH  25  26
ENDBRANCH   1  25
TORSDOF 17
ENDMDL
MODEL 3
REMARK VINA RESULT:     -12.0      2.208      2.850
REMARK SMILES O=C(NCCCCCCNC(=O)c1ccc(-c2c3nc(c(-c4cccc(S(=O)(=O)[O-])c4F)c4ccc([nH]4)c(-c4cccc(S(=O)(=O)[O-])c4F)c4nc(c(-c5cccc(S(=O)(=O)[O-])c5F)c5ccc2[nH]5)C=C4)C=C3)cc1)C1=Cc2ccc(Cl)c(Cl)c2O[C@@H]1C(F)(F)F
REMARK SMILES IDX 7 1 6 2 5 3 4 4 3 5 1 6 2 7 76 9 77 10 87 11 78 12 86 13
REMARK SMILES IDX 79 14 85 15 80 16 83 17 81 18 84 19 82 20 88 21 89 22 90 23
REMARK SMILES IDX 91 24 8 25 9 26 10 27 11 28 12 30 13 31 14 32 75 33 15 34
REMARK SMILES IDX 74 35 16 36 17 37 18 38 68 39 19 40 73 41 67 42 69 43 20 44
REMARK SMILES IDX 72 45 66 46 65 47 21 49 53 50 33 51 52 52 34 53 37 54 51 55
REMARK SMILES IDX 70 56 35 57 36 58 50 60 71 61 38 62 22 63 23 64 31 65 24 66
REMARK SMILES IDX 26 67 32 68 25 69 27 70 28 71 29 72 30 73 54 74 55 75 63 76
REMARK SMILES IDX 56 77 58 78 64 79 57 80 59 81 60 82 61 83 62 84 39 85 40 86
REMARK SMILES IDX 48 87 41 88 43 89 49 90 42 91 44 92 45 93 46 94 47 95
REMARK H PARENT 3 8 10 29 69 48 37 59
REMARK Flexibility Score: inf
ROOT
ATOM      1  C   UNL A   1      32.932  28.466  24.673  1.00  0.00     0.002 C 
ENDROOT
BRANCH   1   2
ATOM      2  C   UNL A   1      33.889  28.698  23.498  1.00  0.00     0.002 C 
BRANCH   2   3
ATOM      3  C   UNL A   1      33.658  27.861  22.242  1.00  0.00     0.021 C 
BRANCH   3   4
ATOM      4  C   UNL A   1      32.691  26.688  22.373  1.00  0.00     0.116 C 
BRANCH   4   5
ATOM      5  N   UNL A   1      33.082  25.484  21.660  1.00  0.00    -0.352 N 
ATOM      6  O   UNL A   1      33.396  23.290  21.305  1.00  0.00    -0.270 OA
ATOM      7  C   UNL A   1      33.183  24.196  22.110  1.00  0.00     0.251 C 
ATOM      8  H   UNL A   1      33.308  25.615  20.711  1.00  0.00     0.163 HD
BRANCH   7   9
ATOM      9  C   UNL A   1      32.947  23.828  23.538  1.00  0.00     0.067 C 
ATOM     10  C   UNL A   1      32.100  22.846  23.891  1.00  0.00     0.025 C 
ATOM     11  C   UNL A   1      34.146  24.107  24.413  1.00  0.00     0.314 C 
ATOM     12  C   UNL A   1      32.817  21.652  24.405  1.00  0.00     0.019 A 
ATOM     13  O   UNL A   1      34.894  22.896  24.683  1.00  0.00    -0.474 OA
ATOM     14  C   UNL A   1      32.154  20.421  24.365  1.00  0.00     0.013 A 
ATOM     15  C   UNL A   1      34.201  21.705  24.653  1.00  0.00     0.148 A 
ATOM     16  C   UNL A   1      32.886  19.240  24.469  1.00  0.00     0.023 A 
ATOM     17  C   UNL A   1      34.935  20.514  24.760  1.00  0.00     0.102 A 
ATOM     18  C   UNL A   1      34.276  19.282  24.633  1.00  0.00     0.063 A 
ATOM     19  Cl  UNL A   1      36.661  20.597  24.923  1.00  0.00    -0.079 Cl
ATOM     20  Cl  UNL A   1      35.125  17.779  24.573  1.00  0.00    -0.083 Cl
BRANCH  11  21
ATOM     21  C   UNL A   1      33.762  24.843  25.707  1.00  0.00     0.429 C 
ATOM     22  F   UNL A   1      32.499  25.327  25.647  1.00  0.00    -0.167 F 
ATOM     23  F   UNL A   1      33.812  24.018  26.783  1.00  0.00    -0.167 F 
ATOM     24  F   UNL A   1      34.582  25.887  25.973  1.00  0.00    -0.167 F 
ENDBRANCH  11  21
ENDBRANCH   7   9
ENDBRANCH   4   5
ENDBRANCH   3   4
ENDBRANCH   2   3
ENDBRANCH   1   2
BRANCH   1  25
ATOM     25  C   UNL A   1      31.939  29.586  25.003  1.00  0.00     0.021 C 
BRANCH  25  26
ATOM     26  C   UNL A   1      31.909  30.072  26.450  1.00  0.00     0.116 C 
BRANCH  26  27
ATOM     27  N   UNL A   1      31.835  31.517  26.567  1.00  0.00    -0.352 N 
ATOM     28  C   UNL A   1      32.643  32.392  27.253  1.00  0.00     0.251 C 
ATOM     29  H   UNL A   1      31.091  31.936  26.078  1.00  0.00     0.163 HD
ATOM     30  O   UNL A   1      32.323  33.578  27.314  1.00  0.00    -0.269 OA
BRANCH  28  31
ATOM     31  C   UNL A   1      33.877  31.929  27.931  1.00  0.00     0.039 A 
ATOM     32  C   UNL A   1      34.868  32.872  28.227  1.00  0.00     0.014 A 
ATOM     33  C   UNL A   1      34.093  30.583  28.235  1.00  0.00     0.014 A 
ATOM     34  C   UNL A   1      36.047  32.475  28.865  1.00  0.00     0.010 A 
ATOM     35  C   UNL A   1      35.241  30.197  28.931  1.00  0.00     0.010 A 
ATOM     36  C   UNL A   1      36.236  31.137  29.246  1.00  0.00    -0.014 A 
BRANCH  36  37
ATOM     37  C   UNL A   1      37.461  30.709  29.973  1.00  0.00     0.031 A 
ATOM     38  C   UNL A   1      38.442  29.764  29.330  1.00  0.00     0.074 A 
ATOM     39  C   UNL A   1      37.656  31.113  31.245  1.00  0.00     0.049 A 
ATOM     40  N   UNL A   1      39.540  29.253  29.825  1.00  0.00    -0.248 NA
ATOM     41  C   UNL A   1      38.141  29.318  27.960  1.00  0.00     0.031 C 
ATOM     42  C   UNL A   1      36.747  31.968  32.009  1.00  0.00     0.029 A 
ATOM     43  N   UNL A   1      38.671  30.835  32.129  1.00  0.00    -0.354 N 
ATOM     44  C   UNL A   1      40.038  28.397  28.849  1.00  0.00     0.074 A 
ATOM     45  C   UNL A   1      39.108  28.438  27.741  1.00  0.00     0.031 C 
ATOM     46  C   UNL A   1      37.244  32.149  33.243  1.00  0.00     0.029 A 
ATOM     47  C   UNL A   1      38.492  31.402  33.369  1.00  0.00     0.049 A 
ATOM     48  H   UNL A   1      39.452  30.284  31.896  1.00  0.00     0.167 HD
ATOM     49  C   UNL A   1      41.178  27.664  28.860  1.00  0.00     0.034 A 
ATOM     50  C   UNL A   1      39.244  31.325  34.486  1.00  0.00     0.034 A 
ATOM     51  C   UNL A   1      42.127  27.663  29.941  1.00  0.00     0.049 A 
ATOM     52  C   UNL A   1      40.526  30.537  34.456  1.00  0.00     0.074 A 
ATOM     53  C   UNL A   1      43.358  27.033  30.004  1.00  0.00     0.029 A 
ATOM     54  N   UNL A   1      41.952  28.317  31.149  1.00  0.00    -0.354 N 
ATOM     55  N   UNL A   1      41.060  29.869  33.463  1.00  0.00    -0.248 NA
ATOM     56  C   UNL A   1      41.326  30.522  35.689  1.00  0.00     0.031 C 
ATOM     57  C   UNL A   1      43.915  27.283  31.261  1.00  0.00     0.029 A 
ATOM     58  C   UNL A   1      43.044  28.094  31.971  1.00  0.00     0.049 A 
ATOM     59  H   UNL A   1      41.167  28.860  31.389  1.00  0.00     0.167 HD
ATOM     60  C   UNL A   1      42.275  29.387  33.938  1.00  0.00     0.074 A 
ATOM     61  C   UNL A   1      42.406  29.857  35.302  1.00  0.00     0.031 C 
ATOM     62  C   UNL A   1      43.192  28.613  33.307  1.00  0.00     0.034 A 
BRANCH  49  63
ATOM     63  C   UNL A   1      41.492  26.832  27.643  1.00  0.00     0.023 A 
ATOM     64  C   UNL A   1      42.049  27.448  26.504  1.00  0.00     0.012 A 
ATOM     65  C   UNL A   1      41.304  25.436  27.651  1.00  0.00     0.148 A 
ATOM     66  C   UNL A   1      42.383  26.694  25.380  1.00  0.00     0.002 A 
ATOM     67  C   UNL A   1      41.681  24.684  26.543  1.00  0.00     0.091 A 
ATOM     68  F   UNL A   1      40.756  24.870  28.735  1.00  0.00    -0.205 F 
ATOM     69  C   UNL A   1      42.209  25.312  25.403  1.00  0.00     0.022 A 
BRANCH  67  70
ATOM     70  S   UNL A   1      41.570  22.891  26.504  1.00  0.00     0.127 S 
ATOM     71  O   UNL A   1      42.225  22.529  27.759  1.00  0.00    -0.237 OA
ATOM     72  O   UNL A   1      40.124  22.672  26.486  1.00  0.00    -0.237 OA
ATOM     73  O   UNL A   1      42.263  22.473  25.294  1.00  0.00    -0.744 OA
ENDBRANCH  67  70
ENDBRANCH  49  63
BRANCH  50  74
ATOM     74  C   UNL A   1      38.837  32.070  35.712  1.00  0.00     0.023 A 
ATOM     75  C   UNL A   1      39.124  33.445  35.811  1.00  0.00     0.012 A 
ATOM     76  C   UNL A   1      38.156  31.433  36.767  1.00  0.00     0.148 A 
ATOM     77  C   UNL A   1      38.772  34.166  36.953  1.00  0.00     0.002 A 
ATOM     78  C   UNL A   1      37.759  32.168  37.878  1.00  0.00     0.091 A 
ATOM     79  F   UNL A   1      37.904  30.121  36.659  1.00  0.00    -0.205 F 
ATOM     80  C   UNL A   1      38.081  33.530  37.981  1.00  0.00     0.022 A 
BRANCH  78  81
ATOM     81  S   UNL A   1      36.758  31.461  39.192  1.00  0.00     0.127 S 
ATOM     82  O   UNL A   1      37.627  31.629  40.353  1.00  0.00    -0.237 OA
ATOM     83  O   UNL A   1      35.579  32.326  39.173  1.00  0.00    -0.237 OA
ATOM     84  O   UNL A   1      36.500  30.084  38.788  1.00  0.00    -0.744 OA
ENDBRANCH  78  81
ENDBRANCH  50  74
BRANCH  62  85
ATOM     85  C   UNL A   1      44.443  28.250  34.064  1.00  0.00     0.023 A 
ATOM     86  C   UNL A   1      45.570  29.092  34.001  1.00  0.00     0.012 A 
ATOM     87  C   UNL A   1      44.475  27.113  34.895  1.00  0.00     0.148 A 
ATOM     88  C   UNL A   1      46.721  28.791  34.729  1.00  0.00     0.002 A 
ATOM     89  C   UNL A   1      45.607  26.846  35.657  1.00  0.00     0.091 A 
ATOM     90  F   UNL A   1      43.400  26.313  34.928  1.00  0.00    -0.205 F 
ATOM     91  C   UNL A   1      46.735  27.678  35.566  1.00  0.00     0.022 A 
BRANCH  89  92
ATOM     92  S   UNL A   1      45.678  25.492  36.834  1.00  0.00     0.127 S 
ATOM     93  O   UNL A   1      45.771  24.332  35.949  1.00  0.00    -0.237 OA
ATOM     94  O   UNL A   1      46.904  25.791  37.577  1.00  0.00    -0.237 OA
ATOM     95  O   UNL A   1      44.457  25.582  37.624  1.00  0.00    -0.744 OA
ENDBRANCH  89  92
ENDBRANCH  62  85
ENDBRANCH  36  37
ENDBRANCH  28  31
ENDBRANCH  26  27
ENDBRANCH  25  26
ENDBRANCH   1  25
TORSDOF 17
ENDMDL
