MODEL 1
REMARK VINA RESULT:     -10.9      0.000      0.000
REMARK SMILES O=C(NCCCCCCNC(=O)c1ccc(CNC(=O)c2cccnc2)o1)c1ccc(-c2c3nc(c(-c4cccc(S(=O)(=O)[O-])c4F)c4ccc([nH]4)c(-c4cccc(S(=O)(=O)[O-])c4F)c4nc(c(-c5cccc(S(=O)(=O)[O-])c5F)c5ccc2[nH]5)C=C4)C=C3)cc1
REMARK SMILES IDX 6 1 5 2 4 3 3 4 1 5 2 6 28 8 29 9 90 10 30 11 89 12 31 13
REMARK SMILES IDX 32 14 33 15 83 16 34 17 88 18 82 19 84 20 35 21 87 22 81 23
REMARK SMILES IDX 80 24 36 26 68 27 48 28 67 29 49 30 52 31 66 32 85 33 50 34
REMARK SMILES IDX 51 35 65 37 86 38 53 39 37 40 38 41 46 42 39 43 41 44 47 45
REMARK SMILES IDX 40 46 42 47 43 48 44 49 45 50 69 51 70 52 78 53 71 54 73 55
REMARK SMILES IDX 79 56 72 57 74 58 75 59 76 60 77 61 54 62 55 63 63 64 56 65
REMARK SMILES IDX 58 66 64 67 57 68 59 69 60 70 61 71 62 72 7 73 8 74 9 75
REMARK SMILES IDX 10 76 11 77 12 79 13 80 14 81 27 82 15 83 16 84 17 85 18 86
REMARK SMILES IDX 19 87 20 89 21 90 22 91 26 92 23 93 25 94 24 95
REMARK H PARENT 3 7 84 25 52 36 10 78 18 88
REMARK Flexibility Score: inf
ROOT
ATOM      1  C   UNL A   1      31.479  27.855  25.949  1.00  0.00     0.002 C 
ENDROOT
BRANCH   1   2
ATOM      2  C   UNL A   1      32.986  28.038  25.758  1.00  0.00     0.021 C 
BRANCH   2   3
ATOM      3  C   UNL A   1      33.403  29.338  25.078  1.00  0.00     0.116 C 
BRANCH   3   4
ATOM      4  N   UNL A   1      32.770  30.504  25.668  1.00  0.00    -0.352 N 
ATOM      5  O   UNL A   1      32.339  32.045  27.251  1.00  0.00    -0.269 OA
ATOM      6  C   UNL A   1      33.091  31.173  26.825  1.00  0.00     0.251 C 
ATOM      7  H   UNL A   1      32.003  30.867  25.169  1.00  0.00     0.163 HD
BRANCH   6   8
ATOM      8  C   UNL A   1      34.327  30.824  27.566  1.00  0.00     0.039 A 
ATOM      9  C   UNL A   1      34.469  29.578  28.181  1.00  0.00     0.014 A 
ATOM     10  C   UNL A   1      35.367  31.756  27.626  1.00  0.00     0.014 A 
ATOM     11  C   UNL A   1      35.596  29.311  28.955  1.00  0.00     0.010 A 
ATOM     12  C   UNL A   1      36.529  31.459  28.345  1.00  0.00     0.010 A 
ATOM     13  C   UNL A   1      36.642  30.243  29.039  1.00  0.00    -0.014 A 
BRANCH  13  14
ATOM     14  C   UNL A   1      37.876  29.895  29.787  1.00  0.00     0.031 A 
ATOM     15  C   UNL A   1      38.135  30.432  31.168  1.00  0.00     0.074 A 
ATOM     16  C   UNL A   1      38.780  29.086  29.198  1.00  0.00     0.049 A 
ATOM     17  N   UNL A   1      39.147  30.196  31.964  1.00  0.00    -0.248 NA
ATOM     18  C   UNL A   1      37.136  31.356  31.730  1.00  0.00     0.031 C 
ATOM     19  C   UNL A   1      38.666  28.549  27.840  1.00  0.00     0.029 A 
ATOM     20  N   UNL A   1      39.970  28.581  29.656  1.00  0.00    -0.354 N 
ATOM     21  C   UNL A   1      38.930  30.965  33.100  1.00  0.00     0.074 A 
ATOM     22  C   UNL A   1      37.689  31.681  32.893  1.00  0.00     0.031 C 
ATOM     23  C   UNL A   1      39.729  27.775  27.582  1.00  0.00     0.029 A 
ATOM     24  C   UNL A   1      40.620  27.791  28.736  1.00  0.00     0.049 A 
ATOM     25  H   UNL A   1      40.324  28.765  30.555  1.00  0.00     0.167 HD
ATOM     26  C   UNL A   1      39.685  31.051  34.222  1.00  0.00     0.034 A 
ATOM     27  C   UNL A   1      41.805  27.155  28.809  1.00  0.00     0.034 A 
ATOM     28  C   UNL A   1      40.897  30.306  34.441  1.00  0.00     0.049 A 
ATOM     29  C   UNL A   1      42.601  27.240  30.080  1.00  0.00     0.074 A 
ATOM     30  C   UNL A   1      41.693  30.272  35.574  1.00  0.00     0.029 A 
ATOM     31  N   UNL A   1      41.493  29.469  33.511  1.00  0.00    -0.354 N 
ATOM     32  N   UNL A   1      42.301  27.855  31.198  1.00  0.00    -0.248 NA
ATOM     33  C   UNL A   1      43.881  26.520  30.111  1.00  0.00     0.031 C 
ATOM     34  C   UNL A   1      42.775  29.422  35.325  1.00  0.00     0.029 A 
ATOM     35  C   UNL A   1      42.649  28.919  34.040  1.00  0.00     0.049 A 
ATOM     36  H   UNL A   1      41.147  29.292  32.606  1.00  0.00     0.167 HD
ATOM     37  C   UNL A   1      43.344  27.580  32.074  1.00  0.00     0.074 A 
ATOM     38  C   UNL A   1      44.268  26.717  31.365  1.00  0.00     0.031 C 
ATOM     39  C   UNL A   1      43.531  28.020  33.342  1.00  0.00     0.034 A 
BRANCH  26  40
ATOM     40  C   UNL A   1      39.201  31.943  35.334  1.00  0.00     0.023 A 
ATOM     41  C   UNL A   1      38.293  31.431  36.282  1.00  0.00     0.012 A 
ATOM     42  C   UNL A   1      39.709  33.247  35.497  1.00  0.00     0.148 A 
ATOM     43  C   UNL A   1      37.884  32.207  37.366  1.00  0.00     0.002 A 
ATOM     44  C   UNL A   1      39.322  34.003  36.598  1.00  0.00     0.091 A 
ATOM     45  F   UNL A   1      40.556  33.724  34.574  1.00  0.00    -0.205 F 
ATOM     46  C   UNL A   1      38.407  33.487  37.530  1.00  0.00     0.022 A 
BRANCH  44  47
ATOM     47  S   UNL A   1      39.992  35.636  36.935  1.00  0.00     0.127 S 
ATOM     48  O   UNL A   1      39.305  35.985  38.178  1.00  0.00    -0.237 OA
ATOM     49  O   UNL A   1      41.422  35.360  37.087  1.00  0.00    -0.237 OA
ATOM     50  O   UNL A   1      39.653  36.453  35.779  1.00  0.00    -0.744 OA
ENDBRANCH  44  47
ENDBRANCH  26  40
BRANCH  27  51
ATOM     51  C   UNL A   1      42.272  26.335  27.657  1.00  0.00     0.023 A 
ATOM     52  C   UNL A   1      43.168  26.897  26.727  1.00  0.00     0.012 A 
ATOM     53  C   UNL A   1      41.880  24.991  27.508  1.00  0.00     0.148 A 
ATOM     54  C   UNL A   1      43.651  26.139  25.660  1.00  0.00     0.002 A 
ATOM     55  C   UNL A   1      42.411  24.225  26.477  1.00  0.00     0.091 A 
ATOM     56  F   UNL A   1      41.009  24.479  28.389  1.00  0.00    -0.205 F 
ATOM     57  C   UNL A   1      43.284  24.800  25.542  1.00  0.00     0.022 A 
BRANCH  55  58
ATOM     58  S   UNL A   1      42.099  22.460  26.358  1.00  0.00     0.127 S 
ATOM     59  O   UNL A   1      40.647  22.419  26.224  1.00  0.00    -0.237 OA
ATOM     60  O   UNL A   1      42.840  22.094  25.150  1.00  0.00    -0.237 OA
ATOM     61  O   UNL A   1      42.649  21.895  27.584  1.00  0.00    -0.744 OA
ENDBRANCH  55  58
ENDBRANCH  27  51
BRANCH  39  62
ATOM     62  C   UNL A   1      44.775  27.566  34.055  1.00  0.00     0.023 A 
ATOM     63  C   UNL A   1      45.942  28.351  33.978  1.00  0.00     0.012 A 
ATOM     64  C   UNL A   1      44.772  26.405  34.851  1.00  0.00     0.148 A 
ATOM     65  C   UNL A   1      47.096  27.973  34.663  1.00  0.00     0.002 A 
ATOM     66  C   UNL A   1      45.914  26.056  35.563  1.00  0.00     0.091 A 
ATOM     67  F   UNL A   1      43.659  25.658  34.892  1.00  0.00    -0.205 F 
ATOM     68  C   UNL A   1      47.079  26.833  35.463  1.00  0.00     0.022 A 
BRANCH  66  69
ATOM     69  S   UNL A   1      45.946  24.652  36.683  1.00  0.00     0.127 S 
ATOM     70  O   UNL A   1      45.832  23.528  35.755  1.00  0.00    -0.237 OA
ATOM     71  O   UNL A   1      47.257  24.785  37.319  1.00  0.00    -0.237 OA
ATOM     72  O   UNL A   1      44.820  24.841  37.587  1.00  0.00    -0.744 OA
ENDBRANCH  66  69
ENDBRANCH  39  62
ENDBRANCH  13  14
ENDBRANCH   6   8
ENDBRANCH   3   4
ENDBRANCH   2   3
ENDBRANCH   1   2
BRANCH   1  73
ATOM     73  C   UNL A   1      31.062  26.691  26.853  1.00  0.00     0.002 C 
BRANCH  73  74
ATOM     74  C   UNL A   1      30.838  25.348  26.148  1.00  0.00     0.021 C 
BRANCH  74  75
ATOM     75  C   UNL A   1      32.098  24.510  25.927  1.00  0.00     0.116 C 
BRANCH  75  76
ATOM     76  N   UNL A   1      31.910  23.515  24.887  1.00  0.00    -0.349 N 
ATOM     77  C   UNL A   1      31.812  23.704  23.528  1.00  0.00     0.286 C 
ATOM     78  H   UNL A   1      31.843  22.582  25.195  1.00  0.00     0.163 HD
ATOM     79  O   UNL A   1      31.470  22.745  22.834  1.00  0.00    -0.266 OA
BRANCH  77  80
ATOM     80  C   UNL A   1      32.118  25.010  22.994  1.00  0.00     0.191 A 
ATOM     81  C   UNL A   1      33.293  25.575  22.531  1.00  0.00     0.056 A 
ATOM     82  O   UNL A   1      31.110  25.928  22.912  1.00  0.00    -0.454 OA
ATOM     83  C   UNL A   1      32.989  26.911  22.173  1.00  0.00     0.048 A 
ATOM     84  C   UNL A   1      31.650  27.088  22.440  1.00  0.00     0.124 A 
BRANCH  84  85
ATOM     85  C   UNL A   1      30.739  28.254  22.376  1.00  0.00     0.191 C 
BRANCH  85  86
ATOM     86  N   UNL A   1      29.416  27.868  22.823  1.00  0.00    -0.345 N 
ATOM     87  C   UNL A   1      28.302  28.649  22.983  1.00  0.00     0.253 C 
ATOM     88  H   UNL A   1      29.303  26.915  23.041  1.00  0.00     0.164 HD
ATOM     89  O   UNL A   1      27.290  28.187  23.501  1.00  0.00    -0.269 OA
BRANCH  87  90
ATOM     90  C   UNL A   1      28.307  30.057  22.553  1.00  0.00     0.058 A 
ATOM     91  C   UNL A   1      28.029  30.453  21.244  1.00  0.00     0.017 A 
ATOM     92  C   UNL A   1      28.559  31.041  23.499  1.00  0.00     0.124 A 
ATOM     93  C   UNL A   1      28.078  31.808  20.921  1.00  0.00     0.021 A 
ATOM     94  N   UNL A   1      28.604  32.366  23.213  1.00  0.00    -0.264 NA
ATOM     95  C   UNL A   1      28.373  32.716  21.928  1.00  0.00     0.111 A 
ENDBRANCH  87  90
ENDBRANCH  85  86
ENDBRANCH  84  85
ENDBRANCH  77  80
ENDBRANCH  75  76
ENDBRANCH  74  75
ENDBRANCH  73  74
ENDBRANCH   1  73
TORSDOF 19
ENDMDL
MODEL 2
REMARK VINA RESULT:     -10.8      2.310      4.915
REMARK SMILES O=C(NCCCCCCNC(=O)c1ccc(CNC(=O)c2cccnc2)o1)c1ccc(-c2c3nc(c(-c4cccc(S(=O)(=O)[O-])c4F)c4ccc([nH]4)c(-c4cccc(S(=O)(=O)[O-])c4F)c4nc(c(-c5cccc(S(=O)(=O)[O-])c5F)c5ccc2[nH]5)C=C4)C=C3)cc1
REMARK SMILES IDX 6 1 5 2 4 3 3 4 1 5 2 6 28 8 29 9 90 10 30 11 89 12 31 13
REMARK SMILES IDX 32 14 33 15 83 16 34 17 88 18 82 19 84 20 35 21 87 22 81 23
REMARK SMILES IDX 80 24 36 26 68 27 48 28 67 29 49 30 52 31 66 32 85 33 50 34
REMARK SMILES IDX 51 35 65 37 86 38 53 39 37 40 38 41 46 42 39 43 41 44 47 45
REMARK SMILES IDX 40 46 42 47 43 48 44 49 45 50 69 51 70 52 78 53 71 54 73 55
REMARK SMILES IDX 79 56 72 57 74 58 75 59 76 60 77 61 54 62 55 63 63 64 56 65
REMARK SMILES IDX 58 66 64 67 57 68 59 69 60 70 61 71 62 72 7 73 8 74 9 75
REMARK SMILES IDX 10 76 11 77 12 79 13 80 14 81 27 82 15 83 16 84 17 85 18 86
REMARK SMILES IDX 19 87 20 89 21 90 22 91 26 92 23 93 25 94 24 95
REMARK H PARENT 3 7 84 25 52 36 10 78 18 88
REMARK Flexibility Score: inf
ROOT
ATOM      1  C   UNL A   1      32.406  27.123  26.482  1.00  0.00     0.002 C 
ENDROOT
BRANCH   1   2
ATOM      2  C   UNL A   1      31.835  28.399  25.862  1.00  0.00     0.021 C 
BRANCH   2   3
ATOM      3  C   UNL A   1      32.863  29.470  25.511  1.00  0.00     0.116 C 
BRANCH   3   4
ATOM      4  N   UNL A   1      32.435  30.802  25.899  1.00  0.00    -0.352 N 
ATOM      5  O   UNL A   1      32.339  32.654  27.173  1.00  0.00    -0.269 OA
ATOM      6  C   UNL A   1      32.936  31.622  26.881  1.00  0.00     0.251 C 
ATOM      7  H   UNL A   1      31.679  31.170  25.386  1.00  0.00     0.163 HD
BRANCH   6   8
ATOM      8  C   UNL A   1      34.177  31.248  27.600  1.00  0.00     0.039 A 
ATOM      9  C   UNL A   1      34.377  29.943  28.059  1.00  0.00     0.014 A 
ATOM     10  C   UNL A   1      35.165  32.217  27.798  1.00  0.00     0.014 A 
ATOM     11  C   UNL A   1      35.504  29.639  28.818  1.00  0.00     0.010 A 
ATOM     12  C   UNL A   1      36.330  31.892  28.500  1.00  0.00     0.010 A 
ATOM     13  C   UNL A   1      36.497  30.607  29.040  1.00  0.00    -0.014 A 
BRANCH  13  14
ATOM     14  C   UNL A   1      37.737  30.232  29.766  1.00  0.00     0.031 A 
ATOM     15  C   UNL A   1      38.019  30.739  31.153  1.00  0.00     0.074 A 
ATOM     16  C   UNL A   1      38.625  29.425  29.151  1.00  0.00     0.049 A 
ATOM     17  N   UNL A   1      39.037  30.479  31.932  1.00  0.00    -0.248 NA
ATOM     18  C   UNL A   1      37.037  31.664  31.745  1.00  0.00     0.031 C 
ATOM     19  C   UNL A   1      38.488  28.914  27.784  1.00  0.00     0.029 A 
ATOM     20  N   UNL A   1      39.815  28.898  29.584  1.00  0.00    -0.354 N 
ATOM     21  C   UNL A   1      38.843  31.228  33.085  1.00  0.00     0.074 A 
ATOM     22  C   UNL A   1      37.607  31.961  32.907  1.00  0.00     0.031 C 
ATOM     23  C   UNL A   1      39.540  28.134  27.498  1.00  0.00     0.029 A 
ATOM     24  C   UNL A   1      40.445  28.119  28.642  1.00  0.00     0.049 A 
ATOM     25  H   UNL A   1      40.182  29.062  30.482  1.00  0.00     0.167 HD
ATOM     26  C   UNL A   1      39.613  31.285  34.199  1.00  0.00     0.034 A 
ATOM     27  C   UNL A   1      41.624  27.469  28.688  1.00  0.00     0.034 A 
ATOM     28  C   UNL A   1      40.819  30.523  34.389  1.00  0.00     0.049 A 
ATOM     29  C   UNL A   1      42.436  27.522  29.950  1.00  0.00     0.074 A 
ATOM     30  C   UNL A   1      41.628  30.460  35.511  1.00  0.00     0.029 A 
ATOM     31  N   UNL A   1      41.395  29.698  33.436  1.00  0.00    -0.354 N 
ATOM     32  N   UNL A   1      42.157  28.119  31.083  1.00  0.00    -0.248 NA
ATOM     33  C   UNL A   1      43.709  26.788  29.952  1.00  0.00     0.031 C 
ATOM     34  C   UNL A   1      42.698  29.603  35.232  1.00  0.00     0.029 A 
ATOM     35  C   UNL A   1      42.551  29.125  33.939  1.00  0.00     0.049 A 
ATOM     36  H   UNL A   1      41.036  29.541  32.532  1.00  0.00     0.167 HD
ATOM     37  C   UNL A   1      43.208  27.816  31.940  1.00  0.00     0.074 A 
ATOM     38  C   UNL A   1      44.114  26.958  31.204  1.00  0.00     0.031 C 
ATOM     39  C   UNL A   1      43.415  28.230  33.214  1.00  0.00     0.034 A 
BRANCH  26  40
ATOM     40  C   UNL A   1      39.152  32.161  35.333  1.00  0.00     0.023 A 
ATOM     41  C   UNL A   1      38.241  31.644  36.276  1.00  0.00     0.012 A 
ATOM     42  C   UNL A   1      39.685  33.452  35.521  1.00  0.00     0.148 A 
ATOM     43  C   UNL A   1      37.853  32.404  37.379  1.00  0.00     0.002 A 
ATOM     44  C   UNL A   1      39.318  34.190  36.641  1.00  0.00     0.091 A 
ATOM     45  F   UNL A   1      40.533  33.933  34.603  1.00  0.00    -0.205 F 
ATOM     46  C   UNL A   1      38.400  33.670  37.568  1.00  0.00     0.022 A 
BRANCH  44  47
ATOM     47  S   UNL A   1      40.020  35.803  37.009  1.00  0.00     0.127 S 
ATOM     48  O   UNL A   1      41.439  35.480  37.154  1.00  0.00    -0.237 OA
ATOM     49  O   UNL A   1      39.690  36.567  35.804  1.00  0.00    -0.237 OA
ATOM     50  O   UNL A   1      39.353  36.262  38.218  1.00  0.00    -0.744 OA
ENDBRANCH  44  47
ENDBRANCH  26  40
BRANCH  27  51
ATOM     51  C   UNL A   1      42.068  26.666  27.515  1.00  0.00     0.023 A 
ATOM     52  C   UNL A   1      42.820  27.285  26.499  1.00  0.00     0.012 A 
ATOM     53  C   UNL A   1      41.799  25.287  27.427  1.00  0.00     0.148 A 
ATOM     54  C   UNL A   1      43.282  26.548  25.407  1.00  0.00     0.002 A 
ATOM     55  C   UNL A   1      42.311  24.548  26.368  1.00  0.00     0.091 A 
ATOM     56  F   UNL A   1      41.061  24.718  28.391  1.00  0.00    -0.205 F 
ATOM     57  C   UNL A   1      43.039  25.178  25.349  1.00  0.00     0.022 A 
BRANCH  55  58
ATOM     58  S   UNL A   1      42.165  22.758  26.311  1.00  0.00     0.127 S 
ATOM     59  O   UNL A   1      42.866  22.360  27.528  1.00  0.00    -0.237 OA
ATOM     60  O   UNL A   1      40.714  22.563  26.344  1.00  0.00    -0.237 OA
ATOM     61  O   UNL A   1      42.786  22.367  25.053  1.00  0.00    -0.744 OA
ENDBRANCH  55  58
ENDBRANCH  27  51
BRANCH  39  62
ATOM     62  C   UNL A   1      44.663  27.751  33.903  1.00  0.00     0.023 A 
ATOM     63  C   UNL A   1      45.833  28.532  33.839  1.00  0.00     0.012 A 
ATOM     64  C   UNL A   1      44.660  26.567  34.666  1.00  0.00     0.148 A 
ATOM     65  C   UNL A   1      46.991  28.129  34.502  1.00  0.00     0.002 A 
ATOM     66  C   UNL A   1      45.807  26.193  35.357  1.00  0.00     0.091 A 
ATOM     67  F   UNL A   1      43.544  25.824  34.694  1.00  0.00    -0.205 F 
ATOM     68  C   UNL A   1      46.975  26.966  35.269  1.00  0.00     0.022 A 
BRANCH  66  69
ATOM     69  S   UNL A   1      45.841  24.756  36.435  1.00  0.00     0.127 S 
ATOM     70  O   UNL A   1      45.093  23.776  35.651  1.00  0.00    -0.237 OA
ATOM     71  O   UNL A   1      47.275  24.480  36.548  1.00  0.00    -0.237 OA
ATOM     72  O   UNL A   1      45.214  25.180  37.679  1.00  0.00    -0.744 OA
ENDBRANCH  66  69
ENDBRANCH  39  62
ENDBRANCH  13  14
ENDBRANCH   6   8
ENDBRANCH   3   4
ENDBRANCH   2   3
ENDBRANCH   1   2
BRANCH   1  73
ATOM     73  C   UNL A   1      33.852  26.791  26.103  1.00  0.00     0.002 C 
BRANCH  73  74
ATOM     74  C   UNL A   1      34.085  25.388  25.528  1.00  0.00     0.021 C 
BRANCH  74  75
ATOM     75  C   UNL A   1      34.129  25.308  24.002  1.00  0.00     0.116 C 
BRANCH  75  76
ATOM     76  N   UNL A   1      32.858  25.674  23.404  1.00  0.00    -0.349 N 
ATOM     77  C   UNL A   1      31.701  24.933  23.328  1.00  0.00     0.286 C 
ATOM     78  H   UNL A   1      32.818  26.571  22.999  1.00  0.00     0.163 HD
ATOM     79  O   UNL A   1      30.789  25.356  22.616  1.00  0.00    -0.266 OA
BRANCH  77  80
ATOM     80  C   UNL A   1      31.622  23.706  24.086  1.00  0.00     0.191 A 
ATOM     81  C   UNL A   1      30.959  23.375  25.254  1.00  0.00     0.056 A 
ATOM     82  O   UNL A   1      32.323  22.622  23.639  1.00  0.00    -0.454 OA
ATOM     83  C   UNL A   1      31.292  22.030  25.545  1.00  0.00     0.048 A 
ATOM     84  C   UNL A   1      32.141  21.617  24.542  1.00  0.00     0.124 A 
BRANCH  84  85
ATOM     85  C   UNL A   1      32.908  20.373  24.299  1.00  0.00     0.191 C 
BRANCH  85  86
ATOM     86  N   UNL A   1      32.390  19.700  23.124  1.00  0.00    -0.345 N 
ATOM     87  C   UNL A   1      32.443  18.369  22.805  1.00  0.00     0.253 C 
ATOM     88  H   UNL A   1      31.939  20.279  22.468  1.00  0.00     0.164 HD
ATOM     89  O   UNL A   1      32.070  17.981  21.701  1.00  0.00    -0.269 OA
BRANCH  87  90
ATOM     90  C   UNL A   1      32.961  17.387  23.772  1.00  0.00     0.058 A 
ATOM     91  C   UNL A   1      32.249  16.983  24.901  1.00  0.00     0.017 A 
ATOM     92  C   UNL A   1      34.197  16.804  23.529  1.00  0.00     0.124 A 
ATOM     93  C   UNL A   1      32.827  16.064  25.775  1.00  0.00     0.021 A 
ATOM     94  N   UNL A   1      34.778  15.902  24.359  1.00  0.00    -0.264 NA
ATOM     95  C   UNL A   1      34.083  15.562  25.467  1.00  0.00     0.111 A 
ENDBRANCH  87  90
ENDBRANCH  85  86
ENDBRANCH  84  85
ENDBRANCH  77  80
ENDBRANCH  75  76
ENDBRANCH  74  75
ENDBRANCH  73  74
ENDBRANCH   1  73
TORSDOF 19
ENDMDL
MODEL 3
REMARK VINA RESULT:     -10.7      1.402      7.621
REMARK SMILES O=C(NCCCCCCNC(=O)c1ccc(CNC(=O)c2cccnc2)o1)c1ccc(-c2c3nc(c(-c4cccc(S(=O)(=O)[O-])c4F)c4ccc([nH]4)c(-c4cccc(S(=O)(=O)[O-])c4F)c4nc(c(-c5cccc(S(=O)(=O)[O-])c5F)c5ccc2[nH]5)C=C4)C=C3)cc1
REMARK SMILES IDX 6 1 5 2 4 3 3 4 1 5 2 6 28 8 29 9 90 10 30 11 89 12 31 13
REMARK SMILES IDX 32 14 33 15 83 16 34 17 88 18 82 19 84 20 35 21 87 22 81 23
REMARK SMILES IDX 80 24 36 26 68 27 48 28 67 29 49 30 52 31 66 32 85 33 50 34
REMARK SMILES IDX 51 35 65 37 86 38 53 39 37 40 38 41 46 42 39 43 41 44 47 45
REMARK SMILES IDX 40 46 42 47 43 48 44 49 45 50 69 51 70 52 78 53 71 54 73 55
REMARK SMILES IDX 79 56 72 57 74 58 75 59 76 60 77 61 54 62 55 63 63 64 56 65
REMARK SMILES IDX 58 66 64 67 57 68 59 69 60 70 61 71 62 72 7 73 8 74 9 75
REMARK SMILES IDX 10 76 11 77 12 79 13 80 14 81 27 82 15 83 16 84 17 85 18 86
REMARK SMILES IDX 19 87 20 89 21 90 22 91 26 92 23 93 25 94 24 95
REMARK H PARENT 3 7 84 25 52 36 10 78 18 88
REMARK Flexibility Score: inf
ROOT
ATOM      1  C   UNL A   1      31.583  27.959  25.937  1.00  0.00     0.002 C 
ENDROOT
BRANCH   1   2
ATOM      2  C   UNL A   1      32.977  28.016  25.311  1.00  0.00     0.021 C 
BRANCH   2   3
ATOM      3  C   UNL A   1      33.438  29.402  24.873  1.00  0.00     0.116 C 
BRANCH   3   4
ATOM      4  N   UNL A   1      32.711  30.467  25.539  1.00  0.00    -0.352 N 
ATOM      5  O   UNL A   1      32.138  31.838  27.229  1.00  0.00    -0.269 OA
ATOM      6  C   UNL A   1      32.961  31.060  26.754  1.00  0.00     0.251 C 
ATOM      7  H   UNL A   1      31.929  30.815  25.052  1.00  0.00     0.163 HD
BRANCH   6   8
ATOM      8  C   UNL A   1      34.203  30.740  27.495  1.00  0.00     0.039 A 
ATOM      9  C   UNL A   1      34.427  29.459  28.006  1.00  0.00     0.014 A 
ATOM     10  C   UNL A   1      35.169  31.737  27.662  1.00  0.00     0.014 A 
ATOM     11  C   UNL A   1      35.555  29.209  28.783  1.00  0.00     0.010 A 
ATOM     12  C   UNL A   1      36.335  31.465  28.384  1.00  0.00     0.010 A 
ATOM     13  C   UNL A   1      36.526  30.205  28.974  1.00  0.00    -0.014 A 
BRANCH  13  14
ATOM     14  C   UNL A   1      37.768  29.886  29.723  1.00  0.00     0.031 A 
ATOM     15  C   UNL A   1      38.818  28.976  29.149  1.00  0.00     0.074 A 
ATOM     16  C   UNL A   1      37.938  30.424  30.947  1.00  0.00     0.049 A 
ATOM     17  N   UNL A   1      39.970  28.625  29.662  1.00  0.00    -0.248 NA
ATOM     18  C   UNL A   1      38.544  28.375  27.833  1.00  0.00     0.031 C 
ATOM     19  C   UNL A   1      36.963  31.276  31.632  1.00  0.00     0.029 A 
ATOM     20  N   UNL A   1      38.980  30.333  31.834  1.00  0.00    -0.354 N 
ATOM     21  C   UNL A   1      40.542  27.739  28.758  1.00  0.00     0.074 A 
ATOM     22  C   UNL A   1      39.609  27.600  27.660  1.00  0.00     0.031 C 
ATOM     23  C   UNL A   1      37.459  31.645  32.821  1.00  0.00     0.029 A 
ATOM     24  C   UNL A   1      38.767  31.026  33.003  1.00  0.00     0.049 A 
ATOM     25  H   UNL A   1      39.800  29.820  31.652  1.00  0.00     0.167 HD
ATOM     26  C   UNL A   1      41.742  27.116  28.826  1.00  0.00     0.034 A 
ATOM     27  C   UNL A   1      39.535  31.147  34.103  1.00  0.00     0.034 A 
ATOM     28  C   UNL A   1      42.685  27.289  29.900  1.00  0.00     0.049 A 
ATOM     29  C   UNL A   1      40.877  30.473  34.132  1.00  0.00     0.074 A 
ATOM     30  C   UNL A   1      43.957  26.755  30.022  1.00  0.00     0.029 A 
ATOM     31  N   UNL A   1      42.460  28.047  31.038  1.00  0.00    -0.354 N 
ATOM     32  N   UNL A   1      41.459  29.761  33.200  1.00  0.00    -0.248 NA
ATOM     33  C   UNL A   1      41.679  30.644  35.351  1.00  0.00     0.031 C 
ATOM     34  C   UNL A   1      44.497  27.184  31.240  1.00  0.00     0.029 A 
ATOM     35  C   UNL A   1      43.565  27.992  31.871  1.00  0.00     0.049 A 
ATOM     36  H   UNL A   1      41.636  28.552  31.228  1.00  0.00     0.167 HD
ATOM     37  C   UNL A   1      42.705  29.415  33.708  1.00  0.00     0.074 A 
ATOM     38  C   UNL A   1      42.804  30.023  35.020  1.00  0.00     0.031 C 
ATOM     39  C   UNL A   1      43.671  28.646  33.150  1.00  0.00     0.034 A 
BRANCH  26  40
ATOM     40  C   UNL A   1      42.141  26.223  27.681  1.00  0.00     0.023 A 
ATOM     41  C   UNL A   1      42.941  26.746  26.645  1.00  0.00     0.012 A 
ATOM     42  C   UNL A   1      41.809  24.853  27.674  1.00  0.00     0.148 A 
ATOM     43  C   UNL A   1      43.390  25.927  25.611  1.00  0.00     0.002 A 
ATOM     44  C   UNL A   1      42.288  24.035  26.656  1.00  0.00     0.091 A 
ATOM     45  F   UNL A   1      41.031  24.379  28.656  1.00  0.00    -0.205 F 
ATOM     46  C   UNL A   1      43.074  24.571  25.622  1.00  0.00     0.022 A 
BRANCH  44  47
ATOM     47  S   UNL A   1      41.993  22.263  26.620  1.00  0.00     0.127 S 
ATOM     48  O   UNL A   1      40.537  22.211  26.490  1.00  0.00    -0.237 OA
ATOM     49  O   UNL A   1      42.726  21.851  25.422  1.00  0.00    -0.237 OA
ATOM     50  O   UNL A   1      42.532  21.743  27.868  1.00  0.00    -0.744 OA
ENDBRANCH  44  47
ENDBRANCH  26  40
BRANCH  27  51
ATOM     51  C   UNL A   1      39.067  31.991  35.237  1.00  0.00     0.023 A 
ATOM     52  C   UNL A   1      39.171  33.392  35.144  1.00  0.00     0.012 A 
ATOM     53  C   UNL A   1      38.471  31.421  36.378  1.00  0.00     0.148 A 
ATOM     54  C   UNL A   1      38.705  34.209  36.175  1.00  0.00     0.002 A 
ATOM     55  C   UNL A   1      37.957  32.242  37.374  1.00  0.00     0.091 A 
ATOM     56  F   UNL A   1      38.402  30.085  36.462  1.00  0.00    -0.205 F 
ATOM     57  C   UNL A   1      38.086  33.636  37.283  1.00  0.00     0.022 A 
BRANCH  55  58
ATOM     58  S   UNL A   1      37.015  31.575  38.751  1.00  0.00     0.127 S 
ATOM     59  O   UNL A   1      36.749  30.213  38.302  1.00  0.00    -0.237 OA
ATOM     60  O   UNL A   1      37.965  31.684  39.860  1.00  0.00    -0.237 OA
ATOM     61  O   UNL A   1      35.857  32.451  38.876  1.00  0.00    -0.744 OA
ENDBRANCH  55  58
ENDBRANCH  27  51
BRANCH  39  62
ATOM     62  C   UNL A   1      44.928  28.426  33.947  1.00  0.00     0.023 A 
ATOM     63  C   UNL A   1      46.008  29.317  33.796  1.00  0.00     0.012 A 
ATOM     64  C   UNL A   1      45.015  27.383  34.889  1.00  0.00     0.148 A 
ATOM     65  C   UNL A   1      47.168  29.158  34.552  1.00  0.00     0.002 A 
ATOM     66  C   UNL A   1      46.159  27.256  35.668  1.00  0.00     0.091 A 
ATOM     67  F   UNL A   1      43.986  26.531  35.000  1.00  0.00    -0.205 F 
ATOM     68  C   UNL A   1      47.240  28.136  35.495  1.00  0.00     0.022 A 
BRANCH  66  69
ATOM     69  S   UNL A   1      46.295  26.018  36.963  1.00  0.00     0.127 S 
ATOM     70  O   UNL A   1      47.650  26.252  37.459  1.00  0.00    -0.237 OA
ATOM     71  O   UNL A   1      45.232  26.412  37.889  1.00  0.00    -0.237 OA
ATOM     72  O   UNL A   1      46.076  24.735  36.309  1.00  0.00    -0.744 OA
ENDBRANCH  66  69
ENDBRANCH  39  62
ENDBRANCH  13  14
ENDBRANCH   6   8
ENDBRANCH   3   4
ENDBRANCH   2   3
ENDBRANCH   1   2
BRANCH   1  73
ATOM     73  C   UNL A   1      31.339  26.802  26.910  1.00  0.00     0.002 C 
BRANCH  73  74
ATOM     74  C   UNL A   1      31.042  25.441  26.268  1.00  0.00     0.021 C 
BRANCH  74  75
ATOM     75  C   UNL A   1      32.272  24.611  25.900  1.00  0.00     0.116 C 
BRANCH  75  76
ATOM     76  N   UNL A   1      31.950  23.555  24.958  1.00  0.00    -0.349 N 
ATOM     77  C   UNL A   1      31.713  23.655  23.607  1.00  0.00     0.286 C 
ATOM     78  H   UNL A   1      31.893  22.647  25.336  1.00  0.00     0.163 HD
ATOM     79  O   UNL A   1      31.275  22.663  23.022  1.00  0.00    -0.266 OA
BRANCH  77  80
ATOM     80  C   UNL A   1      31.992  24.912  22.953  1.00  0.00     0.191 A 
ATOM     81  C   UNL A   1      33.103  25.382  22.274  1.00  0.00     0.056 A 
ATOM     82  O   UNL A   1      31.032  25.883  22.979  1.00  0.00    -0.454 OA
ATOM     83  C   UNL A   1      32.812  26.713  21.890  1.00  0.00     0.048 A 
ATOM     84  C   UNL A   1      31.545  26.983  22.357  1.00  0.00     0.124 A 
BRANCH  84  85
ATOM     85  C   UNL A   1      30.695  28.196  22.369  1.00  0.00     0.191 C 
BRANCH  85  86
ATOM     86  N   UNL A   1      29.351  27.849  22.784  1.00  0.00    -0.345 N 
ATOM     87  C   UNL A   1      28.271  28.670  22.971  1.00  0.00     0.253 C 
ATOM     88  H   UNL A   1      29.193  26.892  22.954  1.00  0.00     0.164 HD
ATOM     89  O   UNL A   1      27.233  28.230  23.455  1.00  0.00    -0.269 OA
BRANCH  87  90
ATOM     90  C   UNL A   1      28.344  30.096  22.609  1.00  0.00     0.058 A 
ATOM     91  C   UNL A   1      28.752  31.087  23.501  1.00  0.00     0.017 A 
ATOM     92  C   UNL A   1      28.032  30.468  21.308  1.00  0.00     0.124 A 
ATOM     93  C   UNL A   1      28.770  32.415  23.078  1.00  0.00     0.021 A 
ATOM     94  N   UNL A   1      28.050  31.751  20.869  1.00  0.00    -0.264 NA
ATOM     95  C   UNL A   1      28.408  32.695  21.768  1.00  0.00     0.111 A 
ENDBRANCH  87  90
ENDBRANCH  85  86
ENDBRANCH  84  85
ENDBRANCH  77  80
ENDBRANCH  75  76
ENDBRANCH  74  75
ENDBRANCH  73  74
ENDBRANCH   1  73
TORSDOF 19
ENDMDL
