MODEL 1
REMARK VINA RESULT:     -12.6      0.000      0.000
REMARK SMILES CC(=O)Nc1ccc(/C(=C\c2ccc(S(C)(=O)=O)cc2)C(=O)NCCCCCCNC(=O)c2ccc(-c3c4nc(c(-c5cccc(S(=O)(=O)[O-])c5F)c5ccc([nH]5)c(-c5cccc(S(=O)(=O)[O-])c5F)c5nc(c(-c6cccc(S(=O)(=O)[O-])c6F)c6ccc3[nH]6)C=C5)C=C4)cc2)cc1
REMARK SMILES IDX 27 1 26 2 25 3 24 4 23 5 21 6 22 7 9 9 10 10 8 11 5 12 6 13
REMARK SMILES IDX 97 14 7 15 96 16 4 17 1 18 2 19 3 20 11 22 12 23 20 24 13 25
REMARK SMILES IDX 19 26 14 27 15 28 16 29 17 30 18 31 28 32 29 33 30 34 31 35
REMARK SMILES IDX 32 37 33 38 34 39 95 40 35 41 94 42 36 43 37 44 38 45 88 46
REMARK SMILES IDX 39 47 93 48 87 49 89 50 40 51 92 52 86 53 85 54 41 56 73 57
REMARK SMILES IDX 53 58 72 59 54 60 57 61 71 62 90 63 55 64 56 65 70 67 91 68
REMARK SMILES IDX 58 69 42 70 43 71 51 72 44 73 46 74 52 75 45 76 47 77 48 78
REMARK SMILES IDX 49 79 50 80 74 81 75 82 83 83 76 84 78 85 84 86 77 87 79 88
REMARK SMILES IDX 80 89 81 90 82 91 59 92 60 93 68 94 61 95 63 96 69 97 62 98
REMARK SMILES IDX 64 99 65 100 66 101 67 102
REMARK H PARENT 23 8 4 21 30 36 89 55 57 66
REMARK Flexibility Score: inf
ROOT
ATOM      1  C   UNL A   1      32.780  26.671  26.057  1.00  0.00     0.002 C 
ENDROOT
BRANCH   1   2
ATOM      2  C   UNL A   1      31.686  25.619  25.841  1.00  0.00     0.002 C 
BRANCH   2   3
ATOM      3  C   UNL A   1      30.599  26.017  24.829  1.00  0.00     0.021 C 
BRANCH   3   4
ATOM      4  C   UNL A   1      30.567  25.121  23.586  1.00  0.00     0.116 C 
BRANCH   4   5
ATOM      5  N   UNL A   1      31.718  25.396  22.753  1.00  0.00    -0.352 N 
ATOM      6  C   UNL A   1      32.916  24.807  22.512  1.00  0.00     0.251 C 
ATOM      7  O   UNL A   1      33.604  25.426  21.695  1.00  0.00    -0.269 OA
ATOM      8  H   UNL A   1      31.603  26.219  22.226  1.00  0.00     0.163 HD
BRANCH   6   9
ATOM      9  C   UNL A   1      33.386  23.477  23.107  1.00  0.00     0.047 C 
ATOM     10  C   UNL A   1      32.525  22.431  23.138  1.00  0.00     0.022 C 
BRANCH   9  11
ATOM     11  C   UNL A   1      34.725  23.416  23.808  1.00  0.00    -0.013 A 
ATOM     12  C   UNL A   1      37.056  22.912  25.388  1.00  0.00     0.041 A 
ATOM     13  C   UNL A   1      37.029  22.603  24.027  1.00  0.00     0.027 A 
ATOM     14  C   UNL A   1      35.981  23.608  25.912  1.00  0.00     0.027 A 
ATOM     15  C   UNL A   1      35.893  22.884  23.244  1.00  0.00     0.011 A 
ATOM     16  C   UNL A   1      34.828  23.817  25.149  1.00  0.00     0.011 A 
BRANCH  12  17
ATOM     17  N   UNL A   1      38.171  22.505  26.139  1.00  0.00    -0.326 N 
ATOM     18  C   UNL A   1      39.035  24.702  26.982  1.00  0.00     0.114 C 
ATOM     19  C   UNL A   1      39.132  23.210  26.809  1.00  0.00     0.221 C 
ATOM     20  O   UNL A   1      40.074  22.592  27.315  1.00  0.00    -0.275 OA
ATOM     21  H   UNL A   1      38.283  21.528  26.193  1.00  0.00     0.169 HD
ENDBRANCH  12  17
ENDBRANCH   9  11
BRANCH  10  22
ATOM     22  C   UNL A   1      32.771  21.019  23.468  1.00  0.00    -0.025 A 
ATOM     23  C   UNL A   1      32.153  20.040  22.669  1.00  0.00     0.009 A 
ATOM     24  C   UNL A   1      33.622  20.628  24.505  1.00  0.00     0.009 A 
ATOM     25  C   UNL A   1      32.423  18.686  22.869  1.00  0.00     0.021 A 
ATOM     26  C   UNL A   1      33.899  19.272  24.707  1.00  0.00     0.021 A 
ATOM     27  C   UNL A   1      33.302  18.310  23.885  1.00  0.00     0.067 A 
BRANCH  27  28
ATOM     28  S   UNL A   1      33.744  16.594  24.054  1.00  0.00     0.175 S 
ATOM     29  C   UNL A   1      35.051  16.601  25.251  1.00  0.00     0.163 C 
ATOM     30  O   UNL A   1      32.597  15.915  24.622  1.00  0.00    -0.224 OA
ATOM     31  O   UNL A   1      34.300  16.162  22.784  1.00  0.00    -0.224 OA
ENDBRANCH  27  28
ENDBRANCH  10  22
ENDBRANCH   6   9
ENDBRANCH   4   5
ENDBRANCH   3   4
ENDBRANCH   2   3
ENDBRANCH   1   2
BRANCH   1  32
ATOM     32  C   UNL A   1      32.280  28.119  26.084  1.00  0.00     0.021 C 
BRANCH  32  33
ATOM     33  C   UNL A   1      33.273  29.132  25.525  1.00  0.00     0.116 C 
BRANCH  33  34
ATOM     34  N   UNL A   1      32.909  30.490  25.893  1.00  0.00    -0.352 N 
ATOM     35  C   UNL A   1      33.368  31.261  26.930  1.00  0.00     0.251 C 
ATOM     36  H   UNL A   1      32.237  30.918  25.316  1.00  0.00     0.163 HD
ATOM     37  O   UNL A   1      32.759  32.281  27.243  1.00  0.00    -0.269 OA
BRANCH  35  38
ATOM     38  C   UNL A   1      34.586  30.866  27.668  1.00  0.00     0.039 A 
ATOM     39  C   UNL A   1      35.610  31.803  27.827  1.00  0.00     0.014 A 
ATOM     40  C   UNL A   1      34.741  29.568  28.164  1.00  0.00     0.014 A 
ATOM     41  C   UNL A   1      36.774  31.446  28.507  1.00  0.00     0.010 A 
ATOM     42  C   UNL A   1      35.869  29.238  28.911  1.00  0.00     0.010 A 
ATOM     43  C   UNL A   1      36.908  30.165  29.072  1.00  0.00    -0.014 A 
BRANCH  43  44
ATOM     44  C   UNL A   1      38.131  29.796  29.828  1.00  0.00     0.031 A 
ATOM     45  C   UNL A   1      38.323  30.259  31.247  1.00  0.00     0.074 A 
ATOM     46  C   UNL A   1      39.096  29.082  29.215  1.00  0.00     0.049 A 
ATOM     47  N   UNL A   1      39.315  30.016  32.065  1.00  0.00    -0.248 NA
ATOM     48  C   UNL A   1      37.281  31.129  31.817  1.00  0.00     0.031 C 
ATOM     49  C   UNL A   1      39.067  28.652  27.816  1.00  0.00     0.029 A 
ATOM     50  N   UNL A   1      40.293  28.606  29.685  1.00  0.00    -0.354 N 
ATOM     51  C   UNL A   1      39.035  30.723  33.228  1.00  0.00     0.074 A 
ATOM     52  C   UNL A   1      37.798  31.438  32.998  1.00  0.00     0.031 C 
ATOM     53  C   UNL A   1      40.187  27.964  27.545  1.00  0.00     0.029 A 
ATOM     54  C   UNL A   1      41.023  27.925  28.739  1.00  0.00     0.049 A 
ATOM     55  H   UNL A   1      40.601  28.740  30.610  1.00  0.00     0.167 HD
ATOM     56  C   UNL A   1      39.726  30.752  34.392  1.00  0.00     0.034 A 
ATOM     57  C   UNL A   1      42.231  27.334  28.825  1.00  0.00     0.034 A 
ATOM     58  C   UNL A   1      40.936  30.012  34.629  1.00  0.00     0.049 A 
ATOM     59  C   UNL A   1      42.950  27.335  30.146  1.00  0.00     0.074 A 
ATOM     60  C   UNL A   1      41.664  29.902  35.800  1.00  0.00     0.029 A 
ATOM     61  N   UNL A   1      41.605  29.263  33.672  1.00  0.00    -0.354 N 
ATOM     62  N   UNL A   1      42.585  27.870  31.285  1.00  0.00    -0.248 NA
ATOM     63  C   UNL A   1      44.228  26.610  30.205  1.00  0.00     0.031 C 
ATOM     64  C   UNL A   1      42.789  29.111  35.544  1.00  0.00     0.029 A 
ATOM     65  C   UNL A   1      42.743  28.697  34.223  1.00  0.00     0.049 A 
ATOM     66  H   UNL A   1      41.313  29.149  32.739  1.00  0.00     0.167 HD
ATOM     67  C   UNL A   1      43.567  27.519  32.204  1.00  0.00     0.074 A 
ATOM     68  C   UNL A   1      44.529  26.703  31.493  1.00  0.00     0.031 C 
ATOM     69  C   UNL A   1      43.671  27.853  33.515  1.00  0.00     0.034 A 
BRANCH  56  70
ATOM     70  C   UNL A   1      39.166  31.582  35.520  1.00  0.00     0.023 A 
ATOM     71  C   UNL A   1      38.245  31.007  36.421  1.00  0.00     0.012 A 
ATOM     72  C   UNL A   1      39.591  32.910  35.723  1.00  0.00     0.148 A 
ATOM     73  C   UNL A   1      37.729  31.750  37.483  1.00  0.00     0.002 A 
ATOM     74  C   UNL A   1      39.109  33.629  36.812  1.00  0.00     0.091 A 
ATOM     75  F   UNL A   1      40.449  33.448  34.846  1.00  0.00    -0.205 F 
ATOM     76  C   UNL A   1      38.168  33.055  37.684  1.00  0.00     0.022 A 
BRANCH  74  77
ATOM     77  S   UNL A   1      39.674  35.287  37.205  1.00  0.00     0.127 S 
ATOM     78  O   UNL A   1      38.919  35.574  38.424  1.00  0.00    -0.237 OA
ATOM     79  O   UNL A   1      41.108  35.083  37.409  1.00  0.00    -0.237 OA
ATOM     80  O   UNL A   1      39.334  36.111  36.053  1.00  0.00    -0.744 OA
ENDBRANCH  74  77
ENDBRANCH  56  70
BRANCH  57  81
ATOM     81  C   UNL A   1      42.802  26.637  27.639  1.00  0.00     0.023 A 
ATOM     82  C   UNL A   1      43.415  27.387  26.617  1.00  0.00     0.012 A 
ATOM     83  C   UNL A   1      42.768  25.233  27.535  1.00  0.00     0.148 A 
ATOM     84  C   UNL A   1      43.953  26.755  25.496  1.00  0.00     0.002 A 
ATOM     85  C   UNL A   1      43.358  24.606  26.444  1.00  0.00     0.091 A 
ATOM     86  F   UNL A   1      42.172  24.538  28.514  1.00  0.00    -0.205 F 
ATOM     87  C   UNL A   1      43.933  25.365  25.413  1.00  0.00     0.022 A 
BRANCH  85  88
ATOM     88  S   UNL A   1      43.500  22.820  26.326  1.00  0.00     0.127 S 
ATOM     89  O   UNL A   1      42.592  22.519  25.222  1.00  0.00    -0.237 OA
ATOM     90  O   UNL A   1      44.921  22.650  26.020  1.00  0.00    -0.237 OA
ATOM     91  O   UNL A   1      43.103  22.305  27.629  1.00  0.00    -0.744 OA
ENDBRANCH  85  88
ENDBRANCH  57  81
BRANCH  69  92
ATOM     92  C   UNL A   1      44.849  27.307  34.279  1.00  0.00     0.023 A 
ATOM     93  C   UNL A   1      46.048  28.045  34.350  1.00  0.00     0.012 A 
ATOM     94  C   UNL A   1      44.752  26.081  34.965  1.00  0.00     0.148 A 
ATOM     95  C   UNL A   1      47.145  27.549  35.054  1.00  0.00     0.002 A 
ATOM     96  C   UNL A   1      45.830  25.619  35.711  1.00  0.00     0.091 A 
ATOM     97  F   UNL A   1      43.610  25.382  34.871  1.00  0.00    -0.205 F 
ATOM     98  C   UNL A   1      47.033  26.343  35.742  1.00  0.00     0.022 A 
BRANCH  96  99
ATOM     99  S   UNL A   1      45.739  24.127  36.707  1.00  0.00     0.127 S 
ATOM    100  O   UNL A   1      47.153  23.843  36.947  1.00  0.00    -0.237 OA
ATOM    101  O   UNL A   1      45.001  24.586  37.885  1.00  0.00    -0.237 OA
ATOM    102  O   UNL A   1      45.031  23.147  35.896  1.00  0.00    -0.744 OA
ENDBRANCH  96  99
ENDBRANCH  69  92
ENDBRANCH  43  44
ENDBRANCH  35  38
ENDBRANCH  33  34
ENDBRANCH  32  33
ENDBRANCH   1  32
TORSDOF 20
ENDMDL
MODEL 2
REMARK VINA RESULT:     -12.3      5.038     10.512
REMARK SMILES CC(=O)Nc1ccc(/C(=C\c2ccc(S(C)(=O)=O)cc2)C(=O)NCCCCCCNC(=O)c2ccc(-c3c4nc(c(-c5cccc(S(=O)(=O)[O-])c5F)c5ccc([nH]5)c(-c5cccc(S(=O)(=O)[O-])c5F)c5nc(c(-c6cccc(S(=O)(=O)[O-])c6F)c6ccc3[nH]6)C=C5)C=C4)cc2)cc1
REMARK SMILES IDX 27 1 26 2 25 3 24 4 23 5 21 6 22 7 9 9 10 10 8 11 5 12 6 13
REMARK SMILES IDX 97 14 7 15 96 16 4 17 1 18 2 19 3 20 11 22 12 23 20 24 13 25
REMARK SMILES IDX 19 26 14 27 15 28 16 29 17 30 18 31 28 32 29 33 30 34 31 35
REMARK SMILES IDX 32 37 33 38 34 39 95 40 35 41 94 42 36 43 37 44 38 45 88 46
REMARK SMILES IDX 39 47 93 48 87 49 89 50 40 51 92 52 86 53 85 54 41 56 73 57
REMARK SMILES IDX 53 58 72 59 54 60 57 61 71 62 90 63 55 64 56 65 70 67 91 68
REMARK SMILES IDX 58 69 42 70 43 71 51 72 44 73 46 74 52 75 45 76 47 77 48 78
REMARK SMILES IDX 49 79 50 80 74 81 75 82 83 83 76 84 78 85 84 86 77 87 79 88
REMARK SMILES IDX 80 89 81 90 82 91 59 92 60 93 68 94 61 95 63 96 69 97 62 98
REMARK SMILES IDX 64 99 65 100 66 101 67 102
REMARK H PARENT 23 8 4 21 30 36 89 55 57 66
REMARK Flexibility Score: inf
ROOT
ATOM      1  C   UNL A   1      34.984  23.711  23.986  1.00  0.00     0.002 C 
ENDROOT
BRANCH   1   2
ATOM      2  C   UNL A   1      33.946  23.143  23.011  1.00  0.00     0.002 C 
BRANCH   2   3
ATOM      3  C   UNL A   1      32.636  23.943  22.926  1.00  0.00     0.021 C 
BRANCH   3   4
ATOM      4  C   UNL A   1      31.411  23.162  23.413  1.00  0.00     0.116 C 
BRANCH   4   5
ATOM      5  N   UNL A   1      31.214  23.390  24.829  1.00  0.00    -0.352 N 
ATOM      6  C   UNL A   1      31.043  24.469  25.632  1.00  0.00     0.251 C 
ATOM      7  O   UNL A   1      30.913  24.170  26.824  1.00  0.00    -0.269 OA
ATOM      8  H   UNL A   1      31.200  22.548  25.338  1.00  0.00     0.163 HD
BRANCH   6   9
ATOM      9  C   UNL A   1      30.941  25.921  25.159  1.00  0.00     0.047 C 
ATOM     10  C   UNL A   1      30.154  26.210  24.094  1.00  0.00     0.022 C 
BRANCH   9  11
ATOM     11  C   UNL A   1      31.856  26.960  25.766  1.00  0.00    -0.013 A 
ATOM     12  C   UNL A   1      33.480  29.198  26.503  1.00  0.00     0.041 A 
ATOM     13  C   UNL A   1      32.285  28.925  27.172  1.00  0.00     0.027 A 
ATOM     14  C   UNL A   1      33.928  28.270  25.581  1.00  0.00     0.027 A 
ATOM     15  C   UNL A   1      31.505  27.803  26.830  1.00  0.00     0.011 A 
ATOM     16  C   UNL A   1      33.116  27.200  25.193  1.00  0.00     0.011 A 
BRANCH  12  17
ATOM     17  N   UNL A   1      34.153  30.392  26.810  1.00  0.00    -0.326 N 
ATOM     18  C   UNL A   1      35.942  29.570  28.364  1.00  0.00     0.114 C 
ATOM     19  C   UNL A   1      35.188  30.667  27.661  1.00  0.00     0.221 C 
ATOM     20  O   UNL A   1      35.529  31.844  27.814  1.00  0.00    -0.275 OA
ATOM     21  H   UNL A   1      33.818  31.179  26.322  1.00  0.00     0.169 HD
ENDBRANCH  12  17
ENDBRANCH   9  11
BRANCH  10  22
ATOM     22  C   UNL A   1      29.732  27.515  23.562  1.00  0.00    -0.025 A 
ATOM     23  C   UNL A   1      28.354  27.793  23.520  1.00  0.00     0.009 A 
ATOM     24  C   UNL A   1      30.646  28.487  23.146  1.00  0.00     0.009 A 
ATOM     25  C   UNL A   1      27.895  29.048  23.119  1.00  0.00     0.021 A 
ATOM     26  C   UNL A   1      30.191  29.747  22.746  1.00  0.00     0.021 A 
ATOM     27  C   UNL A   1      28.819  30.022  22.740  1.00  0.00     0.067 A 
BRANCH  27  28
ATOM     28  S   UNL A   1      28.239  31.659  22.353  1.00  0.00     0.175 S 
ATOM     29  C   UNL A   1      27.798  31.566  20.639  1.00  0.00     0.163 C 
ATOM     30  O   UNL A   1      27.037  31.879  23.130  1.00  0.00    -0.224 OA
ATOM     31  O   UNL A   1      29.370  32.562  22.476  1.00  0.00    -0.224 OA
ENDBRANCH  27  28
ENDBRANCH  10  22
ENDBRANCH   6   9
ENDBRANCH   4   5
ENDBRANCH   3   4
ENDBRANCH   2   3
ENDBRANCH   1   2
BRANCH   1  32
ATOM     32  C   UNL A   1      35.050  22.995  25.339  1.00  0.00     0.021 C 
BRANCH  32  33
ATOM     33  C   UNL A   1      36.332  23.261  26.123  1.00  0.00     0.116 C 
BRANCH  33  34
ATOM     34  N   UNL A   1      37.190  22.088  26.148  1.00  0.00    -0.352 N 
ATOM     35  C   UNL A   1      38.558  22.015  26.201  1.00  0.00     0.251 C 
ATOM     36  H   UNL A   1      36.723  21.223  26.123  1.00  0.00     0.163 HD
ATOM     37  O   UNL A   1      39.118  20.951  25.950  1.00  0.00    -0.269 OA
BRANCH  35  38
ATOM     38  C   UNL A   1      39.354  23.209  26.557  1.00  0.00     0.039 A 
ATOM     39  C   UNL A   1      39.219  24.362  25.780  1.00  0.00     0.014 A 
ATOM     40  C   UNL A   1      40.260  23.182  27.621  1.00  0.00     0.014 A 
ATOM     41  C   UNL A   1      39.972  25.495  26.090  1.00  0.00     0.010 A 
ATOM     42  C   UNL A   1      40.950  24.338  27.977  1.00  0.00     0.010 A 
ATOM     43  C   UNL A   1      40.831  25.500  27.202  1.00  0.00    -0.014 A 
BRANCH  43  44
ATOM     44  C   UNL A   1      41.605  26.717  27.555  1.00  0.00     0.031 A 
ATOM     45  C   UNL A   1      43.051  26.848  27.156  1.00  0.00     0.074 A 
ATOM     46  C   UNL A   1      41.017  27.686  28.284  1.00  0.00     0.049 A 
ATOM     47  N   UNL A   1      43.873  27.845  27.360  1.00  0.00    -0.248 NA
ATOM     48  C   UNL A   1      43.662  25.704  26.460  1.00  0.00     0.031 C 
ATOM     49  C   UNL A   1      39.650  27.635  28.808  1.00  0.00     0.029 A 
ATOM     50  N   UNL A   1      41.496  28.894  28.722  1.00  0.00    -0.354 N 
ATOM     51  C   UNL A   1      45.100  27.439  26.848  1.00  0.00     0.074 A 
ATOM     52  C   UNL A   1      44.926  26.089  26.358  1.00  0.00     0.031 C 
ATOM     53  C   UNL A   1      39.397  28.767  29.484  1.00  0.00     0.029 A 
ATOM     54  C   UNL A   1      40.586  29.610  29.464  1.00  0.00     0.049 A 
ATOM     55  H   UNL A   1      42.404  29.217  28.524  1.00  0.00     0.167 HD
ATOM     56  C   UNL A   1      46.259  28.135  26.765  1.00  0.00     0.034 A 
ATOM     57  C   UNL A   1      40.697  30.813  30.061  1.00  0.00     0.034 A 
ATOM     58  C   UNL A   1      46.418  29.490  27.221  1.00  0.00     0.049 A 
ATOM     59  C   UNL A   1      41.977  31.588  29.905  1.00  0.00     0.074 A 
ATOM     60  C   UNL A   1      47.522  30.315  27.102  1.00  0.00     0.029 A 
ATOM     61  N   UNL A   1      45.448  30.217  27.895  1.00  0.00    -0.354 N 
ATOM     62  N   UNL A   1      43.073  31.254  29.269  1.00  0.00    -0.248 NA
ATOM     63  C   UNL A   1      42.019  32.927  30.510  1.00  0.00     0.031 C 
ATOM     64  C   UNL A   1      47.230  31.531  27.731  1.00  0.00     0.029 A 
ATOM     65  C   UNL A   1      45.931  31.477  28.209  1.00  0.00     0.049 A 
ATOM     66  H   UNL A   1      44.547  29.887  28.117  1.00  0.00     0.167 HD
ATOM     67  C   UNL A   1      43.922  32.350  29.367  1.00  0.00     0.074 A 
ATOM     68  C   UNL A   1      43.200  33.369  30.101  1.00  0.00     0.031 C 
ATOM     69  C   UNL A   1      45.188  32.497  28.904  1.00  0.00     0.034 A 
BRANCH  56  70
ATOM     70  C   UNL A   1      47.440  27.458  26.118  1.00  0.00     0.023 A 
ATOM     71  C   UNL A   1      47.642  27.582  24.727  1.00  0.00     0.012 A 
ATOM     72  C   UNL A   1      48.381  26.747  26.889  1.00  0.00     0.148 A 
ATOM     73  C   UNL A   1      48.738  26.980  24.110  1.00  0.00     0.002 A 
ATOM     74  C   UNL A   1      49.496  26.191  26.274  1.00  0.00     0.091 A 
ATOM     75  F   UNL A   1      48.163  26.620  28.205  1.00  0.00    -0.205 F 
ATOM     76  C   UNL A   1      49.669  26.294  24.883  1.00  0.00     0.022 A 
BRANCH  74  77
ATOM     77  S   UNL A   1      50.796  25.358  27.193  1.00  0.00     0.127 S 
ATOM     78  O   UNL A   1      51.692  24.935  26.118  1.00  0.00    -0.237 OA
ATOM     79  O   UNL A   1      51.317  26.436  28.032  1.00  0.00    -0.237 OA
ATOM     80  O   UNL A   1      50.144  24.280  27.923  1.00  0.00    -0.744 OA
ENDBRANCH  74  77
ENDBRANCH  56  70
BRANCH  57  81
ATOM     81  C   UNL A   1      39.540  31.383  30.803  1.00  0.00     0.023 A 
ATOM     82  C   UNL A   1      38.469  31.959  30.092  1.00  0.00     0.012 A 
ATOM     83  C   UNL A   1      39.480  31.329  32.210  1.00  0.00     0.148 A 
ATOM     84  C   UNL A   1      37.377  32.503  30.768  1.00  0.00     0.002 A 
ATOM     85  C   UNL A   1      38.362  31.820  32.874  1.00  0.00     0.091 A 
ATOM     86  F   UNL A   1      40.513  30.785  32.869  1.00  0.00    -0.205 F 
ATOM     87  C   UNL A   1      37.318  32.425  32.157  1.00  0.00     0.022 A 
BRANCH  85  88
ATOM     88  S   UNL A   1      38.141  31.635  34.646  1.00  0.00     0.127 S 
ATOM     89  O   UNL A   1      38.154  30.183  34.801  1.00  0.00    -0.237 OA
ATOM     90  O   UNL A   1      39.323  32.321  35.170  1.00  0.00    -0.237 OA
ATOM     91  O   UNL A   1      36.880  32.294  34.958  1.00  0.00    -0.744 OA
ENDBRANCH  85  88
ENDBRANCH  57  81
BRANCH  69  92
ATOM     92  C   UNL A   1      45.866  33.820  29.144  1.00  0.00     0.023 A 
ATOM     93  C   UNL A   1      46.641  34.016  30.305  1.00  0.00     0.012 A 
ATOM     94  C   UNL A   1      45.772  34.857  28.194  1.00  0.00     0.148 A 
ATOM     95  C   UNL A   1      47.273  35.237  30.538  1.00  0.00     0.002 A 
ATOM     96  C   UNL A   1      46.450  36.051  28.407  1.00  0.00     0.091 A 
ATOM     97  F   UNL A   1      45.015  34.660  27.105  1.00  0.00    -0.205 F 
ATOM     98  C   UNL A   1      47.187  36.249  29.585  1.00  0.00     0.022 A 
BRANCH  96  99
ATOM     99  S   UNL A   1      46.475  37.370  27.187  1.00  0.00     0.127 S 
ATOM    100  O   UNL A   1      47.405  38.320  27.794  1.00  0.00    -0.237 OA
ATOM    101  O   UNL A   1      46.990  36.685  26.001  1.00  0.00    -0.237 OA
ATOM    102  O   UNL A   1      45.099  37.829  27.067  1.00  0.00    -0.744 OA
ENDBRANCH  96  99
ENDBRANCH  69  92
ENDBRANCH  43  44
ENDBRANCH  35  38
ENDBRANCH  33  34
ENDBRANCH  32  33
ENDBRANCH   1  32
TORSDOF 20
ENDMDL
MODEL 3
REMARK VINA RESULT:     -12.3      4.701     10.187
REMARK SMILES CC(=O)Nc1ccc(/C(=C\c2ccc(S(C)(=O)=O)cc2)C(=O)NCCCCCCNC(=O)c2ccc(-c3c4nc(c(-c5cccc(S(=O)(=O)[O-])c5F)c5ccc([nH]5)c(-c5cccc(S(=O)(=O)[O-])c5F)c5nc(c(-c6cccc(S(=O)(=O)[O-])c6F)c6ccc3[nH]6)C=C5)C=C4)cc2)cc1
REMARK SMILES IDX 27 1 26 2 25 3 24 4 23 5 21 6 22 7 9 9 10 10 8 11 5 12 6 13
REMARK SMILES IDX 97 14 7 15 96 16 4 17 1 18 2 19 3 20 11 22 12 23 20 24 13 25
REMARK SMILES IDX 19 26 14 27 15 28 16 29 17 30 18 31 28 32 29 33 30 34 31 35
REMARK SMILES IDX 32 37 33 38 34 39 95 40 35 41 94 42 36 43 37 44 38 45 88 46
REMARK SMILES IDX 39 47 93 48 87 49 89 50 40 51 92 52 86 53 85 54 41 56 73 57
REMARK SMILES IDX 53 58 72 59 54 60 57 61 71 62 90 63 55 64 56 65 70 67 91 68
REMARK SMILES IDX 58 69 42 70 43 71 51 72 44 73 46 74 52 75 45 76 47 77 48 78
REMARK SMILES IDX 49 79 50 80 74 81 75 82 83 83 76 84 78 85 84 86 77 87 79 88
REMARK SMILES IDX 80 89 81 90 82 91 59 92 60 93 68 94 61 95 63 96 69 97 62 98
REMARK SMILES IDX 64 99 65 100 66 101 67 102
REMARK H PARENT 23 8 4 21 30 36 89 55 57 66
REMARK Flexibility Score: inf
ROOT
ATOM      1  C   UNL A   1      35.598  22.664  23.750  1.00  0.00     0.002 C 
ENDROOT
BRANCH   1   2
ATOM      2  C   UNL A   1      34.147  22.671  23.254  1.00  0.00     0.002 C 
BRANCH   2   3
ATOM      3  C   UNL A   1      33.192  21.759  24.041  1.00  0.00     0.021 C 
BRANCH   3   4
ATOM      4  C   UNL A   1      31.810  22.379  24.274  1.00  0.00     0.116 C 
BRANCH   4   5
ATOM      5  N   UNL A   1      31.671  22.758  25.665  1.00  0.00    -0.352 N 
ATOM      6  C   UNL A   1      31.467  23.911  26.349  1.00  0.00     0.251 C 
ATOM      7  O   UNL A   1      31.419  23.746  27.572  1.00  0.00    -0.269 OA
ATOM      8  H   UNL A   1      31.741  21.982  26.266  1.00  0.00     0.163 HD
BRANCH   6   9
ATOM      9  C   UNL A   1      31.241  25.289  25.721  1.00  0.00     0.047 C 
ATOM     10  C   UNL A   1      30.432  25.391  24.639  1.00  0.00     0.022 C 
BRANCH   9  11
ATOM     11  C   UNL A   1      32.063  26.462  26.203  1.00  0.00    -0.013 A 
ATOM     12  C   UNL A   1      33.550  28.866  26.649  1.00  0.00     0.041 A 
ATOM     13  C   UNL A   1      32.296  28.676  27.234  1.00  0.00     0.027 A 
ATOM     14  C   UNL A   1      34.115  27.797  25.977  1.00  0.00     0.027 A 
ATOM     15  C   UNL A   1      31.582  27.478  27.041  1.00  0.00     0.011 A 
ATOM     16  C   UNL A   1      33.372  26.640  25.726  1.00  0.00     0.011 A 
BRANCH  12  17
ATOM     17  N   UNL A   1      34.161  30.124  26.784  1.00  0.00    -0.326 N 
ATOM     18  C   UNL A   1      35.791  29.690  28.639  1.00  0.00     0.114 C 
ATOM     19  C   UNL A   1      35.094  30.600  27.664  1.00  0.00     0.221 C 
ATOM     20  O   UNL A   1      35.391  31.797  27.619  1.00  0.00    -0.275 OA
ATOM     21  H   UNL A   1      33.863  30.787  26.121  1.00  0.00     0.169 HD
ENDBRANCH  12  17
ENDBRANCH   9  11
BRANCH  10  22
ATOM     22  C   UNL A   1      29.901  26.589  23.971  1.00  0.00    -0.025 A 
ATOM     23  C   UNL A   1      28.504  26.727  23.883  1.00  0.00     0.009 A 
ATOM     24  C   UNL A   1      30.727  27.598  23.470  1.00  0.00     0.009 A 
ATOM     25  C   UNL A   1      27.936  27.884  23.351  1.00  0.00     0.021 A 
ATOM     26  C   UNL A   1      30.163  28.762  22.938  1.00  0.00     0.021 A 
ATOM     27  C   UNL A   1      28.772  28.901  22.887  1.00  0.00     0.067 A 
BRANCH  27  28
ATOM     28  S   UNL A   1      28.048  30.427  22.327  1.00  0.00     0.175 S 
ATOM     29  C   UNL A   1      29.346  31.618  22.521  1.00  0.00     0.163 C 
ATOM     30  O   UNL A   1      27.769  30.271  20.914  1.00  0.00    -0.224 OA
ATOM     31  O   UNL A   1      26.983  30.768  23.254  1.00  0.00    -0.224 OA
ENDBRANCH  27  28
ENDBRANCH  10  22
ENDBRANCH   6   9
ENDBRANCH   4   5
ENDBRANCH   3   4
ENDBRANCH   2   3
ENDBRANCH   1   2
BRANCH   1  32
ATOM     32  C   UNL A   1      35.870  23.584  24.944  1.00  0.00     0.021 C 
BRANCH  32  33
ATOM     33  C   UNL A   1      36.135  22.845  26.252  1.00  0.00     0.116 C 
BRANCH  33  34
ATOM     34  N   UNL A   1      37.068  21.747  26.060  1.00  0.00    -0.352 N 
ATOM     35  C   UNL A   1      38.439  21.769  26.027  1.00  0.00     0.251 C 
ATOM     36  H   UNL A   1      36.658  20.862  25.937  1.00  0.00     0.163 HD
ATOM     37  O   UNL A   1      39.050  20.795  25.595  1.00  0.00    -0.269 OA
BRANCH  35  38
ATOM     38  C   UNL A   1      39.176  22.957  26.508  1.00  0.00     0.039 A 
ATOM     39  C   UNL A   1      39.031  24.163  25.818  1.00  0.00     0.014 A 
ATOM     40  C   UNL A   1      40.038  22.877  27.605  1.00  0.00     0.014 A 
ATOM     41  C   UNL A   1      39.729  25.292  26.245  1.00  0.00     0.010 A 
ATOM     42  C   UNL A   1      40.671  24.023  28.079  1.00  0.00     0.010 A 
ATOM     43  C   UNL A   1      40.542  25.238  27.391  1.00  0.00    -0.014 A 
BRANCH  43  44
ATOM     44  C   UNL A   1      41.256  26.448  27.870  1.00  0.00     0.031 A 
ATOM     45  C   UNL A   1      42.700  26.677  27.511  1.00  0.00     0.074 A 
ATOM     46  C   UNL A   1      40.615  27.319  28.674  1.00  0.00     0.049 A 
ATOM     47  N   UNL A   1      43.475  27.684  27.822  1.00  0.00    -0.248 NA
ATOM     48  C   UNL A   1      43.372  25.630  26.724  1.00  0.00     0.031 C 
ATOM     49  C   UNL A   1      39.245  27.162  29.165  1.00  0.00     0.029 A 
ATOM     50  N   UNL A   1      41.034  28.501  29.230  1.00  0.00    -0.354 N 
ATOM     51  C   UNL A   1      44.726  27.380  27.298  1.00  0.00     0.074 A 
ATOM     52  C   UNL A   1      44.619  26.076  26.682  1.00  0.00     0.031 C 
ATOM     53  C   UNL A   1      38.932  28.213  29.939  1.00  0.00     0.029 A 
ATOM     54  C   UNL A   1      40.083  29.105  30.019  1.00  0.00     0.049 A 
ATOM     55  H   UNL A   1      41.931  28.879  29.081  1.00  0.00     0.167 HD
ATOM     56  C   UNL A   1      45.854  28.130  27.302  1.00  0.00     0.034 A 
ATOM     57  C   UNL A   1      40.133  30.251  30.726  1.00  0.00     0.034 A 
ATOM     58  C   UNL A   1      45.947  29.442  27.884  1.00  0.00     0.049 A 
ATOM     59  C   UNL A   1      41.379  31.091  30.667  1.00  0.00     0.074 A 
ATOM     60  C   UNL A   1      47.015  30.321  27.863  1.00  0.00     0.029 A 
ATOM     61  N   UNL A   1      44.936  30.061  28.604  1.00  0.00    -0.354 N 
ATOM     62  N   UNL A   1      42.498  30.863  30.023  1.00  0.00    -0.248 NA
ATOM     63  C   UNL A   1      41.353  32.367  31.394  1.00  0.00     0.031 C 
ATOM     64  C   UNL A   1      46.661  31.459  28.596  1.00  0.00     0.029 A 
ATOM     65  C   UNL A   1      45.358  31.305  29.042  1.00  0.00     0.049 A 
ATOM     66  H   UNL A   1      44.048  29.674  28.778  1.00  0.00     0.167 HD
ATOM     67  C   UNL A   1      43.296  31.981  30.239  1.00  0.00     0.074 A 
ATOM     68  C   UNL A   1      42.520  32.895  31.050  1.00  0.00     0.031 C 
ATOM     69  C   UNL A   1      44.561  32.224  29.815  1.00  0.00     0.034 A 
BRANCH  56  70
ATOM     70  C   UNL A   1      47.073  27.566  26.616  1.00  0.00     0.023 A 
ATOM     71  C   UNL A   1      47.263  27.785  25.235  1.00  0.00     0.012 A 
ATOM     72  C   UNL A   1      48.058  26.871  27.345  1.00  0.00     0.148 A 
ATOM     73  C   UNL A   1      48.393  27.290  24.585  1.00  0.00     0.002 A 
ATOM     74  C   UNL A   1      49.205  26.422  26.699  1.00  0.00     0.091 A 
ATOM     75  F   UNL A   1      47.852  26.653  28.651  1.00  0.00    -0.205 F 
ATOM     76  C   UNL A   1      49.367  26.619  25.317  1.00  0.00     0.022 A 
BRANCH  74  77
ATOM     77  S   UNL A   1      50.556  25.619  27.568  1.00  0.00     0.127 S 
ATOM     78  O   UNL A   1      50.022  24.272  27.763  1.00  0.00    -0.237 OA
ATOM     79  O   UNL A   1      51.644  25.709  26.595  1.00  0.00    -0.237 OA
ATOM     80  O   UNL A   1      50.764  26.390  28.786  1.00  0.00    -0.744 OA
ENDBRANCH  74  77
ENDBRANCH  56  70
BRANCH  57  81
ATOM     81  C   UNL A   1      38.940  30.699  31.497  1.00  0.00     0.023 A 
ATOM     82  C   UNL A   1      38.767  30.272  32.827  1.00  0.00     0.012 A 
ATOM     83  C   UNL A   1      37.993  31.572  30.927  1.00  0.00     0.148 A 
ATOM     84  C   UNL A   1      37.655  30.676  33.565  1.00  0.00     0.002 A 
ATOM     85  C   UNL A   1      36.919  32.019  31.688  1.00  0.00     0.091 A 
ATOM     86  F   UNL A   1      38.170  31.961  29.656  1.00  0.00    -0.205 F 
ATOM     87  C   UNL A   1      36.736  31.557  33.000  1.00  0.00     0.022 A 
BRANCH  85  88
ATOM     88  S   UNL A   1      35.767  33.258  31.086  1.00  0.00     0.127 S 
ATOM     89  O   UNL A   1      34.567  32.462  30.847  1.00  0.00    -0.237 OA
ATOM     90  O   UNL A   1      35.684  34.171  32.227  1.00  0.00    -0.237 OA
ATOM     91  O   UNL A   1      36.390  33.836  29.903  1.00  0.00    -0.744 OA
ENDBRANCH  85  88
ENDBRANCH  57  81
BRANCH  69  92
ATOM     92  C   UNL A   1      45.177  33.547  30.189  1.00  0.00     0.023 A 
ATOM     93  C   UNL A   1      45.915  33.669  31.384  1.00  0.00     0.012 A 
ATOM     94  C   UNL A   1      45.063  34.658  29.332  1.00  0.00     0.148 A 
ATOM     95  C   UNL A   1      46.488  34.889  31.741  1.00  0.00     0.002 A 
ATOM     96  C   UNL A   1      45.684  35.856  29.667  1.00  0.00     0.091 A 
ATOM     97  F   UNL A   1      44.342  34.530  28.208  1.00  0.00    -0.205 F 
ATOM     98  C   UNL A   1      46.383  35.977  30.879  1.00  0.00     0.022 A 
BRANCH  96  99
ATOM     99  S   UNL A   1      45.683  37.277  28.569  1.00  0.00     0.127 S 
ATOM    100  O   UNL A   1      46.100  38.350  29.470  1.00  0.00    -0.237 OA
ATOM    101  O   UNL A   1      46.683  36.898  27.570  1.00  0.00    -0.237 OA
ATOM    102  O   UNL A   1      44.326  37.383  28.054  1.00  0.00    -0.744 OA
ENDBRANCH  96  99
ENDBRANCH  69  92
ENDBRANCH  43  44
ENDBRANCH  35  38
ENDBRANCH  33  34
ENDBRANCH  32  33
ENDBRANCH   1  32
TORSDOF 20
ENDMDL
