MODEL 1
REMARK VINA RESULT:     -10.3      0.000      0.000
REMARK SMILES CC[C@H](C)N(CC)c1cc(C)c(N)c(C(=O)NCCCCCCNC(=O)c2ccc(-c3c4nc(c(-c5cccc(S(=O)(=O)[O-])c5F)c5ccc([nH]5)c(-c5cccc(S(=O)(=O)[O-])c5F)c5nc(c(-c6cccc(S(=O)(=O)[O-])c6F)c6ccc3[nH]6)C=C5)C=C4)cc2)c1
REMARK SMILES IDX 20 1 19 2 18 3 17 4 15 5 16 6 14 8 8 9 9 10 90 11 10 12
REMARK SMILES IDX 11 13 12 14 5 15 3 16 4 17 2 18 1 19 6 20 7 21 13 22 21 25
REMARK SMILES IDX 22 26 23 27 24 28 25 29 26 31 27 32 28 33 89 34 29 35 88 36
REMARK SMILES IDX 30 37 31 38 32 39 82 40 33 41 87 42 81 43 83 44 34 45 86 46
REMARK SMILES IDX 80 47 79 48 35 50 67 51 47 52 66 53 48 54 51 55 65 56 84 57
REMARK SMILES IDX 49 58 50 59 64 61 85 62 52 63 36 64 37 65 45 66 38 67 40 68
REMARK SMILES IDX 46 69 39 70 41 71 42 72 43 73 44 74 68 75 69 76 77 77 70 78
REMARK SMILES IDX 72 79 78 80 71 81 73 82 74 83 75 84 76 85 53 86 54 87 62 88
REMARK SMILES IDX 55 89 57 90 63 91 56 92 58 93 59 94 60 95 61 96
REMARK H PARENT 17 7 13 23 13 24 24 30 83 49 51 60
REMARK Flexibility Score: inf
ROOT
ATOM      1  C   UNL A   1      33.802  28.197  23.559  1.00  0.00     0.002 C 
ENDROOT
BRANCH   1   2
ATOM      2  C   UNL A   1      32.348  27.874  23.190  1.00  0.00     0.021 C 
BRANCH   2   3
ATOM      3  C   UNL A   1      31.362  28.349  24.257  1.00  0.00     0.116 C 
BRANCH   3   4
ATOM      4  N   UNL A   1      30.049  27.805  23.988  1.00  0.00    -0.352 N 
ATOM      5  C   UNL A   1      29.529  26.536  23.995  1.00  0.00     0.253 C 
ATOM      6  O   UNL A   1      28.337  26.459  23.680  1.00  0.00    -0.269 OA
ATOM      7  H   UNL A   1      29.388  28.492  23.747  1.00  0.00     0.163 HD
BRANCH   5   8
ATOM      8  C   UNL A   1      30.283  25.307  24.433  1.00  0.00     0.065 A 
ATOM      9  C   UNL A   1      32.105  23.685  24.120  1.00  0.00     0.038 A 
ATOM     10  C   UNL A   1      31.831  23.179  25.389  1.00  0.00     0.031 A 
ATOM     11  C   UNL A   1      31.274  24.706  23.643  1.00  0.00     0.042 A 
ATOM     12  C   UNL A   1      30.734  23.629  26.142  1.00  0.00    -0.025 A 
ATOM     13  C   UNL A   1      30.362  22.882  27.395  1.00  0.00     0.046 C 
ATOM     14  C   UNL A   1      29.985  24.736  25.697  1.00  0.00     0.047 A 
BRANCH   9  15
ATOM     15  N   UNL A   1      33.133  23.192  23.336  1.00  0.00    -0.369 N 
BRANCH  15  16
ATOM     16  C   UNL A   1      34.562  23.450  23.615  1.00  0.00     0.078 C 
ATOM     17  C   UNL A   1      34.775  24.747  24.393  1.00  0.00     0.031 C 
BRANCH  16  18
ATOM     18  C   UNL A   1      35.290  22.218  24.188  1.00  0.00     0.021 C 
ATOM     19  C   UNL A   1      36.794  22.148  23.967  1.00  0.00     0.006 C 
ENDBRANCH  16  18
ENDBRANCH  15  16
BRANCH  15  20
ATOM     20  C   UNL A   1      32.800  22.544  22.057  1.00  0.00     0.113 C 
ATOM     21  C   UNL A   1      32.043  21.239  22.249  1.00  0.00     0.027 C 
ENDBRANCH  15  20
ENDBRANCH   9  15
BRANCH  14  22
ATOM     22  N   UNL A   1      28.891  25.163  26.454  1.00  0.00    -0.398 N 
ATOM     23  H   UNL A   1      28.296  24.502  26.877  1.00  0.00     0.156 HD
ATOM     24  H   UNL A   1      28.714  26.125  26.565  1.00  0.00     0.156 HD
ENDBRANCH  14  22
ENDBRANCH   5   8
ENDBRANCH   3   4
ENDBRANCH   2   3
ENDBRANCH   1   2
BRANCH   1  25
ATOM     25  C   UNL A   1      33.962  28.916  24.906  1.00  0.00     0.002 C 
BRANCH  25  26
ATOM     26  C   UNL A   1      34.109  27.983  26.111  1.00  0.00     0.021 C 
BRANCH  26  27
ATOM     27  C   UNL A   1      33.499  28.532  27.396  1.00  0.00     0.116 C 
BRANCH  27  28
ATOM     28  N   UNL A   1      33.563  29.986  27.432  1.00  0.00    -0.352 N 
ATOM     29  C   UNL A   1      34.516  30.796  27.996  1.00  0.00     0.251 C 
ATOM     30  H   UNL A   1      32.819  30.453  26.989  1.00  0.00     0.163 HD
ATOM     31  O   UNL A   1      34.287  31.989  28.166  1.00  0.00    -0.269 OA
BRANCH  29  32
ATOM     32  C   UNL A   1      35.815  30.220  28.395  1.00  0.00     0.039 A 
ATOM     33  C   UNL A   1      36.879  30.252  27.492  1.00  0.00     0.014 A 
ATOM     34  C   UNL A   1      35.975  29.639  29.657  1.00  0.00     0.014 A 
ATOM     35  C   UNL A   1      38.121  29.741  27.874  1.00  0.00     0.010 A 
ATOM     36  C   UNL A   1      37.230  29.202  30.062  1.00  0.00     0.010 A 
ATOM     37  C   UNL A   1      38.313  29.237  29.172  1.00  0.00    -0.014 A 
BRANCH  37  38
ATOM     38  C   UNL A   1      39.641  28.745  29.616  1.00  0.00     0.031 A 
ATOM     39  C   UNL A   1      40.386  29.462  30.710  1.00  0.00     0.074 A 
ATOM     40  C   UNL A   1      40.210  27.704  28.978  1.00  0.00     0.049 A 
ATOM     41  N   UNL A   1      41.575  29.213  31.196  1.00  0.00    -0.248 NA
ATOM     42  C   UNL A   1      39.723  30.628  31.319  1.00  0.00     0.031 C 
ATOM     43  C   UNL A   1      39.619  26.976  27.853  1.00  0.00     0.029 A 
ATOM     44  N   UNL A   1      41.423  27.092  29.167  1.00  0.00    -0.354 N 
ATOM     45  C   UNL A   1      41.815  30.207  32.137  1.00  0.00     0.074 A 
ATOM     46  C   UNL A   1      40.665  31.084  32.130  1.00  0.00     0.031 C 
ATOM     47  C   UNL A   1      40.468  26.015  27.456  1.00  0.00     0.029 A 
ATOM     48  C   UNL A   1      41.674  26.077  28.275  1.00  0.00     0.049 A 
ATOM     49  H   UNL A   1      42.055  27.356  29.875  1.00  0.00     0.167 HD
ATOM     50  C   UNL A   1      42.886  30.360  32.953  1.00  0.00     0.034 A 
ATOM     51  C   UNL A   1      42.758  25.292  28.125  1.00  0.00     0.034 A 
ATOM     52  C   UNL A   1      44.009  29.462  32.981  1.00  0.00     0.049 A 
ATOM     53  C   UNL A   1      43.919  25.463  29.066  1.00  0.00     0.074 A 
ATOM     54  C   UNL A   1      45.100  29.479  33.832  1.00  0.00     0.029 A 
ATOM     55  N   UNL A   1      44.193  28.397  32.115  1.00  0.00    -0.354 N 
ATOM     56  N   UNL A   1      44.060  26.310  30.055  1.00  0.00    -0.248 NA
ATOM     57  C   UNL A   1      45.055  24.546  28.894  1.00  0.00     0.031 C 
ATOM     58  C   UNL A   1      45.961  28.442  33.457  1.00  0.00     0.029 A 
ATOM     59  C   UNL A   1      45.387  27.756  32.399  1.00  0.00     0.049 A 
ATOM     60  H   UNL A   1      43.567  28.134  31.402  1.00  0.00     0.167 HD
ATOM     61  C   UNL A   1      45.280  26.005  30.649  1.00  0.00     0.074 A 
ATOM     62  C   UNL A   1      45.828  24.880  29.917  1.00  0.00     0.031 C 
ATOM     63  C   UNL A   1      45.896  26.607  31.695  1.00  0.00     0.034 A 
BRANCH  50  64
ATOM     64  C   UNL A   1      42.875  31.520  33.915  1.00  0.00     0.023 A 
ATOM     65  C   UNL A   1      43.395  32.767  33.513  1.00  0.00     0.012 A 
ATOM     66  C   UNL A   1      42.294  31.393  35.192  1.00  0.00     0.148 A 
ATOM     67  C   UNL A   1      43.371  33.860  34.379  1.00  0.00     0.002 A 
ATOM     68  C   UNL A   1      42.229  32.500  36.031  1.00  0.00     0.091 A 
ATOM     69  F   UNL A   1      41.822  30.195  35.565  1.00  0.00    -0.205 F 
ATOM     70  C   UNL A   1      42.778  33.730  35.631  1.00  0.00     0.022 A 
BRANCH  68  71
ATOM     71  S   UNL A   1      41.414  32.458  37.631  1.00  0.00     0.127 S 
ATOM     72  O   UNL A   1      41.524  33.853  38.055  1.00  0.00    -0.237 OA
ATOM     73  O   UNL A   1      40.059  32.035  37.273  1.00  0.00    -0.237 OA
ATOM     74  O   UNL A   1      42.157  31.500  38.437  1.00  0.00    -0.744 OA
ENDBRANCH  68  71
ENDBRANCH  50  64
BRANCH  51  75
ATOM     75  C   UNL A   1      42.773  24.233  27.075  1.00  0.00     0.023 A 
ATOM     76  C   UNL A   1      43.442  24.473  25.858  1.00  0.00     0.012 A 
ATOM     77  C   UNL A   1      42.150  22.988  27.282  1.00  0.00     0.148 A 
ATOM     78  C   UNL A   1      43.460  23.505  24.854  1.00  0.00     0.002 A 
ATOM     79  C   UNL A   1      42.220  22.007  26.300  1.00  0.00     0.091 A 
ATOM     80  F   UNL A   1      41.511  22.784  28.443  1.00  0.00    -0.205 F 
ATOM     81  C   UNL A   1      42.858  22.270  25.078  1.00  0.00     0.022 A 
BRANCH  79  82
ATOM     82  S   UNL A   1      41.587  20.345  26.553  1.00  0.00     0.127 S 
ATOM     83  O   UNL A   1      40.145  20.564  26.514  1.00  0.00    -0.237 OA
ATOM     84  O   UNL A   1      42.137  19.636  25.397  1.00  0.00    -0.237 OA
ATOM     85  O   UNL A   1      42.126  19.909  27.834  1.00  0.00    -0.744 OA
ENDBRANCH  79  82
ENDBRANCH  51  75
BRANCH  63  86
ATOM     86  C   UNL A   1      47.217  26.042  32.148  1.00  0.00     0.023 A 
ATOM     87  C   UNL A   1      48.415  26.482  31.553  1.00  0.00     0.012 A 
ATOM     88  C   UNL A   1      47.272  25.126  33.218  1.00  0.00     0.148 A 
ATOM     89  C   UNL A   1      49.646  25.993  31.991  1.00  0.00     0.002 A 
ATOM     90  C   UNL A   1      48.503  24.685  33.686  1.00  0.00     0.091 A 
ATOM     91  F   UNL A   1      46.120  24.706  33.760  1.00  0.00    -0.205 F 
ATOM     92  C   UNL A   1      49.691  25.106  33.064  1.00  0.00     0.022 A 
BRANCH  90  93
ATOM     93  S   UNL A   1      48.664  23.621  35.123  1.00  0.00     0.127 S 
ATOM     94  O   UNL A   1      47.949  22.422  34.689  1.00  0.00    -0.237 OA
ATOM     95  O   UNL A   1      50.114  23.462  35.230  1.00  0.00    -0.237 OA
ATOM     96  O   UNL A   1      48.053  24.345  36.231  1.00  0.00    -0.744 OA
ENDBRANCH  90  93
ENDBRANCH  63  86
ENDBRANCH  37  38
ENDBRANCH  29  32
ENDBRANCH  27  28
ENDBRANCH  26  27
ENDBRANCH  25  26
ENDBRANCH   1  25
TORSDOF 21
ENDMDL
MODEL 2
REMARK VINA RESULT:     -10.3      2.640      8.122
REMARK SMILES CC[C@H](C)N(CC)c1cc(C)c(N)c(C(=O)NCCCCCCNC(=O)c2ccc(-c3c4nc(c(-c5cccc(S(=O)(=O)[O-])c5F)c5ccc([nH]5)c(-c5cccc(S(=O)(=O)[O-])c5F)c5nc(c(-c6cccc(S(=O)(=O)[O-])c6F)c6ccc3[nH]6)C=C5)C=C4)cc2)c1
REMARK SMILES IDX 20 1 19 2 18 3 17 4 15 5 16 6 14 8 8 9 9 10 90 11 10 12
REMARK SMILES IDX 11 13 12 14 5 15 3 16 4 17 2 18 1 19 6 20 7 21 13 22 21 25
REMARK SMILES IDX 22 26 23 27 24 28 25 29 26 31 27 32 28 33 89 34 29 35 88 36
REMARK SMILES IDX 30 37 31 38 32 39 82 40 33 41 87 42 81 43 83 44 34 45 86 46
REMARK SMILES IDX 80 47 79 48 35 50 67 51 47 52 66 53 48 54 51 55 65 56 84 57
REMARK SMILES IDX 49 58 50 59 64 61 85 62 52 63 36 64 37 65 45 66 38 67 40 68
REMARK SMILES IDX 46 69 39 70 41 71 42 72 43 73 44 74 68 75 69 76 77 77 70 78
REMARK SMILES IDX 72 79 78 80 71 81 73 82 74 83 75 84 76 85 53 86 54 87 62 88
REMARK SMILES IDX 55 89 57 90 63 91 56 92 58 93 59 94 60 95 61 96
REMARK H PARENT 17 7 13 23 13 24 24 30 83 49 51 60
REMARK Flexibility Score: inf
ROOT
ATOM      1  C   UNL A   1      32.986  28.700  25.590  1.00  0.00     0.002 C 
ENDROOT
BRANCH   1   2
ATOM      2  C   UNL A   1      33.903  28.310  24.423  1.00  0.00     0.021 C 
BRANCH   2   3
ATOM      3  C   UNL A   1      33.445  28.923  23.100  1.00  0.00     0.116 C 
BRANCH   3   4
ATOM      4  N   UNL A   1      33.505  27.927  22.053  1.00  0.00    -0.352 N 
ATOM      5  C   UNL A   1      33.006  26.656  21.923  1.00  0.00     0.253 C 
ATOM      6  O   UNL A   1      33.291  26.090  20.863  1.00  0.00    -0.269 OA
ATOM      7  H   UNL A   1      34.013  28.225  21.264  1.00  0.00     0.163 HD
BRANCH   5   8
ATOM      8  C   UNL A   1      32.101  25.988  22.925  1.00  0.00     0.065 A 
ATOM      9  C   UNL A   1      31.737  24.366  24.738  1.00  0.00     0.038 A 
ATOM     10  C   UNL A   1      30.483  24.933  24.952  1.00  0.00     0.031 A 
ATOM     11  C   UNL A   1      32.498  24.872  23.677  1.00  0.00     0.042 A 
ATOM     12  C   UNL A   1      29.970  25.932  24.107  1.00  0.00    -0.025 A 
ATOM     13  C   UNL A   1      28.527  26.333  24.254  1.00  0.00     0.046 C 
ATOM     14  C   UNL A   1      30.796  26.509  23.123  1.00  0.00     0.047 A 
BRANCH   9  15
ATOM     15  N   UNL A   1      32.217  23.325  25.513  1.00  0.00    -0.369 N 
BRANCH  15  16
ATOM     16  C   UNL A   1      33.217  23.507  26.587  1.00  0.00     0.078 C 
ATOM     17  C   UNL A   1      33.458  22.223  27.377  1.00  0.00     0.031 C 
BRANCH  16  18
ATOM     18  C   UNL A   1      34.492  24.223  26.100  1.00  0.00     0.021 C 
ATOM     19  C   UNL A   1      35.456  23.405  25.253  1.00  0.00     0.006 C 
ENDBRANCH  16  18
ENDBRANCH  15  16
BRANCH  15  20
ATOM     20  C   UNL A   1      31.872  21.944  25.137  1.00  0.00     0.113 C 
ATOM     21  C   UNL A   1      32.666  21.457  23.934  1.00  0.00     0.027 C 
ENDBRANCH  15  20
ENDBRANCH   9  15
BRANCH  14  22
ATOM     22  N   UNL A   1      30.267  27.494  22.285  1.00  0.00    -0.398 N 
ATOM     23  H   UNL A   1      29.845  28.295  22.672  1.00  0.00     0.156 HD
ATOM     24  H   UNL A   1      30.316  27.389  21.308  1.00  0.00     0.156 HD
ENDBRANCH  14  22
ENDBRANCH   5   8
ENDBRANCH   3   4
ENDBRANCH   2   3
ENDBRANCH   1   2
BRANCH   1  25
ATOM     25  C   UNL A   1      31.648  29.315  25.158  1.00  0.00     0.002 C 
BRANCH  25  26
ATOM     26  C   UNL A   1      31.399  30.731  25.685  1.00  0.00     0.021 C 
BRANCH  26  27
ATOM     27  C   UNL A   1      32.395  31.177  26.751  1.00  0.00     0.116 C 
BRANCH  27  28
ATOM     28  N   UNL A   1      32.380  32.624  26.914  1.00  0.00    -0.352 N 
ATOM     29  C   UNL A   1      33.151  33.410  27.732  1.00  0.00     0.251 C 
ATOM     30  H   UNL A   1      31.725  33.105  26.359  1.00  0.00     0.163 HD
ATOM     31  O   UNL A   1      32.834  34.576  27.942  1.00  0.00    -0.269 OA
BRANCH  29  32
ATOM     32  C   UNL A   1      34.362  32.841  28.356  1.00  0.00     0.039 A 
ATOM     33  C   UNL A   1      35.578  33.511  28.213  1.00  0.00     0.014 A 
ATOM     34  C   UNL A   1      34.294  31.641  29.070  1.00  0.00     0.014 A 
ATOM     35  C   UNL A   1      36.722  32.998  28.829  1.00  0.00     0.010 A 
ATOM     36  C   UNL A   1      35.415  31.175  29.745  1.00  0.00     0.010 A 
ATOM     37  C   UNL A   1      36.644  31.841  29.622  1.00  0.00    -0.014 A 
BRANCH  37  38
ATOM     38  C   UNL A   1      37.835  31.315  30.334  1.00  0.00     0.031 A 
ATOM     39  C   UNL A   1      38.702  30.269  29.687  1.00  0.00     0.074 A 
ATOM     40  C   UNL A   1      38.086  31.719  31.594  1.00  0.00     0.049 A 
ATOM     41  N   UNL A   1      39.751  29.655  30.172  1.00  0.00    -0.248 NA
ATOM     42  C   UNL A   1      38.329  29.835  28.330  1.00  0.00     0.031 C 
ATOM     43  C   UNL A   1      37.273  32.671  32.355  1.00  0.00     0.029 A 
ATOM     44  N   UNL A   1      39.082  31.363  32.467  1.00  0.00    -0.354 N 
ATOM     45  C   UNL A   1      40.138  28.742  29.199  1.00  0.00     0.074 A 
ATOM     46  C   UNL A   1      39.193  28.855  28.110  1.00  0.00     0.031 C 
ATOM     47  C   UNL A   1      37.806  32.827  33.577  1.00  0.00     0.029 A 
ATOM     48  C   UNL A   1      38.976  31.964  33.699  1.00  0.00     0.049 A 
ATOM     49  H   UNL A   1      39.804  30.736  32.234  1.00  0.00     0.167 HD
ATOM     50  C   UNL A   1      41.201  27.902  29.200  1.00  0.00     0.034 A 
ATOM     51  C   UNL A   1      39.731  31.828  34.807  1.00  0.00     0.034 A 
ATOM     52  C   UNL A   1      42.160  27.821  30.269  1.00  0.00     0.049 A 
ATOM     53  C   UNL A   1      40.924  30.913  34.769  1.00  0.00     0.074 A 
ATOM     54  C   UNL A   1      43.320  27.069  30.328  1.00  0.00     0.029 A 
ATOM     55  N   UNL A   1      42.064  28.504  31.471  1.00  0.00    -0.354 N 
ATOM     56  N   UNL A   1      41.366  30.174  33.781  1.00  0.00    -0.248 NA
ATOM     57  C   UNL A   1      41.745  30.841  35.986  1.00  0.00     0.031 C 
ATOM     58  C   UNL A   1      43.908  27.272  31.580  1.00  0.00     0.029 A 
ATOM     59  C   UNL A   1      43.136  28.181  32.286  1.00  0.00     0.049 A 
ATOM     60  H   UNL A   1      41.340  29.127  31.711  1.00  0.00     0.167 HD
ATOM     61  C   UNL A   1      42.536  29.580  34.241  1.00  0.00     0.074 A 
ATOM     62  C   UNL A   1      42.743  30.062  35.592  1.00  0.00     0.031 C 
ATOM     63  C   UNL A   1      43.356  28.706  33.609  1.00  0.00     0.034 A 
BRANCH  50  64
ATOM     64  C   UNL A   1      41.411  27.032  27.987  1.00  0.00     0.023 A 
ATOM     65  C   UNL A   1      42.069  27.556  26.856  1.00  0.00     0.012 A 
ATOM     66  C   UNL A   1      41.013  25.680  27.991  1.00  0.00     0.148 A 
ATOM     67  C   UNL A   1      42.296  26.760  25.734  1.00  0.00     0.002 A 
ATOM     68  C   UNL A   1      41.288  24.880  26.887  1.00  0.00     0.091 A 
ATOM     69  F   UNL A   1      40.371  25.205  29.067  1.00  0.00    -0.205 F 
ATOM     70  C   UNL A   1      41.917  25.422  25.754  1.00  0.00     0.022 A 
BRANCH  68  71
ATOM     71  S   UNL A   1      40.914  23.124  26.845  1.00  0.00     0.127 S 
ATOM     72  O   UNL A   1      41.446  22.679  28.133  1.00  0.00    -0.237 OA
ATOM     73  O   UNL A   1      39.453  23.124  26.757  1.00  0.00    -0.237 OA
ATOM     74  O   UNL A   1      41.594  22.595  25.672  1.00  0.00    -0.744 OA
ENDBRANCH  68  71
ENDBRANCH  50  64
BRANCH  51  75
ATOM     75  C   UNL A   1      39.412  32.621  36.029  1.00  0.00     0.023 A 
ATOM     76  C   UNL A   1      39.962  33.909  36.181  1.00  0.00     0.012 A 
ATOM     77  C   UNL A   1      38.552  32.119  37.024  1.00  0.00     0.148 A 
ATOM     78  C   UNL A   1      39.691  34.667  37.320  1.00  0.00     0.002 A 
ATOM     79  C   UNL A   1      38.241  32.902  38.129  1.00  0.00     0.091 A 
ATOM     80  F   UNL A   1      38.047  30.888  36.863  1.00  0.00    -0.205 F 
ATOM     81  C   UNL A   1      38.824  34.169  38.288  1.00  0.00     0.022 A 
BRANCH  79  82
ATOM     82  S   UNL A   1      37.034  32.396  39.359  1.00  0.00     0.127 S 
ATOM     83  O   UNL A   1      37.197  33.426  40.380  1.00  0.00    -0.237 OA
ATOM     84  O   UNL A   1      35.784  32.468  38.602  1.00  0.00    -0.237 OA
ATOM     85  O   UNL A   1      37.417  31.047  39.755  1.00  0.00    -0.744 OA
ENDBRANCH  79  82
ENDBRANCH  51  75
BRANCH  63  86
ATOM     86  C   UNL A   1      44.584  28.240  34.348  1.00  0.00     0.023 A 
ATOM     87  C   UNL A   1      45.777  28.984  34.277  1.00  0.00     0.012 A 
ATOM     88  C   UNL A   1      44.529  27.099  35.175  1.00  0.00     0.148 A 
ATOM     89  C   UNL A   1      46.907  28.582  34.988  1.00  0.00     0.002 A 
ATOM     90  C   UNL A   1      45.641  26.735  35.922  1.00  0.00     0.091 A 
ATOM     91  F   UNL A   1      43.389  26.394  35.216  1.00  0.00    -0.205 F 
ATOM     92  C   UNL A   1      46.835  27.467  35.819  1.00  0.00     0.022 A 
BRANCH  90  93
ATOM     93  S   UNL A   1      45.612  25.374  37.094  1.00  0.00     0.127 S 
ATOM     94  O   UNL A   1      45.484  24.220  36.206  1.00  0.00    -0.237 OA
ATOM     95  O   UNL A   1      46.915  25.500  37.747  1.00  0.00    -0.237 OA
ATOM     96  O   UNL A   1      44.472  25.619  37.968  1.00  0.00    -0.744 OA
ENDBRANCH  90  93
ENDBRANCH  63  86
ENDBRANCH  37  38
ENDBRANCH  29  32
ENDBRANCH  27  28
ENDBRANCH  26  27
ENDBRANCH  25  26
ENDBRANCH   1  25
TORSDOF 21
ENDMDL
MODEL 3
REMARK VINA RESULT:     -10.2      1.433      2.682
REMARK SMILES CC[C@H](C)N(CC)c1cc(C)c(N)c(C(=O)NCCCCCCNC(=O)c2ccc(-c3c4nc(c(-c5cccc(S(=O)(=O)[O-])c5F)c5ccc([nH]5)c(-c5cccc(S(=O)(=O)[O-])c5F)c5nc(c(-c6cccc(S(=O)(=O)[O-])c6F)c6ccc3[nH]6)C=C5)C=C4)cc2)c1
REMARK SMILES IDX 20 1 19 2 18 3 17 4 15 5 16 6 14 8 8 9 9 10 90 11 10 12
REMARK SMILES IDX 11 13 12 14 5 15 3 16 4 17 2 18 1 19 6 20 7 21 13 22 21 25
REMARK SMILES IDX 22 26 23 27 24 28 25 29 26 31 27 32 28 33 89 34 29 35 88 36
REMARK SMILES IDX 30 37 31 38 32 39 82 40 33 41 87 42 81 43 83 44 34 45 86 46
REMARK SMILES IDX 80 47 79 48 35 50 67 51 47 52 66 53 48 54 51 55 65 56 84 57
REMARK SMILES IDX 49 58 50 59 64 61 85 62 52 63 36 64 37 65 45 66 38 67 40 68
REMARK SMILES IDX 46 69 39 70 41 71 42 72 43 73 44 74 68 75 69 76 77 77 70 78
REMARK SMILES IDX 72 79 78 80 71 81 73 82 74 83 75 84 76 85 53 86 54 87 62 88
REMARK SMILES IDX 55 89 57 90 63 91 56 92 58 93 59 94 60 95 61 96
REMARK H PARENT 17 7 13 23 13 24 24 30 83 49 51 60
REMARK Flexibility Score: inf
ROOT
ATOM      1  C   UNL A   1      31.821  25.554  25.247  1.00  0.00     0.002 C 
ENDROOT
BRANCH   1   2
ATOM      2  C   UNL A   1      31.822  24.742  23.945  1.00  0.00     0.021 C 
BRANCH   2   3
ATOM      3  C   UNL A   1      30.968  23.478  24.052  1.00  0.00     0.116 C 
BRANCH   3   4
ATOM      4  N   UNL A   1      31.105  22.690  22.847  1.00  0.00    -0.352 N 
ATOM      5  C   UNL A   1      31.948  21.677  22.468  1.00  0.00     0.253 C 
ATOM      6  O   UNL A   1      31.773  21.256  21.320  1.00  0.00    -0.269 OA
ATOM      7  H   UNL A   1      30.457  22.936  22.149  1.00  0.00     0.163 HD
BRANCH   5   8
ATOM      8  C   UNL A   1      32.963  21.027  23.372  1.00  0.00     0.065 A 
ATOM      9  C   UNL A   1      34.815  21.191  24.982  1.00  0.00     0.038 A 
ATOM     10  C   UNL A   1      34.672  19.830  25.239  1.00  0.00     0.031 A 
ATOM     11  C   UNL A   1      33.990  21.750  23.998  1.00  0.00     0.042 A 
ATOM     12  C   UNL A   1      33.779  19.030  24.506  1.00  0.00    -0.025 A 
ATOM     13  C   UNL A   1      33.841  17.535  24.674  1.00  0.00     0.046 C 
ATOM     14  C   UNL A   1      32.876  19.631  23.607  1.00  0.00     0.047 A 
BRANCH   9  15
ATOM     15  N   UNL A   1      35.749  21.971  25.640  1.00  0.00    -0.369 N 
BRANCH  15  16
ATOM     16  C   UNL A   1      35.386  23.049  26.585  1.00  0.00     0.078 C 
ATOM     17  C   UNL A   1      35.061  24.360  25.872  1.00  0.00     0.031 C 
BRANCH  16  18
ATOM     18  C   UNL A   1      34.346  22.600  27.630  1.00  0.00     0.021 C 
ATOM     19  C   UNL A   1      32.887  22.893  27.314  1.00  0.00     0.006 C 
ENDBRANCH  16  18
ENDBRANCH  15  16
BRANCH  15  20
ATOM     20  C   UNL A   1      37.164  21.865  25.247  1.00  0.00     0.113 C 
ATOM     21  C   UNL A   1      38.043  22.873  25.972  1.00  0.00     0.027 C 
ENDBRANCH  15  20
ENDBRANCH   9  15
BRANCH  14  22
ATOM     22  N   UNL A   1      32.001  18.819  22.879  1.00  0.00    -0.398 N 
ATOM     23  H   UNL A   1      31.574  19.164  22.062  1.00  0.00     0.156 HD
ATOM     24  H   UNL A   1      31.812  17.902  23.183  1.00  0.00     0.156 HD
ENDBRANCH  14  22
ENDBRANCH   5   8
ENDBRANCH   3   4
ENDBRANCH   2   3
ENDBRANCH   1   2
BRANCH   1  25
ATOM     25  C   UNL A   1      32.402  26.967  25.106  1.00  0.00     0.002 C 
BRANCH  25  26
ATOM     26  C   UNL A   1      33.090  27.501  26.365  1.00  0.00     0.021 C 
BRANCH  26  27
ATOM     27  C   UNL A   1      34.221  28.484  26.082  1.00  0.00     0.116 C 
BRANCH  27  28
ATOM     28  N   UNL A   1      33.890  29.820  26.556  1.00  0.00    -0.352 N 
ATOM     29  C   UNL A   1      34.483  30.558  27.549  1.00  0.00     0.251 C 
ATOM     30  H   UNL A   1      33.134  30.255  26.101  1.00  0.00     0.163 HD
ATOM     31  O   UNL A   1      33.921  31.550  27.999  1.00  0.00    -0.269 OA
BRANCH  29  32
ATOM     32  C   UNL A   1      35.802  30.147  28.070  1.00  0.00     0.039 A 
ATOM     33  C   UNL A   1      35.890  29.617  29.358  1.00  0.00     0.014 A 
ATOM     34  C   UNL A   1      36.952  30.297  27.287  1.00  0.00     0.014 A 
ATOM     35  C   UNL A   1      37.127  29.194  29.845  1.00  0.00     0.010 A 
ATOM     36  C   UNL A   1      38.168  29.805  27.744  1.00  0.00     0.010 A 
ATOM     37  C   UNL A   1      38.272  29.259  29.032  1.00  0.00    -0.014 A 
BRANCH  37  38
ATOM     38  C   UNL A   1      39.584  28.758  29.510  1.00  0.00     0.031 A 
ATOM     39  C   UNL A   1      40.303  29.466  30.627  1.00  0.00     0.074 A 
ATOM     40  C   UNL A   1      40.165  27.717  28.882  1.00  0.00     0.049 A 
ATOM     41  N   UNL A   1      41.477  29.208  31.143  1.00  0.00    -0.248 NA
ATOM     42  C   UNL A   1      39.631  30.633  31.223  1.00  0.00     0.031 C 
ATOM     43  C   UNL A   1      39.599  26.998  27.738  1.00  0.00     0.029 A 
ATOM     44  N   UNL A   1      41.368  27.097  29.101  1.00  0.00    -0.354 N 
ATOM     45  C   UNL A   1      41.698  30.196  32.095  1.00  0.00     0.074 A 
ATOM     46  C   UNL A   1      40.554  31.080  32.062  1.00  0.00     0.031 C 
ATOM     47  C   UNL A   1      40.453  26.033  27.360  1.00  0.00     0.029 A 
ATOM     48  C   UNL A   1      41.637  26.085  28.211  1.00  0.00     0.049 A 
ATOM     49  H   UNL A   1      41.982  27.354  29.827  1.00  0.00     0.167 HD
ATOM     50  C   UNL A   1      42.747  30.339  32.940  1.00  0.00     0.034 A 
ATOM     51  C   UNL A   1      42.721  25.294  28.087  1.00  0.00     0.034 A 
ATOM     52  C   UNL A   1      43.864  29.435  32.994  1.00  0.00     0.049 A 
ATOM     53  C   UNL A   1      43.857  25.454  29.059  1.00  0.00     0.074 A 
ATOM     54  C   UNL A   1      44.932  29.441  33.874  1.00  0.00     0.029 A 
ATOM     55  N   UNL A   1      44.065  28.372  32.128  1.00  0.00    -0.354 N 
ATOM     56  N   UNL A   1      43.976  26.296  30.057  1.00  0.00    -0.248 NA
ATOM     57  C   UNL A   1      44.991  24.531  28.914  1.00  0.00     0.031 C 
ATOM     58  C   UNL A   1      45.796  28.401  33.518  1.00  0.00     0.029 A 
ATOM     59  C   UNL A   1      45.247  27.723  32.442  1.00  0.00     0.049 A 
ATOM     60  H   UNL A   1      43.457  28.116  31.397  1.00  0.00     0.167 HD
ATOM     61  C   UNL A   1      45.178  25.980  30.681  1.00  0.00     0.074 A 
ATOM     62  C   UNL A   1      45.739  24.856  29.959  1.00  0.00     0.031 C 
ATOM     63  C   UNL A   1      45.769  26.574  31.746  1.00  0.00     0.034 A 
BRANCH  50  64
ATOM     64  C   UNL A   1      42.717  31.495  33.907  1.00  0.00     0.023 A 
ATOM     65  C   UNL A   1      43.283  32.732  33.536  1.00  0.00     0.012 A 
ATOM     66  C   UNL A   1      42.075  31.375  35.155  1.00  0.00     0.148 A 
ATOM     67  C   UNL A   1      43.242  33.821  34.406  1.00  0.00     0.002 A 
ATOM     68  C   UNL A   1      41.995  32.480  35.996  1.00  0.00     0.091 A 
ATOM     69  F   UNL A   1      41.560  30.186  35.499  1.00  0.00    -0.205 F 
ATOM     70  C   UNL A   1      42.589  33.698  35.629  1.00  0.00     0.022 A 
BRANCH  68  71
ATOM     71  S   UNL A   1      41.106  32.448  37.556  1.00  0.00     0.127 S 
ATOM     72  O   UNL A   1      41.953  31.568  38.361  1.00  0.00    -0.237 OA
ATOM     73  O   UNL A   1      41.137  33.856  37.954  1.00  0.00    -0.237 OA
ATOM     74  O   UNL A   1      39.779  31.931  37.253  1.00  0.00    -0.744 OA
ENDBRANCH  68  71
ENDBRANCH  50  64
BRANCH  51  75
ATOM     75  C   UNL A   1      42.757  24.240  27.032  1.00  0.00     0.023 A 
ATOM     76  C   UNL A   1      43.398  24.508  25.807  1.00  0.00     0.012 A 
ATOM     77  C   UNL A   1      42.184  22.972  27.245  1.00  0.00     0.148 A 
ATOM     78  C   UNL A   1      43.436  23.545  24.799  1.00  0.00     0.002 A 
ATOM     79  C   UNL A   1      42.274  21.997  26.258  1.00  0.00     0.091 A 
ATOM     80  F   UNL A   1      41.572  22.740  28.415  1.00  0.00    -0.205 F 
ATOM     81  C   UNL A   1      42.883  22.288  25.027  1.00  0.00     0.022 A 
BRANCH  79  82
ATOM     82  S   UNL A   1      41.707  20.312  26.514  1.00  0.00     0.127 S 
ATOM     83  O   UNL A   1      42.028  20.098  27.922  1.00  0.00    -0.237 OA
ATOM     84  O   UNL A   1      40.279  20.427  26.216  1.00  0.00    -0.237 OA
ATOM     85  O   UNL A   1      42.453  19.497  25.565  1.00  0.00    -0.744 OA
ENDBRANCH  79  82
ENDBRANCH  51  75
BRANCH  63  86
ATOM     86  C   UNL A   1      47.074  25.999  32.232  1.00  0.00     0.023 A 
ATOM     87  C   UNL A   1      48.290  26.431  31.668  1.00  0.00     0.012 A 
ATOM     88  C   UNL A   1      47.096  25.083  33.302  1.00  0.00     0.148 A 
ATOM     89  C   UNL A   1      49.506  25.934  32.136  1.00  0.00     0.002 A 
ATOM     90  C   UNL A   1      48.311  24.632  33.800  1.00  0.00     0.091 A 
ATOM     91  F   UNL A   1      45.926  24.671  33.815  1.00  0.00    -0.205 F 
ATOM     92  C   UNL A   1      49.517  25.045  33.210  1.00  0.00     0.022 A 
BRANCH  90  93
ATOM     93  S   UNL A   1      48.428  23.567  35.241  1.00  0.00     0.127 S 
ATOM     94  O   UNL A   1      47.625  24.299  36.219  1.00  0.00    -0.237 OA
ATOM     95  O   UNL A   1      47.821  22.326  34.759  1.00  0.00    -0.237 OA
ATOM     96  O   UNL A   1      49.848  23.464  35.551  1.00  0.00    -0.744 OA
ENDBRANCH  90  93
ENDBRANCH  63  86
ENDBRANCH  37  38
ENDBRANCH  29  32
ENDBRANCH  27  28
ENDBRANCH  26  27
ENDBRANCH  25  26
ENDBRANCH   1  25
TORSDOF 21
ENDMDL
