MODEL 1
REMARK VINA RESULT:      -8.2      0.000      0.000
REMARK SMILES COC[C@@H](C)N(C)C(=O)N[C@@H]1C=C[C@@H](C(=O)NCCCCCCNC(=O)c2ccc(-c3c4nc(c(-c5cccc(S(=O)(=O)[O-])c5F)c5ccc([nH]5)c(-c5cccc(S(=O)(=O)[O-])c5F)c5nc(c(-c6cccc(S(=O)(=O)[O-])c6F)c6ccc3[nH]6)C=C5)C=C4)cc2)C1
REMARK SMILES IDX 19 1 18 2 17 3 15 4 16 5 14 7 11 8 12 9 90 10 13 11 10 12
REMARK SMILES IDX 8 13 9 14 6 16 7 17 4 18 5 19 3 20 2 21 1 22 20 23 21 24
REMARK SMILES IDX 22 25 23 26 24 27 25 28 26 30 27 31 28 32 89 33 29 34 88 35
REMARK SMILES IDX 30 36 31 37 32 38 82 39 33 40 87 41 81 42 83 43 34 44 86 45
REMARK SMILES IDX 80 46 79 47 35 49 67 50 47 51 66 52 48 53 51 54 65 55 84 56
REMARK SMILES IDX 49 57 50 58 64 60 85 61 52 62 36 63 37 64 45 65 38 66 40 67
REMARK SMILES IDX 46 68 39 69 41 70 42 71 43 72 44 73 68 74 69 75 77 76 70 77
REMARK SMILES IDX 72 78 78 79 71 80 73 81 74 82 75 83 76 84 53 85 54 86 62 87
REMARK SMILES IDX 55 88 57 89 63 90 56 91 58 92 59 93 60 94 61 95
REMARK H PARENT 17 6 10 15 24 29 83 48 51 59
REMARK Flexibility Score: inf
ROOT
ATOM      1  C   UNL A   1      37.698  29.269  28.948  1.00  0.00     0.021 C 
ENDROOT
BRANCH   1   2
ATOM      2  C   UNL A   1      36.663  29.389  27.830  1.00  0.00     0.116 C 
BRANCH   2   3
ATOM      3  N   UNL A   1      35.704  30.410  28.157  1.00  0.00    -0.356 N 
ATOM      4  C   UNL A   1      34.416  30.503  27.765  1.00  0.00     0.227 C 
ATOM      5  O   UNL A   1      33.803  31.541  28.037  1.00  0.00    -0.274 OA
ATOM      6  H   UNL A   1      36.030  31.134  28.741  1.00  0.00     0.163 HD
BRANCH   4   7
ATOM      7  C   UNL A   1      33.734  29.389  26.985  1.00  0.00     0.103 C 
ATOM      8  C   UNL A   1      31.854  28.075  26.291  1.00  0.00     0.107 C 
ATOM      9  C   UNL A   1      32.595  28.658  25.107  1.00  0.00    -0.006 C 
ATOM     10  C   UNL A   1      32.296  29.034  27.386  1.00  0.00     0.047 C 
ATOM     11  C   UNL A   1      33.624  29.431  25.493  1.00  0.00    -0.016 C 
BRANCH   8  12
ATOM     12  N   UNL A   1      32.296  26.698  26.444  1.00  0.00    -0.332 N 
ATOM     13  C   UNL A   1      33.074  26.007  25.561  1.00  0.00     0.317 C 
ATOM     14  O   UNL A   1      34.274  25.904  25.810  1.00  0.00    -0.249 OA
ATOM     15  H   UNL A   1      32.008  26.222  27.256  1.00  0.00     0.165 HD
BRANCH  13  16
ATOM     16  N   UNL A   1      32.437  25.241  24.591  1.00  0.00    -0.323 N 
ATOM     17  C   UNL A   1      32.861  25.142  23.206  1.00  0.00     0.149 C 
BRANCH  16  18
ATOM     18  C   UNL A   1      31.018  24.904  24.789  1.00  0.00     0.109 C 
ATOM     19  C   UNL A   1      30.928  23.392  25.046  1.00  0.00     0.033 C 
BRANCH  18  20
ATOM     20  C   UNL A   1      30.053  25.414  23.697  1.00  0.00     0.184 C 
BRANCH  20  21
ATOM     21  O   UNL A   1      29.391  26.639  24.061  1.00  0.00    -0.383 OA
ATOM     22  C   UNL A   1      29.642  27.719  23.175  1.00  0.00     0.194 C 
ENDBRANCH  20  21
ENDBRANCH  18  20
ENDBRANCH  16  18
ENDBRANCH  13  16
ENDBRANCH   8  12
ENDBRANCH   4   7
ENDBRANCH   2   3
ENDBRANCH   1   2
BRANCH   1  23
ATOM     23  C   UNL A   1      38.982  28.556  28.516  1.00  0.00     0.002 C 
BRANCH  23  24
ATOM     24  C   UNL A   1      39.316  27.310  29.342  1.00  0.00     0.002 C 
BRANCH  24  25
ATOM     25  C   UNL A   1      39.652  26.071  28.506  1.00  0.00     0.021 C 
BRANCH  25  26
ATOM     26  C   UNL A   1      40.091  26.395  27.086  1.00  0.00     0.116 C 
BRANCH  26  27
ATOM     27  N   UNL A   1      41.414  25.858  26.823  1.00  0.00    -0.352 N 
ATOM     28  C   UNL A   1      42.625  26.485  26.970  1.00  0.00     0.251 C 
ATOM     29  H   UNL A   1      41.448  24.929  26.500  1.00  0.00     0.163 HD
ATOM     30  O   UNL A   1      43.626  26.042  26.422  1.00  0.00    -0.269 OA
BRANCH  28  31
ATOM     31  C   UNL A   1      42.695  27.705  27.799  1.00  0.00     0.039 A 
ATOM     32  C   UNL A   1      43.029  27.593  29.149  1.00  0.00     0.014 A 
ATOM     33  C   UNL A   1      42.442  28.957  27.227  1.00  0.00     0.014 A 
ATOM     34  C   UNL A   1      43.150  28.749  29.920  1.00  0.00     0.010 A 
ATOM     35  C   UNL A   1      42.640  30.109  27.977  1.00  0.00     0.010 A 
ATOM     36  C   UNL A   1      42.983  30.015  29.334  1.00  0.00    -0.014 A 
BRANCH  36  37
ATOM     37  C   UNL A   1      43.176  31.255  30.122  1.00  0.00     0.031 A 
ATOM     38  C   UNL A   1      42.074  31.769  31.008  1.00  0.00     0.074 A 
ATOM     39  C   UNL A   1      44.314  31.961  29.974  1.00  0.00     0.049 A 
ATOM     40  N   UNL A   1      42.044  32.852  31.740  1.00  0.00    -0.248 NA
ATOM     41  C   UNL A   1      40.833  30.977  31.061  1.00  0.00     0.031 C 
ATOM     42  C   UNL A   1      45.418  31.605  29.079  1.00  0.00     0.029 A 
ATOM     43  N   UNL A   1      44.721  33.137  30.552  1.00  0.00    -0.354 N 
ATOM     44  C   UNL A   1      40.779  32.890  32.311  1.00  0.00     0.074 A 
ATOM     45  C   UNL A   1      40.055  31.740  31.814  1.00  0.00     0.031 C 
ATOM     46  C   UNL A   1      46.376  32.540  29.171  1.00  0.00     0.029 A 
ATOM     47  C   UNL A   1      45.945  33.576  30.103  1.00  0.00     0.049 A 
ATOM     48  H   UNL A   1      44.187  33.620  31.222  1.00  0.00     0.167 HD
ATOM     49  C   UNL A   1      40.274  33.787  33.191  1.00  0.00     0.034 A 
ATOM     50  C   UNL A   1      46.635  34.692  30.403  1.00  0.00     0.034 A 
ATOM     51  C   UNL A   1      41.011  34.907  33.707  1.00  0.00     0.049 A 
ATOM     52  C   UNL A   1      46.065  35.653  31.410  1.00  0.00     0.074 A 
ATOM     53  C   UNL A   1      40.625  35.819  34.674  1.00  0.00     0.029 A 
ATOM     54  N   UNL A   1      42.280  35.279  33.291  1.00  0.00    -0.354 N 
ATOM     55  N   UNL A   1      44.934  35.582  32.069  1.00  0.00    -0.248 NA
ATOM     56  C   UNL A   1      46.880  36.830  31.740  1.00  0.00     0.031 C 
ATOM     57  C   UNL A   1      41.649  36.761  34.819  1.00  0.00     0.029 A 
ATOM     58  C   UNL A   1      42.686  36.416  33.967  1.00  0.00     0.049 A 
ATOM     59  H   UNL A   1      42.814  34.803  32.614  1.00  0.00     0.167 HD
ATOM     60  C   UNL A   1      44.914  36.686  32.913  1.00  0.00     0.074 A 
ATOM     61  C   UNL A   1      46.160  37.394  32.700  1.00  0.00     0.031 C 
ATOM     62  C   UNL A   1      43.947  37.087  33.774  1.00  0.00     0.034 A 
BRANCH  49  63
ATOM     63  C   UNL A   1      38.869  33.565  33.690  1.00  0.00     0.023 A 
ATOM     64  C   UNL A   1      38.661  32.879  34.904  1.00  0.00     0.012 A 
ATOM     65  C   UNL A   1      37.762  34.088  32.994  1.00  0.00     0.148 A 
ATOM     66  C   UNL A   1      37.372  32.688  35.401  1.00  0.00     0.002 A 
ATOM     67  C   UNL A   1      36.484  33.935  33.519  1.00  0.00     0.091 A 
ATOM     68  F   UNL A   1      37.978  34.720  31.831  1.00  0.00    -0.205 F 
ATOM     69  C   UNL A   1      36.286  33.226  34.715  1.00  0.00     0.022 A 
BRANCH  67  70
ATOM     70  S   UNL A   1      35.028  34.659  32.756  1.00  0.00     0.127 S 
ATOM     71  O   UNL A   1      33.953  33.903  33.398  1.00  0.00    -0.237 OA
ATOM     72  O   UNL A   1      35.125  36.057  33.175  1.00  0.00    -0.237 OA
ATOM     73  O   UNL A   1      35.175  34.441  31.323  1.00  0.00    -0.744 OA
ENDBRANCH  67  70
ENDBRANCH  49  63
BRANCH  50  74
ATOM     74  C   UNL A   1      47.969  34.930  29.782  1.00  0.00     0.023 A 
ATOM     75  C   UNL A   1      49.130  34.477  30.436  1.00  0.00     0.012 A 
ATOM     76  C   UNL A   1      48.089  35.575  28.536  1.00  0.00     0.148 A 
ATOM     77  C   UNL A   1      50.391  34.690  29.877  1.00  0.00     0.002 A 
ATOM     78  C   UNL A   1      49.343  35.733  27.957  1.00  0.00     0.091 A 
ATOM     79  F   UNL A   1      46.972  36.008  27.934  1.00  0.00    -0.205 F 
ATOM     80  C   UNL A   1      50.497  35.309  28.634  1.00  0.00     0.022 A 
BRANCH  78  81
ATOM     81  S   UNL A   1      49.559  36.393  26.299  1.00  0.00     0.127 S 
ATOM     82  O   UNL A   1      48.545  35.657  25.550  1.00  0.00    -0.237 OA
ATOM     83  O   UNL A   1      49.270  37.813  26.500  1.00  0.00    -0.237 OA
ATOM     84  O   UNL A   1      50.943  36.109  25.941  1.00  0.00    -0.744 OA
ENDBRANCH  78  81
ENDBRANCH  50  74
BRANCH  62  85
ATOM     85  C   UNL A   1      44.202  38.337  34.574  1.00  0.00     0.023 A 
ATOM     86  C   UNL A   1      44.982  38.271  35.747  1.00  0.00     0.012 A 
ATOM     87  C   UNL A   1      43.728  39.585  34.128  1.00  0.00     0.148 A 
ATOM     88  C   UNL A   1      45.253  39.425  36.482  1.00  0.00     0.002 A 
ATOM     89  C   UNL A   1      44.046  40.737  34.836  1.00  0.00     0.091 A 
ATOM     90  F   UNL A   1      42.974  39.625  33.019  1.00  0.00    -0.205 F 
ATOM     91  C   UNL A   1      44.797  40.658  36.021  1.00  0.00     0.022 A 
BRANCH  89  92
ATOM     92  S   UNL A   1      43.586  42.378  34.269  1.00  0.00     0.127 S 
ATOM     93  O   UNL A   1      44.051  42.355  32.883  1.00  0.00    -0.237 OA
ATOM     94  O   UNL A   1      42.131  42.363  34.423  1.00  0.00    -0.237 OA
ATOM     95  O   UNL A   1      44.278  43.314  35.144  1.00  0.00    -0.744 OA
ENDBRANCH  89  92
ENDBRANCH  62  85
ENDBRANCH  36  37
ENDBRANCH  28  31
ENDBRANCH  26  27
ENDBRANCH  25  26
ENDBRANCH  24  25
ENDBRANCH  23  24
ENDBRANCH   1  23
TORSDOF 21
ENDMDL
MODEL 2
REMARK VINA RESULT:      -8.1      2.070      7.909
REMARK SMILES COC[C@@H](C)N(C)C(=O)N[C@@H]1C=C[C@@H](C(=O)NCCCCCCNC(=O)c2ccc(-c3c4nc(c(-c5cccc(S(=O)(=O)[O-])c5F)c5ccc([nH]5)c(-c5cccc(S(=O)(=O)[O-])c5F)c5nc(c(-c6cccc(S(=O)(=O)[O-])c6F)c6ccc3[nH]6)C=C5)C=C4)cc2)C1
REMARK SMILES IDX 19 1 18 2 17 3 15 4 16 5 14 7 11 8 12 9 90 10 13 11 10 12
REMARK SMILES IDX 8 13 9 14 6 16 7 17 4 18 5 19 3 20 2 21 1 22 20 23 21 24
REMARK SMILES IDX 22 25 23 26 24 27 25 28 26 30 27 31 28 32 89 33 29 34 88 35
REMARK SMILES IDX 30 36 31 37 32 38 82 39 33 40 87 41 81 42 83 43 34 44 86 45
REMARK SMILES IDX 80 46 79 47 35 49 67 50 47 51 66 52 48 53 51 54 65 55 84 56
REMARK SMILES IDX 49 57 50 58 64 60 85 61 52 62 36 63 37 64 45 65 38 66 40 67
REMARK SMILES IDX 46 68 39 69 41 70 42 71 43 72 44 73 68 74 69 75 77 76 70 77
REMARK SMILES IDX 72 78 78 79 71 80 73 81 74 82 75 83 76 84 53 85 54 86 62 87
REMARK SMILES IDX 55 88 57 89 63 90 56 91 58 92 59 93 60 94 61 95
REMARK H PARENT 17 6 10 15 24 29 83 48 51 59
REMARK Flexibility Score: inf
ROOT
ATOM      1  C   UNL A   1      38.035  29.096  28.632  1.00  0.00     0.021 C 
ENDROOT
BRANCH   1   2
ATOM      2  C   UNL A   1      36.793  29.415  27.801  1.00  0.00     0.116 C 
BRANCH   2   3
ATOM      3  N   UNL A   1      36.067  30.502  28.403  1.00  0.00    -0.356 N 
ATOM      4  C   UNL A   1      34.814  30.922  28.130  1.00  0.00     0.227 C 
ATOM      5  O   UNL A   1      34.428  31.970  28.658  1.00  0.00    -0.274 OA
ATOM      6  H   UNL A   1      36.545  31.003  29.103  1.00  0.00     0.163 HD
BRANCH   4   7
ATOM      7  C   UNL A   1      33.902  30.159  27.181  1.00  0.00     0.103 C 
ATOM      8  C   UNL A   1      32.400  28.390  26.581  1.00  0.00     0.107 C 
ATOM      9  C   UNL A   1      31.795  29.750  26.313  1.00  0.00    -0.006 C 
ATOM     10  C   UNL A   1      33.449  28.760  27.620  1.00  0.00     0.047 C 
ATOM     11  C   UNL A   1      32.616  30.746  26.689  1.00  0.00    -0.016 C 
BRANCH   8  12
ATOM     12  N   UNL A   1      32.915  27.887  25.317  1.00  0.00    -0.332 N 
ATOM     13  C   UNL A   1      32.355  28.093  24.090  1.00  0.00     0.317 C 
ATOM     14  O   UNL A   1      32.841  28.971  23.377  1.00  0.00    -0.249 OA
ATOM     15  H   UNL A   1      33.740  27.351  25.350  1.00  0.00     0.165 HD
BRANCH  13  16
ATOM     16  N   UNL A   1      31.464  27.141  23.612  1.00  0.00    -0.323 N 
ATOM     17  C   UNL A   1      30.018  27.287  23.610  1.00  0.00     0.149 C 
BRANCH  16  18
ATOM     18  C   UNL A   1      31.904  25.738  23.558  1.00  0.00     0.109 C 
ATOM     19  C   UNL A   1      31.369  25.031  24.813  1.00  0.00     0.033 C 
BRANCH  18  20
ATOM     20  C   UNL A   1      33.413  25.522  23.311  1.00  0.00     0.184 C 
BRANCH  20  21
ATOM     21  O   UNL A   1      33.681  24.718  22.147  1.00  0.00    -0.383 OA
ATOM     22  C   UNL A   1      33.655  23.320  22.389  1.00  0.00     0.194 C 
ENDBRANCH  20  21
ENDBRANCH  18  20
ENDBRANCH  16  18
ENDBRANCH  13  16
ENDBRANCH   8  12
ENDBRANCH   4   7
ENDBRANCH   2   3
ENDBRANCH   1   2
BRANCH   1  23
ATOM     23  C   UNL A   1      38.934  28.031  27.998  1.00  0.00     0.002 C 
BRANCH  23  24
ATOM     24  C   UNL A   1      39.435  26.968  28.980  1.00  0.00     0.002 C 
BRANCH  24  25
ATOM     25  C   UNL A   1      39.773  25.622  28.332  1.00  0.00     0.021 C 
BRANCH  25  26
ATOM     26  C   UNL A   1      39.589  25.609  26.821  1.00  0.00     0.116 C 
BRANCH  26  27
ATOM     27  N   UNL A   1      40.744  25.018  26.169  1.00  0.00    -0.352 N 
ATOM     28  C   UNL A   1      41.921  25.628  25.820  1.00  0.00     0.251 C 
ATOM     29  H   UNL A   1      40.674  24.060  25.951  1.00  0.00     0.163 HD
ATOM     30  O   UNL A   1      42.674  25.109  25.005  1.00  0.00    -0.269 OA
BRANCH  28  31
ATOM     31  C   UNL A   1      42.261  26.922  26.445  1.00  0.00     0.039 A 
ATOM     32  C   UNL A   1      41.748  28.098  25.899  1.00  0.00     0.014 A 
ATOM     33  C   UNL A   1      43.077  26.958  27.581  1.00  0.00     0.014 A 
ATOM     34  C   UNL A   1      42.022  29.315  26.520  1.00  0.00     0.010 A 
ATOM     35  C   UNL A   1      43.283  28.163  28.242  1.00  0.00     0.010 A 
ATOM     36  C   UNL A   1      42.769  29.354  27.710  1.00  0.00    -0.014 A 
BRANCH  36  37
ATOM     37  C   UNL A   1      43.011  30.632  28.421  1.00  0.00     0.031 A 
ATOM     38  C   UNL A   1      44.167  31.510  28.028  1.00  0.00     0.074 A 
ATOM     39  C   UNL A   1      42.238  30.957  29.476  1.00  0.00     0.049 A 
ATOM     40  N   UNL A   1      44.559  32.640  28.557  1.00  0.00    -0.248 NA
ATOM     41  C   UNL A   1      45.008  31.049  26.910  1.00  0.00     0.031 C 
ATOM     42  C   UNL A   1      41.141  30.141  30.002  1.00  0.00     0.029 A 
ATOM     43  N   UNL A   1      42.272  32.046  30.309  1.00  0.00    -0.354 N 
ATOM     44  C   UNL A   1      45.705  33.006  27.864  1.00  0.00     0.074 A 
ATOM     45  C   UNL A   1      45.968  31.962  26.898  1.00  0.00     0.031 C 
ATOM     46  C   UNL A   1      40.605  30.760  31.066  1.00  0.00     0.029 A 
ATOM     47  C   UNL A   1      41.337  31.996  31.317  1.00  0.00     0.049 A 
ATOM     48  H   UNL A   1      42.906  32.790  30.198  1.00  0.00     0.167 HD
ATOM     49  C   UNL A   1      46.456  34.125  28.000  1.00  0.00     0.034 A 
ATOM     50  C   UNL A   1      41.104  32.847  32.334  1.00  0.00     0.034 A 
ATOM     51  C   UNL A   1      46.167  35.175  28.938  1.00  0.00     0.049 A 
ATOM     52  C   UNL A   1      41.931  34.099  32.441  1.00  0.00     0.074 A 
ATOM     53  C   UNL A   1      46.808  36.392  29.090  1.00  0.00     0.029 A 
ATOM     54  N   UNL A   1      45.163  35.130  29.893  1.00  0.00    -0.354 N 
ATOM     55  N   UNL A   1      42.906  34.511  31.668  1.00  0.00    -0.248 NA
ATOM     56  C   UNL A   1      41.604  35.019  33.539  1.00  0.00     0.031 C 
ATOM     57  C   UNL A   1      46.211  37.069  30.159  1.00  0.00     0.029 A 
ATOM     58  C   UNL A   1      45.177  36.288  30.651  1.00  0.00     0.049 A 
ATOM     59  H   UNL A   1      44.533  34.383  30.014  1.00  0.00     0.167 HD
ATOM     60  C   UNL A   1      43.290  35.750  32.166  1.00  0.00     0.074 A 
ATOM     61  C   UNL A   1      42.422  36.033  33.290  1.00  0.00     0.031 C 
ATOM     62  C   UNL A   1      44.280  36.573  31.741  1.00  0.00     0.034 A 
BRANCH  49  63
ATOM     63  C   UNL A   1      47.637  34.295  27.079  1.00  0.00     0.023 A 
ATOM     64  C   UNL A   1      47.488  35.024  25.882  1.00  0.00     0.012 A 
ATOM     65  C   UNL A   1      48.904  33.789  27.426  1.00  0.00     0.148 A 
ATOM     66  C   UNL A   1      48.573  35.219  25.028  1.00  0.00     0.002 A 
ATOM     67  C   UNL A   1      49.992  34.028  26.594  1.00  0.00     0.091 A 
ATOM     68  F   UNL A   1      49.022  33.080  28.558  1.00  0.00    -0.205 F 
ATOM     69  C   UNL A   1      49.826  34.732  25.390  1.00  0.00     0.022 A 
BRANCH  67  70
ATOM     70  S   UNL A   1      51.663  33.512  27.008  1.00  0.00     0.127 S 
ATOM     71  O   UNL A   1      51.527  32.056  27.016  1.00  0.00    -0.237 OA
ATOM     72  O   UNL A   1      52.435  34.047  25.887  1.00  0.00    -0.237 OA
ATOM     73  O   UNL A   1      51.962  34.118  28.298  1.00  0.00    -0.744 OA
ENDBRANCH  67  70
ENDBRANCH  49  63
BRANCH  50  74
ATOM     74  C   UNL A   1      40.003  32.568  33.299  1.00  0.00     0.023 A 
ATOM     75  C   UNL A   1      40.260  31.781  34.437  1.00  0.00     0.012 A 
ATOM     76  C   UNL A   1      38.713  33.101  33.109  1.00  0.00     0.148 A 
ATOM     77  C   UNL A   1      39.245  31.502  35.354  1.00  0.00     0.002 A 
ATOM     78  C   UNL A   1      37.722  32.867  34.055  1.00  0.00     0.091 A 
ATOM     79  F   UNL A   1      38.485  33.839  32.013  1.00  0.00    -0.205 F 
ATOM     80  C   UNL A   1      37.980  32.053  35.169  1.00  0.00     0.022 A 
BRANCH  78  81
ATOM     81  S   UNL A   1      36.106  33.650  33.967  1.00  0.00     0.127 S 
ATOM     82  O   UNL A   1      35.434  32.833  32.961  1.00  0.00    -0.237 OA
ATOM     83  O   UNL A   1      35.613  33.477  35.334  1.00  0.00    -0.237 OA
ATOM     84  O   UNL A   1      36.360  35.035  33.594  1.00  0.00    -0.744 OA
ENDBRANCH  78  81
ENDBRANCH  50  74
BRANCH  62  85
ATOM     85  C   UNL A   1      44.468  37.874  32.478  1.00  0.00     0.023 A 
ATOM     86  C   UNL A   1      43.773  39.025  32.056  1.00  0.00     0.012 A 
ATOM     87  C   UNL A   1      45.279  37.937  33.628  1.00  0.00     0.148 A 
ATOM     88  C   UNL A   1      43.912  40.228  32.746  1.00  0.00     0.002 A 
ATOM     89  C   UNL A   1      45.371  39.127  34.340  1.00  0.00     0.091 A 
ATOM     90  F   UNL A   1      45.945  36.836  34.004  1.00  0.00    -0.205 F 
ATOM     91  C   UNL A   1      44.701  40.277  33.894  1.00  0.00     0.022 A 
BRANCH  89  92
ATOM     92  S   UNL A   1      46.283  39.259  35.883  1.00  0.00     0.127 S 
ATOM     93  O   UNL A   1      47.653  39.002  35.441  1.00  0.00    -0.237 OA
ATOM     94  O   UNL A   1      46.021  40.642  36.280  1.00  0.00    -0.237 OA
ATOM     95  O   UNL A   1      45.715  38.256  36.772  1.00  0.00    -0.744 OA
ENDBRANCH  89  92
ENDBRANCH  62  85
ENDBRANCH  36  37
ENDBRANCH  28  31
ENDBRANCH  26  27
ENDBRANCH  25  26
ENDBRANCH  24  25
ENDBRANCH  23  24
ENDBRANCH   1  23
TORSDOF 21
ENDMDL
MODEL 3
REMARK VINA RESULT:      -8.1      5.495     12.008
REMARK SMILES COC[C@@H](C)N(C)C(=O)N[C@@H]1C=C[C@@H](C(=O)NCCCCCCNC(=O)c2ccc(-c3c4nc(c(-c5cccc(S(=O)(=O)[O-])c5F)c5ccc([nH]5)c(-c5cccc(S(=O)(=O)[O-])c5F)c5nc(c(-c6cccc(S(=O)(=O)[O-])c6F)c6ccc3[nH]6)C=C5)C=C4)cc2)C1
REMARK SMILES IDX 19 1 18 2 17 3 15 4 16 5 14 7 11 8 12 9 90 10 13 11 10 12
REMARK SMILES IDX 8 13 9 14 6 16 7 17 4 18 5 19 3 20 2 21 1 22 20 23 21 24
REMARK SMILES IDX 22 25 23 26 24 27 25 28 26 30 27 31 28 32 89 33 29 34 88 35
REMARK SMILES IDX 30 36 31 37 32 38 82 39 33 40 87 41 81 42 83 43 34 44 86 45
REMARK SMILES IDX 80 46 79 47 35 49 67 50 47 51 66 52 48 53 51 54 65 55 84 56
REMARK SMILES IDX 49 57 50 58 64 60 85 61 52 62 36 63 37 64 45 65 38 66 40 67
REMARK SMILES IDX 46 68 39 69 41 70 42 71 43 72 44 73 68 74 69 75 77 76 70 77
REMARK SMILES IDX 72 78 78 79 71 80 73 81 74 82 75 83 76 84 53 85 54 86 62 87
REMARK SMILES IDX 55 88 57 89 63 90 56 91 58 92 59 93 60 94 61 95
REMARK H PARENT 17 6 10 15 24 29 83 48 51 59
REMARK Flexibility Score: inf
ROOT
ATOM      1  C   UNL A   1      37.834  33.539  28.840  1.00  0.00     0.021 C 
ENDROOT
BRANCH   1   2
ATOM      2  C   UNL A   1      38.887  32.910  29.750  1.00  0.00     0.116 C 
BRANCH   2   3
ATOM      3  N   UNL A   1      39.025  33.688  30.951  1.00  0.00    -0.356 N 
ATOM      4  C   UNL A   1      40.156  34.173  31.507  1.00  0.00     0.227 C 
ATOM      5  O   UNL A   1      40.072  34.694  32.624  1.00  0.00    -0.274 OA
ATOM      6  H   UNL A   1      38.189  33.893  31.429  1.00  0.00     0.163 HD
BRANCH   4   7
ATOM      7  C   UNL A   1      41.503  34.064  30.808  1.00  0.00     0.103 C 
ATOM      8  C   UNL A   1      43.115  33.022  29.374  1.00  0.00     0.107 C 
ATOM      9  C   UNL A   1      42.846  34.453  28.963  1.00  0.00    -0.006 C 
ATOM     10  C   UNL A   1      41.843  32.719  30.153  1.00  0.00     0.047 C 
ATOM     11  C   UNL A   1      41.910  35.027  29.738  1.00  0.00    -0.016 C 
BRANCH   8  12
ATOM     12  N   UNL A   1      44.345  33.017  30.151  1.00  0.00    -0.332 N 
ATOM     13  C   UNL A   1      45.532  32.471  29.759  1.00  0.00     0.317 C 
ATOM     14  O   UNL A   1      46.395  33.228  29.314  1.00  0.00    -0.249 OA
ATOM     15  H   UNL A   1      44.318  33.445  31.037  1.00  0.00     0.165 HD
BRANCH  13  16
ATOM     16  N   UNL A   1      45.801  31.159  30.130  1.00  0.00    -0.323 N 
ATOM     17  C   UNL A   1      44.849  30.065  30.047  1.00  0.00     0.149 C 
BRANCH  16  18
ATOM     18  C   UNL A   1      46.882  30.915  31.098  1.00  0.00     0.109 C 
ATOM     19  C   UNL A   1      47.165  29.404  31.112  1.00  0.00     0.033 C 
BRANCH  18  20
ATOM     20  C   UNL A   1      46.673  31.527  32.500  1.00  0.00     0.184 C 
BRANCH  20  21
ATOM     21  O   UNL A   1      47.873  31.530  33.295  1.00  0.00    -0.383 OA
ATOM     22  C   UNL A   1      47.717  30.953  34.582  1.00  0.00     0.194 C 
ENDBRANCH  20  21
ENDBRANCH  18  20
ENDBRANCH  16  18
ENDBRANCH  13  16
ENDBRANCH   8  12
ENDBRANCH   4   7
ENDBRANCH   2   3
ENDBRANCH   1   2
BRANCH   1  23
ATOM     23  C   UNL A   1      36.603  34.049  29.594  1.00  0.00     0.002 C 
BRANCH  23  24
ATOM     24  C   UNL A   1      35.480  34.562  28.688  1.00  0.00     0.002 C 
BRANCH  24  25
ATOM     25  C   UNL A   1      34.139  33.847  28.881  1.00  0.00     0.021 C 
BRANCH  25  26
ATOM     26  C   UNL A   1      34.277  32.408  29.353  1.00  0.00     0.116 C 
BRANCH  26  27
ATOM     27  N   UNL A   1      33.819  31.486  28.329  1.00  0.00    -0.352 N 
ATOM     28  C   UNL A   1      34.542  30.521  27.677  1.00  0.00     0.251 C 
ATOM     29  H   UNL A   1      32.872  31.562  28.071  1.00  0.00     0.163 HD
ATOM     30  O   UNL A   1      34.131  30.036  26.630  1.00  0.00    -0.269 OA
BRANCH  28  31
ATOM     31  C   UNL A   1      35.825  30.081  28.260  1.00  0.00     0.039 A 
ATOM     32  C   UNL A   1      35.837  29.520  29.537  1.00  0.00     0.014 A 
ATOM     33  C   UNL A   1      37.011  30.214  27.528  1.00  0.00     0.014 A 
ATOM     34  C   UNL A   1      37.039  29.053  30.067  1.00  0.00     0.010 A 
ATOM     35  C   UNL A   1      38.191  29.678  28.026  1.00  0.00     0.010 A 
ATOM     36  C   UNL A   1      38.219  29.104  29.306  1.00  0.00    -0.014 A 
BRANCH  36  37
ATOM     37  C   UNL A   1      39.491  28.550  29.826  1.00  0.00     0.031 A 
ATOM     38  C   UNL A   1      40.153  29.171  31.026  1.00  0.00     0.074 A 
ATOM     39  C   UNL A   1      40.090  27.540  29.166  1.00  0.00     0.049 A 
ATOM     40  N   UNL A   1      41.283  28.850  31.600  1.00  0.00    -0.248 NA
ATOM     41  C   UNL A   1      39.470  30.317  31.649  1.00  0.00     0.031 C 
ATOM     42  C   UNL A   1      39.584  26.915  27.941  1.00  0.00     0.029 A 
ATOM     43  N   UNL A   1      41.266  26.880  29.415  1.00  0.00    -0.354 N 
ATOM     44  C   UNL A   1      41.463  29.770  32.625  1.00  0.00     0.074 A 
ATOM     45  C   UNL A   1      40.344  30.684  32.575  1.00  0.00     0.031 C 
ATOM     46  C   UNL A   1      40.442  25.960  27.549  1.00  0.00     0.029 A 
ATOM     47  C   UNL A   1      41.572  25.926  28.472  1.00  0.00     0.049 A 
ATOM     48  H   UNL A   1      41.837  27.071  30.193  1.00  0.00     0.167 HD
ATOM     49  C   UNL A   1      42.457  29.830  33.543  1.00  0.00     0.034 A 
ATOM     50  C   UNL A   1      42.646  25.122  28.360  1.00  0.00     0.034 A 
ATOM     51  C   UNL A   1      43.547  28.896  33.608  1.00  0.00     0.049 A 
ATOM     52  C   UNL A   1      43.719  25.188  29.413  1.00  0.00     0.074 A 
ATOM     53  C   UNL A   1      44.552  28.812  34.556  1.00  0.00     0.029 A 
ATOM     54  N   UNL A   1      43.784  27.891  32.683  1.00  0.00    -0.354 N 
ATOM     55  N   UNL A   1      43.785  25.954  30.475  1.00  0.00    -0.248 NA
ATOM     56  C   UNL A   1      44.846  24.256  29.272  1.00  0.00     0.031 C 
ATOM     57  C   UNL A   1      45.415  27.775  34.185  1.00  0.00     0.029 A 
ATOM     58  C   UNL A   1      44.930  27.193  33.026  1.00  0.00     0.049 A 
ATOM     59  H   UNL A   1      43.221  27.702  31.898  1.00  0.00     0.167 HD
ATOM     60  C   UNL A   1      44.943  25.578  31.144  1.00  0.00     0.074 A 
ATOM     61  C   UNL A   1      45.531  24.495  30.382  1.00  0.00     0.031 C 
ATOM     62  C   UNL A   1      45.480  26.090  32.279  1.00  0.00     0.034 A 
BRANCH  49  63
ATOM     63  C   UNL A   1      42.386  30.918  34.583  1.00  0.00     0.023 A 
ATOM     64  C   UNL A   1      41.872  30.626  35.863  1.00  0.00     0.012 A 
ATOM     65  C   UNL A   1      42.883  32.208  34.318  1.00  0.00     0.148 A 
ATOM     66  C   UNL A   1      41.823  31.608  36.852  1.00  0.00     0.002 A 
ATOM     67  C   UNL A   1      42.875  33.170  35.322  1.00  0.00     0.091 A 
ATOM     68  F   UNL A   1      43.349  32.474  33.088  1.00  0.00    -0.205 F 
ATOM     69  C   UNL A   1      42.335  32.875  36.584  1.00  0.00     0.022 A 
BRANCH  67  70
ATOM     70  S   UNL A   1      43.584  34.806  35.105  1.00  0.00     0.127 S 
ATOM     71  O   UNL A   1      42.704  35.620  35.942  1.00  0.00    -0.237 OA
ATOM     72  O   UNL A   1      44.935  34.627  35.634  1.00  0.00    -0.237 OA
ATOM     73  O   UNL A   1      43.520  35.085  33.677  1.00  0.00    -0.744 OA
ENDBRANCH  67  70
ENDBRANCH  49  63
BRANCH  50  74
ATOM     74  C   UNL A   1      42.731  24.148  27.235  1.00  0.00     0.023 A 
ATOM     75  C   UNL A   1      43.422  24.503  26.061  1.00  0.00     0.012 A 
ATOM     76  C   UNL A   1      42.158  22.866  27.334  1.00  0.00     0.148 A 
ATOM     77  C   UNL A   1      43.513  23.611  24.992  1.00  0.00     0.002 A 
ATOM     78  C   UNL A   1      42.302  21.961  26.289  1.00  0.00     0.091 A 
ATOM     79  F   UNL A   1      41.495  22.551  28.457  1.00  0.00    -0.205 F 
ATOM     80  C   UNL A   1      42.962  22.337  25.110  1.00  0.00     0.022 A 
BRANCH  78  81
ATOM     81  S   UNL A   1      41.745  20.257  26.411  1.00  0.00     0.127 S 
ATOM     82  O   UNL A   1      40.297  20.407  26.292  1.00  0.00    -0.237 OA
ATOM     83  O   UNL A   1      42.399  19.642  25.255  1.00  0.00    -0.237 OA
ATOM     84  O   UNL A   1      42.230  19.776  27.698  1.00  0.00    -0.744 OA
ENDBRANCH  78  81
ENDBRANCH  50  74
BRANCH  62  85
ATOM     85  C   UNL A   1      46.759  25.474  32.784  1.00  0.00     0.023 A 
ATOM     86  C   UNL A   1      48.000  25.966  32.331  1.00  0.00     0.012 A 
ATOM     87  C   UNL A   1      46.731  24.456  33.756  1.00  0.00     0.148 A 
ATOM     88  C   UNL A   1      49.192  25.427  32.812  1.00  0.00     0.002 A 
ATOM     89  C   UNL A   1      47.923  23.960  34.269  1.00  0.00     0.091 A 
ATOM     90  F   UNL A   1      45.541  23.989  34.162  1.00  0.00    -0.205 F 
ATOM     91  C   UNL A   1      49.155  24.435  33.789  1.00  0.00     0.022 A 
BRANCH  89  92
ATOM     92  S   UNL A   1      47.974  22.752  35.597  1.00  0.00     0.127 S 
ATOM     93  O   UNL A   1      47.636  21.518  34.890  1.00  0.00    -0.237 OA
ATOM     94  O   UNL A   1      49.365  22.838  36.042  1.00  0.00    -0.237 OA
ATOM     95  O   UNL A   1      46.996  23.195  36.581  1.00  0.00    -0.744 OA
ENDBRANCH  89  92
ENDBRANCH  62  85
ENDBRANCH  36  37
ENDBRANCH  28  31
ENDBRANCH  26  27
ENDBRANCH  25  26
ENDBRANCH  24  25
ENDBRANCH  23  24
ENDBRANCH   1  23
TORSDOF 21
ENDMDL
