MODEL 1
REMARK VINA RESULT:     -11.7      0.000      0.000
REMARK SMILES O=C(NCCCCCCNC(=O)c1ccc(-c2c3nc(c(-c4cccc(S(=O)(=O)[O-])c4F)c4ccc([nH]4)c(-c4cccc(S(=O)(=O)[O-])c4F)c4nc(c(-c5cccc(S(=O)(=O)[O-])c5F)c5ccc2[nH]5)C=C4)C=C3)cc1)c1ccc(C[C@H]2SC(=O)N(c3ccccc3)C2=O)cc1
REMARK SMILES IDX 6 1 5 2 4 3 3 4 1 5 2 6 76 8 77 9 95 10 78 11 94 12 79 13
REMARK SMILES IDX 80 14 81 15 82 16 92 17 83 18 85 19 93 20 84 21 86 22 87 23
REMARK SMILES IDX 91 24 88 25 90 26 89 27 7 28 8 29 9 30 10 31 11 32 12 34
REMARK SMILES IDX 13 35 14 36 75 37 15 38 74 39 16 40 17 41 18 42 68 43 19 44
REMARK SMILES IDX 73 45 67 46 69 47 20 48 72 49 66 50 65 51 21 53 53 54 33 55
REMARK SMILES IDX 52 56 34 57 37 58 51 59 70 60 35 61 36 62 50 64 71 65 38 66
REMARK SMILES IDX 22 67 23 68 31 69 24 70 26 71 32 72 25 73 27 74 28 75 29 76
REMARK SMILES IDX 30 77 54 78 55 79 63 80 56 81 58 82 64 83 57 84 59 85 60 86
REMARK SMILES IDX 61 87 62 88 39 89 40 90 48 91 41 92 43 93 49 94 42 95 44 96
REMARK SMILES IDX 45 97 46 98 47 99
REMARK H PARENT 3 7 10 33 69 52 37 63
REMARK Flexibility Score: inf
ROOT
ATOM      1  C   UNL A   1      33.120  27.595  23.675  1.00  0.00     0.002 C 
ENDROOT
BRANCH   1   2
ATOM      2  C   UNL A   1      31.959  28.579  23.507  1.00  0.00     0.021 C 
BRANCH   2   3
ATOM      3  C   UNL A   1      30.945  28.197  22.430  1.00  0.00     0.116 C 
BRANCH   3   4
ATOM      4  N   UNL A   1      29.590  28.114  22.958  1.00  0.00    -0.352 N 
ATOM      5  O   UNL A   1      27.797  27.093  23.889  1.00  0.00    -0.269 OA
ATOM      6  C   UNL A   1      29.000  27.089  23.656  1.00  0.00     0.251 C 
ATOM      7  H   UNL A   1      29.020  28.898  22.790  1.00  0.00     0.163 HD
BRANCH   6   8
ATOM      8  C   UNL A   1      29.836  25.957  24.105  1.00  0.00     0.039 A 
ATOM      9  C   UNL A   1      30.209  25.847  25.446  1.00  0.00     0.014 A 
ATOM     10  C   UNL A   1      30.282  25.026  23.167  1.00  0.00     0.014 A 
ATOM     11  C   UNL A   1      31.115  24.861  25.828  1.00  0.00     0.004 A 
ATOM     12  C   UNL A   1      31.199  24.044  23.552  1.00  0.00     0.004 A 
ATOM     13  C   UNL A   1      31.654  23.980  24.878  1.00  0.00    -0.046 A 
BRANCH  13  14
ATOM     14  C   UNL A   1      32.743  23.009  25.278  1.00  0.00     0.060 C 
BRANCH  14  15
ATOM     15  C   UNL A   1      33.485  22.361  24.092  1.00  0.00     0.151 C 
ATOM     16  S   UNL A   1      35.278  22.268  24.332  1.00  0.00    -0.050 SA
ATOM     17  C   UNL A   1      33.042  20.916  23.967  1.00  0.00     0.248 C 
ATOM     18  C   UNL A   1      35.213  20.586  24.811  1.00  0.00     0.293 C 
ATOM     19  N   UNL A   1      34.000  20.038  24.453  1.00  0.00    -0.240 N 
ATOM     20  O   UNL A   1      31.908  20.635  23.583  1.00  0.00    -0.273 OA
ATOM     21  O   UNL A   1      36.165  20.058  25.353  1.00  0.00    -0.261 OA
BRANCH  19  22
ATOM     22  C   UNL A   1      33.743  18.645  24.601  1.00  0.00     0.053 A 
ATOM     23  C   UNL A   1      32.884  18.175  25.605  1.00  0.00     0.027 A 
ATOM     24  C   UNL A   1      34.335  17.708  23.740  1.00  0.00     0.027 A 
ATOM     25  C   UNL A   1      32.615  16.809  25.735  1.00  0.00     0.002 A 
ATOM     26  C   UNL A   1      34.093  16.339  23.893  1.00  0.00     0.002 A 
ATOM     27  C   UNL A   1      33.228  15.892  24.886  1.00  0.00     0.000 A 
ENDBRANCH  19  22
ENDBRANCH  14  15
ENDBRANCH  13  14
ENDBRANCH   6   8
ENDBRANCH   3   4
ENDBRANCH   2   3
ENDBRANCH   1   2
BRANCH   1  28
ATOM     28  C   UNL A   1      33.619  27.409  25.111  1.00  0.00     0.002 C 
BRANCH  28  29
ATOM     29  C   UNL A   1      33.000  28.350  26.147  1.00  0.00     0.021 C 
BRANCH  29  30
ATOM     30  C   UNL A   1      33.975  28.903  27.178  1.00  0.00     0.116 C 
BRANCH  30  31
ATOM     31  N   UNL A   1      33.850  30.344  27.343  1.00  0.00    -0.352 N 
ATOM     32  C   UNL A   1      34.648  31.213  28.045  1.00  0.00     0.251 C 
ATOM     33  H   UNL A   1      33.081  30.754  26.885  1.00  0.00     0.163 HD
ATOM     34  O   UNL A   1      34.283  32.373  28.222  1.00  0.00    -0.269 OA
BRANCH  32  35
ATOM     35  C   UNL A   1      35.935  30.746  28.605  1.00  0.00     0.039 A 
ATOM     36  C   UNL A   1      35.934  29.677  29.504  1.00  0.00     0.014 A 
ATOM     37  C   UNL A   1      37.138  31.358  28.244  1.00  0.00     0.014 A 
ATOM     38  C   UNL A   1      37.145  29.185  29.996  1.00  0.00     0.010 A 
ATOM     39  C   UNL A   1      38.347  30.816  28.671  1.00  0.00     0.010 A 
ATOM     40  C   UNL A   1      38.364  29.728  29.557  1.00  0.00    -0.014 A 
BRANCH  40  41
ATOM     41  C   UNL A   1      39.664  29.162  30.003  1.00  0.00     0.031 A 
ATOM     42  C   UNL A   1      40.413  29.783  31.152  1.00  0.00     0.074 A 
ATOM     43  C   UNL A   1      40.212  28.136  29.320  1.00  0.00     0.049 A 
ATOM     44  N   UNL A   1      41.572  29.450  31.656  1.00  0.00    -0.248 NA
ATOM     45  C   UNL A   1      39.790  30.947  31.804  1.00  0.00     0.031 C 
ATOM     46  C   UNL A   1      39.622  27.491  28.146  1.00  0.00     0.029 A 
ATOM     47  N   UNL A   1      41.400  27.470  29.501  1.00  0.00    -0.354 N 
ATOM     48  C   UNL A   1      41.838  30.384  32.651  1.00  0.00     0.074 A 
ATOM     49  C   UNL A   1      40.731  31.315  32.661  1.00  0.00     0.031 C 
ATOM     50  C   UNL A   1      40.439  26.514  27.723  1.00  0.00     0.029 A 
ATOM     51  C   UNL A   1      41.628  26.486  28.568  1.00  0.00     0.049 A 
ATOM     52  H   UNL A   1      42.027  27.678  30.231  1.00  0.00     0.167 HD
ATOM     53  C   UNL A   1      42.896  30.450  33.494  1.00  0.00     0.034 A 
ATOM     54  C   UNL A   1      42.681  25.660  28.404  1.00  0.00     0.034 A 
ATOM     55  C   UNL A   1      43.978  29.502  33.504  1.00  0.00     0.049 A 
ATOM     56  C   UNL A   1      43.832  25.742  29.368  1.00  0.00     0.074 A 
ATOM     57  C   UNL A   1      45.043  29.423  34.384  1.00  0.00     0.029 A 
ATOM     58  N   UNL A   1      44.148  28.483  32.580  1.00  0.00    -0.354 N 
ATOM     59  N   UNL A   1      43.986  26.527  30.407  1.00  0.00    -0.248 NA
ATOM     60  C   UNL A   1      44.941  24.800  29.159  1.00  0.00     0.031 C 
ATOM     61  C   UNL A   1      45.881  28.385  33.963  1.00  0.00     0.029 A 
ATOM     62  C   UNL A   1      45.313  27.785  32.851  1.00  0.00     0.049 A 
ATOM     63  H   UNL A   1      43.530  28.284  31.839  1.00  0.00     0.167 HD
ATOM     64  C   UNL A   1      45.186  26.148  30.997  1.00  0.00     0.074 A 
ATOM     65  C   UNL A   1      45.710  25.050  30.210  1.00  0.00     0.031 C 
ATOM     66  C   UNL A   1      45.802  26.666  32.088  1.00  0.00     0.034 A 
BRANCH  53  67
ATOM     67  C   UNL A   1      42.927  31.574  34.497  1.00  0.00     0.023 A 
ATOM     68  C   UNL A   1      43.693  32.730  34.239  1.00  0.00     0.012 A 
ATOM     69  C   UNL A   1      42.154  31.509  35.674  1.00  0.00     0.148 A 
ATOM     70  C   UNL A   1      43.723  33.783  35.153  1.00  0.00     0.002 A 
ATOM     71  C   UNL A   1      42.148  32.583  36.555  1.00  0.00     0.091 A 
ATOM     72  F   UNL A   1      41.447  30.395  35.913  1.00  0.00    -0.205 F 
ATOM     73  C   UNL A   1      42.943  33.714  36.305  1.00  0.00     0.022 A 
BRANCH  71  74
ATOM     74  S   UNL A   1      41.113  32.627  38.022  1.00  0.00     0.127 S 
ATOM     75  O   UNL A   1      41.022  34.064  38.276  1.00  0.00    -0.237 OA
ATOM     76  O   UNL A   1      39.875  32.012  37.541  1.00  0.00    -0.237 OA
ATOM     77  O   UNL A   1      41.818  31.856  39.036  1.00  0.00    -0.744 OA
ENDBRANCH  71  74
ENDBRANCH  53  67
BRANCH  54  78
ATOM     78  C   UNL A   1      42.665  24.637  27.320  1.00  0.00     0.023 A 
ATOM     79  C   UNL A   1      43.288  24.926  26.090  1.00  0.00     0.012 A 
ATOM     80  C   UNL A   1      42.056  23.381  27.502  1.00  0.00     0.148 A 
ATOM     81  C   UNL A   1      43.275  23.997  25.049  1.00  0.00     0.002 A 
ATOM     82  C   UNL A   1      42.096  22.438  26.482  1.00  0.00     0.091 A 
ATOM     83  F   UNL A   1      41.463  23.128  28.678  1.00  0.00    -0.205 F 
ATOM     84  C   UNL A   1      42.687  22.750  25.249  1.00  0.00     0.022 A 
BRANCH  82  85
ATOM     85  S   UNL A   1      41.479  20.764  26.688  1.00  0.00     0.127 S 
ATOM     86  O   UNL A   1      40.036  20.982  26.743  1.00  0.00    -0.237 OA
ATOM     87  O   UNL A   1      41.958  20.116  25.467  1.00  0.00    -0.237 OA
ATOM     88  O   UNL A   1      42.089  20.266  27.913  1.00  0.00    -0.744 OA
ENDBRANCH  82  85
ENDBRANCH  54  78
BRANCH  66  89
ATOM     89  C   UNL A   1      47.093  26.027  32.535  1.00  0.00     0.023 A 
ATOM     90  C   UNL A   1      48.320  26.445  31.983  1.00  0.00     0.012 A 
ATOM     91  C   UNL A   1      47.091  25.057  33.558  1.00  0.00     0.148 A 
ATOM     92  C   UNL A   1      49.521  25.883  32.415  1.00  0.00     0.002 A 
ATOM     93  C   UNL A   1      48.295  24.542  34.023  1.00  0.00     0.091 A 
ATOM     94  F   UNL A   1      45.913  24.659  34.059  1.00  0.00    -0.205 F 
ATOM     95  C   UNL A   1      49.509  24.941  33.442  1.00  0.00     0.022 A 
BRANCH  93  96
ATOM     96  S   UNL A   1      48.385  23.404  35.409  1.00  0.00     0.127 S 
ATOM     97  O   UNL A   1      47.334  23.920  36.286  1.00  0.00    -0.237 OA
ATOM     98  O   UNL A   1      48.076  22.121  34.777  1.00  0.00    -0.237 OA
ATOM     99  O   UNL A   1      49.740  23.511  35.933  1.00  0.00    -0.744 OA
ENDBRANCH  93  96
ENDBRANCH  66  89
ENDBRANCH  40  41
ENDBRANCH  32  35
ENDBRANCH  30  31
ENDBRANCH  29  30
ENDBRANCH  28  29
ENDBRANCH   1  28
TORSDOF 19
ENDMDL
MODEL 2
REMARK VINA RESULT:     -11.6      1.923      2.668
REMARK SMILES O=C(NCCCCCCNC(=O)c1ccc(-c2c3nc(c(-c4cccc(S(=O)(=O)[O-])c4F)c4ccc([nH]4)c(-c4cccc(S(=O)(=O)[O-])c4F)c4nc(c(-c5cccc(S(=O)(=O)[O-])c5F)c5ccc2[nH]5)C=C4)C=C3)cc1)c1ccc(C[C@H]2SC(=O)N(c3ccccc3)C2=O)cc1
REMARK SMILES IDX 6 1 5 2 4 3 3 4 1 5 2 6 76 8 77 9 95 10 78 11 94 12 79 13
REMARK SMILES IDX 80 14 81 15 82 16 92 17 83 18 85 19 93 20 84 21 86 22 87 23
REMARK SMILES IDX 91 24 88 25 90 26 89 27 7 28 8 29 9 30 10 31 11 32 12 34
REMARK SMILES IDX 13 35 14 36 75 37 15 38 74 39 16 40 17 41 18 42 68 43 19 44
REMARK SMILES IDX 73 45 67 46 69 47 20 48 72 49 66 50 65 51 21 53 53 54 33 55
REMARK SMILES IDX 52 56 34 57 37 58 51 59 70 60 35 61 36 62 50 64 71 65 38 66
REMARK SMILES IDX 22 67 23 68 31 69 24 70 26 71 32 72 25 73 27 74 28 75 29 76
REMARK SMILES IDX 30 77 54 78 55 79 63 80 56 81 58 82 64 83 57 84 59 85 60 86
REMARK SMILES IDX 61 87 62 88 39 89 40 90 48 91 41 92 43 93 49 94 42 95 44 96
REMARK SMILES IDX 45 97 46 98 47 99
REMARK H PARENT 3 7 10 33 69 52 37 63
REMARK Flexibility Score: inf
ROOT
ATOM      1  C   UNL A   1      32.460  28.949  22.478  1.00  0.00     0.002 C 
ENDROOT
BRANCH   1   2
ATOM      2  C   UNL A   1      30.942  29.068  22.313  1.00  0.00     0.021 C 
BRANCH   2   3
ATOM      3  C   UNL A   1      30.171  29.284  23.614  1.00  0.00     0.116 C 
BRANCH   3   4
ATOM      4  N   UNL A   1      28.925  28.531  23.645  1.00  0.00    -0.352 N 
ATOM      5  O   UNL A   1      27.638  26.668  23.640  1.00  0.00    -0.269 OA
ATOM      6  C   UNL A   1      28.740  27.180  23.805  1.00  0.00     0.251 C 
ATOM      7  H   UNL A   1      28.104  29.062  23.534  1.00  0.00     0.163 HD
BRANCH   6   8
ATOM      8  C   UNL A   1      29.901  26.337  24.156  1.00  0.00     0.039 A 
ATOM      9  C   UNL A   1      30.546  25.584  23.173  1.00  0.00     0.014 A 
ATOM     10  C   UNL A   1      30.317  26.270  25.486  1.00  0.00     0.014 A 
ATOM     11  C   UNL A   1      31.542  24.683  23.541  1.00  0.00     0.004 A 
ATOM     12  C   UNL A   1      31.310  25.359  25.853  1.00  0.00     0.004 A 
ATOM     13  C   UNL A   1      31.902  24.529  24.888  1.00  0.00    -0.046 A 
BRANCH  13  14
ATOM     14  C   UNL A   1      32.881  23.448  25.291  1.00  0.00     0.060 C 
BRANCH  14  15
ATOM     15  C   UNL A   1      33.596  22.763  24.109  1.00  0.00     0.151 C 
ATOM     16  S   UNL A   1      35.380  22.578  24.358  1.00  0.00    -0.050 SA
ATOM     17  C   UNL A   1      33.080  21.342  23.981  1.00  0.00     0.248 C 
ATOM     18  C   UNL A   1      35.227  20.902  24.836  1.00  0.00     0.293 C 
ATOM     19  N   UNL A   1      33.990  20.417  24.473  1.00  0.00    -0.240 N 
ATOM     20  O   UNL A   1      31.935  21.120  23.592  1.00  0.00    -0.273 OA
ATOM     21  O   UNL A   1      36.147  20.326  25.384  1.00  0.00    -0.261 OA
BRANCH  19  22
ATOM     22  C   UNL A   1      33.661  19.038  24.619  1.00  0.00     0.053 A 
ATOM     23  C   UNL A   1      32.880  18.596  25.697  1.00  0.00     0.027 A 
ATOM     24  C   UNL A   1      34.101  18.090  23.683  1.00  0.00     0.027 A 
ATOM     25  C   UNL A   1      32.539  17.247  25.827  1.00  0.00     0.002 A 
ATOM     26  C   UNL A   1      33.790  16.735  23.833  1.00  0.00     0.002 A 
ATOM     27  C   UNL A   1      33.003  16.315  24.901  1.00  0.00     0.000 A 
ENDBRANCH  19  22
ENDBRANCH  14  15
ENDBRANCH  13  14
ENDBRANCH   6   8
ENDBRANCH   3   4
ENDBRANCH   2   3
ENDBRANCH   1   2
BRANCH   1  28
ATOM     28  C   UNL A   1      32.927  28.172  23.711  1.00  0.00     0.002 C 
BRANCH  28  29
ATOM     29  C   UNL A   1      33.708  28.990  24.744  1.00  0.00     0.021 C 
BRANCH  29  30
ATOM     30  C   UNL A   1      32.965  29.260  26.046  1.00  0.00     0.116 C 
BRANCH  30  31
ATOM     31  N   UNL A   1      32.773  30.682  26.291  1.00  0.00    -0.352 N 
ATOM     32  C   UNL A   1      33.459  31.520  27.135  1.00  0.00     0.251 C 
ATOM     33  H   UNL A   1      32.047  31.103  25.777  1.00  0.00     0.163 HD
ATOM     34  O   UNL A   1      33.038  32.655  27.346  1.00  0.00    -0.269 OA
BRANCH  32  35
ATOM     35  C   UNL A   1      34.691  31.049  27.805  1.00  0.00     0.039 A 
ATOM     36  C   UNL A   1      35.726  31.957  28.034  1.00  0.00     0.014 A 
ATOM     37  C   UNL A   1      34.824  29.717  28.206  1.00  0.00     0.014 A 
ATOM     38  C   UNL A   1      36.872  31.543  28.718  1.00  0.00     0.010 A 
ATOM     39  C   UNL A   1      35.928  29.327  28.957  1.00  0.00     0.010 A 
ATOM     40  C   UNL A   1      36.968  30.233  29.216  1.00  0.00    -0.014 A 
BRANCH  40  41
ATOM     41  C   UNL A   1      38.141  29.799  30.020  1.00  0.00     0.031 A 
ATOM     42  C   UNL A   1      38.353  30.335  31.410  1.00  0.00     0.074 A 
ATOM     43  C   UNL A   1      39.061  28.983  29.466  1.00  0.00     0.049 A 
ATOM     44  N   UNL A   1      39.332  30.099  32.244  1.00  0.00    -0.248 NA
ATOM     45  C   UNL A   1      37.346  31.279  31.923  1.00  0.00     0.031 C 
ATOM     46  C   UNL A   1      39.008  28.450  28.104  1.00  0.00     0.029 A 
ATOM     47  N   UNL A   1      40.233  28.477  29.974  1.00  0.00    -0.354 N 
ATOM     48  C   UNL A   1      39.086  30.894  33.357  1.00  0.00     0.074 A 
ATOM     49  C   UNL A   1      37.878  31.641  33.081  1.00  0.00     0.031 C 
ATOM     50  C   UNL A   1      40.087  27.681  27.889  1.00  0.00     0.029 A 
ATOM     51  C   UNL A   1      40.928  27.695  29.082  1.00  0.00     0.049 A 
ATOM     52  H   UNL A   1      40.544  28.657  30.890  1.00  0.00     0.167 HD
ATOM     53  C   UNL A   1      39.788  30.981  34.512  1.00  0.00     0.034 A 
ATOM     54  C   UNL A   1      42.114  27.066  29.205  1.00  0.00     0.034 A 
ATOM     55  C   UNL A   1      40.969  30.210  34.796  1.00  0.00     0.049 A 
ATOM     56  C   UNL A   1      42.861  27.162  30.507  1.00  0.00     0.074 A 
ATOM     57  C   UNL A   1      41.693  30.150  35.973  1.00  0.00     0.029 A 
ATOM     58  N   UNL A   1      41.613  29.384  33.889  1.00  0.00    -0.354 N 
ATOM     59  N   UNL A   1      42.525  27.790  31.609  1.00  0.00    -0.248 NA
ATOM     60  C   UNL A   1      44.136  26.437  30.596  1.00  0.00     0.031 C 
ATOM     61  C   UNL A   1      42.801  29.324  35.763  1.00  0.00     0.029 A 
ATOM     62  C   UNL A   1      42.741  28.829  34.470  1.00  0.00     0.049 A 
ATOM     63  H   UNL A   1      41.313  29.216  32.966  1.00  0.00     0.167 HD
ATOM     64  C   UNL A   1      43.524  27.501  32.531  1.00  0.00     0.074 A 
ATOM     65  C   UNL A   1      44.468  26.628  31.866  1.00  0.00     0.031 C 
ATOM     66  C   UNL A   1      43.650  27.926  33.813  1.00  0.00     0.034 A 
BRANCH  53  67
ATOM     67  C   UNL A   1      39.285  31.927  35.571  1.00  0.00     0.023 A 
ATOM     68  C   UNL A   1      38.363  31.478  36.539  1.00  0.00     0.012 A 
ATOM     69  C   UNL A   1      39.766  33.250  35.641  1.00  0.00     0.148 A 
ATOM     70  C   UNL A   1      37.896  32.340  37.532  1.00  0.00     0.002 A 
ATOM     71  C   UNL A   1      39.336  34.087  36.663  1.00  0.00     0.091 A 
ATOM     72  F   UNL A   1      40.627  33.667  34.701  1.00  0.00    -0.205 F 
ATOM     73  C   UNL A   1      38.390  33.640  37.600  1.00  0.00     0.022 A 
BRANCH  71  74
ATOM     74  S   UNL A   1      39.977  35.750  36.886  1.00  0.00     0.127 S 
ATOM     75  O   UNL A   1      39.250  36.189  38.077  1.00  0.00    -0.237 OA
ATOM     76  O   UNL A   1      41.404  35.503  37.099  1.00  0.00    -0.237 OA
ATOM     77  O   UNL A   1      39.662  36.471  35.662  1.00  0.00    -0.744 OA
ENDBRANCH  71  74
ENDBRANCH  53  67
BRANCH  54  78
ATOM     78  C   UNL A   1      42.639  26.234  28.085  1.00  0.00     0.023 A 
ATOM     79  C   UNL A   1      43.724  26.708  27.323  1.00  0.00     0.012 A 
ATOM     80  C   UNL A   1      42.084  24.976  27.781  1.00  0.00     0.148 A 
ATOM     81  C   UNL A   1      44.226  25.961  26.256  1.00  0.00     0.002 A 
ATOM     82  C   UNL A   1      42.625  24.212  26.754  1.00  0.00     0.091 A 
ATOM     83  F   UNL A   1      41.047  24.546  28.514  1.00  0.00    -0.205 F 
ATOM     84  C   UNL A   1      43.683  24.710  25.978  1.00  0.00     0.022 A 
BRANCH  82  85
ATOM     85  S   UNL A   1      42.077  22.538  26.403  1.00  0.00     0.127 S 
ATOM     86  O   UNL A   1      42.612  21.802  27.546  1.00  0.00    -0.237 OA
ATOM     87  O   UNL A   1      40.622  22.695  26.399  1.00  0.00    -0.237 OA
ATOM     88  O   UNL A   1      42.649  22.197  25.108  1.00  0.00    -0.744 OA
ENDBRANCH  82  85
ENDBRANCH  54  78
BRANCH  66  89
ATOM     89  C   UNL A   1      44.828  27.420  34.607  1.00  0.00     0.023 A 
ATOM     90  C   UNL A   1      45.992  28.204  34.728  1.00  0.00     0.012 A 
ATOM     91  C   UNL A   1      44.749  26.191  35.293  1.00  0.00     0.148 A 
ATOM     92  C   UNL A   1      47.073  27.757  35.488  1.00  0.00     0.002 A 
ATOM     93  C   UNL A   1      45.807  25.778  36.094  1.00  0.00     0.091 A 
ATOM     94  F   UNL A   1      43.640  25.450  35.153  1.00  0.00    -0.205 F 
ATOM     95  C   UNL A   1      46.975  26.552  36.180  1.00  0.00     0.022 A 
BRANCH  93  96
ATOM     96  S   UNL A   1      45.730  24.294  37.102  1.00  0.00     0.127 S 
ATOM     97  O   UNL A   1      47.084  24.237  37.651  1.00  0.00    -0.237 OA
ATOM     98  O   UNL A   1      44.692  24.634  38.075  1.00  0.00    -0.237 OA
ATOM     99  O   UNL A   1      45.380  23.208  36.197  1.00  0.00    -0.744 OA
ENDBRANCH  93  96
ENDBRANCH  66  89
ENDBRANCH  40  41
ENDBRANCH  32  35
ENDBRANCH  30  31
ENDBRANCH  29  30
ENDBRANCH  28  29
ENDBRANCH   1  28
TORSDOF 19
ENDMDL
MODEL 3
REMARK VINA RESULT:     -11.5      1.398      1.701
REMARK SMILES O=C(NCCCCCCNC(=O)c1ccc(-c2c3nc(c(-c4cccc(S(=O)(=O)[O-])c4F)c4ccc([nH]4)c(-c4cccc(S(=O)(=O)[O-])c4F)c4nc(c(-c5cccc(S(=O)(=O)[O-])c5F)c5ccc2[nH]5)C=C4)C=C3)cc1)c1ccc(C[C@H]2SC(=O)N(c3ccccc3)C2=O)cc1
REMARK SMILES IDX 6 1 5 2 4 3 3 4 1 5 2 6 76 8 77 9 95 10 78 11 94 12 79 13
REMARK SMILES IDX 80 14 81 15 82 16 92 17 83 18 85 19 93 20 84 21 86 22 87 23
REMARK SMILES IDX 91 24 88 25 90 26 89 27 7 28 8 29 9 30 10 31 11 32 12 34
REMARK SMILES IDX 13 35 14 36 75 37 15 38 74 39 16 40 17 41 18 42 68 43 19 44
REMARK SMILES IDX 73 45 67 46 69 47 20 48 72 49 66 50 65 51 21 53 53 54 33 55
REMARK SMILES IDX 52 56 34 57 37 58 51 59 70 60 35 61 36 62 50 64 71 65 38 66
REMARK SMILES IDX 22 67 23 68 31 69 24 70 26 71 32 72 25 73 27 74 28 75 29 76
REMARK SMILES IDX 30 77 54 78 55 79 63 80 56 81 58 82 64 83 57 84 59 85 60 86
REMARK SMILES IDX 61 87 62 88 39 89 40 90 48 91 41 92 43 93 49 94 42 95 44 96
REMARK SMILES IDX 45 97 46 98 47 99
REMARK H PARENT 3 7 10 33 69 52 37 63
REMARK Flexibility Score: inf
ROOT
ATOM      1  C   UNL A   1      33.289  27.765  23.794  1.00  0.00     0.002 C 
ENDROOT
BRANCH   1   2
ATOM      2  C   UNL A   1      32.103  28.678  23.471  1.00  0.00     0.021 C 
BRANCH   2   3
ATOM      3  C   UNL A   1      31.122  28.116  22.444  1.00  0.00     0.116 C 
BRANCH   3   4
ATOM      4  N   UNL A   1      29.762  28.053  22.961  1.00  0.00    -0.352 N 
ATOM      5  O   UNL A   1      27.954  27.066  23.899  1.00  0.00    -0.269 OA
ATOM      6  C   UNL A   1      29.159  27.048  23.676  1.00  0.00     0.251 C 
ATOM      7  H   UNL A   1      29.199  28.838  22.772  1.00  0.00     0.163 HD
BRANCH   6   8
ATOM      8  C   UNL A   1      29.983  25.921  24.156  1.00  0.00     0.039 A 
ATOM      9  C   UNL A   1      30.485  25.922  25.459  1.00  0.00     0.014 A 
ATOM     10  C   UNL A   1      30.287  24.878  23.281  1.00  0.00     0.014 A 
ATOM     11  C   UNL A   1      31.378  24.929  25.852  1.00  0.00     0.004 A 
ATOM     12  C   UNL A   1      31.192  23.889  23.675  1.00  0.00     0.004 A 
ATOM     13  C   UNL A   1      31.776  23.929  24.950  1.00  0.00    -0.046 A 
BRANCH  13  14
ATOM     14  C   UNL A   1      32.854  22.942  25.341  1.00  0.00     0.060 C 
BRANCH  14  15
ATOM     15  C   UNL A   1      33.585  22.292  24.149  1.00  0.00     0.151 C 
ATOM     16  S   UNL A   1      35.378  22.181  24.380  1.00  0.00    -0.050 SA
ATOM     17  C   UNL A   1      33.128  20.852  24.019  1.00  0.00     0.248 C 
ATOM     18  C   UNL A   1      35.299  20.498  24.852  1.00  0.00     0.293 C 
ATOM     19  N   UNL A   1      34.079  19.963  24.498  1.00  0.00    -0.240 N 
ATOM     20  O   UNL A   1      31.989  20.584  23.640  1.00  0.00    -0.273 OA
ATOM     21  O   UNL A   1      36.248  19.959  25.388  1.00  0.00    -0.261 OA
BRANCH  19  22
ATOM     22  C   UNL A   1      33.810  18.572  24.640  1.00  0.00     0.053 A 
ATOM     23  C   UNL A   1      32.894  18.112  25.598  1.00  0.00     0.027 A 
ATOM     24  C   UNL A   1      34.446  17.627  23.821  1.00  0.00     0.027 A 
ATOM     25  C   UNL A   1      32.613  16.748  25.722  1.00  0.00     0.002 A 
ATOM     26  C   UNL A   1      34.191  16.260  23.969  1.00  0.00     0.002 A 
ATOM     27  C   UNL A   1      33.269  15.822  24.915  1.00  0.00     0.000 A 
ENDBRANCH  19  22
ENDBRANCH  14  15
ENDBRANCH  13  14
ENDBRANCH   6   8
ENDBRANCH   3   4
ENDBRANCH   2   3
ENDBRANCH   1   2
BRANCH   1  28
ATOM     28  C   UNL A   1      33.791  27.829  25.239  1.00  0.00     0.002 C 
BRANCH  28  29
ATOM     29  C   UNL A   1      33.437  29.110  25.999  1.00  0.00     0.021 C 
BRANCH  29  30
ATOM     30  C   UNL A   1      34.391  29.472  27.131  1.00  0.00     0.116 C 
BRANCH  30  31
ATOM     31  N   UNL A   1      34.073  30.757  27.735  1.00  0.00    -0.352 N 
ATOM     32  C   UNL A   1      34.728  31.437  28.731  1.00  0.00     0.251 C 
ATOM     33  H   UNL A   1      33.271  31.203  27.377  1.00  0.00     0.163 HD
ATOM     34  O   UNL A   1      34.209  32.428  29.240  1.00  0.00    -0.269 OA
BRANCH  32  35
ATOM     35  C   UNL A   1      36.048  30.965  29.204  1.00  0.00     0.039 A 
ATOM     36  C   UNL A   1      36.099  29.981  30.194  1.00  0.00     0.014 A 
ATOM     37  C   UNL A   1      37.229  31.489  28.672  1.00  0.00     0.014 A 
ATOM     38  C   UNL A   1      37.336  29.481  30.609  1.00  0.00     0.010 A 
ATOM     39  C   UNL A   1      38.455  30.933  29.028  1.00  0.00     0.010 A 
ATOM     40  C   UNL A   1      38.523  29.929  30.005  1.00  0.00    -0.014 A 
BRANCH  40  41
ATOM     41  C   UNL A   1      39.841  29.347  30.373  1.00  0.00     0.031 A 
ATOM     42  C   UNL A   1      40.652  29.944  31.492  1.00  0.00     0.074 A 
ATOM     43  C   UNL A   1      40.345  28.330  29.645  1.00  0.00     0.049 A 
ATOM     44  N   UNL A   1      41.834  29.595  31.929  1.00  0.00    -0.248 NA
ATOM     45  C   UNL A   1      40.072  31.100  32.195  1.00  0.00     0.031 C 
ATOM     46  C   UNL A   1      39.690  27.709  28.493  1.00  0.00     0.029 A 
ATOM     47  N   UNL A   1      41.536  27.654  29.752  1.00  0.00    -0.354 N 
ATOM     48  C   UNL A   1      42.158  30.510  32.924  1.00  0.00     0.074 A 
ATOM     49  C   UNL A   1      41.059  31.447  33.008  1.00  0.00     0.031 C 
ATOM     50  C   UNL A   1      40.477  26.734  28.011  1.00  0.00     0.029 A 
ATOM     51  C   UNL A   1      41.709  26.685  28.792  1.00  0.00     0.049 A 
ATOM     52  H   UNL A   1      42.202  27.845  30.452  1.00  0.00     0.167 HD
ATOM     53  C   UNL A   1      43.259  30.555  33.712  1.00  0.00     0.034 A 
ATOM     54  C   UNL A   1      42.745  25.856  28.560  1.00  0.00     0.034 A 
ATOM     55  C   UNL A   1      44.333  29.600  33.649  1.00  0.00     0.049 A 
ATOM     56  C   UNL A   1      43.946  25.913  29.463  1.00  0.00     0.074 A 
ATOM     57  C   UNL A   1      45.442  29.500  34.471  1.00  0.00     0.029 A 
ATOM     58  N   UNL A   1      44.447  28.596  32.700  1.00  0.00    -0.354 N 
ATOM     59  N   UNL A   1      44.160  26.680  30.506  1.00  0.00    -0.248 NA
ATOM     60  C   UNL A   1      45.036  24.969  29.181  1.00  0.00     0.031 C 
ATOM     61  C   UNL A   1      46.250  28.464  33.989  1.00  0.00     0.029 A 
ATOM     62  C   UNL A   1      45.620  27.887  32.898  1.00  0.00     0.049 A 
ATOM     63  H   UNL A   1      43.791  28.415  31.989  1.00  0.00     0.167 HD
ATOM     64  C   UNL A   1      45.386  26.283  31.026  1.00  0.00     0.074 A 
ATOM     65  C   UNL A   1      45.860  25.196  30.194  1.00  0.00     0.031 C 
ATOM     66  C   UNL A   1      46.062  26.778  32.093  1.00  0.00     0.034 A 
BRANCH  53  67
ATOM     67  C   UNL A   1      43.350  31.662  34.731  1.00  0.00     0.023 A 
ATOM     68  C   UNL A   1      44.089  32.828  34.443  1.00  0.00     0.012 A 
ATOM     69  C   UNL A   1      42.659  31.569  35.956  1.00  0.00     0.148 A 
ATOM     70  C   UNL A   1      44.173  33.864  35.372  1.00  0.00     0.002 A 
ATOM     71  C   UNL A   1      42.705  32.627  36.855  1.00  0.00     0.091 A 
ATOM     72  F   UNL A   1      41.978  30.445  36.222  1.00  0.00    -0.205 F 
ATOM     73  C   UNL A   1      43.473  33.769  36.572  1.00  0.00     0.022 A 
BRANCH  71  74
ATOM     74  S   UNL A   1      41.772  32.636  38.389  1.00  0.00     0.127 S 
ATOM     75  O   UNL A   1      42.410  31.548  39.129  1.00  0.00    -0.237 OA
ATOM     76  O   UNL A   1      42.051  33.975  38.910  1.00  0.00    -0.237 OA
ATOM     77  O   UNL A   1      40.383  32.407  38.017  1.00  0.00    -0.744 OA
ENDBRANCH  71  74
ENDBRANCH  53  67
BRANCH  54  78
ATOM     78  C   UNL A   1      42.667  24.852  27.460  1.00  0.00     0.023 A 
ATOM     79  C   UNL A   1      43.173  25.181  26.188  1.00  0.00     0.012 A 
ATOM     80  C   UNL A   1      42.111  23.574  27.669  1.00  0.00     0.148 A 
ATOM     81  C   UNL A   1      43.097  24.269  25.134  1.00  0.00     0.002 A 
ATOM     82  C   UNL A   1      42.091  22.651  26.630  1.00  0.00     0.091 A 
ATOM     83  F   UNL A   1      41.629  23.283  28.886  1.00  0.00    -0.205 F 
ATOM     84  C   UNL A   1      42.565  23.002  25.358  1.00  0.00     0.022 A 
BRANCH  82  85
ATOM     85  S   UNL A   1      41.543  20.956  26.855  1.00  0.00     0.127 S 
ATOM     86  O   UNL A   1      42.365  20.522  27.982  1.00  0.00    -0.237 OA
ATOM     87  O   UNL A   1      40.124  21.139  27.163  1.00  0.00    -0.237 OA
ATOM     88  O   UNL A   1      41.802  20.285  25.589  1.00  0.00    -0.744 OA
ENDBRANCH  82  85
ENDBRANCH  54  78
BRANCH  66  89
ATOM     89  C   UNL A   1      47.369  26.124  32.460  1.00  0.00     0.023 A 
ATOM     90  C   UNL A   1      47.409  25.125  33.453  1.00  0.00     0.012 A 
ATOM     91  C   UNL A   1      48.551  26.455  31.767  1.00  0.00     0.148 A 
ATOM     92  C   UNL A   1      48.609  24.492  33.776  1.00  0.00     0.002 A 
ATOM     93  C   UNL A   1      49.732  25.781  32.054  1.00  0.00     0.091 A 
ATOM     94  F   UNL A   1      48.498  27.420  30.838  1.00  0.00    -0.205 F 
ATOM     95  C   UNL A   1      49.766  24.811  33.068  1.00  0.00     0.022 A 
BRANCH  93  96
ATOM     96  S   UNL A   1      51.245  26.050  31.126  1.00  0.00     0.127 S 
ATOM     97  O   UNL A   1      50.883  25.531  29.808  1.00  0.00    -0.237 OA
ATOM     98  O   UNL A   1      51.392  27.505  31.189  1.00  0.00    -0.237 OA
ATOM     99  O   UNL A   1      52.285  25.306  31.824  1.00  0.00    -0.744 OA
ENDBRANCH  93  96
ENDBRANCH  66  89
ENDBRANCH  40  41
ENDBRANCH  32  35
ENDBRANCH  30  31
ENDBRANCH  29  30
ENDBRANCH  28  29
ENDBRANCH   1  28
TORSDOF 19
ENDMDL
