MODEL 1
REMARK VINA RESULT:     -12.4      0.000      0.000
REMARK SMILES Cc1ccc(NC(=O)N2CCCC[C@@H]2C(=O)NCCCCCCNC(=O)c2ccc(-c3c4nc(c(-c5cccc(S(=O)(=O)[O-])c5F)c5ccc([nH]5)c(-c5cccc(S(=O)(=O)[O-])c5F)c5nc(c(-c6cccc(S(=O)(=O)[O-])c6F)c6ccc3[nH]6)C=C5)C=C4)cc2)cc1
REMARK SMILES IDX 21 1 20 2 19 3 18 4 17 5 15 6 16 7 14 9 9 10 10 11 11 12
REMARK SMILES IDX 13 13 12 14 7 15 6 16 8 18 5 19 1 20 2 21 3 22 91 23 4 24
REMARK SMILES IDX 90 25 22 26 23 27 24 28 25 29 26 31 27 32 28 33 89 34 29 35
REMARK SMILES IDX 88 36 30 37 31 38 32 39 82 40 33 41 87 42 81 43 83 44 34 45
REMARK SMILES IDX 86 46 80 47 79 48 35 50 67 51 47 52 66 53 48 54 51 55 65 56
REMARK SMILES IDX 84 57 49 58 50 59 64 61 85 62 52 63 36 64 37 65 45 66 38 67
REMARK SMILES IDX 40 68 46 69 39 70 41 71 42 72 43 73 44 74 68 75 69 76 77 77
REMARK SMILES IDX 70 78 72 79 78 80 71 81 73 82 74 83 75 84 76 85 53 86 54 87
REMARK SMILES IDX 62 88 55 89 57 90 63 91 56 92 58 93 59 94 60 95 61 96
REMARK H PARENT 17 8 6 17 24 30 83 49 51 60
REMARK Flexibility Score: inf
ROOT
ATOM      1  C   UNL A   1      33.625  28.387  25.870  1.00  0.00     0.002 C 
ENDROOT
BRANCH   1   2
ATOM      2  C   UNL A   1      32.883  27.436  26.821  1.00  0.00     0.002 C 
BRANCH   2   3
ATOM      3  C   UNL A   1      31.399  27.192  26.510  1.00  0.00     0.021 C 
BRANCH   3   4
ATOM      4  C   UNL A   1      31.119  25.925  25.703  1.00  0.00     0.116 C 
BRANCH   4   5
ATOM      5  N   UNL A   1      31.245  24.754  26.545  1.00  0.00    -0.354 N 
ATOM      6  C   UNL A   1      32.160  23.747  26.492  1.00  0.00     0.242 C 
ATOM      7  O   UNL A   1      31.889  22.706  27.098  1.00  0.00    -0.273 OA
ATOM      8  H   UNL A   1      30.572  24.674  27.260  1.00  0.00     0.163 HD
BRANCH   6   9
ATOM      9  C   UNL A   1      33.416  23.840  25.592  1.00  0.00     0.176 C 
ATOM     10  N   UNL A   1      33.401  22.962  24.383  1.00  0.00    -0.313 N 
ATOM     11  C   UNL A   1      34.677  22.670  23.739  1.00  0.00     0.122 C 
ATOM     12  C   UNL A   1      35.819  22.384  24.697  1.00  0.00     0.022 C 
ATOM     13  C   UNL A   1      34.635  23.596  26.509  1.00  0.00     0.035 C 
ATOM     14  C   UNL A   1      35.938  23.489  25.732  1.00  0.00     0.004 C 
BRANCH  10  15
ATOM     15  C   UNL A   1      32.284  22.671  23.615  1.00  0.00     0.322 C 
ATOM     16  N   UNL A   1      32.092  21.425  23.109  1.00  0.00    -0.308 N 
ATOM     17  H   UNL A   1      31.736  21.402  22.190  1.00  0.00     0.171 HD
ATOM     18  O   UNL A   1      31.476  23.549  23.299  1.00  0.00    -0.248 OA
BRANCH  16  19
ATOM     19  C   UNL A   1      32.322  20.168  23.687  1.00  0.00     0.042 A 
ATOM     20  C   UNL A   1      33.745  16.425  25.224  1.00  0.00     0.044 C 
ATOM     21  C   UNL A   1      33.109  17.681  24.708  1.00  0.00    -0.051 A 
ATOM     22  C   UNL A   1      32.894  18.760  25.568  1.00  0.00     0.005 A 
ATOM     23  C   UNL A   1      32.830  17.830  23.345  1.00  0.00     0.005 A 
ATOM     24  C   UNL A   1      32.469  19.989  25.061  1.00  0.00     0.026 A 
ATOM     25  C   UNL A   1      32.418  19.065  22.838  1.00  0.00     0.026 A 
ENDBRANCH  16  19
ENDBRANCH  10  15
ENDBRANCH   6   9
ENDBRANCH   4   5
ENDBRANCH   3   4
ENDBRANCH   2   3
ENDBRANCH   1   2
BRANCH   1  26
ATOM     26  C   UNL A   1      33.574  29.875  26.222  1.00  0.00     0.021 C 
BRANCH  26  27
ATOM     27  C   UNL A   1      33.415  30.162  27.707  1.00  0.00     0.116 C 
BRANCH  27  28
ATOM     28  N   UNL A   1      34.134  31.340  28.160  1.00  0.00    -0.352 N 
ATOM     29  C   UNL A   1      35.365  31.418  28.784  1.00  0.00     0.251 C 
ATOM     30  H   UNL A   1      33.683  32.200  27.999  1.00  0.00     0.163 HD
ATOM     31  O   UNL A   1      35.705  32.481  29.300  1.00  0.00    -0.269 OA
BRANCH  29  32
ATOM     32  C   UNL A   1      36.301  30.270  28.706  1.00  0.00     0.039 A 
ATOM     33  C   UNL A   1      36.651  29.639  29.908  1.00  0.00     0.014 A 
ATOM     34  C   UNL A   1      37.001  29.980  27.538  1.00  0.00     0.014 A 
ATOM     35  C   UNL A   1      37.851  28.940  29.996  1.00  0.00     0.010 A 
ATOM     36  C   UNL A   1      38.226  29.357  27.635  1.00  0.00     0.010 A 
ATOM     37  C   UNL A   1      38.681  28.913  28.880  1.00  0.00    -0.014 A 
BRANCH  37  38
ATOM     38  C   UNL A   1      40.074  28.502  28.908  1.00  0.00     0.031 A 
ATOM     39  C   UNL A   1      40.434  27.087  28.756  1.00  0.00     0.074 A 
ATOM     40  C   UNL A   1      41.018  29.469  28.887  1.00  0.00     0.049 A 
ATOM     41  N   UNL A   1      41.587  26.591  29.049  1.00  0.00    -0.248 NA
ATOM     42  C   UNL A   1      39.469  26.098  28.299  1.00  0.00     0.031 C 
ATOM     43  C   UNL A   1      42.414  29.338  28.499  1.00  0.00     0.029 A 
ATOM     44  N   UNL A   1      40.926  30.755  29.428  1.00  0.00    -0.354 N 
ATOM     45  C   UNL A   1      41.619  25.311  28.535  1.00  0.00     0.074 A 
ATOM     46  C   UNL A   1      40.244  25.015  28.214  1.00  0.00     0.031 C 
ATOM     47  C   UNL A   1      43.104  30.355  29.039  1.00  0.00     0.029 A 
ATOM     48  C   UNL A   1      42.200  31.049  29.942  1.00  0.00     0.049 A 
ATOM     49  H   UNL A   1      40.132  31.336  29.445  1.00  0.00     0.167 HD
ATOM     50  C   UNL A   1      42.831  24.740  28.278  1.00  0.00     0.034 A 
ATOM     51  C   UNL A   1      42.441  31.306  31.261  1.00  0.00     0.034 A 
ATOM     52  C   UNL A   1      43.922  25.572  28.818  1.00  0.00     0.049 A 
ATOM     53  C   UNL A   1      43.447  30.350  31.877  1.00  0.00     0.074 A 
ATOM     54  C   UNL A   1      44.794  26.478  28.233  1.00  0.00     0.029 A 
ATOM     55  N   UNL A   1      44.043  25.750  30.194  1.00  0.00    -0.354 N 
ATOM     56  N   UNL A   1      43.906  29.286  31.279  1.00  0.00    -0.248 NA
ATOM     57  C   UNL A   1      43.983  30.494  33.228  1.00  0.00     0.031 C 
ATOM     58  C   UNL A   1      45.354  27.278  29.266  1.00  0.00     0.029 A 
ATOM     59  C   UNL A   1      44.857  26.837  30.480  1.00  0.00     0.049 A 
ATOM     60  H   UNL A   1      43.611  25.182  30.872  1.00  0.00     0.167 HD
ATOM     61  C   UNL A   1      44.646  28.540  32.156  1.00  0.00     0.074 A 
ATOM     62  C   UNL A   1      44.737  29.384  33.337  1.00  0.00     0.031 C 
ATOM     63  C   UNL A   1      45.058  27.269  31.861  1.00  0.00     0.034 A 
BRANCH  50  64
ATOM     64  C   UNL A   1      43.082  23.623  27.262  1.00  0.00     0.023 A 
ATOM     65  C   UNL A   1      43.765  23.977  26.074  1.00  0.00     0.012 A 
ATOM     66  C   UNL A   1      42.620  22.287  27.317  1.00  0.00     0.148 A 
ATOM     67  C   UNL A   1      43.886  23.108  24.980  1.00  0.00     0.002 A 
ATOM     68  C   UNL A   1      42.700  21.430  26.214  1.00  0.00     0.091 A 
ATOM     69  F   UNL A   1      42.153  21.783  28.456  1.00  0.00    -0.205 F 
ATOM     70  C   UNL A   1      43.325  21.843  25.036  1.00  0.00     0.022 A 
BRANCH  68  71
ATOM     71  S   UNL A   1      41.960  19.783  26.209  1.00  0.00     0.127 S 
ATOM     72  O   UNL A   1      42.380  19.254  27.508  1.00  0.00    -0.237 OA
ATOM     73  O   UNL A   1      40.532  20.084  26.109  1.00  0.00    -0.237 OA
ATOM     74  O   UNL A   1      42.527  19.079  25.066  1.00  0.00    -0.744 OA
ENDBRANCH  68  71
ENDBRANCH  50  64
BRANCH  51  75
ATOM     75  C   UNL A   1      41.277  31.911  31.976  1.00  0.00     0.023 A 
ATOM     76  C   UNL A   1      40.859  33.193  31.547  1.00  0.00     0.012 A 
ATOM     77  C   UNL A   1      40.385  31.122  32.723  1.00  0.00     0.148 A 
ATOM     78  C   UNL A   1      39.543  33.617  31.731  1.00  0.00     0.002 A 
ATOM     79  C   UNL A   1      39.071  31.555  32.905  1.00  0.00     0.091 A 
ATOM     80  F   UNL A   1      40.801  29.931  33.172  1.00  0.00    -0.205 F 
ATOM     81  C   UNL A   1      38.640  32.781  32.376  1.00  0.00     0.022 A 
BRANCH  79  82
ATOM     82  S   UNL A   1      37.847  30.506  33.703  1.00  0.00     0.127 S 
ATOM     83  O   UNL A   1      36.606  31.022  33.135  1.00  0.00    -0.237 OA
ATOM     84  O   UNL A   1      38.224  29.170  33.243  1.00  0.00    -0.237 OA
ATOM     85  O   UNL A   1      38.049  30.724  35.128  1.00  0.00    -0.744 OA
ENDBRANCH  79  82
ENDBRANCH  51  75
BRANCH  63  86
ATOM     86  C   UNL A   1      45.676  26.305  32.855  1.00  0.00     0.023 A 
ATOM     87  C   UNL A   1      47.066  26.235  33.069  1.00  0.00     0.012 A 
ATOM     88  C   UNL A   1      44.857  25.538  33.723  1.00  0.00     0.148 A 
ATOM     89  C   UNL A   1      47.624  25.397  34.043  1.00  0.00     0.002 A 
ATOM     90  C   UNL A   1      45.411  24.790  34.760  1.00  0.00     0.091 A 
ATOM     91  F   UNL A   1      43.528  25.512  33.537  1.00  0.00    -0.205 F 
ATOM     92  C   UNL A   1      46.796  24.691  34.904  1.00  0.00     0.022 A 
BRANCH  90  93
ATOM     93  S   UNL A   1      44.367  24.060  36.030  1.00  0.00     0.127 S 
ATOM     94  O   UNL A   1      43.555  23.122  35.258  1.00  0.00    -0.237 OA
ATOM     95  O   UNL A   1      45.343  23.428  36.921  1.00  0.00    -0.237 OA
ATOM     96  O   UNL A   1      43.660  25.185  36.628  1.00  0.00    -0.744 OA
ENDBRANCH  90  93
ENDBRANCH  63  86
ENDBRANCH  37  38
ENDBRANCH  29  32
ENDBRANCH  27  28
ENDBRANCH  26  27
ENDBRANCH   1  26
TORSDOF 18
ENDMDL
MODEL 2
REMARK VINA RESULT:     -12.3      2.332      3.544
REMARK SMILES Cc1ccc(NC(=O)N2CCCC[C@@H]2C(=O)NCCCCCCNC(=O)c2ccc(-c3c4nc(c(-c5cccc(S(=O)(=O)[O-])c5F)c5ccc([nH]5)c(-c5cccc(S(=O)(=O)[O-])c5F)c5nc(c(-c6cccc(S(=O)(=O)[O-])c6F)c6ccc3[nH]6)C=C5)C=C4)cc2)cc1
REMARK SMILES IDX 21 1 20 2 19 3 18 4 17 5 15 6 16 7 14 9 9 10 10 11 11 12
REMARK SMILES IDX 13 13 12 14 7 15 6 16 8 18 5 19 1 20 2 21 3 22 91 23 4 24
REMARK SMILES IDX 90 25 22 26 23 27 24 28 25 29 26 31 27 32 28 33 89 34 29 35
REMARK SMILES IDX 88 36 30 37 31 38 32 39 82 40 33 41 87 42 81 43 83 44 34 45
REMARK SMILES IDX 86 46 80 47 79 48 35 50 67 51 47 52 66 53 48 54 51 55 65 56
REMARK SMILES IDX 84 57 49 58 50 59 64 61 85 62 52 63 36 64 37 65 45 66 38 67
REMARK SMILES IDX 40 68 46 69 39 70 41 71 42 72 43 73 44 74 68 75 69 76 77 77
REMARK SMILES IDX 70 78 72 79 78 80 71 81 73 82 74 83 75 84 76 85 53 86 54 87
REMARK SMILES IDX 62 88 55 89 57 90 63 91 56 92 58 93 59 94 60 95 61 96
REMARK H PARENT 17 8 6 17 24 30 83 49 51 60
REMARK Flexibility Score: inf
ROOT
ATOM      1  C   UNL A   1      32.088  30.000  26.474  1.00  0.00     0.002 C 
ENDROOT
BRANCH   1   2
ATOM      2  C   UNL A   1      32.568  28.574  26.162  1.00  0.00     0.002 C 
BRANCH   2   3
ATOM      3  C   UNL A   1      32.030  27.465  27.076  1.00  0.00     0.021 C 
BRANCH   3   4
ATOM      4  C   UNL A   1      30.962  26.577  26.438  1.00  0.00     0.116 C 
BRANCH   4   5
ATOM      5  N   UNL A   1      31.118  25.207  26.877  1.00  0.00    -0.354 N 
ATOM      6  C   UNL A   1      31.862  24.205  26.330  1.00  0.00     0.242 C 
ATOM      7  O   UNL A   1      31.599  23.050  26.683  1.00  0.00    -0.273 OA
ATOM      8  H   UNL A   1      30.615  24.963  27.687  1.00  0.00     0.163 HD
BRANCH   6   9
ATOM      9  C   UNL A   1      32.890  24.478  25.206  1.00  0.00     0.176 C 
ATOM     10  N   UNL A   1      32.739  23.633  23.984  1.00  0.00    -0.313 N 
ATOM     11  C   UNL A   1      33.885  23.521  23.087  1.00  0.00     0.122 C 
ATOM     12  C   UNL A   1      35.222  23.365  23.787  1.00  0.00     0.022 C 
ATOM     13  C   UNL A   1      34.289  24.374  25.852  1.00  0.00     0.035 C 
ATOM     14  C   UNL A   1      35.412  24.453  24.830  1.00  0.00     0.004 C 
BRANCH  10  15
ATOM     15  C   UNL A   1      31.534  23.217  23.438  1.00  0.00     0.322 C 
ATOM     16  N   UNL A   1      30.451  24.037  23.434  1.00  0.00    -0.308 N 
ATOM     17  H   UNL A   1      29.595  23.593  23.631  1.00  0.00     0.171 HD
ATOM     18  O   UNL A   1      31.383  22.066  23.018  1.00  0.00    -0.248 OA
BRANCH  16  19
ATOM     19  C   UNL A   1      30.362  25.416  23.193  1.00  0.00     0.042 A 
ATOM     20  C   UNL A   1      30.223  29.703  23.206  1.00  0.00     0.044 C 
ATOM     21  C   UNL A   1      30.211  28.211  23.065  1.00  0.00    -0.051 A 
ATOM     22  C   UNL A   1      31.345  27.543  22.596  1.00  0.00     0.005 A 
ATOM     23  C   UNL A   1      29.113  27.462  23.505  1.00  0.00     0.005 A 
ATOM     24  C   UNL A   1      31.405  26.150  22.630  1.00  0.00     0.026 A 
ATOM     25  C   UNL A   1      29.180  26.068  23.550  1.00  0.00     0.026 A 
ENDBRANCH  16  19
ENDBRANCH  10  15
ENDBRANCH   6   9
ENDBRANCH   4   5
ENDBRANCH   3   4
ENDBRANCH   2   3
ENDBRANCH   1   2
BRANCH   1  26
ATOM     26  C   UNL A   1      33.060  30.887  27.255  1.00  0.00     0.021 C 
BRANCH  26  27
ATOM     27  C   UNL A   1      34.514  30.449  27.170  1.00  0.00     0.116 C 
BRANCH  27  28
ATOM     28  N   UNL A   1      35.460  31.452  27.627  1.00  0.00    -0.352 N 
ATOM     29  C   UNL A   1      36.692  31.272  28.225  1.00  0.00     0.251 C 
ATOM     30  H   UNL A   1      35.184  32.387  27.492  1.00  0.00     0.163 HD
ATOM     31  O   UNL A   1      37.245  32.236  28.752  1.00  0.00    -0.269 OA
BRANCH  29  32
ATOM     32  C   UNL A   1      37.382  29.964  28.106  1.00  0.00     0.039 A 
ATOM     33  C   UNL A   1      37.319  29.099  29.207  1.00  0.00     0.014 A 
ATOM     34  C   UNL A   1      38.262  29.698  27.059  1.00  0.00     0.014 A 
ATOM     35  C   UNL A   1      38.310  28.138  29.385  1.00  0.00     0.010 A 
ATOM     36  C   UNL A   1      39.288  28.802  27.266  1.00  0.00     0.010 A 
ATOM     37  C   UNL A   1      39.351  28.086  28.465  1.00  0.00    -0.014 A 
BRANCH  37  38
ATOM     38  C   UNL A   1      40.596  27.367  28.678  1.00  0.00     0.031 A 
ATOM     39  C   UNL A   1      40.644  25.907  28.528  1.00  0.00     0.074 A 
ATOM     40  C   UNL A   1      41.726  28.091  28.829  1.00  0.00     0.049 A 
ATOM     41  N   UNL A   1      41.597  25.159  28.966  1.00  0.00    -0.248 NA
ATOM     42  C   UNL A   1      39.559  25.167  27.900  1.00  0.00     0.031 C 
ATOM     43  C   UNL A   1      43.098  27.644  28.642  1.00  0.00     0.029 A 
ATOM     44  N   UNL A   1      41.848  29.362  29.398  1.00  0.00    -0.354 N 
ATOM     45  C   UNL A   1      41.415  23.907  28.415  1.00  0.00     0.074 A 
ATOM     46  C   UNL A   1      40.072  23.935  27.888  1.00  0.00     0.031 C 
ATOM     47  C   UNL A   1      43.912  28.474  29.313  1.00  0.00     0.029 A 
ATOM     48  C   UNL A   1      43.065  29.355  30.101  1.00  0.00     0.049 A 
ATOM     49  H   UNL A   1      41.213  30.110  29.321  1.00  0.00     0.167 HD
ATOM     50  C   UNL A   1      42.490  23.074  28.315  1.00  0.00     0.034 A 
ATOM     51  C   UNL A   1      43.159  29.546  31.450  1.00  0.00     0.034 A 
ATOM     52  C   UNL A   1      43.649  23.631  29.037  1.00  0.00     0.049 A 
ATOM     53  C   UNL A   1      43.819  28.383  32.169  1.00  0.00     0.074 A 
ATOM     54  C   UNL A   1      44.780  24.315  28.617  1.00  0.00     0.029 A 
ATOM     55  N   UNL A   1      43.601  23.773  30.422  1.00  0.00    -0.354 N 
ATOM     56  N   UNL A   1      44.109  27.243  31.604  1.00  0.00    -0.248 NA
ATOM     57  C   UNL A   1      44.167  28.396  33.587  1.00  0.00     0.031 C 
ATOM     58  C   UNL A   1      45.346  24.962  29.749  1.00  0.00     0.029 A 
ATOM     59  C   UNL A   1      44.587  24.644  30.861  1.00  0.00     0.049 A 
ATOM     60  H   UNL A   1      42.955  23.317  31.008  1.00  0.00     0.167 HD
ATOM     61  C   UNL A   1      44.521  26.345  32.551  1.00  0.00     0.074 A 
ATOM     62  C   UNL A   1      44.624  27.143  33.762  1.00  0.00     0.031 C 
ATOM     63  C   UNL A   1      44.674  25.014  32.272  1.00  0.00     0.034 A 
BRANCH  50  64
ATOM     64  C   UNL A   1      42.629  21.932  27.305  1.00  0.00     0.023 A 
ATOM     65  C   UNL A   1      41.845  20.775  27.531  1.00  0.00     0.012 A 
ATOM     66  C   UNL A   1      43.530  21.845  26.218  1.00  0.00     0.148 A 
ATOM     67  C   UNL A   1      42.017  19.587  26.807  1.00  0.00     0.002 A 
ATOM     68  C   UNL A   1      43.736  20.650  25.520  1.00  0.00     0.091 A 
ATOM     69  F   UNL A   1      44.163  22.931  25.783  1.00  0.00    -0.205 F 
ATOM     70  C   UNL A   1      42.987  19.513  25.820  1.00  0.00     0.022 A 
BRANCH  68  71
ATOM     71  S   UNL A   1      45.006  20.477  24.248  1.00  0.00     0.127 S 
ATOM     72  O   UNL A   1      44.535  21.402  23.216  1.00  0.00    -0.237 OA
ATOM     73  O   UNL A   1      46.212  20.914  24.951  1.00  0.00    -0.237 OA
ATOM     74  O   UNL A   1      44.996  19.077  23.844  1.00  0.00    -0.744 OA
ENDBRANCH  68  71
ENDBRANCH  50  64
BRANCH  51  75
ATOM     75  C   UNL A   1      42.069  30.399  32.010  1.00  0.00     0.023 A 
ATOM     76  C   UNL A   1      41.981  31.726  31.524  1.00  0.00     0.012 A 
ATOM     77  C   UNL A   1      40.950  29.836  32.648  1.00  0.00     0.148 A 
ATOM     78  C   UNL A   1      40.769  32.417  31.541  1.00  0.00     0.002 A 
ATOM     79  C   UNL A   1      39.743  30.534  32.664  1.00  0.00     0.091 A 
ATOM     80  F   UNL A   1      41.053  28.600  33.154  1.00  0.00    -0.205 F 
ATOM     81  C   UNL A   1      39.642  31.805  32.076  1.00  0.00     0.022 A 
BRANCH  79  82
ATOM     82  S   UNL A   1      38.241  29.786  33.312  1.00  0.00     0.127 S 
ATOM     83  O   UNL A   1      38.416  29.976  34.748  1.00  0.00    -0.237 OA
ATOM     84  O   UNL A   1      37.191  30.605  32.707  1.00  0.00    -0.237 OA
ATOM     85  O   UNL A   1      38.277  28.414  32.829  1.00  0.00    -0.744 OA
ENDBRANCH  79  82
ENDBRANCH  51  75
BRANCH  63  86
ATOM     86  C   UNL A   1      44.902  23.931  33.309  1.00  0.00     0.023 A 
ATOM     87  C   UNL A   1      43.930  22.954  33.599  1.00  0.00     0.012 A 
ATOM     88  C   UNL A   1      46.171  23.771  33.921  1.00  0.00     0.148 A 
ATOM     89  C   UNL A   1      44.175  21.912  34.502  1.00  0.00     0.002 A 
ATOM     90  C   UNL A   1      46.444  22.673  34.733  1.00  0.00     0.091 A 
ATOM     91  F   UNL A   1      47.123  24.698  33.734  1.00  0.00    -0.205 F 
ATOM     92  C   UNL A   1      45.439  21.757  35.052  1.00  0.00     0.022 A 
BRANCH  90  93
ATOM     93  S   UNL A   1      48.124  22.316  35.267  1.00  0.00     0.127 S 
ATOM     94  O   UNL A   1      47.971  21.015  35.915  1.00  0.00    -0.237 OA
ATOM     95  O   UNL A   1      48.861  22.281  34.001  1.00  0.00    -0.237 OA
ATOM     96  O   UNL A   1      48.487  23.430  36.134  1.00  0.00    -0.744 OA
ENDBRANCH  90  93
ENDBRANCH  63  86
ENDBRANCH  37  38
ENDBRANCH  29  32
ENDBRANCH  27  28
ENDBRANCH  26  27
ENDBRANCH   1  26
TORSDOF 18
ENDMDL
MODEL 3
REMARK VINA RESULT:     -12.2      1.863      3.151
REMARK SMILES Cc1ccc(NC(=O)N2CCCC[C@@H]2C(=O)NCCCCCCNC(=O)c2ccc(-c3c4nc(c(-c5cccc(S(=O)(=O)[O-])c5F)c5ccc([nH]5)c(-c5cccc(S(=O)(=O)[O-])c5F)c5nc(c(-c6cccc(S(=O)(=O)[O-])c6F)c6ccc3[nH]6)C=C5)C=C4)cc2)cc1
REMARK SMILES IDX 21 1 20 2 19 3 18 4 17 5 15 6 16 7 14 9 9 10 10 11 11 12
REMARK SMILES IDX 13 13 12 14 7 15 6 16 8 18 5 19 1 20 2 21 3 22 91 23 4 24
REMARK SMILES IDX 90 25 22 26 23 27 24 28 25 29 26 31 27 32 28 33 89 34 29 35
REMARK SMILES IDX 88 36 30 37 31 38 32 39 82 40 33 41 87 42 81 43 83 44 34 45
REMARK SMILES IDX 86 46 80 47 79 48 35 50 67 51 47 52 66 53 48 54 51 55 65 56
REMARK SMILES IDX 84 57 49 58 50 59 64 61 85 62 52 63 36 64 37 65 45 66 38 67
REMARK SMILES IDX 40 68 46 69 39 70 41 71 42 72 43 73 44 74 68 75 69 76 77 77
REMARK SMILES IDX 70 78 72 79 78 80 71 81 73 82 74 83 75 84 76 85 53 86 54 87
REMARK SMILES IDX 62 88 55 89 57 90 63 91 56 92 58 93 59 94 60 95 61 96
REMARK H PARENT 17 8 6 17 24 30 83 49 51 60
REMARK Flexibility Score: inf
ROOT
ATOM      1  C   UNL A   1      31.770  30.075  25.753  1.00  0.00     0.002 C 
ENDROOT
BRANCH   1   2
ATOM      2  C   UNL A   1      31.825  28.557  25.985  1.00  0.00     0.002 C 
BRANCH   2   3
ATOM      3  C   UNL A   1      33.074  27.838  25.457  1.00  0.00     0.021 C 
BRANCH   3   4
ATOM      4  C   UNL A   1      33.088  26.329  25.697  1.00  0.00     0.116 C 
BRANCH   4   5
ATOM      5  N   UNL A   1      34.254  25.732  25.080  1.00  0.00    -0.354 N 
ATOM      6  C   UNL A   1      34.611  24.420  25.000  1.00  0.00     0.242 C 
ATOM      7  O   UNL A   1      35.786  24.172  24.711  1.00  0.00    -0.273 OA
ATOM      8  H   UNL A   1      34.878  26.365  24.657  1.00  0.00     0.163 HD
BRANCH   6   9
ATOM      9  C   UNL A   1      33.634  23.287  25.397  1.00  0.00     0.176 C 
ATOM     10  N   UNL A   1      32.474  23.094  24.476  1.00  0.00    -0.313 N 
ATOM     11  C   UNL A   1      31.313  22.370  24.987  1.00  0.00     0.122 C 
ATOM     12  C   UNL A   1      30.923  22.726  26.410  1.00  0.00     0.022 C 
ATOM     13  C   UNL A   1      33.216  23.558  26.859  1.00  0.00     0.035 C 
ATOM     14  C   UNL A   1      32.120  22.618  27.337  1.00  0.00     0.004 C 
BRANCH  10  15
ATOM     15  C   UNL A   1      32.511  23.230  23.098  1.00  0.00     0.322 C 
ATOM     16  N   UNL A   1      31.613  24.018  22.451  1.00  0.00    -0.308 N 
ATOM     17  H   UNL A   1      31.276  23.652  21.601  1.00  0.00     0.171 HD
ATOM     18  O   UNL A   1      33.301  22.579  22.409  1.00  0.00    -0.248 OA
BRANCH  16  19
ATOM     19  C   UNL A   1      31.090  25.271  22.804  1.00  0.00     0.042 A 
ATOM     20  C   UNL A   1      29.123  29.061  23.213  1.00  0.00     0.044 C 
ATOM     21  C   UNL A   1      29.898  27.778  23.184  1.00  0.00    -0.051 A 
ATOM     22  C   UNL A   1      29.426  26.661  23.876  1.00  0.00     0.005 A 
ATOM     23  C   UNL A   1      31.034  27.650  22.377  1.00  0.00     0.005 A 
ATOM     24  C   UNL A   1      30.042  25.420  23.711  1.00  0.00     0.026 A 
ATOM     25  C   UNL A   1      31.641  26.404  22.203  1.00  0.00     0.026 A 
ENDBRANCH  16  19
ENDBRANCH  10  15
ENDBRANCH   6   9
ENDBRANCH   4   5
ENDBRANCH   3   4
ENDBRANCH   2   3
ENDBRANCH   1   2
BRANCH   1  26
ATOM     26  C   UNL A   1      32.316  30.954  26.881  1.00  0.00     0.021 C 
BRANCH  26  27
ATOM     27  C   UNL A   1      33.681  30.530  27.400  1.00  0.00     0.116 C 
BRANCH  27  28
ATOM     28  N   UNL A   1      34.384  31.571  28.127  1.00  0.00    -0.352 N 
ATOM     29  C   UNL A   1      35.504  31.463  28.931  1.00  0.00     0.251 C 
ATOM     30  H   UNL A   1      34.012  32.478  28.035  1.00  0.00     0.163 HD
ATOM     31  O   UNL A   1      35.818  32.413  29.646  1.00  0.00    -0.269 OA
BRANCH  29  32
ATOM     32  C   UNL A   1      36.376  30.268  28.817  1.00  0.00     0.039 A 
ATOM     33  C   UNL A   1      36.732  29.615  30.005  1.00  0.00     0.014 A 
ATOM     34  C   UNL A   1      37.020  29.947  27.625  1.00  0.00     0.014 A 
ATOM     35  C   UNL A   1      37.897  28.854  30.050  1.00  0.00     0.010 A 
ATOM     36  C   UNL A   1      38.213  29.260  27.679  1.00  0.00     0.010 A 
ATOM     37  C   UNL A   1      38.685  28.788  28.906  1.00  0.00    -0.014 A 
BRANCH  37  38
ATOM     38  C   UNL A   1      40.055  28.305  28.885  1.00  0.00     0.031 A 
ATOM     39  C   UNL A   1      40.335  26.870  28.748  1.00  0.00     0.074 A 
ATOM     40  C   UNL A   1      41.046  29.219  28.806  1.00  0.00     0.049 A 
ATOM     41  N   UNL A   1      41.471  26.319  29.004  1.00  0.00    -0.248 NA
ATOM     42  C   UNL A   1      39.301  25.925  28.351  1.00  0.00     0.031 C 
ATOM     43  C   UNL A   1      42.416  29.008  28.364  1.00  0.00     0.029 A 
ATOM     44  N   UNL A   1      41.044  30.518  29.324  1.00  0.00    -0.354 N 
ATOM     45  C   UNL A   1      41.415  25.031  28.515  1.00  0.00     0.074 A 
ATOM     46  C   UNL A   1      40.014  24.801  28.256  1.00  0.00     0.031 C 
ATOM     47  C   UNL A   1      43.180  29.997  28.855  1.00  0.00     0.029 A 
ATOM     48  C   UNL A   1      42.352  30.754  29.780  1.00  0.00     0.049 A 
ATOM     49  H   UNL A   1      40.283  31.141  29.362  1.00  0.00     0.167 HD
ATOM     50  C   UNL A   1      42.584  24.391  28.221  1.00  0.00     0.034 A 
ATOM     51  C   UNL A   1      42.662  31.022  31.083  1.00  0.00     0.034 A 
ATOM     52  C   UNL A   1      43.739  25.174  28.698  1.00  0.00     0.049 A 
ATOM     53  C   UNL A   1      43.641  30.026  31.676  1.00  0.00     0.074 A 
ATOM     54  C   UNL A   1      44.631  26.022  28.060  1.00  0.00     0.029 A 
ATOM     55  N   UNL A   1      43.926  25.371  30.064  1.00  0.00    -0.354 N 
ATOM     56  N   UNL A   1      44.019  28.928  31.081  1.00  0.00    -0.248 NA
ATOM     57  C   UNL A   1      44.241  30.165  33.001  1.00  0.00     0.031 C 
ATOM     58  C   UNL A   1      45.274  26.810  29.052  1.00  0.00     0.029 A 
ATOM     59  C   UNL A   1      44.806  26.418  30.294  1.00  0.00     0.049 A 
ATOM     60  H   UNL A   1      43.494  24.838  30.770  1.00  0.00     0.167 HD
ATOM     61  C   UNL A   1      44.755  28.160  31.943  1.00  0.00     0.074 A 
ATOM     62  C   UNL A   1      44.939  29.020  33.101  1.00  0.00     0.031 C 
ATOM     63  C   UNL A   1      45.088  26.863  31.657  1.00  0.00     0.034 A 
BRANCH  50  64
ATOM     64  C   UNL A   1      42.733  23.244  27.218  1.00  0.00     0.023 A 
ATOM     65  C   UNL A   1      41.906  22.112  27.410  1.00  0.00     0.012 A 
ATOM     66  C   UNL A   1      43.678  23.130  26.171  1.00  0.00     0.148 A 
ATOM     67  C   UNL A   1      42.074  20.918  26.693  1.00  0.00     0.002 A 
ATOM     68  C   UNL A   1      43.879  21.928  25.483  1.00  0.00     0.091 A 
ATOM     69  F   UNL A   1      44.362  24.196  25.764  1.00  0.00    -0.205 F 
ATOM     70  C   UNL A   1      43.083  20.814  25.750  1.00  0.00     0.022 A 
BRANCH  68  71
ATOM     71  S   UNL A   1      45.198  21.716  24.268  1.00  0.00     0.127 S 
ATOM     72  O   UNL A   1      46.365  21.485  25.120  1.00  0.00    -0.237 OA
ATOM     73  O   UNL A   1      44.748  20.542  23.522  1.00  0.00    -0.237 OA
ATOM     74  O   UNL A   1      45.255  22.954  23.501  1.00  0.00    -0.744 OA
ENDBRANCH  68  71
ENDBRANCH  50  64
BRANCH  51  75
ATOM     75  C   UNL A   1      41.562  31.700  31.831  1.00  0.00     0.023 A 
ATOM     76  C   UNL A   1      41.189  32.993  31.390  1.00  0.00     0.012 A 
ATOM     77  C   UNL A   1      40.665  30.974  32.636  1.00  0.00     0.148 A 
ATOM     78  C   UNL A   1      39.905  33.486  31.620  1.00  0.00     0.002 A 
ATOM     79  C   UNL A   1      39.384  31.476  32.864  1.00  0.00     0.091 A 
ATOM     80  F   UNL A   1      41.041  29.773  33.095  1.00  0.00    -0.205 F 
ATOM     81  C   UNL A   1      38.991  32.711  32.324  1.00  0.00     0.022 A 
BRANCH  79  82
ATOM     82  S   UNL A   1      38.146  30.509  33.738  1.00  0.00     0.127 S 
ATOM     83  O   UNL A   1      36.908  31.108  33.250  1.00  0.00    -0.237 OA
ATOM     84  O   UNL A   1      38.403  29.153  33.256  1.00  0.00    -0.237 OA
ATOM     85  O   UNL A   1      38.452  30.708  35.147  1.00  0.00    -0.744 OA
ENDBRANCH  79  82
ENDBRANCH  51  75
BRANCH  63  86
ATOM     86  C   UNL A   1      45.696  25.886  32.644  1.00  0.00     0.023 A 
ATOM     87  C   UNL A   1      47.088  25.766  32.821  1.00  0.00     0.012 A 
ATOM     88  C   UNL A   1      44.872  25.159  33.541  1.00  0.00     0.148 A 
ATOM     89  C   UNL A   1      47.640  24.918  33.788  1.00  0.00     0.002 A 
ATOM     90  C   UNL A   1      45.426  24.402  34.571  1.00  0.00     0.091 A 
ATOM     91  F   UNL A   1      43.539  25.182  33.392  1.00  0.00    -0.205 F 
ATOM     92  C   UNL A   1      46.810  24.252  34.679  1.00  0.00     0.022 A 
BRANCH  90  93
ATOM     93  S   UNL A   1      44.391  23.723  35.877  1.00  0.00     0.127 S 
ATOM     94  O   UNL A   1      43.852  24.930  36.499  1.00  0.00    -0.237 OA
ATOM     95  O   UNL A   1      43.408  22.935  35.128  1.00  0.00    -0.237 OA
ATOM     96  O   UNL A   1      45.293  22.923  36.694  1.00  0.00    -0.744 OA
ENDBRANCH  90  93
ENDBRANCH  63  86
ENDBRANCH  37  38
ENDBRANCH  29  32
ENDBRANCH  27  28
ENDBRANCH  26  27
ENDBRANCH   1  26
TORSDOF 18
ENDMDL
