MODEL 1
REMARK VINA RESULT:     -12.4      0.000      0.000
REMARK SMILES CC(C)c1cccc2c1N[C@H](c1ccc(C(=O)NCCCCCCNC(=O)c3ccc(-c4c5nc(c(-c6cccc(S(=O)(=O)[O-])c6F)c6ccc([nH]6)c(-c6cccc(S(=O)(=O)[O-])c6F)c6nc(c(-c7cccc(S(=O)(=O)[O-])c7F)c7ccc4[nH]7)C=C6)C=C5)cc3)cc1)[C@H]1CC=C[C@H]21
REMARK SMILES IDX 22 1 21 2 20 3 19 4 18 5 16 6 17 7 15 9 12 10 13 11 92 12
REMARK SMILES IDX 14 13 91 14 11 15 4 16 5 17 9 18 6 19 8 20 10 21 7 22 97 23
REMARK SMILES IDX 93 25 96 26 94 27 95 28 2 29 1 30 3 31 23 32 24 33 25 34
REMARK SMILES IDX 26 35 27 37 28 38 29 39 90 40 30 41 89 42 31 43 32 44 33 45
REMARK SMILES IDX 83 46 34 47 88 48 82 49 84 50 35 51 87 52 81 53 80 54 36 56
REMARK SMILES IDX 68 57 48 58 67 59 49 60 52 61 66 62 85 63 50 64 51 65 65 67
REMARK SMILES IDX 86 68 53 69 37 70 38 71 46 72 39 73 41 74 47 75 40 76 42 77
REMARK SMILES IDX 43 78 44 79 45 80 69 81 70 82 78 83 71 84 73 85 79 86 72 87
REMARK SMILES IDX 74 88 75 89 76 90 77 91 54 92 55 93 63 94 56 95 58 96 64 97
REMARK SMILES IDX 57 98 59 99 60 100 61 101 62 102
REMARK H PARENT 18 8 10 24 25 36 84 55 52 66
REMARK Flexibility Score: inf
ROOT
ATOM      1  C   UNL A   1      35.430  21.915  26.234  1.00  0.00     0.002 C 
ENDROOT
BRANCH   1   2
ATOM      2  C   UNL A   1      34.026  21.526  26.702  1.00  0.00     0.002 C 
BRANCH   2   3
ATOM      3  C   UNL A   1      33.333  20.395  25.940  1.00  0.00     0.021 C 
BRANCH   3   4
ATOM      4  C   UNL A   1      32.044  20.757  25.211  1.00  0.00     0.116 C 
BRANCH   4   5
ATOM      5  N   UNL A   1      32.159  20.850  23.762  1.00  0.00    -0.352 N 
ATOM      6  C   UNL A   1      32.367  21.975  22.983  1.00  0.00     0.251 C 
ATOM      7  O   UNL A   1      32.390  21.887  21.759  1.00  0.00    -0.269 OA
ATOM      8  H   UNL A   1      32.077  20.002  23.271  1.00  0.00     0.163 HD
BRANCH   6   9
ATOM      9  C   UNL A   1      32.493  23.307  23.630  1.00  0.00     0.039 A 
ATOM     10  C   UNL A   1      32.653  26.061  24.268  1.00  0.00    -0.025 A 
ATOM     11  C   UNL A   1      33.816  25.288  24.063  1.00  0.00     0.006 A 
ATOM     12  C   UNL A   1      31.455  25.346  24.380  1.00  0.00     0.006 A 
ATOM     13  C   UNL A   1      33.739  23.929  23.716  1.00  0.00     0.014 A 
ATOM     14  C   UNL A   1      31.375  23.983  24.098  1.00  0.00     0.014 A 
BRANCH  10  15
ATOM     15  C   UNL A   1      32.719  27.602  24.362  1.00  0.00     0.114 C 
ATOM     16  C   UNL A   1      29.716  29.941  23.630  1.00  0.00    -0.022 A 
ATOM     17  C   UNL A   1      29.282  31.221  24.074  1.00  0.00     0.006 A 
ATOM     18  C   UNL A   1      30.891  29.402  24.228  1.00  0.00     0.042 A 
ATOM     19  C   UNL A   1      29.934  31.940  25.068  1.00  0.00     0.001 A 
ATOM     20  C   UNL A   1      31.583  30.188  25.194  1.00  0.00    -0.017 A 
ATOM     21  N   UNL A   1      31.425  28.161  23.870  1.00  0.00    -0.377 N 
ATOM     22  C   UNL A   1      31.093  31.432  25.615  1.00  0.00     0.006 A 
ATOM     23  C   UNL A   1      32.931  29.716  25.651  1.00  0.00     0.049 C 
ATOM     24  H   UNL A   1      30.906  27.611  23.240  1.00  0.00     0.161 HD
ATOM     25  C   UNL A   1      32.960  28.186  25.768  1.00  0.00     0.031 C 
ATOM     26  C   UNL A   1      33.471  30.109  26.995  1.00  0.00    -0.023 C 
ATOM     27  C   UNL A   1      34.277  27.967  26.531  1.00  0.00     0.034 C 
ATOM     28  C   UNL A   1      34.274  29.145  27.459  1.00  0.00    -0.030 C 
BRANCH  16  29
ATOM     29  C   UNL A   1      28.898  29.364  22.456  1.00  0.00     0.015 C 
ATOM     30  C   UNL A   1      27.686  28.473  22.739  1.00  0.00     0.012 C 
ATOM     31  C   UNL A   1      28.424  30.456  21.469  1.00  0.00     0.012 C 
ENDBRANCH  16  29
ENDBRANCH  10  15
ENDBRANCH   6   9
ENDBRANCH   4   5
ENDBRANCH   3   4
ENDBRANCH   2   3
ENDBRANCH   1   2
BRANCH   1  32
ATOM     32  C   UNL A   1      35.955  21.230  24.972  1.00  0.00     0.021 C 
BRANCH  32  33
ATOM     33  C   UNL A   1      37.437  21.416  24.663  1.00  0.00     0.116 C 
BRANCH  33  34
ATOM     34  N   UNL A   1      38.290  20.409  25.270  1.00  0.00    -0.352 N 
ATOM     35  C   UNL A   1      39.396  20.555  26.081  1.00  0.00     0.251 C 
ATOM     36  H   UNL A   1      38.040  19.477  25.071  1.00  0.00     0.163 HD
ATOM     37  O   UNL A   1      40.037  19.569  26.413  1.00  0.00    -0.269 OA
BRANCH  35  38
ATOM     38  C   UNL A   1      39.830  21.908  26.509  1.00  0.00     0.039 A 
ATOM     39  C   UNL A   1      39.123  23.050  26.130  1.00  0.00     0.014 A 
ATOM     40  C   UNL A   1      40.978  22.032  27.299  1.00  0.00     0.014 A 
ATOM     41  C   UNL A   1      39.657  24.311  26.384  1.00  0.00     0.010 A 
ATOM     42  C   UNL A   1      41.468  23.302  27.626  1.00  0.00     0.010 A 
ATOM     43  C   UNL A   1      40.843  24.453  27.125  1.00  0.00    -0.014 A 
BRANCH  43  44
ATOM     44  C   UNL A   1      41.403  25.811  27.360  1.00  0.00     0.031 A 
ATOM     45  C   UNL A   1      40.694  26.801  28.248  1.00  0.00     0.074 A 
ATOM     46  C   UNL A   1      42.587  26.140  26.806  1.00  0.00     0.049 A 
ATOM     47  N   UNL A   1      41.069  28.006  28.595  1.00  0.00    -0.248 NA
ATOM     48  C   UNL A   1      39.400  26.393  28.821  1.00  0.00     0.031 C 
ATOM     49  C   UNL A   1      43.364  25.281  25.910  1.00  0.00     0.029 A 
ATOM     50  N   UNL A   1      43.353  27.273  26.924  1.00  0.00    -0.354 N 
ATOM     51  C   UNL A   1      40.049  28.512  29.391  1.00  0.00     0.074 A 
ATOM     52  C   UNL A   1      39.031  27.488  29.474  1.00  0.00     0.031 C 
ATOM     53  C   UNL A   1      44.515  25.895  25.599  1.00  0.00     0.029 A 
ATOM     54  C   UNL A   1      44.539  27.210  26.233  1.00  0.00     0.049 A 
ATOM     55  H   UNL A   1      43.079  28.057  27.455  1.00  0.00     0.167 HD
ATOM     56  C   UNL A   1      39.976  29.710  30.017  1.00  0.00     0.034 A 
ATOM     57  C   UNL A   1      45.539  28.106  26.115  1.00  0.00     0.034 A 
ATOM     58  C   UNL A   1      41.008  30.710  29.982  1.00  0.00     0.049 A 
ATOM     59  C   UNL A   1      45.439  29.421  26.830  1.00  0.00     0.074 A 
ATOM     60  C   UNL A   1      41.036  31.935  30.626  1.00  0.00     0.029 A 
ATOM     61  N   UNL A   1      42.194  30.601  29.276  1.00  0.00    -0.354 N 
ATOM     62  N   UNL A   1      44.498  29.846  27.638  1.00  0.00    -0.248 NA
ATOM     63  C   UNL A   1      46.540  30.377  26.631  1.00  0.00     0.031 C 
ATOM     64  C   UNL A   1      42.239  32.570  30.306  1.00  0.00     0.029 A 
ATOM     65  C   UNL A   1      42.962  31.736  29.468  1.00  0.00     0.049 A 
ATOM     66  H   UNL A   1      42.453  29.831  28.719  1.00  0.00     0.167 HD
ATOM     67  C   UNL A   1      44.898  31.108  28.056  1.00  0.00     0.074 A 
ATOM     68  C   UNL A   1      46.174  31.376  27.426  1.00  0.00     0.031 C 
ATOM     69  C   UNL A   1      44.253  31.971  28.876  1.00  0.00     0.034 A 
BRANCH  56  70
ATOM     70  C   UNL A   1      38.760  30.002  30.856  1.00  0.00     0.023 A 
ATOM     71  C   UNL A   1      38.693  29.486  32.165  1.00  0.00     0.012 A 
ATOM     72  C   UNL A   1      37.754  30.873  30.397  1.00  0.00     0.148 A 
ATOM     73  C   UNL A   1      37.634  29.827  33.005  1.00  0.00     0.002 A 
ATOM     74  C   UNL A   1      36.716  31.231  31.251  1.00  0.00     0.091 A 
ATOM     75  F   UNL A   1      37.837  31.343  29.145  1.00  0.00    -0.205 F 
ATOM     76  C   UNL A   1      36.654  30.705  32.554  1.00  0.00     0.022 A 
BRANCH  74  77
ATOM     77  S   UNL A   1      35.432  32.400  30.790  1.00  0.00     0.127 S 
ATOM     78  O   UNL A   1      36.178  33.658  30.761  1.00  0.00    -0.237 OA
ATOM     79  O   UNL A   1      35.023  31.903  29.475  1.00  0.00    -0.237 OA
ATOM     80  O   UNL A   1      34.412  32.309  31.824  1.00  0.00    -0.744 OA
ENDBRANCH  74  77
ENDBRANCH  56  70
BRANCH  57  81
ATOM     81  C   UNL A   1      46.748  27.743  25.328  1.00  0.00     0.023 A 
ATOM     82  C   UNL A   1      46.775  28.011  23.947  1.00  0.00     0.012 A 
ATOM     83  C   UNL A   1      47.897  27.224  25.956  1.00  0.00     0.148 A 
ATOM     84  C   UNL A   1      47.928  27.767  23.202  1.00  0.00     0.002 A 
ATOM     85  C   UNL A   1      49.055  27.024  25.216  1.00  0.00     0.091 A 
ATOM     86  F   UNL A   1      47.840  26.974  27.272  1.00  0.00    -0.205 F 
ATOM     87  C   UNL A   1      49.071  27.286  23.837  1.00  0.00     0.022 A 
BRANCH  85  88
ATOM     88  S   UNL A   1      50.607  26.519  25.965  1.00  0.00     0.127 S 
ATOM     89  O   UNL A   1      50.240  25.247  26.583  1.00  0.00    -0.237 OA
ATOM     90  O   UNL A   1      51.480  26.408  24.795  1.00  0.00    -0.237 OA
ATOM     91  O   UNL A   1      50.967  27.584  26.891  1.00  0.00    -0.744 OA
ENDBRANCH  85  88
ENDBRANCH  57  81
BRANCH  69  92
ATOM     92  C   UNL A   1      44.901  33.294  29.166  1.00  0.00     0.023 A 
ATOM     93  C   UNL A   1      45.780  33.403  30.262  1.00  0.00     0.012 A 
ATOM     94  C   UNL A   1      44.754  34.377  28.279  1.00  0.00     0.148 A 
ATOM     95  C   UNL A   1      46.502  34.577  30.471  1.00  0.00     0.002 A 
ATOM     96  C   UNL A   1      45.501  35.532  28.475  1.00  0.00     0.091 A 
ATOM     97  F   UNL A   1      43.906  34.246  27.248  1.00  0.00    -0.205 F 
ATOM     98  C   UNL A   1      46.373  35.634  29.573  1.00  0.00     0.022 A 
BRANCH  96  99
ATOM     99  S   UNL A   1      45.463  36.918  27.333  1.00  0.00     0.127 S 
ATOM    100  O   UNL A   1      46.185  37.944  28.088  1.00  0.00    -0.237 OA
ATOM    101  O   UNL A   1      46.186  36.387  26.179  1.00  0.00    -0.237 OA
ATOM    102  O   UNL A   1      44.056  37.207  27.093  1.00  0.00    -0.744 OA
ENDBRANCH  96  99
ENDBRANCH  69  92
ENDBRANCH  43  44
ENDBRANCH  35  38
ENDBRANCH  33  34
ENDBRANCH  32  33
ENDBRANCH   1  32
TORSDOF 18
ENDMDL
MODEL 2
REMARK VINA RESULT:     -12.4      2.219      7.686
REMARK SMILES CC(C)c1cccc2c1N[C@H](c1ccc(C(=O)NCCCCCCNC(=O)c3ccc(-c4c5nc(c(-c6cccc(S(=O)(=O)[O-])c6F)c6ccc([nH]6)c(-c6cccc(S(=O)(=O)[O-])c6F)c6nc(c(-c7cccc(S(=O)(=O)[O-])c7F)c7ccc4[nH]7)C=C6)C=C5)cc3)cc1)[C@H]1CC=C[C@H]21
REMARK SMILES IDX 22 1 21 2 20 3 19 4 18 5 16 6 17 7 15 9 12 10 13 11 92 12
REMARK SMILES IDX 14 13 91 14 11 15 4 16 5 17 9 18 6 19 8 20 10 21 7 22 97 23
REMARK SMILES IDX 93 25 96 26 94 27 95 28 2 29 1 30 3 31 23 32 24 33 25 34
REMARK SMILES IDX 26 35 27 37 28 38 29 39 90 40 30 41 89 42 31 43 32 44 33 45
REMARK SMILES IDX 83 46 34 47 88 48 82 49 84 50 35 51 87 52 81 53 80 54 36 56
REMARK SMILES IDX 68 57 48 58 67 59 49 60 52 61 66 62 85 63 50 64 51 65 65 67
REMARK SMILES IDX 86 68 53 69 37 70 38 71 46 72 39 73 41 74 47 75 40 76 42 77
REMARK SMILES IDX 43 78 44 79 45 80 69 81 70 82 78 83 71 84 73 85 79 86 72 87
REMARK SMILES IDX 74 88 75 89 76 90 77 91 54 92 55 93 63 94 56 95 58 96 64 97
REMARK SMILES IDX 57 98 59 99 60 100 61 101 62 102
REMARK H PARENT 18 8 10 24 25 36 84 55 52 66
REMARK Flexibility Score: inf
ROOT
ATOM      1  C   UNL A   1      37.450  20.991  24.741  1.00  0.00     0.002 C 
ENDROOT
BRANCH   1   2
ATOM      2  C   UNL A   1      36.083  21.229  25.387  1.00  0.00     0.002 C 
BRANCH   2   3
ATOM      3  C   UNL A   1      34.924  20.363  24.891  1.00  0.00     0.021 C 
BRANCH   3   4
ATOM      4  C   UNL A   1      33.518  20.853  25.220  1.00  0.00     0.116 C 
BRANCH   4   5
ATOM      5  N   UNL A   1      33.268  21.106  26.633  1.00  0.00    -0.352 N 
ATOM      6  C   UNL A   1      33.021  22.314  27.263  1.00  0.00     0.251 C 
ATOM      7  O   UNL A   1      32.877  22.360  28.481  1.00  0.00    -0.269 OA
ATOM      8  H   UNL A   1      33.276  20.315  27.217  1.00  0.00     0.163 HD
BRANCH   6   9
ATOM      9  C   UNL A   1      32.998  23.569  26.468  1.00  0.00     0.039 A 
ATOM     10  C   UNL A   1      32.972  26.239  25.528  1.00  0.00    -0.025 A 
ATOM     11  C   UNL A   1      31.777  25.504  25.678  1.00  0.00     0.006 A 
ATOM     12  C   UNL A   1      34.159  25.505  25.631  1.00  0.00     0.006 A 
ATOM     13  C   UNL A   1      31.784  24.190  26.174  1.00  0.00     0.014 A 
ATOM     14  C   UNL A   1      34.176  24.179  26.063  1.00  0.00     0.014 A 
BRANCH  10  15
ATOM     15  C   UNL A   1      32.951  27.762  25.265  1.00  0.00     0.114 C 
ATOM     16  C   UNL A   1      29.868  29.676  23.902  1.00  0.00    -0.022 A 
ATOM     17  C   UNL A   1      29.345  30.994  24.020  1.00  0.00     0.006 A 
ATOM     18  C   UNL A   1      31.039  29.364  24.651  1.00  0.00     0.042 A 
ATOM     19  C   UNL A   1      29.907  31.961  24.844  1.00  0.00     0.001 A 
ATOM     20  C   UNL A   1      31.639  30.393  25.433  1.00  0.00    -0.017 A 
ATOM     21  N   UNL A   1      31.656  28.110  24.610  1.00  0.00    -0.377 N 
ATOM     22  C   UNL A   1      31.063  31.667  25.535  1.00  0.00     0.006 A 
ATOM     23  C   UNL A   1      32.985  30.125  26.036  1.00  0.00     0.049 C 
ATOM     24  H   UNL A   1      31.199  27.399  24.106  1.00  0.00     0.161 HD
ATOM     25  C   UNL A   1      33.090  28.667  26.505  1.00  0.00     0.031 C 
ATOM     26  C   UNL A   1      33.436  30.849  27.270  1.00  0.00    -0.023 C 
ATOM     27  C   UNL A   1      34.377  28.713  27.346  1.00  0.00     0.034 C 
ATOM     28  C   UNL A   1      34.264  30.069  27.974  1.00  0.00    -0.030 C 
BRANCH  16  29
ATOM     29  C   UNL A   1      29.142  28.795  22.864  1.00  0.00     0.015 C 
ATOM     30  C   UNL A   1      28.429  27.518  23.317  1.00  0.00     0.012 C 
ATOM     31  C   UNL A   1      28.125  29.593  22.015  1.00  0.00     0.012 C 
ENDBRANCH  16  29
ENDBRANCH  10  15
ENDBRANCH   6   9
ENDBRANCH   4   5
ENDBRANCH   3   4
ENDBRANCH   2   3
ENDBRANCH   1   2
BRANCH   1  32
ATOM     32  C   UNL A   1      38.280  19.827  25.285  1.00  0.00     0.021 C 
BRANCH  32  33
ATOM     33  C   UNL A   1      39.607  20.188  25.944  1.00  0.00     0.116 C 
BRANCH  33  34
ATOM     34  N   UNL A   1      40.625  19.163  25.805  1.00  0.00    -0.352 N 
ATOM     35  C   UNL A   1      41.996  19.252  25.929  1.00  0.00     0.251 C 
ATOM     36  H   UNL A   1      40.285  18.265  25.588  1.00  0.00     0.163 HD
ATOM     37  O   UNL A   1      42.691  18.279  25.676  1.00  0.00    -0.269 OA
BRANCH  35  38
ATOM     38  C   UNL A   1      42.626  20.538  26.322  1.00  0.00     0.039 A 
ATOM     39  C   UNL A   1      42.499  21.039  27.618  1.00  0.00     0.014 A 
ATOM     40  C   UNL A   1      43.348  21.258  25.365  1.00  0.00     0.014 A 
ATOM     41  C   UNL A   1      42.935  22.330  27.906  1.00  0.00     0.010 A 
ATOM     42  C   UNL A   1      43.861  22.521  25.681  1.00  0.00     0.010 A 
ATOM     43  C   UNL A   1      43.611  23.093  26.938  1.00  0.00    -0.014 A 
BRANCH  43  44
ATOM     44  C   UNL A   1      44.043  24.478  27.265  1.00  0.00     0.031 A 
ATOM     45  C   UNL A   1      45.458  24.931  27.012  1.00  0.00     0.074 A 
ATOM     46  C   UNL A   1      43.140  25.353  27.752  1.00  0.00     0.049 A 
ATOM     47  N   UNL A   1      45.986  26.114  27.196  1.00  0.00    -0.248 NA
ATOM     48  C   UNL A   1      46.406  23.933  26.488  1.00  0.00     0.031 C 
ATOM     49  C   UNL A   1      41.745  25.035  28.062  1.00  0.00     0.029 A 
ATOM     50  N   UNL A   1      43.251  26.686  28.056  1.00  0.00    -0.354 N 
ATOM     51  C   UNL A   1      47.326  25.997  26.848  1.00  0.00     0.074 A 
ATOM     52  C   UNL A   1      47.539  24.624  26.446  1.00  0.00     0.031 C 
ATOM     53  C   UNL A   1      41.118  26.150  28.464  1.00  0.00     0.029 A 
ATOM     54  C   UNL A   1      42.075  27.252  28.489  1.00  0.00     0.049 A 
ATOM     55  H   UNL A   1      44.093  27.191  27.972  1.00  0.00     0.167 HD
ATOM     56  C   UNL A   1      48.287  26.951  26.839  1.00  0.00     0.034 A 
ATOM     57  C   UNL A   1      41.791  28.514  28.866  1.00  0.00     0.034 A 
ATOM     58  C   UNL A   1      48.068  28.328  27.185  1.00  0.00     0.049 A 
ATOM     59  C   UNL A   1      42.872  29.555  28.834  1.00  0.00     0.074 A 
ATOM     60  C   UNL A   1      48.977  29.372  27.159  1.00  0.00     0.029 A 
ATOM     61  N   UNL A   1      46.861  28.857  27.610  1.00  0.00    -0.354 N 
ATOM     62  N   UNL A   1      44.112  29.436  28.428  1.00  0.00    -0.248 NA
ATOM     63  C   UNL A   1      42.515  30.904  29.296  1.00  0.00     0.031 C 
ATOM     64  C   UNL A   1      48.320  30.534  27.573  1.00  0.00     0.029 A 
ATOM     65  C   UNL A   1      47.001  30.213  27.849  1.00  0.00     0.049 A 
ATOM     66  H   UNL A   1      46.028  28.345  27.726  1.00  0.00     0.167 HD
ATOM     67  C   UNL A   1      44.680  30.695  28.572  1.00  0.00     0.074 A 
ATOM     68  C   UNL A   1      43.646  31.568  29.086  1.00  0.00     0.031 C 
ATOM     69  C   UNL A   1      45.952  31.083  28.314  1.00  0.00     0.034 A 
BRANCH  56  70
ATOM     70  C   UNL A   1      49.668  26.564  26.381  1.00  0.00     0.023 A 
ATOM     71  C   UNL A   1      50.421  25.666  27.163  1.00  0.00     0.012 A 
ATOM     72  C   UNL A   1      50.165  26.990  25.135  1.00  0.00     0.148 A 
ATOM     73  C   UNL A   1      51.657  25.204  26.714  1.00  0.00     0.002 A 
ATOM     74  C   UNL A   1      51.386  26.502  24.681  1.00  0.00     0.091 A 
ATOM     75  F   UNL A   1      49.432  27.851  24.414  1.00  0.00    -0.205 F 
ATOM     76  C   UNL A   1      52.134  25.611  25.471  1.00  0.00     0.022 A 
BRANCH  74  77
ATOM     77  S   UNL A   1      52.065  26.917  23.071  1.00  0.00     0.127 S 
ATOM     78  O   UNL A   1      53.147  25.941  22.948  1.00  0.00    -0.237 OA
ATOM     79  O   UNL A   1      50.925  26.678  22.185  1.00  0.00    -0.237 OA
ATOM     80  O   UNL A   1      52.492  28.306  23.159  1.00  0.00    -0.744 OA
ENDBRANCH  74  77
ENDBRANCH  56  70
BRANCH  57  81
ATOM     81  C   UNL A   1      40.395  28.859  29.246  1.00  0.00     0.023 A 
ATOM     82  C   UNL A   1      39.455  29.127  28.234  1.00  0.00     0.012 A 
ATOM     83  C   UNL A   1      39.977  28.829  30.590  1.00  0.00     0.148 A 
ATOM     84  C   UNL A   1      38.118  29.362  28.555  1.00  0.00     0.002 A 
ATOM     85  C   UNL A   1      38.637  29.021  30.899  1.00  0.00     0.091 A 
ATOM     86  F   UNL A   1      40.896  28.575  31.532  1.00  0.00    -0.205 F 
ATOM     87  C   UNL A   1      37.707  29.297  29.885  1.00  0.00     0.022 A 
BRANCH  85  88
ATOM     88  S   UNL A   1      37.992  28.841  32.566  1.00  0.00     0.127 S 
ATOM     89  O   UNL A   1      38.863  29.741  33.320  1.00  0.00    -0.237 OA
ATOM     90  O   UNL A   1      36.615  29.309  32.404  1.00  0.00    -0.237 OA
ATOM     91  O   UNL A   1      38.119  27.428  32.891  1.00  0.00    -0.744 OA
ENDBRANCH  85  88
ENDBRANCH  57  81
BRANCH  69  92
ATOM     92  C   UNL A   1      46.321  32.517  28.566  1.00  0.00     0.023 A 
ATOM     93  C   UNL A   1      46.995  32.854  29.756  1.00  0.00     0.012 A 
ATOM     94  C   UNL A   1      46.131  33.494  27.570  1.00  0.00     0.148 A 
ATOM     95  C   UNL A   1      47.473  34.149  29.951  1.00  0.00     0.002 A 
ATOM     96  C   UNL A   1      46.639  34.773  27.758  1.00  0.00     0.091 A 
ATOM     97  F   UNL A   1      45.481  33.144  26.451  1.00  0.00    -0.205 F 
ATOM     98  C   UNL A   1      47.307  35.103  28.949  1.00  0.00     0.022 A 
BRANCH  96  99
ATOM     99  S   UNL A   1      46.543  36.050  26.498  1.00  0.00     0.127 S 
ATOM    100  O   UNL A   1      47.090  35.356  25.331  1.00  0.00    -0.237 OA
ATOM    101  O   UNL A   1      45.106  36.312  26.434  1.00  0.00    -0.237 OA
ATOM    102  O   UNL A   1      47.346  37.162  26.986  1.00  0.00    -0.744 OA
ENDBRANCH  96  99
ENDBRANCH  69  92
ENDBRANCH  43  44
ENDBRANCH  35  38
ENDBRANCH  33  34
ENDBRANCH  32  33
ENDBRANCH   1  32
TORSDOF 18
ENDMDL
MODEL 3
REMARK VINA RESULT:     -12.3      2.065      2.751
REMARK SMILES CC(C)c1cccc2c1N[C@H](c1ccc(C(=O)NCCCCCCNC(=O)c3ccc(-c4c5nc(c(-c6cccc(S(=O)(=O)[O-])c6F)c6ccc([nH]6)c(-c6cccc(S(=O)(=O)[O-])c6F)c6nc(c(-c7cccc(S(=O)(=O)[O-])c7F)c7ccc4[nH]7)C=C6)C=C5)cc3)cc1)[C@H]1CC=C[C@H]21
REMARK SMILES IDX 22 1 21 2 20 3 19 4 18 5 16 6 17 7 15 9 12 10 13 11 92 12
REMARK SMILES IDX 14 13 91 14 11 15 4 16 5 17 9 18 6 19 8 20 10 21 7 22 97 23
REMARK SMILES IDX 93 25 96 26 94 27 95 28 2 29 1 30 3 31 23 32 24 33 25 34
REMARK SMILES IDX 26 35 27 37 28 38 29 39 90 40 30 41 89 42 31 43 32 44 33 45
REMARK SMILES IDX 83 46 34 47 88 48 82 49 84 50 35 51 87 52 81 53 80 54 36 56
REMARK SMILES IDX 68 57 48 58 67 59 49 60 52 61 66 62 85 63 50 64 51 65 65 67
REMARK SMILES IDX 86 68 53 69 37 70 38 71 46 72 39 73 41 74 47 75 40 76 42 77
REMARK SMILES IDX 43 78 44 79 45 80 69 81 70 82 78 83 71 84 73 85 79 86 72 87
REMARK SMILES IDX 74 88 75 89 76 90 77 91 54 92 55 93 63 94 56 95 58 96 64 97
REMARK SMILES IDX 57 98 59 99 60 100 61 101 62 102
REMARK H PARENT 18 8 10 24 25 36 84 55 52 66
REMARK Flexibility Score: inf
ROOT
ATOM      1  C   UNL A   1      37.366  21.493  24.512  1.00  0.00     0.002 C 
ENDROOT
BRANCH   1   2
ATOM      2  C   UNL A   1      36.030  21.854  25.168  1.00  0.00     0.002 C 
BRANCH   2   3
ATOM      3  C   UNL A   1      34.987  20.740  25.270  1.00  0.00     0.021 C 
BRANCH   3   4
ATOM      4  C   UNL A   1      33.801  20.827  24.317  1.00  0.00     0.116 C 
BRANCH   4   5
ATOM      5  N   UNL A   1      32.495  20.892  24.959  1.00  0.00    -0.352 N 
ATOM      6  C   UNL A   1      31.760  22.010  25.312  1.00  0.00     0.251 C 
ATOM      7  O   UNL A   1      30.688  21.890  25.897  1.00  0.00    -0.269 OA
ATOM      8  H   UNL A   1      32.081  20.025  25.173  1.00  0.00     0.163 HD
BRANCH   6   9
ATOM      9  C   UNL A   1      32.306  23.366  25.041  1.00  0.00     0.039 A 
ATOM     10  C   UNL A   1      32.792  26.142  24.778  1.00  0.00    -0.025 A 
ATOM     11  C   UNL A   1      32.285  25.383  23.703  1.00  0.00     0.006 A 
ATOM     12  C   UNL A   1      33.264  25.411  25.874  1.00  0.00     0.006 A 
ATOM     13  C   UNL A   1      32.013  24.012  23.840  1.00  0.00     0.014 A 
ATOM     14  C   UNL A   1      33.056  24.038  25.995  1.00  0.00     0.014 A 
BRANCH  10  15
ATOM     15  C   UNL A   1      32.819  27.687  24.729  1.00  0.00     0.114 C 
ATOM     16  C   UNL A   1      29.765  29.871  23.768  1.00  0.00    -0.022 A 
ATOM     17  C   UNL A   1      29.296  31.176  24.088  1.00  0.00     0.006 A 
ATOM     18  C   UNL A   1      30.948  29.420  24.419  1.00  0.00     0.042 A 
ATOM     19  C   UNL A   1      29.922  32.000  25.015  1.00  0.00     0.001 A 
ATOM     20  C   UNL A   1      31.613  30.310  25.312  1.00  0.00    -0.017 A 
ATOM     21  N   UNL A   1      31.516  28.165  24.180  1.00  0.00    -0.377 N 
ATOM     22  C   UNL A   1      31.089  31.575  25.613  1.00  0.00     0.006 A 
ATOM     23  C   UNL A   1      32.969  29.916  25.818  1.00  0.00     0.049 C 
ATOM     24  H   UNL A   1      31.015  27.546  23.601  1.00  0.00     0.161 HD
ATOM     25  C   UNL A   1      33.035  28.405  26.076  1.00  0.00     0.031 C 
ATOM     26  C   UNL A   1      33.488  30.446  27.123  1.00  0.00    -0.023 C 
ATOM     27  C   UNL A   1      34.350  28.291  26.864  1.00  0.00     0.034 C 
ATOM     28  C   UNL A   1      34.311  29.549  27.678  1.00  0.00    -0.030 C 
BRANCH  16  29
ATOM     29  C   UNL A   1      28.971  29.168  22.648  1.00  0.00     0.015 C 
ATOM     30  C   UNL A   1      27.773  28.284  23.004  1.00  0.00     0.012 C 
ATOM     31  C   UNL A   1      28.486  30.150  21.556  1.00  0.00     0.012 C 
ENDBRANCH  16  29
ENDBRANCH  10  15
ENDBRANCH   6   9
ENDBRANCH   4   5
ENDBRANCH   3   4
ENDBRANCH   2   3
ENDBRANCH   1   2
BRANCH   1  32
ATOM     32  C   UNL A   1      38.078  20.244  25.035  1.00  0.00     0.021 C 
BRANCH  32  33
ATOM     33  C   UNL A   1      39.243  20.476  25.992  1.00  0.00     0.116 C 
BRANCH  33  34
ATOM     34  N   UNL A   1      40.227  19.409  25.982  1.00  0.00    -0.352 N 
ATOM     35  C   UNL A   1      41.601  19.469  26.092  1.00  0.00     0.251 C 
ATOM     36  H   UNL A   1      39.857  18.502  25.880  1.00  0.00     0.163 HD
ATOM     37  O   UNL A   1      42.263  18.450  25.963  1.00  0.00    -0.269 OA
BRANCH  35  38
ATOM     38  C   UNL A   1      42.273  20.773  26.319  1.00  0.00     0.039 A 
ATOM     39  C   UNL A   1      42.542  21.234  27.609  1.00  0.00     0.014 A 
ATOM     40  C   UNL A   1      42.630  21.552  25.214  1.00  0.00     0.014 A 
ATOM     41  C   UNL A   1      42.997  22.536  27.797  1.00  0.00     0.010 A 
ATOM     42  C   UNL A   1      43.168  22.830  25.404  1.00  0.00     0.010 A 
ATOM     43  C   UNL A   1      43.304  23.356  26.697  1.00  0.00    -0.014 A 
BRANCH  43  44
ATOM     44  C   UNL A   1      43.765  24.752  26.928  1.00  0.00     0.031 A 
ATOM     45  C   UNL A   1      42.842  25.788  27.514  1.00  0.00     0.074 A 
ATOM     46  C   UNL A   1      45.044  25.077  26.650  1.00  0.00     0.049 A 
ATOM     47  N   UNL A   1      43.098  27.034  27.823  1.00  0.00    -0.248 NA
ATOM     48  C   UNL A   1      41.453  25.381  27.790  1.00  0.00     0.031 C 
ATOM     49  C   UNL A   1      46.033  24.173  26.060  1.00  0.00     0.029 A 
ATOM     50  N   UNL A   1      45.737  26.247  26.841  1.00  0.00    -0.354 N 
ATOM     51  C   UNL A   1      41.904  27.568  28.292  1.00  0.00     0.074 A 
ATOM     52  C   UNL A   1      40.915  26.515  28.224  1.00  0.00     0.031 C 
ATOM     53  C   UNL A   1      47.214  24.803  25.981  1.00  0.00     0.029 A 
ATOM     54  C   UNL A   1      47.058  26.170  26.470  1.00  0.00     0.049 A 
ATOM     55  H   UNL A   1      45.326  27.063  27.209  1.00  0.00     0.167 HD
ATOM     56  C   UNL A   1      41.658  28.814  28.760  1.00  0.00     0.034 A 
ATOM     57  C   UNL A   1      48.040  27.092  26.512  1.00  0.00     0.034 A 
ATOM     58  C   UNL A   1      42.650  29.847  28.881  1.00  0.00     0.049 A 
ATOM     59  C   UNL A   1      47.744  28.461  27.050  1.00  0.00     0.074 A 
ATOM     60  C   UNL A   1      42.496  31.126  29.390  1.00  0.00     0.029 A 
ATOM     61  N   UNL A   1      43.975  29.723  28.500  1.00  0.00    -0.354 N 
ATOM     62  N   UNL A   1      46.625  28.918  27.557  1.00  0.00    -0.248 NA
ATOM     63  C   UNL A   1      48.843  29.439  27.033  1.00  0.00     0.031 C 
ATOM     64  C   UNL A   1      43.729  31.778  29.312  1.00  0.00     0.029 A 
ATOM     65  C   UNL A   1      44.652  30.902  28.763  1.00  0.00     0.049 A 
ATOM     66  H   UNL A   1      44.377  28.917  28.102  1.00  0.00     0.167 HD
ATOM     67  C   UNL A   1      46.887  30.228  27.935  1.00  0.00     0.074 A 
ATOM     68  C   UNL A   1      48.275  30.490  27.613  1.00  0.00     0.031 C 
ATOM     69  C   UNL A   1      46.045  31.135  28.483  1.00  0.00     0.034 A 
BRANCH  56  70
ATOM     70  C   UNL A   1      40.268  29.130  29.244  1.00  0.00     0.023 A 
ATOM     71  C   UNL A   1      39.285  29.500  28.306  1.00  0.00     0.012 A 
ATOM     72  C   UNL A   1      39.910  28.946  30.594  1.00  0.00     0.148 A 
ATOM     73  C   UNL A   1      37.964  29.693  28.707  1.00  0.00     0.002 A 
ATOM     74  C   UNL A   1      38.585  29.112  30.980  1.00  0.00     0.091 A 
ATOM     75  F   UNL A   1      40.867  28.602  31.468  1.00  0.00    -0.205 F 
ATOM     76  C   UNL A   1      37.612  29.489  30.037  1.00  0.00     0.022 A 
BRANCH  74  77
ATOM     77  S   UNL A   1      38.013  28.820  32.658  1.00  0.00     0.127 S 
ATOM     78  O   UNL A   1      36.644  29.334  32.595  1.00  0.00    -0.237 OA
ATOM     79  O   UNL A   1      38.113  27.364  32.766  1.00  0.00    -0.237 OA
ATOM     80  O   UNL A   1      38.913  29.563  33.527  1.00  0.00    -0.744 OA
ENDBRANCH  74  77
ENDBRANCH  56  70
BRANCH  57  81
ATOM     81  C   UNL A   1      49.412  26.709  26.085  1.00  0.00     0.023 A 
ATOM     82  C   UNL A   1      50.161  25.829  26.888  1.00  0.00     0.012 A 
ATOM     83  C   UNL A   1      49.935  27.134  24.848  1.00  0.00     0.148 A 
ATOM     84  C   UNL A   1      51.413  25.379  26.467  1.00  0.00     0.002 A 
ATOM     85  C   UNL A   1      51.162  26.648  24.416  1.00  0.00     0.091 A 
ATOM     86  F   UNL A   1      49.200  27.975  24.106  1.00  0.00    -0.205 F 
ATOM     87  C   UNL A   1      51.907  25.777  25.227  1.00  0.00     0.022 A 
BRANCH  85  88
ATOM     88  S   UNL A   1      51.827  27.010  22.787  1.00  0.00     0.127 S 
ATOM     89  O   UNL A   1      52.915  26.040  22.689  1.00  0.00    -0.237 OA
ATOM     90  O   UNL A   1      50.676  26.735  21.927  1.00  0.00    -0.237 OA
ATOM     91  O   UNL A   1      52.236  28.407  22.826  1.00  0.00    -0.744 OA
ENDBRANCH  85  88
ENDBRANCH  57  81
BRANCH  69  92
ATOM     92  C   UNL A   1      46.578  32.504  28.793  1.00  0.00     0.023 A 
ATOM     93  C   UNL A   1      47.139  32.753  30.060  1.00  0.00     0.012 A 
ATOM     94  C   UNL A   1      46.653  33.490  27.790  1.00  0.00     0.148 A 
ATOM     95  C   UNL A   1      47.767  33.969  30.326  1.00  0.00     0.002 A 
ATOM     96  C   UNL A   1      47.308  34.687  28.052  1.00  0.00     0.091 A 
ATOM     97  F   UNL A   1      46.105  33.226  26.595  1.00  0.00    -0.205 F 
ATOM     98  C   UNL A   1      47.862  34.929  29.320  1.00  0.00     0.022 A 
BRANCH  96  99
ATOM     99  S   UNL A   1      47.551  35.954  26.802  1.00  0.00     0.127 S 
ATOM    100  O   UNL A   1      46.172  36.286  26.444  1.00  0.00    -0.237 OA
ATOM    101  O   UNL A   1      48.255  36.994  27.550  1.00  0.00    -0.237 OA
ATOM    102  O   UNL A   1      48.331  35.332  25.740  1.00  0.00    -0.744 OA
ENDBRANCH  96  99
ENDBRANCH  69  92
ENDBRANCH  43  44
ENDBRANCH  35  38
ENDBRANCH  33  34
ENDBRANCH  32  33
ENDBRANCH   1  32
TORSDOF 18
ENDMDL
