MODEL 1
REMARK VINA RESULT:      -9.7      0.000      0.000
REMARK SMILES CCCCCC(=O)N[C@H](C)C(=O)NCCCCCCNC(=O)c1ccc(-c2c3nc(c(-c4cccc(S(=O)(=O)[O-])c4F)c4ccc([nH]4)c(-c4cccc(S(=O)(=O)[O-])c4F)c4nc(c(-c5cccc(S(=O)(=O)[O-])c5F)c5ccc2[nH]5)C=C4)C=C3)cc1
REMARK SMILES IDX 15 1 14 2 13 3 11 4 12 5 9 7 10 8 8 9 6 10 7 11 5 13 4 14
REMARK SMILES IDX 3 15 2 16 1 17 16 18 17 19 18 20 19 21 20 22 21 23 22 25
REMARK SMILES IDX 23 26 24 27 85 28 25 29 84 30 26 31 27 32 28 33 78 34 29 35
REMARK SMILES IDX 83 36 77 37 79 38 30 39 82 40 76 41 75 42 31 44 63 45 43 46
REMARK SMILES IDX 62 47 44 48 47 49 61 50 80 51 45 52 46 53 60 55 81 56 48 57
REMARK SMILES IDX 32 58 33 59 41 60 34 61 36 62 42 63 35 64 37 65 38 66 39 67
REMARK SMILES IDX 40 68 64 69 65 70 73 71 66 72 68 73 74 74 67 75 69 76 70 77
REMARK SMILES IDX 71 78 72 79 49 80 50 81 58 82 51 83 53 84 59 85 52 86 54 87
REMARK SMILES IDX 55 88 56 89 57 90
REMARK H PARENT 13 6 8 12 20 24 79 43 47 54
REMARK Flexibility Score: inf
ROOT
ATOM      1  C   UNL A   1      33.523  27.939  24.719  1.00  0.00     0.021 C 
ENDROOT
BRANCH   1   2
ATOM      2  C   UNL A   1      32.121  27.984  24.108  1.00  0.00     0.116 C 
BRANCH   2   3
ATOM      3  N   UNL A   1      32.175  27.441  22.768  1.00  0.00    -0.354 N 
ATOM      4  C   UNL A   1      32.841  26.295  22.435  1.00  0.00     0.242 C 
ATOM      5  O   UNL A   1      33.687  26.356  21.541  1.00  0.00    -0.273 OA
ATOM      6  H   UNL A   1      31.705  27.926  22.052  1.00  0.00     0.163 HD
BRANCH   4   7
ATOM      7  C   UNL A   1      32.592  25.001  23.239  1.00  0.00     0.168 C 
ATOM      8  C   UNL A   1      31.165  24.512  23.042  1.00  0.00     0.041 C 
BRANCH   7   9
ATOM      9  N   UNL A   1      33.593  23.980  22.923  1.00  0.00    -0.345 N 
ATOM     10  C   UNL A   1      34.858  23.837  23.404  1.00  0.00     0.220 C 
ATOM     11  O   UNL A   1      35.658  23.165  22.752  1.00  0.00    -0.275 OA
ATOM     12  H   UNL A   1      33.310  23.301  22.269  1.00  0.00     0.164 HD
BRANCH  10  13
ATOM     13  C   UNL A   1      35.257  24.424  24.744  1.00  0.00     0.100 C 
BRANCH  13  14
ATOM     14  C   UNL A   1      35.649  23.409  25.822  1.00  0.00     0.010 C 
BRANCH  14  15
ATOM     15  C   UNL A   1      35.399  21.930  25.511  1.00  0.00     0.000 C 
BRANCH  15  16
ATOM     16  C   UNL A   1      36.650  21.047  25.410  1.00  0.00    -0.003 C 
ATOM     17  C   UNL A   1      36.365  19.658  24.872  1.00  0.00     0.004 C 
ENDBRANCH  15  16
ENDBRANCH  14  15
ENDBRANCH  13  14
ENDBRANCH  10  13
ENDBRANCH   7   9
ENDBRANCH   4   7
ENDBRANCH   2   3
ENDBRANCH   1   2
BRANCH   1  18
ATOM     18  C   UNL A   1      33.529  28.118  26.244  1.00  0.00     0.002 C 
BRANCH  18  19
ATOM     19  C   UNL A   1      32.153  28.402  26.855  1.00  0.00     0.002 C 
BRANCH  19  20
ATOM     20  C   UNL A   1      31.855  29.886  27.082  1.00  0.00     0.021 C 
BRANCH  20  21
ATOM     21  C   UNL A   1      33.081  30.787  26.986  1.00  0.00     0.116 C 
BRANCH  21  22
ATOM     22  N   UNL A   1      32.718  32.195  27.024  1.00  0.00    -0.352 N 
ATOM     23  C   UNL A   1      33.241  33.190  27.811  1.00  0.00     0.251 C 
ATOM     24  H   UNL A   1      32.003  32.470  26.405  1.00  0.00     0.163 HD
ATOM     25  O   UNL A   1      32.689  34.284  27.887  1.00  0.00    -0.269 OA
BRANCH  23  26
ATOM     26  C   UNL A   1      34.468  32.916  28.584  1.00  0.00     0.039 A 
ATOM     27  C   UNL A   1      34.358  32.360  29.860  1.00  0.00     0.014 A 
ATOM     28  C   UNL A   1      35.724  33.155  28.017  1.00  0.00     0.014 A 
ATOM     29  C   UNL A   1      35.513  31.970  30.539  1.00  0.00     0.010 A 
ATOM     30  C   UNL A   1      36.867  32.702  28.667  1.00  0.00     0.010 A 
ATOM     31  C   UNL A   1      36.772  32.095  29.928  1.00  0.00    -0.014 A 
BRANCH  31  32
ATOM     32  C   UNL A   1      37.995  31.538  30.559  1.00  0.00     0.031 A 
ATOM     33  C   UNL A   1      38.789  30.466  29.867  1.00  0.00     0.074 A 
ATOM     34  C   UNL A   1      38.324  31.921  31.809  1.00  0.00     0.049 A 
ATOM     35  N   UNL A   1      39.825  29.800  30.303  1.00  0.00    -0.248 NA
ATOM     36  C   UNL A   1      38.347  30.075  28.518  1.00  0.00     0.031 C 
ATOM     37  C   UNL A   1      37.586  32.900  32.613  1.00  0.00     0.029 A 
ATOM     38  N   UNL A   1      39.338  31.510  32.637  1.00  0.00    -0.354 N 
ATOM     39  C   UNL A   1      40.141  28.889  29.302  1.00  0.00     0.074 A 
ATOM     40  C   UNL A   1      39.170  29.071  28.245  1.00  0.00     0.031 C 
ATOM     41  C   UNL A   1      38.167  33.006  33.818  1.00  0.00     0.029 A 
ATOM     42  C   UNL A   1      39.291  32.078  33.890  1.00  0.00     0.049 A 
ATOM     43  H   UNL A   1      40.032  30.869  32.362  1.00  0.00     0.167 HD
ATOM     44  C   UNL A   1      41.160  27.998  29.259  1.00  0.00     0.034 A 
ATOM     45  C   UNL A   1      40.048  31.859  34.982  1.00  0.00     0.034 A 
ATOM     46  C   UNL A   1      42.139  27.842  30.301  1.00  0.00     0.049 A 
ATOM     47  C   UNL A   1      41.174  30.864  34.905  1.00  0.00     0.074 A 
ATOM     48  C   UNL A   1      43.266  27.038  30.306  1.00  0.00     0.029 A 
ATOM     49  N   UNL A   1      42.099  28.481  31.529  1.00  0.00    -0.354 N 
ATOM     50  N   UNL A   1      41.563  30.139  33.885  1.00  0.00    -0.248 NA
ATOM     51  C   UNL A   1      41.981  30.676  36.119  1.00  0.00     0.031 C 
ATOM     52  C   UNL A   1      43.885  27.162  31.553  1.00  0.00     0.029 A 
ATOM     53  C   UNL A   1      43.163  28.067  32.314  1.00  0.00     0.049 A 
ATOM     54  H   UNL A   1      41.415  29.134  31.805  1.00  0.00     0.167 HD
ATOM     55  C   UNL A   1      42.671  29.424  34.327  1.00  0.00     0.074 A 
ATOM     56  C   UNL A   1      42.910  29.829  35.697  1.00  0.00     0.031 C 
ATOM     57  C   UNL A   1      43.413  28.503  33.664  1.00  0.00     0.034 A 
BRANCH  44  58
ATOM     58  C   UNL A   1      41.294  27.145  28.026  1.00  0.00     0.023 A 
ATOM     59  C   UNL A   1      41.952  27.659  26.889  1.00  0.00     0.012 A 
ATOM     60  C   UNL A   1      40.837  25.813  28.014  1.00  0.00     0.148 A 
ATOM     61  C   UNL A   1      42.123  26.874  25.751  1.00  0.00     0.002 A 
ATOM     62  C   UNL A   1      41.052  25.020  26.892  1.00  0.00     0.091 A 
ATOM     63  F   UNL A   1      40.198  25.347  29.097  1.00  0.00    -0.205 F 
ATOM     64  C   UNL A   1      41.684  25.553  25.756  1.00  0.00     0.022 A 
BRANCH  62  65
ATOM     65  S   UNL A   1      40.594  23.285  26.828  1.00  0.00     0.127 S 
ATOM     66  O   UNL A   1      39.157  23.369  26.571  1.00  0.00    -0.237 OA
ATOM     67  O   UNL A   1      41.387  22.800  25.698  1.00  0.00    -0.237 OA
ATOM     68  O   UNL A   1      40.964  22.722  28.118  1.00  0.00    -0.744 OA
ENDBRANCH  62  65
ENDBRANCH  44  58
BRANCH  45  69
ATOM     69  C   UNL A   1      39.782  32.617  36.237  1.00  0.00     0.023 A 
ATOM     70  C   UNL A   1      40.486  33.809  36.491  1.00  0.00     0.012 A 
ATOM     71  C   UNL A   1      38.818  32.176  37.165  1.00  0.00     0.148 A 
ATOM     72  C   UNL A   1      40.256  34.534  37.661  1.00  0.00     0.002 A 
ATOM     73  C   UNL A   1      38.553  32.932  38.299  1.00  0.00     0.091 A 
ATOM     74  F   UNL A   1      38.169  31.030  36.911  1.00  0.00    -0.205 F 
ATOM     75  C   UNL A   1      39.283  34.102  38.560  1.00  0.00     0.022 A 
BRANCH  73  76
ATOM     76  S   UNL A   1      37.227  32.524  39.440  1.00  0.00     0.127 S 
ATOM     77  O   UNL A   1      37.606  31.181  39.871  1.00  0.00    -0.237 OA
ATOM     78  O   UNL A   1      37.374  33.566  40.457  1.00  0.00    -0.237 OA
ATOM     79  O   UNL A   1      35.998  32.615  38.661  1.00  0.00    -0.744 OA
ENDBRANCH  73  76
ENDBRANCH  45  69
BRANCH  57  80
ATOM     80  C   UNL A   1      44.562  27.869  34.402  1.00  0.00     0.023 A 
ATOM     81  C   UNL A   1      45.833  28.476  34.367  1.00  0.00     0.012 A 
ATOM     82  C   UNL A   1      44.365  26.720  35.195  1.00  0.00     0.148 A 
ATOM     83  C   UNL A   1      46.898  27.935  35.088  1.00  0.00     0.002 A 
ATOM     84  C   UNL A   1      45.417  26.217  35.950  1.00  0.00     0.091 A 
ATOM     85  F   UNL A   1      43.152  26.152  35.204  1.00  0.00    -0.205 F 
ATOM     86  C   UNL A   1      46.687  26.815  35.887  1.00  0.00     0.022 A 
BRANCH  84  87
ATOM     87  S   UNL A   1      45.224  24.835  37.081  1.00  0.00     0.127 S 
ATOM     88  O   UNL A   1      44.961  23.730  36.160  1.00  0.00    -0.237 OA
ATOM     89  O   UNL A   1      46.532  24.787  37.735  1.00  0.00    -0.237 OA
ATOM     90  O   UNL A   1      44.117  25.185  37.962  1.00  0.00    -0.744 OA
ENDBRANCH  84  87
ENDBRANCH  57  80
ENDBRANCH  31  32
ENDBRANCH  23  26
ENDBRANCH  21  22
ENDBRANCH  20  21
ENDBRANCH  19  20
ENDBRANCH  18  19
ENDBRANCH   1  18
TORSDOF 21
ENDMDL
MODEL 2
REMARK VINA RESULT:      -9.4      2.689      8.277
REMARK SMILES CCCCCC(=O)N[C@H](C)C(=O)NCCCCCCNC(=O)c1ccc(-c2c3nc(c(-c4cccc(S(=O)(=O)[O-])c4F)c4ccc([nH]4)c(-c4cccc(S(=O)(=O)[O-])c4F)c4nc(c(-c5cccc(S(=O)(=O)[O-])c5F)c5ccc2[nH]5)C=C4)C=C3)cc1
REMARK SMILES IDX 15 1 14 2 13 3 11 4 12 5 9 7 10 8 8 9 6 10 7 11 5 13 4 14
REMARK SMILES IDX 3 15 2 16 1 17 16 18 17 19 18 20 19 21 20 22 21 23 22 25
REMARK SMILES IDX 23 26 24 27 85 28 25 29 84 30 26 31 27 32 28 33 78 34 29 35
REMARK SMILES IDX 83 36 77 37 79 38 30 39 82 40 76 41 75 42 31 44 63 45 43 46
REMARK SMILES IDX 62 47 44 48 47 49 61 50 80 51 45 52 46 53 60 55 81 56 48 57
REMARK SMILES IDX 32 58 33 59 41 60 34 61 36 62 42 63 35 64 37 65 38 66 39 67
REMARK SMILES IDX 40 68 64 69 65 70 73 71 66 72 68 73 74 74 67 75 69 76 70 77
REMARK SMILES IDX 71 78 72 79 49 80 50 81 58 82 51 83 53 84 59 85 52 86 54 87
REMARK SMILES IDX 55 88 56 89 57 90
REMARK H PARENT 13 6 8 12 20 24 79 43 47 54
REMARK Flexibility Score: inf
ROOT
ATOM      1  C   UNL A   1      30.797  26.827  25.786  1.00  0.00     0.021 C 
ENDROOT
BRANCH   1   2
ATOM      2  C   UNL A   1      31.598  25.526  25.695  1.00  0.00     0.116 C 
BRANCH   2   3
ATOM      3  N   UNL A   1      31.379  24.756  26.900  1.00  0.00    -0.354 N 
ATOM      4  C   UNL A   1      31.638  23.419  27.010  1.00  0.00     0.242 C 
ATOM      5  O   UNL A   1      30.723  22.680  27.375  1.00  0.00    -0.273 OA
ATOM      6  H   UNL A   1      31.021  25.223  27.690  1.00  0.00     0.163 HD
BRANCH   4   7
ATOM      7  C   UNL A   1      33.015  22.867  26.585  1.00  0.00     0.168 C 
ATOM      8  C   UNL A   1      33.759  22.298  27.784  1.00  0.00     0.041 C 
BRANCH   7   9
ATOM      9  N   UNL A   1      32.885  21.906  25.488  1.00  0.00    -0.345 N 
ATOM     10  C   UNL A   1      32.973  22.116  24.145  1.00  0.00     0.220 C 
ATOM     11  O   UNL A   1      32.468  21.285  23.390  1.00  0.00    -0.275 OA
ATOM     12  H   UNL A   1      32.709  20.977  25.759  1.00  0.00     0.164 HD
BRANCH  10  13
ATOM     13  C   UNL A   1      33.738  23.301  23.587  1.00  0.00     0.100 C 
BRANCH  13  14
ATOM     14  C   UNL A   1      35.208  23.041  23.249  1.00  0.00     0.010 C 
BRANCH  14  15
ATOM     15  C   UNL A   1      36.017  22.211  24.249  1.00  0.00     0.000 C 
BRANCH  15  16
ATOM     16  C   UNL A   1      37.232  22.911  24.872  1.00  0.00    -0.003 C 
ATOM     17  C   UNL A   1      36.876  23.808  26.042  1.00  0.00     0.004 C 
ENDBRANCH  15  16
ENDBRANCH  14  15
ENDBRANCH  13  14
ENDBRANCH  10  13
ENDBRANCH   7   9
ENDBRANCH   4   7
ENDBRANCH   2   3
ENDBRANCH   1   2
BRANCH   1  18
ATOM     18  C   UNL A   1      31.679  28.083  25.838  1.00  0.00     0.002 C 
BRANCH  18  19
ATOM     19  C   UNL A   1      33.172  27.802  26.042  1.00  0.00     0.002 C 
BRANCH  19  20
ATOM     20  C   UNL A   1      33.790  28.510  27.249  1.00  0.00     0.021 C 
BRANCH  20  21
ATOM     21  C   UNL A   1      34.810  29.582  26.885  1.00  0.00     0.116 C 
BRANCH  21  22
ATOM     22  N   UNL A   1      34.381  30.903  27.321  1.00  0.00    -0.352 N 
ATOM     23  C   UNL A   1      34.871  31.661  28.355  1.00  0.00     0.251 C 
ATOM     24  H   UNL A   1      33.644  31.305  26.807  1.00  0.00     0.163 HD
ATOM     25  O   UNL A   1      34.269  32.660  28.738  1.00  0.00    -0.269 OA
BRANCH  23  26
ATOM     26  C   UNL A   1      36.123  31.242  29.014  1.00  0.00     0.039 A 
ATOM     27  C   UNL A   1      36.070  30.272  30.018  1.00  0.00     0.014 A 
ATOM     28  C   UNL A   1      37.348  31.767  28.594  1.00  0.00     0.014 A 
ATOM     29  C   UNL A   1      37.261  29.771  30.547  1.00  0.00     0.010 A 
ATOM     30  C   UNL A   1      38.532  31.216  29.075  1.00  0.00     0.010 A 
ATOM     31  C   UNL A   1      38.499  30.205  30.046  1.00  0.00    -0.014 A 
BRANCH  31  32
ATOM     32  C   UNL A   1      39.771  29.570  30.476  1.00  0.00     0.031 A 
ATOM     33  C   UNL A   1      40.580  30.165  31.594  1.00  0.00     0.074 A 
ATOM     34  C   UNL A   1      40.251  28.522  29.778  1.00  0.00     0.049 A 
ATOM     35  N   UNL A   1      41.753  29.804  32.042  1.00  0.00    -0.248 NA
ATOM     36  C   UNL A   1      40.005  31.331  32.285  1.00  0.00     0.031 C 
ATOM     37  C   UNL A   1      39.594  27.903  28.623  1.00  0.00     0.029 A 
ATOM     38  N   UNL A   1      41.420  27.814  29.911  1.00  0.00    -0.354 N 
ATOM     39  C   UNL A   1      42.075  30.714  33.041  1.00  0.00     0.074 A 
ATOM     40  C   UNL A   1      40.984  31.660  33.118  1.00  0.00     0.031 C 
ATOM     41  C   UNL A   1      40.370  26.916  28.152  1.00  0.00     0.029 A 
ATOM     42  C   UNL A   1      41.597  26.856  28.939  1.00  0.00     0.049 A 
ATOM     43  H   UNL A   1      42.070  27.977  30.632  1.00  0.00     0.167 HD
ATOM     44  C   UNL A   1      43.171  30.744  33.837  1.00  0.00     0.034 A 
ATOM     45  C   UNL A   1      42.639  26.038  28.692  1.00  0.00     0.034 A 
ATOM     46  C   UNL A   1      44.240  29.783  33.775  1.00  0.00     0.049 A 
ATOM     47  C   UNL A   1      43.843  26.093  29.593  1.00  0.00     0.074 A 
ATOM     48  C   UNL A   1      45.343  29.672  34.604  1.00  0.00     0.029 A 
ATOM     49  N   UNL A   1      44.355  28.786  32.820  1.00  0.00    -0.354 N 
ATOM     50  N   UNL A   1      44.050  26.848  30.644  1.00  0.00    -0.248 NA
ATOM     51  C   UNL A   1      44.944  25.168  29.289  1.00  0.00     0.031 C 
ATOM     52  C   UNL A   1      46.144  28.631  34.126  1.00  0.00     0.029 A 
ATOM     53  C   UNL A   1      45.526  28.072  33.019  1.00  0.00     0.049 A 
ATOM     54  H   UNL A   1      43.702  28.609  32.105  1.00  0.00     0.167 HD
ATOM     55  C   UNL A   1      45.294  26.475  31.140  1.00  0.00     0.074 A 
ATOM     56  C   UNL A   1      45.779  25.405  30.292  1.00  0.00     0.031 C 
ATOM     57  C   UNL A   1      45.982  26.985  32.192  1.00  0.00     0.034 A 
BRANCH  44  58
ATOM     58  C   UNL A   1      43.256  31.832  34.874  1.00  0.00     0.023 A 
ATOM     59  C   UNL A   1      43.906  33.045  34.561  1.00  0.00     0.012 A 
ATOM     60  C   UNL A   1      42.632  31.687  36.128  1.00  0.00     0.148 A 
ATOM     61  C   UNL A   1      43.962  34.081  35.492  1.00  0.00     0.002 A 
ATOM     62  C   UNL A   1      42.652  32.742  37.034  1.00  0.00     0.091 A 
ATOM     63  F   UNL A   1      42.035  30.521  36.414  1.00  0.00    -0.205 F 
ATOM     64  C   UNL A   1      43.326  33.934  36.721  1.00  0.00     0.022 A 
BRANCH  62  65
ATOM     65  S   UNL A   1      41.798  32.681  38.612  1.00  0.00     0.127 S 
ATOM     66  O   UNL A   1      40.405  32.542  38.187  1.00  0.00    -0.237 OA
ATOM     67  O   UNL A   1      42.370  31.482  39.224  1.00  0.00    -0.237 OA
ATOM     68  O   UNL A   1      42.120  33.926  39.293  1.00  0.00    -0.744 OA
ENDBRANCH  62  65
ENDBRANCH  44  58
BRANCH  45  69
ATOM     69  C   UNL A   1      42.578  25.079  27.554  1.00  0.00     0.023 A 
ATOM     70  C   UNL A   1      43.079  25.461  26.295  1.00  0.00     0.012 A 
ATOM     71  C   UNL A   1      42.051  23.783  27.719  1.00  0.00     0.148 A 
ATOM     72  C   UNL A   1      43.030  24.581  25.213  1.00  0.00     0.002 A 
ATOM     73  C   UNL A   1      42.057  22.892  26.654  1.00  0.00     0.091 A 
ATOM     74  F   UNL A   1      41.566  23.443  28.922  1.00  0.00    -0.205 F 
ATOM     75  C   UNL A   1      42.529  23.294  25.395  1.00  0.00     0.022 A 
BRANCH  73  76
ATOM     76  S   UNL A   1      41.558  21.175  26.831  1.00  0.00     0.127 S 
ATOM     77  O   UNL A   1      42.342  20.755  27.989  1.00  0.00    -0.237 OA
ATOM     78  O   UNL A   1      40.121  21.304  27.070  1.00  0.00    -0.237 OA
ATOM     79  O   UNL A   1      41.901  20.535  25.569  1.00  0.00    -0.744 OA
ENDBRANCH  73  76
ENDBRANCH  45  69
BRANCH  57  80
ATOM     80  C   UNL A   1      47.332  26.392  32.498  1.00  0.00     0.023 A 
ATOM     81  C   UNL A   1      48.483  26.925  31.885  1.00  0.00     0.012 A 
ATOM     82  C   UNL A   1      47.469  25.363  33.452  1.00  0.00     0.148 A 
ATOM     83  C   UNL A   1      49.748  26.426  32.196  1.00  0.00     0.002 A 
ATOM     84  C   UNL A   1      48.736  24.906  33.794  1.00  0.00     0.091 A 
ATOM     85  F   UNL A   1      46.360  24.862  34.013  1.00  0.00    -0.205 F 
ATOM     86  C   UNL A   1      49.874  25.428  33.158  1.00  0.00     0.022 A 
BRANCH  84  87
ATOM     87  S   UNL A   1      49.010  23.689  35.086  1.00  0.00     0.127 S 
ATOM     88  O   UNL A   1      48.284  24.277  36.210  1.00  0.00    -0.237 OA
ATOM     89  O   UNL A   1      48.390  22.492  34.518  1.00  0.00    -0.237 OA
ATOM     90  O   UNL A   1      50.454  23.600  35.259  1.00  0.00    -0.744 OA
ENDBRANCH  84  87
ENDBRANCH  57  80
ENDBRANCH  31  32
ENDBRANCH  23  26
ENDBRANCH  21  22
ENDBRANCH  20  21
ENDBRANCH  19  20
ENDBRANCH  18  19
ENDBRANCH   1  18
TORSDOF 21
ENDMDL
MODEL 3
REMARK VINA RESULT:      -9.4      5.899     11.122
REMARK SMILES CCCCCC(=O)N[C@H](C)C(=O)NCCCCCCNC(=O)c1ccc(-c2c3nc(c(-c4cccc(S(=O)(=O)[O-])c4F)c4ccc([nH]4)c(-c4cccc(S(=O)(=O)[O-])c4F)c4nc(c(-c5cccc(S(=O)(=O)[O-])c5F)c5ccc2[nH]5)C=C4)C=C3)cc1
REMARK SMILES IDX 15 1 14 2 13 3 11 4 12 5 9 7 10 8 8 9 6 10 7 11 5 13 4 14
REMARK SMILES IDX 3 15 2 16 1 17 16 18 17 19 18 20 19 21 20 22 21 23 22 25
REMARK SMILES IDX 23 26 24 27 85 28 25 29 84 30 26 31 27 32 28 33 78 34 29 35
REMARK SMILES IDX 83 36 77 37 79 38 30 39 82 40 76 41 75 42 31 44 63 45 43 46
REMARK SMILES IDX 62 47 44 48 47 49 61 50 80 51 45 52 46 53 60 55 81 56 48 57
REMARK SMILES IDX 32 58 33 59 41 60 34 61 36 62 42 63 35 64 37 65 38 66 39 67
REMARK SMILES IDX 40 68 64 69 65 70 73 71 66 72 68 73 74 74 67 75 69 76 70 77
REMARK SMILES IDX 71 78 72 79 49 80 50 81 58 82 51 83 53 84 59 85 52 86 54 87
REMARK SMILES IDX 55 88 56 89 57 90
REMARK H PARENT 13 6 8 12 20 24 79 43 47 54
REMARK Flexibility Score: inf
ROOT
ATOM      1  C   UNL A   1      35.810  23.988  25.001  1.00  0.00     0.021 C 
ENDROOT
BRANCH   1   2
ATOM      2  C   UNL A   1      34.703  24.720  25.760  1.00  0.00     0.116 C 
BRANCH   2   3
ATOM      3  N   UNL A   1      33.560  23.842  25.887  1.00  0.00    -0.354 N 
ATOM      4  C   UNL A   1      32.328  24.248  26.316  1.00  0.00     0.242 C 
ATOM      5  O   UNL A   1      31.827  23.660  27.276  1.00  0.00    -0.273 OA
ATOM      6  H   UNL A   1      33.676  22.894  25.649  1.00  0.00     0.163 HD
BRANCH   4   7
ATOM      7  C   UNL A   1      31.653  25.474  25.666  1.00  0.00     0.168 C 
ATOM      8  C   UNL A   1      30.647  25.037  24.612  1.00  0.00     0.041 C 
BRANCH   7   9
ATOM      9  N   UNL A   1      31.071  26.358  26.678  1.00  0.00    -0.345 N 
ATOM     10  C   UNL A   1      31.438  27.620  27.032  1.00  0.00     0.220 C 
ATOM     11  O   UNL A   1      31.087  28.042  28.135  1.00  0.00    -0.275 OA
ATOM     12  H   UNL A   1      30.305  25.986  27.173  1.00  0.00     0.164 HD
BRANCH  10  13
ATOM     13  C   UNL A   1      32.194  28.515  26.069  1.00  0.00     0.100 C 
BRANCH  13  14
ATOM     14  C   UNL A   1      31.389  29.031  24.874  1.00  0.00     0.010 C 
BRANCH  14  15
ATOM     15  C   UNL A   1      32.054  28.946  23.497  1.00  0.00     0.000 C 
BRANCH  15  16
ATOM     16  C   UNL A   1      33.271  28.018  23.398  1.00  0.00    -0.003 C 
ATOM     17  C   UNL A   1      33.998  28.116  22.070  1.00  0.00     0.004 C 
ENDBRANCH  15  16
ENDBRANCH  14  15
ENDBRANCH  13  14
ENDBRANCH  10  13
ENDBRANCH   7   9
ENDBRANCH   4   7
ENDBRANCH   2   3
ENDBRANCH   1   2
BRANCH   1  18
ATOM     18  C   UNL A   1      36.638  23.047  25.889  1.00  0.00     0.002 C 
BRANCH  18  19
ATOM     19  C   UNL A   1      38.102  22.898  25.462  1.00  0.00     0.002 C 
BRANCH  19  20
ATOM     20  C   UNL A   1      38.546  21.455  25.218  1.00  0.00     0.021 C 
BRANCH  20  21
ATOM     21  C   UNL A   1      38.970  20.714  26.481  1.00  0.00     0.116 C 
BRANCH  21  22
ATOM     22  N   UNL A   1      39.918  19.648  26.187  1.00  0.00    -0.352 N 
ATOM     23  C   UNL A   1      41.277  19.738  26.022  1.00  0.00     0.251 C 
ATOM     24  H   UNL A   1      39.533  18.747  26.095  1.00  0.00     0.163 HD
ATOM     25  O   UNL A   1      41.915  18.793  25.566  1.00  0.00    -0.269 OA
BRANCH  23  26
ATOM     26  C   UNL A   1      41.957  20.997  26.380  1.00  0.00     0.039 A 
ATOM     27  C   UNL A   1      42.300  21.896  25.368  1.00  0.00     0.014 A 
ATOM     28  C   UNL A   1      42.199  21.309  27.721  1.00  0.00     0.014 A 
ATOM     29  C   UNL A   1      42.815  23.148  25.710  1.00  0.00     0.010 A 
ATOM     30  C   UNL A   1      42.647  22.581  28.060  1.00  0.00     0.010 A 
ATOM     31  C   UNL A   1      42.949  23.516  27.059  1.00  0.00    -0.014 A 
BRANCH  31  32
ATOM     32  C   UNL A   1      43.338  24.895  27.448  1.00  0.00     0.031 A 
ATOM     33  C   UNL A   1      42.321  25.840  28.024  1.00  0.00     0.074 A 
ATOM     34  C   UNL A   1      44.584  25.329  27.173  1.00  0.00     0.049 A 
ATOM     35  N   UNL A   1      42.455  27.102  28.335  1.00  0.00    -0.248 NA
ATOM     36  C   UNL A   1      40.972  25.302  28.263  1.00  0.00     0.031 C 
ATOM     37  C   UNL A   1      45.638  24.528  26.544  1.00  0.00     0.029 A 
ATOM     38  N   UNL A   1      45.166  26.560  27.351  1.00  0.00    -0.354 N 
ATOM     39  C   UNL A   1      41.205  27.520  28.772  1.00  0.00     0.074 A 
ATOM     40  C   UNL A   1      40.318  26.383  28.664  1.00  0.00     0.031 C 
ATOM     41  C   UNL A   1      46.732  25.288  26.384  1.00  0.00     0.029 A 
ATOM     42  C   UNL A   1      46.448  26.639  26.857  1.00  0.00     0.049 A 
ATOM     43  H   UNL A   1      44.710  27.313  27.789  1.00  0.00     0.167 HD
ATOM     44  C   UNL A   1      40.836  28.736  29.242  1.00  0.00     0.034 A 
ATOM     45  C   UNL A   1      47.292  27.685  26.770  1.00  0.00     0.034 A 
ATOM     46  C   UNL A   1      41.730  29.856  29.374  1.00  0.00     0.049 A 
ATOM     47  C   UNL A   1      46.856  29.024  27.301  1.00  0.00     0.074 A 
ATOM     48  C   UNL A   1      41.476  31.096  29.931  1.00  0.00     0.029 A 
ATOM     49  N   UNL A   1      43.041  29.881  28.925  1.00  0.00    -0.354 N 
ATOM     50  N   UNL A   1      45.724  29.353  27.873  1.00  0.00    -0.248 NA
ATOM     51  C   UNL A   1      47.822  30.128  27.198  1.00  0.00     0.031 C 
ATOM     52  C   UNL A   1      42.620  31.885  29.783  1.00  0.00     0.029 A 
ATOM     53  C   UNL A   1      43.600  31.126  29.163  1.00  0.00     0.049 A 
ATOM     54  H   UNL A   1      43.507  29.125  28.498  1.00  0.00     0.167 HD
ATOM     55  C   UNL A   1      45.847  30.695  28.217  1.00  0.00     0.074 A 
ATOM     56  C   UNL A   1      47.177  31.107  27.817  1.00  0.00     0.031 C 
ATOM     57  C   UNL A   1      44.936  31.516  28.794  1.00  0.00     0.034 A 
BRANCH  44  58
ATOM     58  C   UNL A   1      39.408  28.914  29.686  1.00  0.00     0.023 A 
ATOM     59  C   UNL A   1      39.014  28.462  30.963  1.00  0.00     0.012 A 
ATOM     60  C   UNL A   1      38.476  29.589  28.875  1.00  0.00     0.148 A 
ATOM     61  C   UNL A   1      37.708  28.651  31.411  1.00  0.00     0.002 A 
ATOM     62  C   UNL A   1      37.188  29.814  29.347  1.00  0.00     0.091 A 
ATOM     63  F   UNL A   1      38.865  29.994  27.657  1.00  0.00    -0.205 F 
ATOM     64  C   UNL A   1      36.800  29.336  30.609  1.00  0.00     0.022 A 
BRANCH  62  65
ATOM     65  S   UNL A   1      35.967  30.754  28.423  1.00  0.00     0.127 S 
ATOM     66  O   UNL A   1      36.778  31.851  27.896  1.00  0.00    -0.237 OA
ATOM     67  O   UNL A   1      35.529  29.783  27.419  1.00  0.00    -0.237 OA
ATOM     68  O   UNL A   1      34.945  31.141  29.383  1.00  0.00    -0.744 OA
ENDBRANCH  62  65
ENDBRANCH  44  58
BRANCH  45  69
ATOM     69  C   UNL A   1      48.647  27.502  26.178  1.00  0.00     0.023 A 
ATOM     70  C   UNL A   1      49.727  27.151  27.011  1.00  0.00     0.012 A 
ATOM     71  C   UNL A   1      48.865  27.648  24.794  1.00  0.00     0.148 A 
ATOM     72  C   UNL A   1      51.006  26.977  26.480  1.00  0.00     0.002 A 
ATOM     73  C   UNL A   1      50.127  27.417  24.264  1.00  0.00     0.091 A 
ATOM     74  F   UNL A   1      47.826  27.996  24.021  1.00  0.00    -0.205 F 
ATOM     75  C   UNL A   1      51.204  27.100  25.106  1.00  0.00     0.022 A 
BRANCH  73  76
ATOM     76  S   UNL A   1      50.444  27.420  22.496  1.00  0.00     0.127 S 
ATOM     77  O   UNL A   1      49.410  26.513  22.006  1.00  0.00    -0.237 OA
ATOM     78  O   UNL A   1      50.244  28.829  22.157  1.00  0.00    -0.237 OA
ATOM     79  O   UNL A   1      51.817  26.956  22.343  1.00  0.00    -0.744 OA
ENDBRANCH  73  76
ENDBRANCH  45  69
BRANCH  57  80
ATOM     80  C   UNL A   1      45.341  32.945  29.041  1.00  0.00     0.023 A 
ATOM     81  C   UNL A   1      46.167  33.256  30.140  1.00  0.00     0.012 A 
ATOM     82  C   UNL A   1      44.972  33.966  28.141  1.00  0.00     0.148 A 
ATOM     83  C   UNL A   1      46.597  34.565  30.355  1.00  0.00     0.002 A 
ATOM     84  C   UNL A   1      45.446  35.258  28.334  1.00  0.00     0.091 A 
ATOM     85  F   UNL A   1      44.175  33.650  27.111  1.00  0.00    -0.205 F 
ATOM     86  C   UNL A   1      46.248  35.561  29.447  1.00  0.00     0.022 A 
BRANCH  84  87
ATOM     87  S   UNL A   1      45.128  36.589  27.172  1.00  0.00     0.127 S 
ATOM     88  O   UNL A   1      45.138  37.760  28.049  1.00  0.00    -0.237 OA
ATOM     89  O   UNL A   1      46.277  36.492  26.271  1.00  0.00    -0.237 OA
ATOM     90  O   UNL A   1      43.844  36.289  26.553  1.00  0.00    -0.744 OA
ENDBRANCH  84  87
ENDBRANCH  57  80
ENDBRANCH  31  32
ENDBRANCH  23  26
ENDBRANCH  21  22
ENDBRANCH  20  21
ENDBRANCH  19  20
ENDBRANCH  18  19
ENDBRANCH   1  18
TORSDOF 21
ENDMDL
