MODEL 1
REMARK VINA RESULT:     -11.8      0.000      0.000
REMARK SMILES Cc1cc(C)c2c(C(=O)NCCCCCCNC(=O)c3ccc(-c4c5nc(c(-c6cccc(S(=O)(=O)[O-])c6F)c6ccc([nH]6)c(-c6cccc(S(=O)(=O)[O-])c6F)c6nc(c(-c7cccc(S(=O)(=O)[O-])c7F)c7ccc4[nH]7)C=C6)C=C5)cc3)cc(-c3ccco3)nc2c1
REMARK SMILES IDX 14 1 13 2 12 3 11 4 10 5 8 6 9 7 7 9 1 10 2 11 3 12 92 13
REMARK SMILES IDX 4 14 91 15 5 16 6 17 90 18 84 19 83 20 85 21 86 22 89 23
REMARK SMILES IDX 87 24 88 25 15 26 16 27 17 28 18 29 19 31 20 32 21 33 82 34
REMARK SMILES IDX 22 35 81 36 23 37 24 38 25 39 75 40 26 41 80 42 74 43 76 44
REMARK SMILES IDX 27 45 79 46 73 47 72 48 28 50 60 51 40 52 59 53 41 54 44 55
REMARK SMILES IDX 58 56 77 57 42 58 43 59 57 61 78 62 45 63 29 64 30 65 38 66
REMARK SMILES IDX 31 67 33 68 39 69 32 70 34 71 35 72 36 73 37 74 61 75 62 76
REMARK SMILES IDX 70 77 63 78 65 79 71 80 64 81 66 82 67 83 68 84 69 85 46 86
REMARK SMILES IDX 47 87 55 88 48 89 50 90 56 91 49 92 51 93 52 94 53 95 54 96
REMARK H PARENT 10 8 17 30 76 49 44 60
REMARK Flexibility Score: inf
ROOT
ATOM      1  C   UNL A   1      33.923  27.126  24.219  1.00  0.00     0.002 C 
ENDROOT
BRANCH   1   2
ATOM      2  C   UNL A   1      33.014  26.243  23.356  1.00  0.00     0.002 C 
BRANCH   2   3
ATOM      3  C   UNL A   1      33.677  25.200  22.446  1.00  0.00     0.021 C 
BRANCH   3   4
ATOM      4  C   UNL A   1      32.885  23.924  22.172  1.00  0.00     0.116 C 
BRANCH   4   5
ATOM      5  N   UNL A   1      31.775  23.690  23.080  1.00  0.00    -0.352 N 
ATOM      6  C   UNL A   1      31.709  22.931  24.230  1.00  0.00     0.252 C 
ATOM      7  O   UNL A   1      30.647  22.906  24.853  1.00  0.00    -0.269 OA
ATOM      8  H   UNL A   1      30.937  24.145  22.836  1.00  0.00     0.163 HD
BRANCH   6   9
ATOM      9  C   UNL A   1      32.828  22.055  24.684  1.00  0.00     0.051 A 
ATOM     10  C   UNL A   1      38.138  23.787  25.782  1.00  0.00     0.044 C 
ATOM     11  C   UNL A   1      36.715  23.316  25.731  1.00  0.00    -0.049 A 
ATOM     12  C   UNL A   1      35.665  24.167  26.053  1.00  0.00     0.007 A 
ATOM     13  C   UNL A   1      36.414  22.004  25.356  1.00  0.00     0.032 A 
ATOM     14  C   UNL A   1      34.334  23.757  25.872  1.00  0.00    -0.041 A 
ATOM     15  C   UNL A   1      35.109  21.570  25.165  1.00  0.00     0.072 A 
ATOM     16  C   UNL A   1      33.268  24.600  26.531  1.00  0.00     0.045 C 
ATOM     17  C   UNL A   1      34.056  22.503  25.242  1.00  0.00     0.016 A 
ATOM     18  N   UNL A   1      34.921  20.265  24.907  1.00  0.00    -0.244 NA
ATOM     19  C   UNL A   1      33.671  19.829  24.655  1.00  0.00     0.107 A 
ATOM     20  C   UNL A   1      32.621  20.692  24.441  1.00  0.00     0.046 A 
BRANCH  19  21
ATOM     21  C   UNL A   1      33.493  18.387  24.651  1.00  0.00     0.152 A 
ATOM     22  C   UNL A   1      34.161  17.320  24.084  1.00  0.00     0.052 A 
ATOM     23  O   UNL A   1      32.364  17.934  25.280  1.00  0.00    -0.463 OA
ATOM     24  C   UNL A   1      33.405  16.159  24.388  1.00  0.00     0.043 A 
ATOM     25  C   UNL A   1      32.318  16.589  25.111  1.00  0.00     0.196 A 
ENDBRANCH  19  21
ENDBRANCH   6   9
ENDBRANCH   4   5
ENDBRANCH   3   4
ENDBRANCH   2   3
ENDBRANCH   1   2
BRANCH   1  26
ATOM     26  C   UNL A   1      33.254  28.006  25.276  1.00  0.00     0.021 C 
BRANCH  26  27
ATOM     27  C   UNL A   1      34.135  28.477  26.428  1.00  0.00     0.116 C 
BRANCH  27  28
ATOM     28  N   UNL A   1      33.774  29.793  26.928  1.00  0.00    -0.352 N 
ATOM     29  C   UNL A   1      34.468  30.615  27.787  1.00  0.00     0.251 C 
ATOM     30  H   UNL A   1      32.911  30.145  26.609  1.00  0.00     0.163 HD
ATOM     31  O   UNL A   1      33.966  31.660  28.181  1.00  0.00    -0.269 OA
BRANCH  29  32
ATOM     32  C   UNL A   1      35.812  30.214  28.257  1.00  0.00     0.039 A 
ATOM     33  C   UNL A   1      35.931  29.595  29.505  1.00  0.00     0.014 A 
ATOM     34  C   UNL A   1      36.947  30.443  27.473  1.00  0.00     0.014 A 
ATOM     35  C   UNL A   1      37.182  29.148  29.941  1.00  0.00     0.010 A 
ATOM     36  C   UNL A   1      38.184  29.956  27.887  1.00  0.00     0.010 A 
ATOM     37  C   UNL A   1      38.312  29.306  29.124  1.00  0.00    -0.014 A 
BRANCH  37  38
ATOM     38  C   UNL A   1      39.642  28.807  29.549  1.00  0.00     0.031 A 
ATOM     39  C   UNL A   1      40.403  29.526  30.625  1.00  0.00     0.074 A 
ATOM     40  C   UNL A   1      40.196  27.753  28.917  1.00  0.00     0.049 A 
ATOM     41  N   UNL A   1      41.601  29.282  31.088  1.00  0.00    -0.248 NA
ATOM     42  C   UNL A   1      39.738  30.680  31.254  1.00  0.00     0.031 C 
ATOM     43  C   UNL A   1      39.576  27.003  27.823  1.00  0.00     0.029 A 
ATOM     44  N   UNL A   1      41.415  27.148  29.088  1.00  0.00    -0.354 N 
ATOM     45  C   UNL A   1      41.846  30.262  32.039  1.00  0.00     0.074 A 
ATOM     46  C   UNL A   1      40.681  31.120  32.076  1.00  0.00     0.031 C 
ATOM     47  C   UNL A   1      40.420  26.040  27.420  1.00  0.00     0.029 A 
ATOM     48  C   UNL A   1      41.647  26.116  28.209  1.00  0.00     0.049 A 
ATOM     49  H   UNL A   1      42.064  27.426  29.774  1.00  0.00     0.167 HD
ATOM     50  C   UNL A   1      42.930  30.417  32.833  1.00  0.00     0.034 A 
ATOM     51  C   UNL A   1      42.724  25.323  28.054  1.00  0.00     0.034 A 
ATOM     52  C   UNL A   1      44.067  29.540  32.827  1.00  0.00     0.049 A 
ATOM     53  C   UNL A   1      43.911  25.502  28.960  1.00  0.00     0.074 A 
ATOM     54  C   UNL A   1      45.182  29.579  33.647  1.00  0.00     0.029 A 
ATOM     55  N   UNL A   1      44.238  28.472  31.963  1.00  0.00    -0.354 N 
ATOM     56  N   UNL A   1      44.075  26.363  29.934  1.00  0.00    -0.248 NA
ATOM     57  C   UNL A   1      45.047  24.588  28.768  1.00  0.00     0.031 C 
ATOM     58  C   UNL A   1      46.032  28.535  33.271  1.00  0.00     0.029 A 
ATOM     59  C   UNL A   1      45.441  27.842  32.226  1.00  0.00     0.049 A 
ATOM     60  H   UNL A   1      43.599  28.201  31.266  1.00  0.00     0.167 HD
ATOM     61  C   UNL A   1      45.318  26.080  30.488  1.00  0.00     0.074 A 
ATOM     62  C   UNL A   1      45.863  24.962  29.746  1.00  0.00     0.031 C 
ATOM     63  C   UNL A   1      45.951  26.699  31.513  1.00  0.00     0.034 A 
BRANCH  50  64
ATOM     64  C   UNL A   1      42.916  31.544  33.826  1.00  0.00     0.023 A 
ATOM     65  C   UNL A   1      43.352  32.821  33.418  1.00  0.00     0.012 A 
ATOM     66  C   UNL A   1      42.397  31.365  35.122  1.00  0.00     0.148 A 
ATOM     67  C   UNL A   1      43.284  33.903  34.292  1.00  0.00     0.002 A 
ATOM     68  C   UNL A   1      42.304  32.456  35.978  1.00  0.00     0.091 A 
ATOM     69  F   UNL A   1      42.004  30.137  35.488  1.00  0.00    -0.205 F 
ATOM     70  C   UNL A   1      42.752  33.723  35.567  1.00  0.00     0.022 A 
BRANCH  68  71
ATOM     71  S   UNL A   1      41.587  32.346  37.620  1.00  0.00     0.127 S 
ATOM     72  O   UNL A   1      41.726  33.724  38.094  1.00  0.00    -0.237 OA
ATOM     73  O   UNL A   1      40.214  31.936  37.329  1.00  0.00    -0.237 OA
ATOM     74  O   UNL A   1      42.380  31.362  38.344  1.00  0.00    -0.744 OA
ENDBRANCH  68  71
ENDBRANCH  50  64
BRANCH  51  75
ATOM     75  C   UNL A   1      42.685  24.235  27.040  1.00  0.00     0.023 A 
ATOM     76  C   UNL A   1      43.389  24.400  25.833  1.00  0.00     0.012 A 
ATOM     77  C   UNL A   1      42.029  23.016  27.298  1.00  0.00     0.148 A 
ATOM     78  C   UNL A   1      43.436  23.369  24.893  1.00  0.00     0.002 A 
ATOM     79  C   UNL A   1      42.111  21.981  26.375  1.00  0.00     0.091 A 
ATOM     80  F   UNL A   1      41.366  22.886  28.456  1.00  0.00    -0.205 F 
ATOM     81  C   UNL A   1      42.808  22.158  25.168  1.00  0.00     0.022 A 
BRANCH  79  82
ATOM     82  S   UNL A   1      41.428  20.348  26.683  1.00  0.00     0.127 S 
ATOM     83  O   UNL A   1      40.007  20.646  26.852  1.00  0.00    -0.237 OA
ATOM     84  O   UNL A   1      41.769  19.645  25.447  1.00  0.00    -0.237 OA
ATOM     85  O   UNL A   1      42.106  19.850  27.872  1.00  0.00    -0.744 OA
ENDBRANCH  79  82
ENDBRANCH  51  75
BRANCH  63  86
ATOM     86  C   UNL A   1      47.303  26.193  31.927  1.00  0.00     0.023 A 
ATOM     87  C   UNL A   1      48.457  26.758  31.353  1.00  0.00     0.012 A 
ATOM     88  C   UNL A   1      47.429  25.269  32.984  1.00  0.00     0.148 A 
ATOM     89  C   UNL A   1      49.722  26.410  31.826  1.00  0.00     0.002 A 
ATOM     90  C   UNL A   1      48.691  24.953  33.472  1.00  0.00     0.091 A 
ATOM     91  F   UNL A   1      46.314  24.742  33.506  1.00  0.00    -0.205 F 
ATOM     92  C   UNL A   1      49.838  25.520  32.891  1.00  0.00     0.022 A 
BRANCH  90  93
ATOM     93  S   UNL A   1      48.942  23.881  34.891  1.00  0.00     0.127 S 
ATOM     94  O   UNL A   1      50.389  23.673  34.855  1.00  0.00    -0.237 OA
ATOM     95  O   UNL A   1      48.472  24.716  35.995  1.00  0.00    -0.237 OA
ATOM     96  O   UNL A   1      48.140  22.690  34.644  1.00  0.00    -0.744 OA
ENDBRANCH  90  93
ENDBRANCH  63  86
ENDBRANCH  37  38
ENDBRANCH  29  32
ENDBRANCH  27  28
ENDBRANCH  26  27
ENDBRANCH   1  26
TORSDOF 17
ENDMDL
MODEL 2
REMARK VINA RESULT:     -11.7      2.071      7.826
REMARK SMILES Cc1cc(C)c2c(C(=O)NCCCCCCNC(=O)c3ccc(-c4c5nc(c(-c6cccc(S(=O)(=O)[O-])c6F)c6ccc([nH]6)c(-c6cccc(S(=O)(=O)[O-])c6F)c6nc(c(-c7cccc(S(=O)(=O)[O-])c7F)c7ccc4[nH]7)C=C6)C=C5)cc3)cc(-c3ccco3)nc2c1
REMARK SMILES IDX 14 1 13 2 12 3 11 4 10 5 8 6 9 7 7 9 1 10 2 11 3 12 92 13
REMARK SMILES IDX 4 14 91 15 5 16 6 17 90 18 84 19 83 20 85 21 86 22 89 23
REMARK SMILES IDX 87 24 88 25 15 26 16 27 17 28 18 29 19 31 20 32 21 33 82 34
REMARK SMILES IDX 22 35 81 36 23 37 24 38 25 39 75 40 26 41 80 42 74 43 76 44
REMARK SMILES IDX 27 45 79 46 73 47 72 48 28 50 60 51 40 52 59 53 41 54 44 55
REMARK SMILES IDX 58 56 77 57 42 58 43 59 57 61 78 62 45 63 29 64 30 65 38 66
REMARK SMILES IDX 31 67 33 68 39 69 32 70 34 71 35 72 36 73 37 74 61 75 62 76
REMARK SMILES IDX 70 77 63 78 65 79 71 80 64 81 66 82 67 83 68 84 69 85 46 86
REMARK SMILES IDX 47 87 55 88 48 89 50 90 56 91 49 92 51 93 52 94 53 95 54 96
REMARK H PARENT 10 8 17 30 76 49 44 60
REMARK Flexibility Score: inf
ROOT
ATOM      1  C   UNL A   1      32.484  27.439  23.508  1.00  0.00     0.002 C 
ENDROOT
BRANCH   1   2
ATOM      2  C   UNL A   1      33.638  26.748  22.772  1.00  0.00     0.002 C 
BRANCH   2   3
ATOM      3  C   UNL A   1      33.286  25.768  21.644  1.00  0.00     0.021 C 
BRANCH   3   4
ATOM      4  C   UNL A   1      33.158  24.295  22.028  1.00  0.00     0.116 C 
BRANCH   4   5
ATOM      5  N   UNL A   1      31.921  23.948  22.706  1.00  0.00    -0.352 N 
ATOM      6  C   UNL A   1      31.698  23.113  23.781  1.00  0.00     0.252 C 
ATOM      7  O   UNL A   1      30.546  22.996  24.200  1.00  0.00    -0.269 OA
ATOM      8  H   UNL A   1      31.114  24.377  22.340  1.00  0.00     0.163 HD
BRANCH   6   9
ATOM      9  C   UNL A   1      32.769  22.266  24.379  1.00  0.00     0.051 A 
ATOM     10  C   UNL A   1      37.938  24.081  25.924  1.00  0.00     0.044 C 
ATOM     11  C   UNL A   1      36.529  23.598  25.753  1.00  0.00    -0.049 A 
ATOM     12  C   UNL A   1      35.449  24.454  25.933  1.00  0.00     0.007 A 
ATOM     13  C   UNL A   1      36.270  22.269  25.405  1.00  0.00     0.032 A 
ATOM     14  C   UNL A   1      34.144  24.026  25.638  1.00  0.00    -0.041 A 
ATOM     15  C   UNL A   1      34.992  21.818  25.104  1.00  0.00     0.072 A 
ATOM     16  C   UNL A   1      33.015  24.888  26.152  1.00  0.00     0.045 C 
ATOM     17  C   UNL A   1      33.934  22.745  25.038  1.00  0.00     0.016 A 
ATOM     18  N   UNL A   1      34.835  20.502  24.884  1.00  0.00    -0.244 NA
ATOM     19  C   UNL A   1      33.619  20.046  24.528  1.00  0.00     0.107 A 
ATOM     20  C   UNL A   1      32.592  20.892  24.175  1.00  0.00     0.046 A 
BRANCH  19  21
ATOM     21  C   UNL A   1      33.446  18.604  24.568  1.00  0.00     0.152 A 
ATOM     22  C   UNL A   1      33.834  17.550  23.764  1.00  0.00     0.052 A 
ATOM     23  O   UNL A   1      32.650  18.136  25.578  1.00  0.00    -0.463 OA
ATOM     24  C   UNL A   1      33.252  16.381  24.317  1.00  0.00     0.043 A 
ATOM     25  C   UNL A   1      32.535  16.794  25.416  1.00  0.00     0.196 A 
ENDBRANCH  19  21
ENDBRANCH   6   9
ENDBRANCH   4   5
ENDBRANCH   3   4
ENDBRANCH   2   3
ENDBRANCH   1   2
BRANCH   1  26
ATOM     26  C   UNL A   1      32.664  28.915  23.870  1.00  0.00     0.021 C 
BRANCH  26  27
ATOM     27  C   UNL A   1      33.123  29.217  25.293  1.00  0.00     0.116 C 
BRANCH  27  28
ATOM     28  N   UNL A   1      32.570  30.451  25.825  1.00  0.00    -0.352 N 
ATOM     29  C   UNL A   1      33.036  31.236  26.856  1.00  0.00     0.251 C 
ATOM     30  H   UNL A   1      31.747  30.769  25.389  1.00  0.00     0.163 HD
ATOM     31  O   UNL A   1      32.387  32.201  27.238  1.00  0.00    -0.269 OA
BRANCH  29  32
ATOM     32  C   UNL A   1      34.311  30.889  27.521  1.00  0.00     0.039 A 
ATOM     33  C   UNL A   1      35.286  31.881  27.663  1.00  0.00     0.014 A 
ATOM     34  C   UNL A   1      34.543  29.598  28.005  1.00  0.00     0.014 A 
ATOM     35  C   UNL A   1      36.472  31.595  28.345  1.00  0.00     0.010 A 
ATOM     36  C   UNL A   1      35.704  29.328  28.726  1.00  0.00     0.010 A 
ATOM     37  C   UNL A   1      36.678  30.323  28.901  1.00  0.00    -0.014 A 
BRANCH  37  38
ATOM     38  C   UNL A   1      37.911  30.008  29.662  1.00  0.00     0.031 A 
ATOM     39  C   UNL A   1      38.915  29.046  29.096  1.00  0.00     0.074 A 
ATOM     40  C   UNL A   1      38.091  30.528  30.892  1.00  0.00     0.049 A 
ATOM     41  N   UNL A   1      40.018  28.598  29.635  1.00  0.00    -0.248 NA
ATOM     42  C   UNL A   1      38.637  28.505  27.755  1.00  0.00     0.031 C 
ATOM     43  C   UNL A   1      37.163  31.435  31.570  1.00  0.00     0.029 A 
ATOM     44  N   UNL A   1      39.105  30.349  31.799  1.00  0.00    -0.354 N 
ATOM     45  C   UNL A   1      40.552  27.705  28.716  1.00  0.00     0.074 A 
ATOM     46  C   UNL A   1      39.643  27.657  27.591  1.00  0.00     0.031 C 
ATOM     47  C   UNL A   1      37.649  31.731  32.786  1.00  0.00     0.029 A 
ATOM     48  C   UNL A   1      38.910  31.020  32.984  1.00  0.00     0.049 A 
ATOM     49  H   UNL A   1      39.896  29.792  31.620  1.00  0.00     0.167 HD
ATOM     50  C   UNL A   1      41.710  27.010  28.788  1.00  0.00     0.034 A 
ATOM     51  C   UNL A   1      39.659  31.057  34.103  1.00  0.00     0.034 A 
ATOM     52  C   UNL A   1      42.634  27.091  29.885  1.00  0.00     0.049 A 
ATOM     53  C   UNL A   1      40.952  30.291  34.153  1.00  0.00     0.074 A 
ATOM     54  C   UNL A   1      43.868  26.476  30.012  1.00  0.00     0.029 A 
ATOM     55  N   UNL A   1      42.428  27.827  31.039  1.00  0.00    -0.354 N 
ATOM     56  N   UNL A   1      41.497  29.543  33.226  1.00  0.00    -0.248 NA
ATOM     57  C   UNL A   1      41.745  30.392  35.387  1.00  0.00     0.031 C 
ATOM     58  C   UNL A   1      44.405  26.836  31.251  1.00  0.00     0.029 A 
ATOM     59  C   UNL A   1      43.511  27.682  31.888  1.00  0.00     0.049 A 
ATOM     60  H   UNL A   1      41.631  28.371  31.228  1.00  0.00     0.167 HD
ATOM     61  C   UNL A   1      42.707  29.106  33.750  1.00  0.00     0.074 A 
ATOM     62  C   UNL A   1      42.820  29.679  35.076  1.00  0.00     0.031 C 
ATOM     63  C   UNL A   1      43.634  28.296  33.185  1.00  0.00     0.034 A 
BRANCH  50  64
ATOM     64  C   UNL A   1      42.082  26.145  27.618  1.00  0.00     0.023 A 
ATOM     65  C   UNL A   1      42.841  26.702  26.570  1.00  0.00     0.012 A 
ATOM     66  C   UNL A   1      41.759  24.775  27.594  1.00  0.00     0.148 A 
ATOM     67  C   UNL A   1      43.264  25.910  25.504  1.00  0.00     0.002 A 
ATOM     68  C   UNL A   1      42.209  23.985  26.543  1.00  0.00     0.091 A 
ATOM     69  F   UNL A   1      41.023  24.275  28.595  1.00  0.00    -0.205 F 
ATOM     70  C   UNL A   1      42.956  24.551  25.496  1.00  0.00     0.022 A 
BRANCH  68  71
ATOM     71  S   UNL A   1      41.916  22.215  26.460  1.00  0.00     0.127 S 
ATOM     72  O   UNL A   1      42.755  21.831  25.325  1.00  0.00    -0.237 OA
ATOM     73  O   UNL A   1      42.405  21.762  27.762  1.00  0.00    -0.237 OA
ATOM     74  O   UNL A   1      40.483  22.052  26.253  1.00  0.00    -0.744 OA
ENDBRANCH  68  71
ENDBRANCH  50  64
BRANCH  51  75
ATOM     75  C   UNL A   1      39.228  31.919  35.236  1.00  0.00     0.023 A 
ATOM     76  C   UNL A   1      38.394  31.375  36.230  1.00  0.00     0.012 A 
ATOM     77  C   UNL A   1      39.703  33.237  35.376  1.00  0.00     0.148 A 
ATOM     78  C   UNL A   1      38.034  32.131  37.346  1.00  0.00     0.002 A 
ATOM     79  C   UNL A   1      39.372  33.972  36.508  1.00  0.00     0.091 A 
ATOM     80  F   UNL A   1      40.497  33.730  34.414  1.00  0.00    -0.205 F 
ATOM     81  C   UNL A   1      38.531  33.424  37.490  1.00  0.00     0.022 A 
BRANCH  79  82
ATOM     82  S   UNL A   1      40.046  35.604  36.838  1.00  0.00     0.127 S 
ATOM     83  O   UNL A   1      39.410  35.939  38.109  1.00  0.00    -0.237 OA
ATOM     84  O   UNL A   1      41.479  35.323  36.920  1.00  0.00    -0.237 OA
ATOM     85  O   UNL A   1      39.654  36.433  35.706  1.00  0.00    -0.744 OA
ENDBRANCH  79  82
ENDBRANCH  51  75
BRANCH  63  86
ATOM     86  C   UNL A   1      44.874  27.974  33.970  1.00  0.00     0.023 A 
ATOM     87  C   UNL A   1      45.975  28.849  33.912  1.00  0.00     0.012 A 
ATOM     88  C   UNL A   1      44.888  26.892  34.874  1.00  0.00     0.148 A 
ATOM     89  C   UNL A   1      47.077  28.651  34.742  1.00  0.00     0.002 A 
ATOM     90  C   UNL A   1      45.975  26.722  35.722  1.00  0.00     0.091 A 
ATOM     91  F   UNL A   1      43.829  26.072  34.903  1.00  0.00    -0.205 F 
ATOM     92  C   UNL A   1      47.072  27.598  35.654  1.00  0.00     0.022 A 
BRANCH  90  93
ATOM     93  S   UNL A   1      46.029  25.446  36.985  1.00  0.00     0.127 S 
ATOM     94  O   UNL A   1      47.333  25.690  37.599  1.00  0.00    -0.237 OA
ATOM     95  O   UNL A   1      44.883  25.794  37.824  1.00  0.00    -0.237 OA
ATOM     96  O   UNL A   1      45.905  24.176  36.282  1.00  0.00    -0.744 OA
ENDBRANCH  90  93
ENDBRANCH  63  86
ENDBRANCH  37  38
ENDBRANCH  29  32
ENDBRANCH  27  28
ENDBRANCH  26  27
ENDBRANCH   1  26
TORSDOF 17
ENDMDL
MODEL 3
REMARK VINA RESULT:     -11.6      5.138      8.159
REMARK SMILES Cc1cc(C)c2c(C(=O)NCCCCCCNC(=O)c3ccc(-c4c5nc(c(-c6cccc(S(=O)(=O)[O-])c6F)c6ccc([nH]6)c(-c6cccc(S(=O)(=O)[O-])c6F)c6nc(c(-c7cccc(S(=O)(=O)[O-])c7F)c7ccc4[nH]7)C=C6)C=C5)cc3)cc(-c3ccco3)nc2c1
REMARK SMILES IDX 14 1 13 2 12 3 11 4 10 5 8 6 9 7 7 9 1 10 2 11 3 12 92 13
REMARK SMILES IDX 4 14 91 15 5 16 6 17 90 18 84 19 83 20 85 21 86 22 89 23
REMARK SMILES IDX 87 24 88 25 15 26 16 27 17 28 18 29 19 31 20 32 21 33 82 34
REMARK SMILES IDX 22 35 81 36 23 37 24 38 25 39 75 40 26 41 80 42 74 43 76 44
REMARK SMILES IDX 27 45 79 46 73 47 72 48 28 50 60 51 40 52 59 53 41 54 44 55
REMARK SMILES IDX 58 56 77 57 42 58 43 59 57 61 78 62 45 63 29 64 30 65 38 66
REMARK SMILES IDX 31 67 33 68 39 69 32 70 34 71 35 72 36 73 37 74 61 75 62 76
REMARK SMILES IDX 70 77 63 78 65 79 71 80 64 81 66 82 67 83 68 84 69 85 46 86
REMARK SMILES IDX 47 87 55 88 48 89 50 90 56 91 49 92 51 93 52 94 53 95 54 96
REMARK H PARENT 10 8 17 30 76 49 44 60
REMARK Flexibility Score: inf
ROOT
ATOM      1  C   UNL A   1      33.859  22.878  26.849  1.00  0.00     0.002 C 
ENDROOT
BRANCH   1   2
ATOM      2  C   UNL A   1      32.378  22.910  26.455  1.00  0.00     0.002 C 
BRANCH   2   3
ATOM      3  C   UNL A   1      31.464  23.912  27.174  1.00  0.00     0.021 C 
BRANCH   3   4
ATOM      4  C   UNL A   1      30.416  24.621  26.320  1.00  0.00     0.116 C 
BRANCH   4   5
ATOM      5  N   UNL A   1      30.447  24.280  24.909  1.00  0.00    -0.352 N 
ATOM      6  C   UNL A   1      30.775  25.049  23.812  1.00  0.00     0.252 C 
ATOM      7  O   UNL A   1      30.752  24.521  22.700  1.00  0.00    -0.269 OA
ATOM      8  H   UNL A   1      30.194  23.350  24.702  1.00  0.00     0.163 HD
BRANCH   6   9
ATOM      9  C   UNL A   1      31.046  26.513  23.907  1.00  0.00     0.051 A 
ATOM     10  C   UNL A   1      34.816  28.956  27.401  1.00  0.00     0.044 C 
ATOM     11  C   UNL A   1      33.982  28.359  26.307  1.00  0.00    -0.049 A 
ATOM     12  C   UNL A   1      34.300  27.123  25.755  1.00  0.00     0.007 A 
ATOM     13  C   UNL A   1      32.862  29.035  25.817  1.00  0.00     0.032 A 
ATOM     14  C   UNL A   1      33.438  26.513  24.830  1.00  0.00    -0.041 A 
ATOM     15  C   UNL A   1      31.989  28.457  24.905  1.00  0.00     0.072 A 
ATOM     16  C   UNL A   1      33.995  25.346  24.050  1.00  0.00     0.045 C 
ATOM     17  C   UNL A   1      32.170  27.109  24.540  1.00  0.00     0.016 A 
ATOM     18  N   UNL A   1      31.002  29.227  24.418  1.00  0.00    -0.244 NA
ATOM     19  C   UNL A   1      30.103  28.675  23.580  1.00  0.00     0.107 A 
ATOM     20  C   UNL A   1      30.030  27.317  23.374  1.00  0.00     0.046 A 
BRANCH  19  21
ATOM     21  C   UNL A   1      29.233  29.606  22.882  1.00  0.00     0.152 A 
ATOM     22  C   UNL A   1      27.987  30.149  23.126  1.00  0.00     0.052 A 
ATOM     23  O   UNL A   1      29.670  30.005  21.648  1.00  0.00    -0.463 OA
ATOM     24  C   UNL A   1      27.652  30.925  21.986  1.00  0.00     0.043 A 
ATOM     25  C   UNL A   1      28.708  30.798  21.113  1.00  0.00     0.196 A 
ENDBRANCH  19  21
ENDBRANCH   6   9
ENDBRANCH   4   5
ENDBRANCH   3   4
ENDBRANCH   2   3
ENDBRANCH   1   2
BRANCH   1  26
ATOM     26  C   UNL A   1      34.705  21.720  26.317  1.00  0.00     0.021 C 
BRANCH  26  27
ATOM     27  C   UNL A   1      35.976  22.094  25.561  1.00  0.00     0.116 C 
BRANCH  27  28
ATOM     28  N   UNL A   1      36.917  20.994  25.438  1.00  0.00    -0.352 N 
ATOM     29  C   UNL A   1      38.278  20.990  25.641  1.00  0.00     0.251 C 
ATOM     30  H   UNL A   1      36.526  20.131  25.170  1.00  0.00     0.163 HD
ATOM     31  O   UNL A   1      38.935  19.986  25.398  1.00  0.00    -0.269 OA
BRANCH  29  32
ATOM     32  C   UNL A   1      38.949  22.216  26.126  1.00  0.00     0.039 A 
ATOM     33  C   UNL A   1      40.056  22.087  26.970  1.00  0.00     0.014 A 
ATOM     34  C   UNL A   1      38.494  23.483  25.748  1.00  0.00     0.014 A 
ATOM     35  C   UNL A   1      40.745  23.229  27.388  1.00  0.00     0.010 A 
ATOM     36  C   UNL A   1      39.210  24.616  26.126  1.00  0.00     0.010 A 
ATOM     37  C   UNL A   1      40.340  24.499  26.950  1.00  0.00    -0.014 A 
BRANCH  37  38
ATOM     38  C   UNL A   1      41.079  25.721  27.350  1.00  0.00     0.031 A 
ATOM     39  C   UNL A   1      40.391  26.781  28.160  1.00  0.00     0.074 A 
ATOM     40  C   UNL A   1      42.343  25.910  26.922  1.00  0.00     0.049 A 
ATOM     41  N   UNL A   1      40.846  27.942  28.550  1.00  0.00    -0.248 NA
ATOM     42  C   UNL A   1      39.003  26.509  28.572  1.00  0.00     0.031 C 
ATOM     43  C   UNL A   1      43.101  24.976  26.089  1.00  0.00     0.029 A 
ATOM     44  N   UNL A   1      43.203  26.963  27.110  1.00  0.00    -0.354 N 
ATOM     45  C   UNL A   1      39.800  28.550  29.230  1.00  0.00     0.074 A 
ATOM     46  C   UNL A   1      38.676  27.640  29.181  1.00  0.00     0.031 C 
ATOM     47  C   UNL A   1      44.312  25.498  25.835  1.00  0.00     0.029 A 
ATOM     48  C   UNL A   1      44.409  26.811  26.468  1.00  0.00     0.049 A 
ATOM     49  H   UNL A   1      42.977  27.753  27.652  1.00  0.00     0.167 HD
ATOM     50  C   UNL A   1      39.784  29.746  29.862  1.00  0.00     0.034 A 
ATOM     51  C   UNL A   1      45.472  27.635  26.396  1.00  0.00     0.034 A 
ATOM     52  C   UNL A   1      40.913  30.629  29.948  1.00  0.00     0.049 A 
ATOM     53  C   UNL A   1      45.439  28.951  27.122  1.00  0.00     0.074 A 
ATOM     54  C   UNL A   1      41.010  31.830  30.629  1.00  0.00     0.029 A 
ATOM     55  N   UNL A   1      42.135  30.412  29.334  1.00  0.00    -0.354 N 
ATOM     56  N   UNL A   1      44.480  29.457  27.857  1.00  0.00    -0.248 NA
ATOM     57  C   UNL A   1      46.639  29.797  27.035  1.00  0.00     0.031 C 
ATOM     58  C   UNL A   1      42.293  32.344  30.420  1.00  0.00     0.029 A 
ATOM     59  C   UNL A   1      42.995  31.457  29.619  1.00  0.00     0.049 A 
ATOM     60  H   UNL A   1      42.358  29.631  28.779  1.00  0.00     0.167 HD
ATOM     61  C   UNL A   1      44.965  30.665  28.342  1.00  0.00     0.074 A 
ATOM     62  C   UNL A   1      46.310  30.814  27.823  1.00  0.00     0.031 C 
ATOM     63  C   UNL A   1      44.348  31.571  29.136  1.00  0.00     0.034 A 
BRANCH  50  64
ATOM     64  C   UNL A   1      38.522  30.145  30.572  1.00  0.00     0.023 A 
ATOM     65  C   UNL A   1      38.302  29.686  31.886  1.00  0.00     0.012 A 
ATOM     66  C   UNL A   1      37.605  31.035  29.982  1.00  0.00     0.148 A 
ATOM     67  C   UNL A   1      37.178  30.096  32.600  1.00  0.00     0.002 A 
ATOM     68  C   UNL A   1      36.501  31.463  30.710  1.00  0.00     0.091 A 
ATOM     69  F   UNL A   1      37.831  31.444  28.725  1.00  0.00    -0.205 F 
ATOM     70  C   UNL A   1      36.284  30.990  32.016  1.00  0.00     0.022 A 
BRANCH  68  71
ATOM     71  S   UNL A   1      35.317  32.653  30.074  1.00  0.00     0.127 S 
ATOM     72  O   UNL A   1      36.166  33.826  29.862  1.00  0.00    -0.237 OA
ATOM     73  O   UNL A   1      34.857  32.003  28.848  1.00  0.00    -0.237 OA
ATOM     74  O   UNL A   1      34.301  32.805  31.106  1.00  0.00    -0.744 OA
ENDBRANCH  68  71
ENDBRANCH  50  64
BRANCH  51  75
ATOM     75  C   UNL A   1      46.687  27.190  25.661  1.00  0.00     0.023 A 
ATOM     76  C   UNL A   1      47.521  26.217  26.245  1.00  0.00     0.012 A 
ATOM     77  C   UNL A   1      46.972  27.658  24.365  1.00  0.00     0.148 A 
ATOM     78  C   UNL A   1      48.625  25.721  25.550  1.00  0.00     0.002 A 
ATOM     79  C   UNL A   1      48.051  27.133  23.664  1.00  0.00     0.091 A 
ATOM     80  F   UNL A   1      46.161  28.584  23.833  1.00  0.00    -0.205 F 
ATOM     81  C   UNL A   1      48.884  26.170  24.258  1.00  0.00     0.022 A 
BRANCH  79  82
ATOM     82  S   UNL A   1      48.404  27.566  21.956  1.00  0.00     0.127 S 
ATOM     83  O   UNL A   1      48.653  26.256  21.361  1.00  0.00    -0.237 OA
ATOM     84  O   UNL A   1      47.153  28.203  21.546  1.00  0.00    -0.237 OA
ATOM     85  O   UNL A   1      49.554  28.460  22.002  1.00  0.00    -0.744 OA
ENDBRANCH  79  82
ENDBRANCH  51  75
BRANCH  63  86
ATOM     86  C   UNL A   1      45.102  32.811  29.525  1.00  0.00     0.023 A 
ATOM     87  C   UNL A   1      46.003  32.761  30.605  1.00  0.00     0.012 A 
ATOM     88  C   UNL A   1      45.027  33.973  28.730  1.00  0.00     0.148 A 
ATOM     89  C   UNL A   1      46.821  33.853  30.891  1.00  0.00     0.002 A 
ATOM     90  C   UNL A   1      45.870  35.044  29.001  1.00  0.00     0.091 A 
ATOM     91  F   UNL A   1      44.155  33.994  27.713  1.00  0.00    -0.205 F 
ATOM     92  C   UNL A   1      46.764  34.987  30.083  1.00  0.00     0.022 A 
BRANCH  90  93
ATOM     93  S   UNL A   1      45.929  36.515  27.971  1.00  0.00     0.127 S 
ATOM     94  O   UNL A   1      47.075  37.227  28.536  1.00  0.00    -0.237 OA
ATOM     95  O   UNL A   1      46.153  35.951  26.641  1.00  0.00    -0.237 OA
ATOM     96  O   UNL A   1      44.644  37.180  28.142  1.00  0.00    -0.744 OA
ENDBRANCH  90  93
ENDBRANCH  63  86
ENDBRANCH  37  38
ENDBRANCH  29  32
ENDBRANCH  27  28
ENDBRANCH  26  27
ENDBRANCH   1  26
TORSDOF 17
ENDMDL
