MODEL 1
REMARK VINA RESULT:     -12.2      0.000      0.000
REMARK SMILES O=C(NCCCCCCNC(=O)[C@H]1CC2(CCN(S(=O)(=O)N3CCOCC3)CC2)C[NH2+]1)c1ccc(-c2c3nc(c(-c4cccc(S(=O)(=O)[O-])c4F)c4ccc([nH]4)c(-c4cccc(S(=O)(=O)[O-])c4F)c4nc(c(-c5cccc(S(=O)(=O)[O-])c5F)c5ccc2[nH]5)C=C4)C=C3)cc1
REMARK SMILES IDX 6 1 5 2 4 3 3 4 1 5 2 6 32 8 33 9 94 10 34 11 93 12 35 13
REMARK SMILES IDX 36 14 37 15 87 16 38 17 92 18 86 19 88 20 39 21 91 22 85 23
REMARK SMILES IDX 84 24 40 26 72 27 52 28 71 29 53 30 56 31 70 32 89 33 54 34
REMARK SMILES IDX 55 35 69 37 90 38 57 39 41 40 42 41 50 42 43 43 45 44 51 45
REMARK SMILES IDX 44 46 46 47 47 48 48 49 49 50 73 51 74 52 82 53 75 54 77 55
REMARK SMILES IDX 83 56 76 57 78 58 79 59 80 60 81 61 58 62 59 63 67 64 60 65
REMARK SMILES IDX 62 66 68 67 61 68 63 69 64 70 65 71 66 72 7 73 8 74 9 75
REMARK SMILES IDX 10 76 11 77 12 79 13 80 14 81 31 82 15 83 30 84 16 87 29 88
REMARK SMILES IDX 17 89 28 90 18 91 19 92 20 93 21 94 22 95 23 96 27 97 24 98
REMARK SMILES IDX 26 99 25 100
REMARK H PARENT 3 7 88 25 56 36 10 78 31 85 31 86
REMARK Flexibility Score: inf
ROOT
ATOM      1  C   UNL A   1      37.404  20.833  24.609  1.00  0.00     0.002 C 
ENDROOT
BRANCH   1   2
ATOM      2  C   UNL A   1      38.290  19.621  24.911  1.00  0.00     0.021 C 
BRANCH   2   3
ATOM      3  C   UNL A   1      39.130  19.749  26.175  1.00  0.00     0.116 C 
BRANCH   3   4
ATOM      4  N   UNL A   1      40.370  18.995  26.086  1.00  0.00    -0.352 N 
ATOM      5  O   UNL A   1      42.580  18.683  25.786  1.00  0.00    -0.269 OA
ATOM      6  C   UNL A   1      41.667  19.448  26.077  1.00  0.00     0.251 C 
ATOM      7  H   UNL A   1      40.265  18.018  26.022  1.00  0.00     0.163 HD
BRANCH   6   8
ATOM      8  C   UNL A   1      41.943  20.864  26.398  1.00  0.00     0.039 A 
ATOM      9  C   UNL A   1      41.875  21.840  25.401  1.00  0.00     0.014 A 
ATOM     10  C   UNL A   1      42.285  21.217  27.705  1.00  0.00     0.014 A 
ATOM     11  C   UNL A   1      42.308  23.132  25.671  1.00  0.00     0.010 A 
ATOM     12  C   UNL A   1      42.623  22.541  27.997  1.00  0.00     0.010 A 
ATOM     13  C   UNL A   1      42.676  23.501  26.974  1.00  0.00    -0.014 A 
BRANCH  13  14
ATOM     14  C   UNL A   1      43.059  24.910  27.250  1.00  0.00     0.031 A 
ATOM     15  C   UNL A   1      42.119  25.852  27.949  1.00  0.00     0.074 A 
ATOM     16  C   UNL A   1      44.278  25.334  26.862  1.00  0.00     0.049 A 
ATOM     17  N   UNL A   1      42.311  27.100  28.291  1.00  0.00    -0.248 NA
ATOM     18  C   UNL A   1      40.789  25.335  28.303  1.00  0.00     0.031 C 
ATOM     19  C   UNL A   1      45.264  24.520  26.147  1.00  0.00     0.029 A 
ATOM     20  N   UNL A   1      44.897  26.547  27.014  1.00  0.00    -0.354 N 
ATOM     21  C   UNL A   1      41.117  27.534  28.853  1.00  0.00     0.074 A 
ATOM     22  C   UNL A   1      40.201  26.415  28.801  1.00  0.00     0.031 C 
ATOM     23  C   UNL A   1      46.375  25.244  25.952  1.00  0.00     0.029 A 
ATOM     24  C   UNL A   1      46.160  26.589  26.470  1.00  0.00     0.049 A 
ATOM     25  H   UNL A   1      44.479  27.314  27.468  1.00  0.00     0.167 HD
ATOM     26  C   UNL A   1      40.813  28.748  29.372  1.00  0.00     0.034 A 
ATOM     27  C   UNL A   1      47.042  27.600  26.380  1.00  0.00     0.034 A 
ATOM     28  C   UNL A   1      41.738  29.851  29.436  1.00  0.00     0.049 A 
ATOM     29  C   UNL A   1      46.680  28.934  26.965  1.00  0.00     0.074 A 
ATOM     30  C   UNL A   1      41.552  31.099  30.005  1.00  0.00     0.029 A 
ATOM     31  N   UNL A   1      43.016  29.848  28.897  1.00  0.00    -0.354 N 
ATOM     32  N   UNL A   1      45.591  29.286  27.603  1.00  0.00    -0.248 NA
ATOM     33  C   UNL A   1      47.682  30.001  26.847  1.00  0.00     0.031 C 
ATOM     34  C   UNL A   1      42.698  31.865  29.770  1.00  0.00     0.029 A 
ATOM     35  C   UNL A   1      43.622  31.077  29.101  1.00  0.00     0.049 A 
ATOM     36  H   UNL A   1      43.432  29.084  28.436  1.00  0.00     0.167 HD
ATOM     37  C   UNL A   1      45.792  30.603  27.999  1.00  0.00     0.074 A 
ATOM     38  C   UNL A   1      47.114  30.977  27.539  1.00  0.00     0.031 C 
ATOM     39  C   UNL A   1      44.955  31.426  28.678  1.00  0.00     0.034 A 
BRANCH  26  40
ATOM     40  C   UNL A   1      39.419  28.952  29.913  1.00  0.00     0.023 A 
ATOM     41  C   UNL A   1      39.101  28.538  31.223  1.00  0.00     0.012 A 
ATOM     42  C   UNL A   1      38.434  29.593  29.137  1.00  0.00     0.148 A 
ATOM     43  C   UNL A   1      37.814  28.714  31.732  1.00  0.00     0.002 A 
ATOM     44  C   UNL A   1      37.167  29.810  29.669  1.00  0.00     0.091 A 
ATOM     45  F   UNL A   1      38.744  29.965  27.887  1.00  0.00    -0.205 F 
ATOM     46  C   UNL A   1      36.851  29.357  30.960  1.00  0.00     0.022 A 
BRANCH  44  47
ATOM     47  S   UNL A   1      35.887  30.705  28.783  1.00  0.00     0.127 S 
ATOM     48  O   UNL A   1      35.161  31.343  29.880  1.00  0.00    -0.237 OA
ATOM     49  O   UNL A   1      36.669  31.623  27.955  1.00  0.00    -0.237 OA
ATOM     50  O   UNL A   1      35.140  29.703  28.035  1.00  0.00    -0.744 OA
ENDBRANCH  44  47
ENDBRANCH  26  40
BRANCH  27  51
ATOM     51  C   UNL A   1      48.371  27.367  25.751  1.00  0.00     0.023 A 
ATOM     52  C   UNL A   1      49.445  26.927  26.548  1.00  0.00     0.012 A 
ATOM     53  C   UNL A   1      48.563  27.531  24.365  1.00  0.00     0.148 A 
ATOM     54  C   UNL A   1      50.695  26.681  25.980  1.00  0.00     0.002 A 
ATOM     55  C   UNL A   1      49.794  27.228  23.798  1.00  0.00     0.091 A 
ATOM     56  F   UNL A   1      47.526  27.952  23.628  1.00  0.00    -0.205 F 
ATOM     57  C   UNL A   1      50.867  26.821  24.606  1.00  0.00     0.022 A 
BRANCH  55  58
ATOM     58  S   UNL A   1      50.072  27.251  22.024  1.00  0.00     0.127 S 
ATOM     59  O   UNL A   1      49.022  26.355  21.547  1.00  0.00    -0.237 OA
ATOM     60  O   UNL A   1      49.868  28.665  21.709  1.00  0.00    -0.237 OA
ATOM     61  O   UNL A   1      51.436  26.779  21.831  1.00  0.00    -0.744 OA
ENDBRANCH  55  58
ENDBRANCH  27  51
BRANCH  39  62
ATOM     62  C   UNL A   1      45.463  32.801  29.024  1.00  0.00     0.023 A 
ATOM     63  C   UNL A   1      46.208  33.011  30.202  1.00  0.00     0.012 A 
ATOM     64  C   UNL A   1      45.244  33.880  28.145  1.00  0.00     0.148 A 
ATOM     65  C   UNL A   1      46.691  34.281  30.518  1.00  0.00     0.002 A 
ATOM     66  C   UNL A   1      45.776  35.129  28.437  1.00  0.00     0.091 A 
ATOM     67  F   UNL A   1      44.513  33.666  27.040  1.00  0.00    -0.205 F 
ATOM     68  C   UNL A   1      46.487  35.336  29.630  1.00  0.00     0.022 A 
BRANCH  66  69
ATOM     69  S   UNL A   1      45.650  36.516  27.303  1.00  0.00     0.127 S 
ATOM     70  O   UNL A   1      46.710  37.396  27.791  1.00  0.00    -0.237 OA
ATOM     71  O   UNL A   1      45.927  35.886  26.012  1.00  0.00    -0.237 OA
ATOM     72  O   UNL A   1      44.296  37.031  27.446  1.00  0.00    -0.744 OA
ENDBRANCH  66  69
ENDBRANCH  39  62
ENDBRANCH  13  14
ENDBRANCH   6   8
ENDBRANCH   3   4
ENDBRANCH   2   3
ENDBRANCH   1   2
BRANCH   1  73
ATOM     73  C   UNL A   1      35.937  20.701  25.034  1.00  0.00     0.002 C 
BRANCH  73  74
ATOM     74  C   UNL A   1      35.405  21.849  25.882  1.00  0.00     0.021 C 
BRANCH  74  75
ATOM     75  C   UNL A   1      34.381  21.430  26.927  1.00  0.00     0.116 C 
BRANCH  75  76
ATOM     76  N   UNL A   1      33.622  20.248  26.540  1.00  0.00    -0.351 N 
ATOM     77  C   UNL A   1      32.686  19.958  25.592  1.00  0.00     0.278 C 
ATOM     78  H   UNL A   1      33.837  19.468  27.100  1.00  0.00     0.163 HD
ATOM     79  O   UNL A   1      32.314  18.775  25.548  1.00  0.00    -0.268 OA
BRANCH  77  80
ATOM     80  C   UNL A   1      32.062  20.972  24.608  1.00  0.00     0.273 C 
ATOM     81  C   UNL A   1      32.555  22.384  24.651  1.00  0.00     0.088 C 
ATOM     82  N   UNL A   1      32.413  20.623  23.212  1.00  0.00    -0.336 N 
ATOM     83  C   UNL A   1      32.287  23.011  23.282  1.00  0.00     0.028 C 
ATOM     84  C   UNL A   1      32.055  21.783  22.387  1.00  0.00     0.268 C 
ATOM     85  H   UNL A   1      31.888  19.802  22.912  1.00  0.00     0.346 HD
ATOM     86  H   UNL A   1      33.406  20.403  23.127  1.00  0.00     0.346 HD
ATOM     87  C   UNL A   1      33.564  23.794  22.909  1.00  0.00     0.030 C 
ATOM     88  C   UNL A   1      31.059  23.953  23.292  1.00  0.00     0.030 C 
ATOM     89  C   UNL A   1      33.674  25.010  23.817  1.00  0.00     0.104 C 
ATOM     90  C   UNL A   1      31.282  25.289  24.018  1.00  0.00     0.104 C 
ATOM     91  N   UNL A   1      32.556  25.936  23.599  1.00  0.00    -0.189 NA
BRANCH  91  92
ATOM     92  S   UNL A   1      32.478  26.824  22.157  1.00  0.00     0.282 S 
ATOM     93  O   UNL A   1      33.768  26.777  21.514  1.00  0.00    -0.195 OA
ATOM     94  O   UNL A   1      31.301  26.359  21.456  1.00  0.00    -0.195 OA
BRANCH  92  95
ATOM     95  N   UNL A   1      32.198  28.371  22.679  1.00  0.00    -0.184 NA
ATOM     96  C   UNL A   1      30.954  29.078  22.335  1.00  0.00     0.132 C 
ATOM     97  C   UNL A   1      32.971  29.036  23.748  1.00  0.00     0.132 C 
ATOM     98  C   UNL A   1      30.111  29.228  23.596  1.00  0.00     0.177 C 
ATOM     99  C   UNL A   1      32.093  29.473  24.938  1.00  0.00     0.177 C 
ATOM    100  O   UNL A   1      30.809  29.999  24.584  1.00  0.00    -0.379 OA
ENDBRANCH  92  95
ENDBRANCH  91  92
ENDBRANCH  77  80
ENDBRANCH  75  76
ENDBRANCH  74  75
ENDBRANCH  73  74
ENDBRANCH   1  73
TORSDOF 18
ENDMDL
MODEL 2
REMARK VINA RESULT:     -11.6      6.280     10.507
REMARK SMILES O=C(NCCCCCCNC(=O)[C@H]1CC2(CCN(S(=O)(=O)N3CCOCC3)CC2)C[NH2+]1)c1ccc(-c2c3nc(c(-c4cccc(S(=O)(=O)[O-])c4F)c4ccc([nH]4)c(-c4cccc(S(=O)(=O)[O-])c4F)c4nc(c(-c5cccc(S(=O)(=O)[O-])c5F)c5ccc2[nH]5)C=C4)C=C3)cc1
REMARK SMILES IDX 6 1 5 2 4 3 3 4 1 5 2 6 32 8 33 9 94 10 34 11 93 12 35 13
REMARK SMILES IDX 36 14 37 15 87 16 38 17 92 18 86 19 88 20 39 21 91 22 85 23
REMARK SMILES IDX 84 24 40 26 72 27 52 28 71 29 53 30 56 31 70 32 89 33 54 34
REMARK SMILES IDX 55 35 69 37 90 38 57 39 41 40 42 41 50 42 43 43 45 44 51 45
REMARK SMILES IDX 44 46 46 47 47 48 48 49 49 50 73 51 74 52 82 53 75 54 77 55
REMARK SMILES IDX 83 56 76 57 78 58 79 59 80 60 81 61 58 62 59 63 67 64 60 65
REMARK SMILES IDX 62 66 68 67 61 68 63 69 64 70 65 71 66 72 7 73 8 74 9 75
REMARK SMILES IDX 10 76 11 77 12 79 13 80 14 81 31 82 15 83 30 84 16 87 29 88
REMARK SMILES IDX 17 89 28 90 18 91 19 92 20 93 21 94 22 95 23 96 27 97 24 98
REMARK SMILES IDX 26 99 25 100
REMARK H PARENT 3 7 88 25 56 36 10 78 31 85 31 86
REMARK Flexibility Score: inf
ROOT
ATOM      1  C   UNL A   1      35.941  33.478  28.045  1.00  0.00     0.002 C 
ENDROOT
BRANCH   1   2
ATOM      2  C   UNL A   1      34.762  34.454  28.025  1.00  0.00     0.021 C 
BRANCH   2   3
ATOM      3  C   UNL A   1      33.506  33.947  28.722  1.00  0.00     0.116 C 
BRANCH   3   4
ATOM      4  N   UNL A   1      33.013  34.889  29.713  1.00  0.00    -0.352 N 
ATOM      5  O   UNL A   1      32.712  35.754  31.771  1.00  0.00    -0.269 OA
ATOM      6  C   UNL A   1      33.384  35.047  31.026  1.00  0.00     0.251 C 
ATOM      7  H   UNL A   1      32.310  35.502  29.398  1.00  0.00     0.163 HD
BRANCH   6   8
ATOM      8  C   UNL A   1      34.580  34.341  31.532  1.00  0.00     0.039 A 
ATOM      9  C   UNL A   1      35.839  34.940  31.452  1.00  0.00     0.014 A 
ATOM     10  C   UNL A   1      34.442  33.064  32.080  1.00  0.00     0.014 A 
ATOM     11  C   UNL A   1      36.974  34.203  31.764  1.00  0.00     0.010 A 
ATOM     12  C   UNL A   1      35.579  32.362  32.488  1.00  0.00     0.010 A 
ATOM     13  C   UNL A   1      36.858  32.909  32.296  1.00  0.00    -0.014 A 
BRANCH  13  14
ATOM     14  C   UNL A   1      38.086  32.173  32.694  1.00  0.00     0.031 A 
ATOM     15  C   UNL A   1      38.784  32.466  33.994  1.00  0.00     0.074 A 
ATOM     16  C   UNL A   1      38.567  31.226  31.865  1.00  0.00     0.049 A 
ATOM     17  N   UNL A   1      39.846  31.894  34.501  1.00  0.00    -0.248 NA
ATOM     18  C   UNL A   1      38.229  33.542  34.828  1.00  0.00     0.031 C 
ATOM     19  C   UNL A   1      37.993  30.877  30.563  1.00  0.00     0.029 A 
ATOM     20  N   UNL A   1      39.642  30.386  31.990  1.00  0.00    -0.354 N 
ATOM     21  C   UNL A   1      40.118  32.569  35.685  1.00  0.00     0.074 A 
ATOM     22  C   UNL A   1      39.111  33.600  35.818  1.00  0.00     0.031 C 
ATOM     23  C   UNL A   1      38.699  29.873  30.026  1.00  0.00     0.029 A 
ATOM     24  C   UNL A   1      39.811  29.550  30.911  1.00  0.00     0.049 A 
ATOM     25  H   UNL A   1      40.235  30.379  32.776  1.00  0.00     0.167 HD
ATOM     26  C   UNL A   1      41.109  32.347  36.582  1.00  0.00     0.034 A 
ATOM     27  C   UNL A   1      40.764  28.637  30.650  1.00  0.00     0.034 A 
ATOM     28  C   UNL A   1      42.096  31.306  36.450  1.00  0.00     0.049 A 
ATOM     29  C   UNL A   1      41.848  28.409  31.663  1.00  0.00     0.074 A 
ATOM     30  C   UNL A   1      43.098  30.953  37.337  1.00  0.00     0.029 A 
ATOM     31  N   UNL A   1      42.221  30.464  35.355  1.00  0.00    -0.354 N 
ATOM     32  N   UNL A   1      42.014  28.975  32.833  1.00  0.00    -0.248 NA
ATOM     33  C   UNL A   1      42.858  27.396  31.333  1.00  0.00     0.031 C 
ATOM     34  C   UNL A   1      43.856  29.929  36.759  1.00  0.00     0.029 A 
ATOM     35  C   UNL A   1      43.294  29.606  35.534  1.00  0.00     0.049 A 
ATOM     36  H   UNL A   1      41.633  30.474  34.565  1.00  0.00     0.167 HD
ATOM     37  C   UNL A   1      43.123  28.356  33.399  1.00  0.00     0.074 A 
ATOM     38  C   UNL A   1      43.577  27.364  32.445  1.00  0.00     0.031 C 
ATOM     39  C   UNL A   1      43.712  28.593  34.597  1.00  0.00     0.034 A 
BRANCH  26  40
ATOM     40  C   UNL A   1      41.178  33.248  37.791  1.00  0.00     0.023 A 
ATOM     41  C   UNL A   1      40.491  32.901  38.973  1.00  0.00     0.012 A 
ATOM     42  C   UNL A   1      41.957  34.422  37.768  1.00  0.00     0.148 A 
ATOM     43  C   UNL A   1      40.541  33.730  40.094  1.00  0.00     0.002 A 
ATOM     44  C   UNL A   1      42.042  35.218  38.906  1.00  0.00     0.091 A 
ATOM     45  F   UNL A   1      42.589  34.750  36.632  1.00  0.00    -0.205 F 
ATOM     46  C   UNL A   1      41.322  34.881  40.064  1.00  0.00     0.022 A 
BRANCH  44  47
ATOM     47  S   UNL A   1      43.090  36.673  38.991  1.00  0.00     0.127 S 
ATOM     48  O   UNL A   1      42.425  37.454  40.034  1.00  0.00    -0.237 OA
ATOM     49  O   UNL A   1      44.378  36.104  39.385  1.00  0.00    -0.237 OA
ATOM     50  O   UNL A   1      43.070  37.261  37.659  1.00  0.00    -0.744 OA
ENDBRANCH  44  47
ENDBRANCH  26  40
BRANCH  27  51
ATOM     51  C   UNL A   1      40.698  27.839  29.395  1.00  0.00     0.023 A 
ATOM     52  C   UNL A   1      39.706  26.848  29.258  1.00  0.00     0.012 A 
ATOM     53  C   UNL A   1      41.577  28.087  28.324  1.00  0.00     0.148 A 
ATOM     54  C   UNL A   1      39.610  26.100  28.085  1.00  0.00     0.002 A 
ATOM     55  C   UNL A   1      41.437  27.379  27.137  1.00  0.00     0.091 A 
ATOM     56  F   UNL A   1      42.513  29.033  28.480  1.00  0.00    -0.205 F 
ATOM     57  C   UNL A   1      40.466  26.372  27.022  1.00  0.00     0.022 A 
BRANCH  55  58
ATOM     58  S   UNL A   1      42.406  27.749  25.671  1.00  0.00     0.127 S 
ATOM     59  O   UNL A   1      42.117  26.595  24.824  1.00  0.00    -0.237 OA
ATOM     60  O   UNL A   1      41.805  29.007  25.228  1.00  0.00    -0.237 OA
ATOM     61  O   UNL A   1      43.785  27.865  26.126  1.00  0.00    -0.744 OA
ENDBRANCH  55  58
ENDBRANCH  27  51
BRANCH  39  62
ATOM     62  C   UNL A   1      44.881  27.723  34.981  1.00  0.00     0.023 A 
ATOM     63  C   UNL A   1      46.199  28.142  34.716  1.00  0.00     0.012 A 
ATOM     64  C   UNL A   1      44.666  26.506  35.657  1.00  0.00     0.148 A 
ATOM     65  C   UNL A   1      47.283  27.345  35.081  1.00  0.00     0.002 A 
ATOM     66  C   UNL A   1      45.752  25.744  36.070  1.00  0.00     0.091 A 
ATOM     67  F   UNL A   1      43.404  26.112  35.880  1.00  0.00    -0.205 F 
ATOM     68  C   UNL A   1      47.061  26.153  35.769  1.00  0.00     0.022 A 
BRANCH  66  69
ATOM     69  S   UNL A   1      45.560  24.251  37.049  1.00  0.00     0.127 S 
ATOM     70  O   UNL A   1      44.871  23.366  36.111  1.00  0.00    -0.237 OA
ATOM     71  O   UNL A   1      46.949  23.883  37.326  1.00  0.00    -0.237 OA
ATOM     72  O   UNL A   1      44.791  24.636  38.224  1.00  0.00    -0.744 OA
ENDBRANCH  66  69
ENDBRANCH  39  62
ENDBRANCH  13  14
ENDBRANCH   6   8
ENDBRANCH   3   4
ENDBRANCH   2   3
ENDBRANCH   1   2
BRANCH   1  73
ATOM     73  C   UNL A   1      35.652  32.105  28.663  1.00  0.00     0.002 C 
BRANCH  73  74
ATOM     74  C   UNL A   1      35.672  30.938  27.683  1.00  0.00     0.021 C 
BRANCH  74  75
ATOM     75  C   UNL A   1      34.458  30.025  27.776  1.00  0.00     0.116 C 
BRANCH  75  76
ATOM     76  N   UNL A   1      33.265  30.598  27.164  1.00  0.00    -0.351 N 
ATOM     77  C   UNL A   1      32.496  30.314  26.075  1.00  0.00     0.278 C 
ATOM     78  H   UNL A   1      32.934  31.382  27.658  1.00  0.00     0.163 HD
ATOM     79  O   UNL A   1      31.494  31.031  25.922  1.00  0.00    -0.268 OA
BRANCH  77  80
ATOM     80  C   UNL A   1      32.784  29.207  25.036  1.00  0.00     0.273 C 
ATOM     81  C   UNL A   1      32.831  27.792  25.518  1.00  0.00     0.088 C 
ATOM     82  N   UNL A   1      31.672  29.108  24.063  1.00  0.00    -0.336 N 
ATOM     83  C   UNL A   1      32.518  26.885  24.326  1.00  0.00     0.028 C 
ATOM     84  C   UNL A   1      31.873  27.857  23.324  1.00  0.00     0.268 C 
ATOM     85  H   UNL A   1      31.693  29.902  23.424  1.00  0.00     0.346 HD
ATOM     86  H   UNL A   1      30.768  29.116  24.536  1.00  0.00     0.346 HD
ATOM     87  C   UNL A   1      31.533  25.815  24.844  1.00  0.00     0.030 C 
ATOM     88  C   UNL A   1      33.785  26.217  23.742  1.00  0.00     0.030 C 
ATOM     89  C   UNL A   1      32.280  24.882  25.786  1.00  0.00     0.104 C 
ATOM     90  C   UNL A   1      34.381  25.101  24.615  1.00  0.00     0.104 C 
ATOM     91  N   UNL A   1      33.335  24.148  25.077  1.00  0.00    -0.189 NA
BRANCH  91  92
ATOM     92  S   UNL A   1      32.910  22.941  23.965  1.00  0.00     0.282 S 
ATOM     93  O   UNL A   1      31.505  23.065  23.663  1.00  0.00    -0.195 OA
ATOM     94  O   UNL A   1      33.889  23.005  22.902  1.00  0.00    -0.195 OA
BRANCH  92  95
ATOM     95  N   UNL A   1      33.152  21.540  24.814  1.00  0.00    -0.184 NA
ATOM     96  C   UNL A   1      32.179  20.437  24.759  1.00  0.00     0.132 C 
ATOM     97  C   UNL A   1      34.444  21.148  25.414  1.00  0.00     0.132 C 
ATOM     98  C   UNL A   1      32.799  19.276  23.991  1.00  0.00     0.177 C 
ATOM     99  C   UNL A   1      34.977  19.808  24.867  1.00  0.00     0.177 C 
ATOM    100  O   UNL A   1      33.980  18.802  24.654  1.00  0.00    -0.379 OA
ENDBRANCH  92  95
ENDBRANCH  91  92
ENDBRANCH  77  80
ENDBRANCH  75  76
ENDBRANCH  74  75
ENDBRANCH  73  74
ENDBRANCH   1  73
TORSDOF 18
ENDMDL
MODEL 3
REMARK VINA RESULT:     -11.5      6.191     11.541
REMARK SMILES O=C(NCCCCCCNC(=O)[C@H]1CC2(CCN(S(=O)(=O)N3CCOCC3)CC2)C[NH2+]1)c1ccc(-c2c3nc(c(-c4cccc(S(=O)(=O)[O-])c4F)c4ccc([nH]4)c(-c4cccc(S(=O)(=O)[O-])c4F)c4nc(c(-c5cccc(S(=O)(=O)[O-])c5F)c5ccc2[nH]5)C=C4)C=C3)cc1
REMARK SMILES IDX 6 1 5 2 4 3 3 4 1 5 2 6 32 8 33 9 94 10 34 11 93 12 35 13
REMARK SMILES IDX 36 14 37 15 87 16 38 17 92 18 86 19 88 20 39 21 91 22 85 23
REMARK SMILES IDX 84 24 40 26 72 27 52 28 71 29 53 30 56 31 70 32 89 33 54 34
REMARK SMILES IDX 55 35 69 37 90 38 57 39 41 40 42 41 50 42 43 43 45 44 51 45
REMARK SMILES IDX 44 46 46 47 47 48 48 49 49 50 73 51 74 52 82 53 75 54 77 55
REMARK SMILES IDX 83 56 76 57 78 58 79 59 80 60 81 61 58 62 59 63 67 64 60 65
REMARK SMILES IDX 62 66 68 67 61 68 63 69 64 70 65 71 66 72 7 73 8 74 9 75
REMARK SMILES IDX 10 76 11 77 12 79 13 80 14 81 31 82 15 83 30 84 16 87 29 88
REMARK SMILES IDX 17 89 28 90 18 91 19 92 20 93 21 94 22 95 23 96 27 97 24 98
REMARK SMILES IDX 26 99 25 100
REMARK H PARENT 3 7 88 25 56 36 10 78 31 85 31 86
REMARK Flexibility Score: inf
ROOT
ATOM      1  C   UNL A   1      32.585  30.544  27.198  1.00  0.00     0.002 C 
ENDROOT
BRANCH   1   2
ATOM      2  C   UNL A   1      32.121  32.003  27.201  1.00  0.00     0.021 C 
BRANCH   2   3
ATOM      3  C   UNL A   1      33.248  33.028  27.184  1.00  0.00     0.116 C 
BRANCH   3   4
ATOM      4  N   UNL A   1      32.850  34.288  27.789  1.00  0.00    -0.352 N 
ATOM      5  O   UNL A   1      32.645  35.820  29.428  1.00  0.00    -0.269 OA
ATOM      6  C   UNL A   1      33.244  34.847  28.981  1.00  0.00     0.251 C 
ATOM      7  H   UNL A   1      32.204  34.819  27.269  1.00  0.00     0.163 HD
BRANCH   6   8
ATOM      8  C   UNL A   1      34.374  34.250  29.723  1.00  0.00     0.039 A 
ATOM      9  C   UNL A   1      35.691  34.544  29.359  1.00  0.00     0.014 A 
ATOM     10  C   UNL A   1      34.115  33.380  30.784  1.00  0.00     0.014 A 
ATOM     11  C   UNL A   1      36.739  33.844  29.942  1.00  0.00     0.010 A 
ATOM     12  C   UNL A   1      35.179  32.754  31.438  1.00  0.00     0.010 A 
ATOM     13  C   UNL A   1      36.497  32.950  30.997  1.00  0.00    -0.014 A 
BRANCH  13  14
ATOM     14  C   UNL A   1      37.646  32.274  31.655  1.00  0.00     0.031 A 
ATOM     15  C   UNL A   1      38.398  31.168  30.969  1.00  0.00     0.074 A 
ATOM     16  C   UNL A   1      38.009  32.675  32.889  1.00  0.00     0.049 A 
ATOM     17  N   UNL A   1      39.438  30.497  31.393  1.00  0.00    -0.248 NA
ATOM     18  C   UNL A   1      37.919  30.751  29.642  1.00  0.00     0.031 C 
ATOM     19  C   UNL A   1      37.334  33.717  33.668  1.00  0.00     0.029 A 
ATOM     20  N   UNL A   1      39.029  32.261  33.704  1.00  0.00    -0.354 N 
ATOM     21  C   UNL A   1      39.710  29.549  30.414  1.00  0.00     0.074 A 
ATOM     22  C   UNL A   1      38.719  29.727  29.374  1.00  0.00     0.031 C 
ATOM     23  C   UNL A   1      37.977  33.884  34.831  1.00  0.00     0.029 A 
ATOM     24  C   UNL A   1      39.069  32.922  34.910  1.00  0.00     0.049 A 
ATOM     25  H   UNL A   1      39.672  31.559  33.452  1.00  0.00     0.167 HD
ATOM     26  C   UNL A   1      40.698  28.622  30.380  1.00  0.00     0.034 A 
ATOM     27  C   UNL A   1      39.880  32.762  35.970  1.00  0.00     0.034 A 
ATOM     28  C   UNL A   1      41.691  28.465  31.410  1.00  0.00     0.049 A 
ATOM     29  C   UNL A   1      40.967  31.730  35.904  1.00  0.00     0.074 A 
ATOM     30  C   UNL A   1      42.775  27.604  31.438  1.00  0.00     0.029 A 
ATOM     31  N   UNL A   1      41.714  29.169  32.606  1.00  0.00    -0.354 N 
ATOM     32  N   UNL A   1      41.283  30.927  34.917  1.00  0.00    -0.248 NA
ATOM     33  C   UNL A   1      41.830  31.602  37.085  1.00  0.00     0.031 C 
ATOM     34  C   UNL A   1      43.424  27.754  32.667  1.00  0.00     0.029 A 
ATOM     35  C   UNL A   1      42.779  28.748  33.386  1.00  0.00     0.049 A 
ATOM     36  H   UNL A   1      41.067  29.865  32.862  1.00  0.00     0.167 HD
ATOM     37  C   UNL A   1      42.407  30.228  35.341  1.00  0.00     0.074 A 
ATOM     38  C   UNL A   1      42.722  30.714  36.669  1.00  0.00     0.031 C 
ATOM     39  C   UNL A   1      43.109  29.269  34.689  1.00  0.00     0.034 A 
BRANCH  26  40
ATOM     40  C   UNL A   1      40.755  27.700  29.186  1.00  0.00     0.023 A 
ATOM     41  C   UNL A   1      39.911  26.572  29.122  1.00  0.00     0.012 A 
ATOM     42  C   UNL A   1      41.617  27.975  28.106  1.00  0.00     0.148 A 
ATOM     43  C   UNL A   1      39.960  25.708  28.027  1.00  0.00     0.002 A 
ATOM     44  C   UNL A   1      41.625  27.137  26.996  1.00  0.00     0.091 A 
ATOM     45  F   UNL A   1      42.427  29.040  28.188  1.00  0.00    -0.205 F 
ATOM     46  C   UNL A   1      40.808  25.994  26.963  1.00  0.00     0.022 A 
BRANCH  44  47
ATOM     47  S   UNL A   1      42.621  27.470  25.540  1.00  0.00     0.127 S 
ATOM     48  O   UNL A   1      42.031  28.720  25.060  1.00  0.00    -0.237 OA
ATOM     49  O   UNL A   1      43.962  27.609  26.108  1.00  0.00    -0.237 OA
ATOM     50  O   UNL A   1      42.451  26.319  24.664  1.00  0.00    -0.744 OA
ENDBRANCH  44  47
ENDBRANCH  26  40
BRANCH  27  51
ATOM     51  C   UNL A   1      39.720  33.640  37.162  1.00  0.00     0.023 A 
ATOM     52  C   UNL A   1      38.737  33.328  38.122  1.00  0.00     0.012 A 
ATOM     53  C   UNL A   1      40.562  34.748  37.373  1.00  0.00     0.148 A 
ATOM     54  C   UNL A   1      38.580  34.122  39.258  1.00  0.00     0.002 A 
ATOM     55  C   UNL A   1      40.438  35.499  38.535  1.00  0.00     0.091 A 
ATOM     56  F   UNL A   1      41.488  35.025  36.445  1.00  0.00    -0.205 F 
ATOM     57  C   UNL A   1      39.435  35.199  39.470  1.00  0.00     0.022 A 
BRANCH  55  58
ATOM     58  S   UNL A   1      41.577  36.822  38.957  1.00  0.00     0.127 S 
ATOM     59  O   UNL A   1      42.554  36.119  39.785  1.00  0.00    -0.237 OA
ATOM     60  O   UNL A   1      42.063  37.227  37.638  1.00  0.00    -0.237 OA
ATOM     61  O   UNL A   1      40.780  37.828  39.643  1.00  0.00    -0.744 OA
ENDBRANCH  55  58
ENDBRANCH  27  51
BRANCH  39  62
ATOM     62  C   UNL A   1      44.332  28.717  35.375  1.00  0.00     0.023 A 
ATOM     63  C   UNL A   1      45.603  29.273  35.126  1.00  0.00     0.012 A 
ATOM     64  C   UNL A   1      44.208  27.674  36.314  1.00  0.00     0.148 A 
ATOM     65  C   UNL A   1      46.734  28.773  35.769  1.00  0.00     0.002 A 
ATOM     66  C   UNL A   1      45.330  27.218  36.994  1.00  0.00     0.091 A 
ATOM     67  F   UNL A   1      42.994  27.141  36.521  1.00  0.00    -0.205 F 
ATOM     68  C   UNL A   1      46.596  27.756  36.712  1.00  0.00     0.022 A 
BRANCH  66  69
ATOM     69  S   UNL A   1      45.230  25.986  38.296  1.00  0.00     0.127 S 
ATOM     70  O   UNL A   1      46.635  25.831  38.667  1.00  0.00    -0.237 OA
ATOM     71  O   UNL A   1      44.406  26.661  39.298  1.00  0.00    -0.237 OA
ATOM     72  O   UNL A   1      44.610  24.814  37.694  1.00  0.00    -0.744 OA
ENDBRANCH  66  69
ENDBRANCH  39  62
ENDBRANCH  13  14
ENDBRANCH   6   8
ENDBRANCH   3   4
ENDBRANCH   2   3
ENDBRANCH   1   2
BRANCH   1  73
ATOM     73  C   UNL A   1      31.669  29.562  26.457  1.00  0.00     0.002 C 
BRANCH  73  74
ATOM     74  C   UNL A   1      31.447  29.874  24.982  1.00  0.00     0.021 C 
BRANCH  74  75
ATOM     75  C   UNL A   1      32.558  29.379  24.067  1.00  0.00     0.116 C 
BRANCH  75  76
ATOM     76  N   UNL A   1      32.087  28.445  23.051  1.00  0.00    -0.351 N 
ATOM     77  C   UNL A   1      31.992  27.090  22.943  1.00  0.00     0.278 C 
ATOM     78  H   UNL A   1      31.756  28.906  22.247  1.00  0.00     0.163 HD
ATOM     79  O   UNL A   1      31.461  26.670  21.903  1.00  0.00    -0.268 OA
BRANCH  77  80
ATOM     80  C   UNL A   1      32.501  26.068  23.984  1.00  0.00     0.273 C 
ATOM     81  C   UNL A   1      32.236  24.618  23.729  1.00  0.00     0.088 C 
ATOM     82  N   UNL A   1      33.982  26.054  24.014  1.00  0.00    -0.336 N 
ATOM     83  C   UNL A   1      33.292  23.812  24.488  1.00  0.00     0.028 C 
ATOM     84  C   UNL A   1      34.374  24.865  24.779  1.00  0.00     0.268 C 
ATOM     85  H   UNL A   1      34.332  26.897  24.468  1.00  0.00     0.346 HD
ATOM     86  H   UNL A   1      34.368  26.028  23.070  1.00  0.00     0.346 HD
ATOM     87  C   UNL A   1      33.771  22.709  23.520  1.00  0.00     0.030 C 
ATOM     88  C   UNL A   1      32.736  23.186  25.789  1.00  0.00     0.030 C 
ATOM     89  C   UNL A   1      32.648  21.700  23.337  1.00  0.00     0.104 C 
ATOM     90  C   UNL A   1      31.782  22.000  25.573  1.00  0.00     0.104 C 
ATOM     91  N   UNL A   1      32.338  21.019  24.601  1.00  0.00    -0.189 NA
BRANCH  91  92
ATOM     92  S   UNL A   1      33.445  19.908  25.244  1.00  0.00     0.282 S 
ATOM     93  O   UNL A   1      34.735  20.142  24.644  1.00  0.00    -0.195 OA
ATOM     94  O   UNL A   1      33.292  19.967  26.682  1.00  0.00    -0.195 OA
BRANCH  92  95
ATOM     95  N   UNL A   1      32.867  18.448  24.716  1.00  0.00    -0.184 NA
ATOM     96  C   UNL A   1      32.997  18.040  23.309  1.00  0.00     0.132 C 
ATOM     97  C   UNL A   1      32.483  17.338  25.613  1.00  0.00     0.132 C 
ATOM     98  C   UNL A   1      34.007  16.902  23.220  1.00  0.00     0.177 C 
ATOM     99  C   UNL A   1      33.296  16.053  25.357  1.00  0.00     0.177 C 
ATOM    100  O   UNL A   1      33.561  15.768  23.978  1.00  0.00    -0.379 OA
ENDBRANCH  92  95
ENDBRANCH  91  92
ENDBRANCH  77  80
ENDBRANCH  75  76
ENDBRANCH  74  75
ENDBRANCH  73  74
ENDBRANCH   1  73
TORSDOF 18
ENDMDL
