MODEL 1
REMARK VINA RESULT:     -11.7      0.000      0.000
REMARK SMILES Cc1nc(C)c(C(=O)N[C@@H](Cc2ccccc2)C(=O)NCCCCCCNC(=O)c2ccc(-c3c4nc(c(-c5cccc(S(=O)(=O)[O-])c5F)c5ccc([nH]5)c(-c5cccc(S(=O)(=O)[O-])c5F)c5nc(c(-c6cccc(S(=O)(=O)[O-])c6F)c6ccc3[nH]6)C=C5)C=C4)cc2)s1
REMARK SMILES IDX 24 1 23 2 22 3 21 4 20 5 18 6 19 7 10 9 9 10 7 11 8 12 6 14
REMARK SMILES IDX 1 15 2 16 3 17 93 18 4 19 5 20 11 21 12 22 13 23 17 24 14 25
REMARK SMILES IDX 16 26 15 27 25 28 26 29 27 30 28 31 29 33 30 34 31 35 92 36
REMARK SMILES IDX 32 37 91 38 33 39 34 40 35 41 85 42 36 43 90 44 84 45 86 46
REMARK SMILES IDX 37 47 89 48 83 49 82 50 38 52 70 53 50 54 69 55 51 56 54 57
REMARK SMILES IDX 68 58 87 59 52 60 53 61 67 63 88 64 55 65 39 66 40 67 48 68
REMARK SMILES IDX 41 69 43 70 49 71 42 72 44 73 45 74 46 75 47 76 71 77 72 78
REMARK SMILES IDX 80 79 73 80 75 81 81 82 74 83 76 84 77 85 78 86 79 87 56 88
REMARK SMILES IDX 57 89 65 90 58 91 60 92 66 93 59 94 61 95 62 96 63 97 64 98
REMARK H PARENT 20 8 9 13 27 32 86 51 54 62
REMARK Flexibility Score: inf
ROOT
ATOM      1  C   UNL A   1      31.402  30.565  25.558  1.00  0.00     0.002 C 
ENDROOT
BRANCH   1   2
ATOM      2  C   UNL A   1      32.569  29.619  25.864  1.00  0.00     0.002 C 
BRANCH   2   3
ATOM      3  C   UNL A   1      32.291  28.520  26.894  1.00  0.00     0.021 C 
BRANCH   3   4
ATOM      4  C   UNL A   1      32.227  27.111  26.323  1.00  0.00     0.116 C 
BRANCH   4   5
ATOM      5  N   UNL A   1      31.075  26.354  26.759  1.00  0.00    -0.354 N 
ATOM      6  C   UNL A   1      30.189  25.620  26.031  1.00  0.00     0.242 C 
ATOM      7  O   UNL A   1      29.542  24.763  26.646  1.00  0.00    -0.273 OA
ATOM      8  H   UNL A   1      30.905  26.372  27.730  1.00  0.00     0.163 HD
BRANCH   6   9
ATOM      9  C   UNL A   1      30.015  25.757  24.499  1.00  0.00     0.176 C 
BRANCH   9  10
ATOM     10  N   UNL A   1      30.282  24.521  23.755  1.00  0.00    -0.339 N 
ATOM     11  C   UNL A   1      31.347  23.664  23.619  1.00  0.00     0.263 C 
ATOM     12  O   UNL A   1      31.037  22.627  23.022  1.00  0.00    -0.268 OA
ATOM     13  H   UNL A   1      29.505  24.234  23.223  1.00  0.00     0.164 HD
BRANCH  11  14
ATOM     14  C   UNL A   1      32.716  23.907  24.067  1.00  0.00     0.115 A 
ATOM     15  C   UNL A   1      36.106  23.731  25.995  1.00  0.00     0.079 C 
ATOM     16  C   UNL A   1      34.920  23.979  25.135  1.00  0.00     0.091 A 
ATOM     17  N   UNL A   1      34.844  24.922  24.229  1.00  0.00    -0.246 NA
ATOM     18  S   UNL A   1      33.526  23.023  25.291  1.00  0.00    -0.113 S 
ATOM     19  C   UNL A   1      33.593  24.898  23.612  1.00  0.00     0.061 A 
ATOM     20  C   UNL A   1      33.374  25.947  22.575  1.00  0.00     0.068 C 
ENDBRANCH  11  14
ENDBRANCH   9  10
BRANCH   9  21
ATOM     21  C   UNL A   1      28.756  26.508  24.027  1.00  0.00     0.070 C 
BRANCH  21  22
ATOM     22  C   UNL A   1      28.930  27.812  23.295  1.00  0.00    -0.045 A 
ATOM     23  C   UNL A   1      27.837  28.647  23.025  1.00  0.00     0.004 A 
ATOM     24  C   UNL A   1      30.208  28.207  22.863  1.00  0.00     0.004 A 
ATOM     25  C   UNL A   1      28.025  29.871  22.379  1.00  0.00     0.000 A 
ATOM     26  C   UNL A   1      30.391  29.425  22.207  1.00  0.00     0.000 A 
ATOM     27  C   UNL A   1      29.301  30.260  21.972  1.00  0.00     0.000 A 
ENDBRANCH  21  22
ENDBRANCH   9  21
ENDBRANCH   6   9
ENDBRANCH   4   5
ENDBRANCH   3   4
ENDBRANCH   2   3
ENDBRANCH   1   2
BRANCH   1  28
ATOM     28  C   UNL A   1      31.280  31.794  26.464  1.00  0.00     0.021 C 
BRANCH  28  29
ATOM     29  C   UNL A   1      32.590  32.322  27.033  1.00  0.00     0.116 C 
BRANCH  29  30
ATOM     30  N   UNL A   1      32.490  33.704  27.470  1.00  0.00    -0.352 N 
ATOM     31  C   UNL A   1      33.215  34.370  28.423  1.00  0.00     0.251 C 
ATOM     32  H   UNL A   1      31.801  34.240  27.015  1.00  0.00     0.163 HD
ATOM     33  O   UNL A   1      32.870  35.502  28.766  1.00  0.00    -0.269 OA
BRANCH  31  34
ATOM     34  C   UNL A   1      34.392  33.733  29.053  1.00  0.00     0.039 A 
ATOM     35  C   UNL A   1      34.187  32.662  29.929  1.00  0.00     0.014 A 
ATOM     36  C   UNL A   1      35.688  34.194  28.805  1.00  0.00     0.014 A 
ATOM     37  C   UNL A   1      35.282  32.034  30.523  1.00  0.00     0.010 A 
ATOM     38  C   UNL A   1      36.782  33.512  29.333  1.00  0.00     0.010 A 
ATOM     39  C   UNL A   1      36.591  32.438  30.214  1.00  0.00    -0.014 A 
BRANCH  39  40
ATOM     40  C   UNL A   1      37.767  31.757  30.816  1.00  0.00     0.031 A 
ATOM     41  C   UNL A   1      38.169  32.053  32.237  1.00  0.00     0.074 A 
ATOM     42  C   UNL A   1      38.509  30.920  30.065  1.00  0.00     0.049 A 
ATOM     43  N   UNL A   1      39.175  31.578  32.925  1.00  0.00    -0.248 NA
ATOM     44  C   UNL A   1      37.351  33.030  32.976  1.00  0.00     0.031 C 
ATOM     45  C   UNL A   1      38.269  30.611  28.654  1.00  0.00     0.029 A 
ATOM     46  N   UNL A   1      39.628  30.190  30.378  1.00  0.00    -0.354 N 
ATOM     47  C   UNL A   1      39.133  32.220  34.157  1.00  0.00     0.074 A 
ATOM     48  C   UNL A   1      38.025  33.148  34.110  1.00  0.00     0.031 C 
ATOM     49  C   UNL A   1      39.206  29.749  28.227  1.00  0.00     0.029 A 
ATOM     50  C   UNL A   1      40.129  29.466  29.321  1.00  0.00     0.049 A 
ATOM     51  H   UNL A   1      40.035  30.186  31.275  1.00  0.00     0.167 HD
ATOM     52  C   UNL A   1      39.923  32.034  35.241  1.00  0.00     0.034 A 
ATOM     53  C   UNL A   1      41.211  28.668  29.241  1.00  0.00     0.034 A 
ATOM     54  C   UNL A   1      40.998  31.080  35.297  1.00  0.00     0.049 A 
ATOM     55  C   UNL A   1      42.047  28.445  30.473  1.00  0.00     0.074 A 
ATOM     56  C   UNL A   1      41.804  30.755  36.374  1.00  0.00     0.029 A 
ATOM     57  N   UNL A   1      41.423  30.302  34.231  1.00  0.00    -0.354 N 
ATOM     58  N   UNL A   1      41.896  28.946  31.675  1.00  0.00    -0.248 NA
ATOM     59  C   UNL A   1      43.178  27.514  30.348  1.00  0.00     0.031 C 
ATOM     60  C   UNL A   1      42.735  29.802  35.951  1.00  0.00     0.029 A 
ATOM     61  C   UNL A   1      42.484  29.503  34.621  1.00  0.00     0.049 A 
ATOM     62  H   UNL A   1      41.027  30.316  33.330  1.00  0.00     0.167 HD
ATOM     63  C   UNL A   1      42.883  28.360  32.459  1.00  0.00     0.074 A 
ATOM     64  C   UNL A   1      43.614  27.452  31.599  1.00  0.00     0.031 C 
ATOM     65  C   UNL A   1      43.167  28.564  33.769  1.00  0.00     0.034 A 
BRANCH  52  66
ATOM     66  C   UNL A   1      39.623  32.846  36.475  1.00  0.00     0.023 A 
ATOM     67  C   UNL A   1      40.216  34.115  36.636  1.00  0.00     0.012 A 
ATOM     68  C   UNL A   1      38.712  32.382  37.444  1.00  0.00     0.148 A 
ATOM     69  C   UNL A   1      39.938  34.893  37.760  1.00  0.00     0.002 A 
ATOM     70  C   UNL A   1      38.402  33.184  38.537  1.00  0.00     0.091 A 
ATOM     71  F   UNL A   1      38.173  31.166  37.285  1.00  0.00    -0.205 F 
ATOM     72  C   UNL A   1      39.024  34.433  38.703  1.00  0.00     0.022 A 
BRANCH  70  73
ATOM     73  S   UNL A   1      37.176  32.721  39.764  1.00  0.00     0.127 S 
ATOM     74  O   UNL A   1      35.963  32.633  38.950  1.00  0.00    -0.237 OA
ATOM     75  O   UNL A   1      37.686  31.434  40.240  1.00  0.00    -0.237 OA
ATOM     76  O   UNL A   1      37.181  33.783  40.760  1.00  0.00    -0.744 OA
ENDBRANCH  70  73
ENDBRANCH  52  66
BRANCH  53  77
ATOM     77  C   UNL A   1      41.530  27.967  27.965  1.00  0.00     0.023 A 
ATOM     78  C   UNL A   1      42.012  28.707  26.867  1.00  0.00     0.012 A 
ATOM     79  C   UNL A   1      41.377  26.573  27.839  1.00  0.00     0.148 A 
ATOM     80  C   UNL A   1      42.299  28.077  25.656  1.00  0.00     0.002 A 
ATOM     81  C   UNL A   1      41.719  25.944  26.648  1.00  0.00     0.091 A 
ATOM     82  F   UNL A   1      40.908  25.889  28.892  1.00  0.00    -0.205 F 
ATOM     83  C   UNL A   1      42.161  26.696  25.549  1.00  0.00     0.022 A 
BRANCH  81  84
ATOM     84  S   UNL A   1      41.701  24.157  26.464  1.00  0.00     0.127 S 
ATOM     85  O   UNL A   1      42.370  23.982  25.179  1.00  0.00    -0.237 OA
ATOM     86  O   UNL A   1      42.477  23.727  27.629  1.00  0.00    -0.237 OA
ATOM     87  O   UNL A   1      40.297  23.772  26.505  1.00  0.00    -0.744 OA
ENDBRANCH  81  84
ENDBRANCH  53  77
BRANCH  65  88
ATOM     88  C   UNL A   1      44.283  27.755  34.376  1.00  0.00     0.023 A 
ATOM     89  C   UNL A   1      45.607  28.235  34.340  1.00  0.00     0.012 A 
ATOM     90  C   UNL A   1      44.006  26.543  35.041  1.00  0.00     0.148 A 
ATOM     91  C   UNL A   1      46.643  27.504  34.919  1.00  0.00     0.002 A 
ATOM     92  C   UNL A   1      45.035  25.846  35.662  1.00  0.00     0.091 A 
ATOM     93  F   UNL A   1      42.743  26.092  35.049  1.00  0.00    -0.205 F 
ATOM     94  C   UNL A   1      46.356  26.316  35.590  1.00  0.00     0.022 A 
BRANCH  92  95
ATOM     95  S   UNL A   1      44.742  24.364  36.634  1.00  0.00     0.127 S 
ATOM     96  O   UNL A   1      46.105  23.939  36.947  1.00  0.00    -0.237 OA
ATOM     97  O   UNL A   1      43.987  24.884  37.774  1.00  0.00    -0.237 OA
ATOM     98  O   UNL A   1      43.988  23.462  35.773  1.00  0.00    -0.744 OA
ENDBRANCH  92  95
ENDBRANCH  65  88
ENDBRANCH  39  40
ENDBRANCH  31  34
ENDBRANCH  29  30
ENDBRANCH  28  29
ENDBRANCH   1  28
TORSDOF 20
ENDMDL
MODEL 2
REMARK VINA RESULT:     -11.7      0.581      7.397
REMARK SMILES Cc1nc(C)c(C(=O)N[C@@H](Cc2ccccc2)C(=O)NCCCCCCNC(=O)c2ccc(-c3c4nc(c(-c5cccc(S(=O)(=O)[O-])c5F)c5ccc([nH]5)c(-c5cccc(S(=O)(=O)[O-])c5F)c5nc(c(-c6cccc(S(=O)(=O)[O-])c6F)c6ccc3[nH]6)C=C5)C=C4)cc2)s1
REMARK SMILES IDX 24 1 23 2 22 3 21 4 20 5 18 6 19 7 10 9 9 10 7 11 8 12 6 14
REMARK SMILES IDX 1 15 2 16 3 17 93 18 4 19 5 20 11 21 12 22 13 23 17 24 14 25
REMARK SMILES IDX 16 26 15 27 25 28 26 29 27 30 28 31 29 33 30 34 31 35 92 36
REMARK SMILES IDX 32 37 91 38 33 39 34 40 35 41 85 42 36 43 90 44 84 45 86 46
REMARK SMILES IDX 37 47 89 48 83 49 82 50 38 52 70 53 50 54 69 55 51 56 54 57
REMARK SMILES IDX 68 58 87 59 52 60 53 61 67 63 88 64 55 65 39 66 40 67 48 68
REMARK SMILES IDX 41 69 43 70 49 71 42 72 44 73 45 74 46 75 47 76 71 77 72 78
REMARK SMILES IDX 80 79 73 80 75 81 81 82 74 83 76 84 77 85 78 86 79 87 56 88
REMARK SMILES IDX 57 89 65 90 58 91 60 92 66 93 59 94 61 95 62 96 63 97 64 98
REMARK H PARENT 20 8 9 13 27 32 86 51 54 62
REMARK Flexibility Score: inf
ROOT
ATOM      1  C   UNL A   1      31.217  30.480  25.367  1.00  0.00     0.002 C 
ENDROOT
BRANCH   1   2
ATOM      2  C   UNL A   1      32.514  29.693  25.589  1.00  0.00     0.002 C 
BRANCH   2   3
ATOM      3  C   UNL A   1      32.463  28.604  26.664  1.00  0.00     0.021 C 
BRANCH   3   4
ATOM      4  C   UNL A   1      32.244  27.194  26.136  1.00  0.00     0.116 C 
BRANCH   4   5
ATOM      5  N   UNL A   1      31.052  26.555  26.646  1.00  0.00    -0.354 N 
ATOM      6  C   UNL A   1      30.084  25.862  25.985  1.00  0.00     0.242 C 
ATOM      7  O   UNL A   1      29.395  25.091  26.663  1.00  0.00    -0.273 OA
ATOM      8  H   UNL A   1      30.920  26.632  27.620  1.00  0.00     0.163 HD
BRANCH   6   9
ATOM      9  C   UNL A   1      29.867  25.940  24.454  1.00  0.00     0.176 C 
BRANCH   9  10
ATOM     10  N   UNL A   1      30.073  24.666  23.756  1.00  0.00    -0.339 N 
ATOM     11  C   UNL A   1      31.118  23.789  23.596  1.00  0.00     0.263 C 
ATOM     12  O   UNL A   1      30.760  22.729  23.070  1.00  0.00    -0.268 OA
ATOM     13  H   UNL A   1      29.261  24.365  23.288  1.00  0.00     0.164 HD
BRANCH  11  14
ATOM     14  C   UNL A   1      32.515  24.034  23.946  1.00  0.00     0.115 A 
ATOM     15  C   UNL A   1      35.985  23.993  25.736  1.00  0.00     0.079 C 
ATOM     16  C   UNL A   1      34.768  24.165  24.898  1.00  0.00     0.091 A 
ATOM     17  N   UNL A   1      34.685  24.968  23.867  1.00  0.00    -0.246 NA
ATOM     18  S   UNL A   1      33.349  23.305  25.252  1.00  0.00    -0.113 S 
ATOM     19  C   UNL A   1      33.406  24.909  23.313  1.00  0.00     0.061 A 
ATOM     20  C   UNL A   1      33.177  25.803  22.141  1.00  0.00     0.068 C 
ENDBRANCH  11  14
ENDBRANCH   9  10
BRANCH   9  21
ATOM     21  C   UNL A   1      28.616  26.709  23.989  1.00  0.00     0.070 C 
BRANCH  21  22
ATOM     22  C   UNL A   1      28.806  27.987  23.215  1.00  0.00    -0.045 A 
ATOM     23  C   UNL A   1      27.735  28.859  22.975  1.00  0.00     0.004 A 
ATOM     24  C   UNL A   1      30.075  28.317  22.711  1.00  0.00     0.004 A 
ATOM     25  C   UNL A   1      27.939  30.057  22.288  1.00  0.00     0.000 A 
ATOM     26  C   UNL A   1      30.274  29.510  22.015  1.00  0.00     0.000 A 
ATOM     27  C   UNL A   1      29.208  30.383  21.810  1.00  0.00     0.000 A 
ENDBRANCH  21  22
ENDBRANCH   9  21
ENDBRANCH   6   9
ENDBRANCH   4   5
ENDBRANCH   3   4
ENDBRANCH   2   3
ENDBRANCH   1   2
BRANCH   1  28
ATOM     28  C   UNL A   1      31.082  31.788  26.153  1.00  0.00     0.021 C 
BRANCH  28  29
ATOM     29  C   UNL A   1      32.332  32.237  26.898  1.00  0.00     0.116 C 
BRANCH  29  30
ATOM     30  N   UNL A   1      32.283  33.641  27.271  1.00  0.00    -0.352 N 
ATOM     31  C   UNL A   1      33.044  34.327  28.181  1.00  0.00     0.251 C 
ATOM     32  H   UNL A   1      31.603  34.176  26.802  1.00  0.00     0.163 HD
ATOM     33  O   UNL A   1      32.740  35.484  28.475  1.00  0.00    -0.269 OA
BRANCH  31  34
ATOM     34  C   UNL A   1      34.211  33.682  28.821  1.00  0.00     0.039 A 
ATOM     35  C   UNL A   1      35.454  34.316  28.744  1.00  0.00     0.014 A 
ATOM     36  C   UNL A   1      34.094  32.452  29.474  1.00  0.00     0.014 A 
ATOM     37  C   UNL A   1      36.568  33.736  29.353  1.00  0.00     0.010 A 
ATOM     38  C   UNL A   1      35.187  31.917  30.152  1.00  0.00     0.010 A 
ATOM     39  C   UNL A   1      36.440  32.542  30.083  1.00  0.00    -0.014 A 
BRANCH  39  40
ATOM     40  C   UNL A   1      37.611  31.929  30.761  1.00  0.00     0.031 A 
ATOM     41  C   UNL A   1      38.459  30.913  30.043  1.00  0.00     0.074 A 
ATOM     42  C   UNL A   1      37.875  32.242  32.046  1.00  0.00     0.049 A 
ATOM     43  N   UNL A   1      39.502  30.254  30.478  1.00  0.00    -0.248 NA
ATOM     44  C   UNL A   1      38.071  30.570  28.665  1.00  0.00     0.031 C 
ATOM     45  C   UNL A   1      37.084  33.153  32.875  1.00  0.00     0.029 A 
ATOM     46  N   UNL A   1      38.873  31.812  32.885  1.00  0.00    -0.354 N 
ATOM     47  C   UNL A   1      39.871  29.398  29.446  1.00  0.00     0.074 A 
ATOM     48  C   UNL A   1      38.917  29.592  28.377  1.00  0.00     0.031 C 
ATOM     49  C   UNL A   1      37.631  33.220  34.099  1.00  0.00     0.029 A 
ATOM     50  C   UNL A   1      38.792  32.337  34.153  1.00  0.00     0.049 A 
ATOM     51  H   UNL A   1      39.579  31.185  32.606  1.00  0.00     0.167 HD
ATOM     52  C   UNL A   1      40.925  28.550  29.380  1.00  0.00     0.034 A 
ATOM     53  C   UNL A   1      39.563  32.131  35.238  1.00  0.00     0.034 A 
ATOM     54  C   UNL A   1      41.895  28.391  30.430  1.00  0.00     0.049 A 
ATOM     55  C   UNL A   1      40.754  31.216  35.123  1.00  0.00     0.074 A 
ATOM     56  C   UNL A   1      43.045  27.621  30.429  1.00  0.00     0.029 A 
ATOM     57  N   UNL A   1      41.827  29.006  31.671  1.00  0.00    -0.354 N 
ATOM     58  N   UNL A   1      41.174  30.534  34.086  1.00  0.00    -0.248 NA
ATOM     59  C   UNL A   1      41.600  31.076  36.317  1.00  0.00     0.031 C 
ATOM     60  C   UNL A   1      43.657  27.748  31.679  1.00  0.00     0.029 A 
ATOM     61  C   UNL A   1      42.909  28.628  32.446  1.00  0.00     0.049 A 
ATOM     62  H   UNL A   1      41.115  29.621  31.957  1.00  0.00     0.167 HD
ATOM     63  C   UNL A   1      42.354  29.919  34.487  1.00  0.00     0.074 A 
ATOM     64  C   UNL A   1      42.592  30.326  35.857  1.00  0.00     0.031 C 
ATOM     65  C   UNL A   1      43.162  29.082  33.789  1.00  0.00     0.034 A 
BRANCH  52  66
ATOM     66  C   UNL A   1      41.112  27.763  28.108  1.00  0.00     0.023 A 
ATOM     67  C   UNL A   1      41.621  28.404  26.959  1.00  0.00     0.012 A 
ATOM     68  C   UNL A   1      40.843  26.381  28.065  1.00  0.00     0.148 A 
ATOM     69  C   UNL A   1      41.821  27.692  25.777  1.00  0.00     0.002 A 
ATOM     70  C   UNL A   1      41.091  25.668  26.898  1.00  0.00     0.091 A 
ATOM     71  F   UNL A   1      40.343  25.792  29.160  1.00  0.00    -0.205 F 
ATOM     72  C   UNL A   1      41.568  26.324  25.750  1.00  0.00     0.022 A 
BRANCH  70  73
ATOM     73  S   UNL A   1      40.878  23.888  26.783  1.00  0.00     0.127 S 
ATOM     74  O   UNL A   1      41.277  23.457  28.123  1.00  0.00    -0.237 OA
ATOM     75  O   UNL A   1      39.447  23.767  26.503  1.00  0.00    -0.237 OA
ATOM     76  O   UNL A   1      41.749  23.447  25.703  1.00  0.00    -0.744 OA
ENDBRANCH  70  73
ENDBRANCH  52  66
BRANCH  53  77
ATOM     77  C   UNL A   1      39.275  32.853  36.509  1.00  0.00     0.023 A 
ATOM     78  C   UNL A   1      39.853  34.117  36.737  1.00  0.00     0.012 A 
ATOM     79  C   UNL A   1      38.418  32.305  37.483  1.00  0.00     0.148 A 
ATOM     80  C   UNL A   1      39.614  34.805  37.927  1.00  0.00     0.002 A 
ATOM     81  C   UNL A   1      38.138  33.021  38.641  1.00  0.00     0.091 A 
ATOM     82  F   UNL A   1      37.885  31.097  37.252  1.00  0.00    -0.205 F 
ATOM     83  C   UNL A   1      38.751  34.261  38.875  1.00  0.00     0.022 A 
BRANCH  81  84
ATOM     84  S   UNL A   1      36.937  32.459  39.852  1.00  0.00     0.127 S 
ATOM     85  O   UNL A   1      37.532  31.206  40.305  1.00  0.00    -0.237 OA
ATOM     86  O   UNL A   1      36.967  33.547  40.831  1.00  0.00    -0.237 OA
ATOM     87  O   UNL A   1      35.678  32.338  39.130  1.00  0.00    -0.744 OA
ENDBRANCH  81  84
ENDBRANCH  53  77
BRANCH  65  88
ATOM     88  C   UNL A   1      44.412  28.589  34.470  1.00  0.00     0.023 A 
ATOM     89  C   UNL A   1      45.604  29.335  34.390  1.00  0.00     0.012 A 
ATOM     90  C   UNL A   1      44.385  27.411  35.244  1.00  0.00     0.148 A 
ATOM     91  C   UNL A   1      46.760  28.898  35.036  1.00  0.00     0.002 A 
ATOM     92  C   UNL A   1      45.525  27.011  35.930  1.00  0.00     0.091 A 
ATOM     93  F   UNL A   1      43.247  26.704  35.293  1.00  0.00    -0.205 F 
ATOM     94  C   UNL A   1      46.717  27.743  35.815  1.00  0.00     0.022 A 
BRANCH  92  95
ATOM     95  S   UNL A   1      45.534  25.595  37.035  1.00  0.00     0.127 S 
ATOM     96  O   UNL A   1      45.163  24.508  36.130  1.00  0.00    -0.237 OA
ATOM     97  O   UNL A   1      46.923  25.564  37.491  1.00  0.00    -0.237 OA
ATOM     98  O   UNL A   1      44.563  25.896  38.080  1.00  0.00    -0.744 OA
ENDBRANCH  92  95
ENDBRANCH  65  88
ENDBRANCH  39  40
ENDBRANCH  31  34
ENDBRANCH  29  30
ENDBRANCH  28  29
ENDBRANCH   1  28
TORSDOF 20
ENDMDL
MODEL 3
REMARK VINA RESULT:     -10.7      1.770      7.674
REMARK SMILES Cc1nc(C)c(C(=O)N[C@@H](Cc2ccccc2)C(=O)NCCCCCCNC(=O)c2ccc(-c3c4nc(c(-c5cccc(S(=O)(=O)[O-])c5F)c5ccc([nH]5)c(-c5cccc(S(=O)(=O)[O-])c5F)c5nc(c(-c6cccc(S(=O)(=O)[O-])c6F)c6ccc3[nH]6)C=C5)C=C4)cc2)s1
REMARK SMILES IDX 24 1 23 2 22 3 21 4 20 5 18 6 19 7 10 9 9 10 7 11 8 12 6 14
REMARK SMILES IDX 1 15 2 16 3 17 93 18 4 19 5 20 11 21 12 22 13 23 17 24 14 25
REMARK SMILES IDX 16 26 15 27 25 28 26 29 27 30 28 31 29 33 30 34 31 35 92 36
REMARK SMILES IDX 32 37 91 38 33 39 34 40 35 41 85 42 36 43 90 44 84 45 86 46
REMARK SMILES IDX 37 47 89 48 83 49 82 50 38 52 70 53 50 54 69 55 51 56 54 57
REMARK SMILES IDX 68 58 87 59 52 60 53 61 67 63 88 64 55 65 39 66 40 67 48 68
REMARK SMILES IDX 41 69 43 70 49 71 42 72 44 73 45 74 46 75 47 76 71 77 72 78
REMARK SMILES IDX 80 79 73 80 75 81 81 82 74 83 76 84 77 85 78 86 79 87 56 88
REMARK SMILES IDX 57 89 65 90 58 91 60 92 66 93 59 94 61 95 62 96 63 97 64 98
REMARK H PARENT 20 8 9 13 27 32 86 51 54 62
REMARK Flexibility Score: inf
ROOT
ATOM      1  C   UNL A   1      31.073  30.832  25.446  1.00  0.00     0.002 C 
ENDROOT
BRANCH   1   2
ATOM      2  C   UNL A   1      32.119  29.749  25.735  1.00  0.00     0.002 C 
BRANCH   2   3
ATOM      3  C   UNL A   1      31.745  28.722  26.807  1.00  0.00     0.021 C 
BRANCH   3   4
ATOM      4  C   UNL A   1      31.705  27.279  26.325  1.00  0.00     0.116 C 
BRANCH   4   5
ATOM      5  N   UNL A   1      32.888  26.870  25.601  1.00  0.00    -0.354 N 
ATOM      6  C   UNL A   1      33.018  25.983  24.576  1.00  0.00     0.242 C 
ATOM      7  O   UNL A   1      34.032  26.092  23.875  1.00  0.00    -0.273 OA
ATOM      8  H   UNL A   1      33.726  27.298  25.893  1.00  0.00     0.163 HD
BRANCH   6   9
ATOM      9  C   UNL A   1      31.948  24.924  24.217  1.00  0.00     0.176 C 
BRANCH   9  10
ATOM     10  N   UNL A   1      31.241  24.373  25.378  1.00  0.00    -0.339 N 
ATOM     11  C   UNL A   1      31.407  23.292  26.210  1.00  0.00     0.263 C 
ATOM     12  O   UNL A   1      30.656  23.340  27.191  1.00  0.00    -0.268 OA
ATOM     13  H   UNL A   1      30.454  24.911  25.622  1.00  0.00     0.164 HD
BRANCH  11  14
ATOM     14  C   UNL A   1      32.314  22.167  25.998  1.00  0.00     0.115 A 
ATOM     15  C   UNL A   1      33.980  18.914  24.624  1.00  0.00     0.079 C 
ATOM     16  C   UNL A   1      33.530  20.156  25.307  1.00  0.00     0.091 A 
ATOM     17  N   UNL A   1      34.123  20.687  26.347  1.00  0.00    -0.246 NA
ATOM     18  S   UNL A   1      32.153  20.987  24.767  1.00  0.00    -0.113 S 
ATOM     19  C   UNL A   1      33.441  21.833  26.757  1.00  0.00     0.061 A 
ATOM     20  C   UNL A   1      34.008  22.517  27.955  1.00  0.00     0.068 C 
ENDBRANCH  11  14
ENDBRANCH   9  10
BRANCH   9  21
ATOM     21  C   UNL A   1      31.025  25.271  23.034  1.00  0.00     0.070 C 
BRANCH  21  22
ATOM     22  C   UNL A   1      30.385  26.634  23.000  1.00  0.00    -0.045 A 
ATOM     23  C   UNL A   1      31.046  27.733  22.433  1.00  0.00     0.004 A 
ATOM     24  C   UNL A   1      29.107  26.821  23.550  1.00  0.00     0.004 A 
ATOM     25  C   UNL A   1      30.420  28.981  22.377  1.00  0.00     0.000 A 
ATOM     26  C   UNL A   1      28.489  28.071  23.503  1.00  0.00     0.000 A 
ATOM     27  C   UNL A   1      29.142  29.149  22.910  1.00  0.00     0.000 A 
ENDBRANCH  21  22
ENDBRANCH   9  21
ENDBRANCH   6   9
ENDBRANCH   4   5
ENDBRANCH   3   4
ENDBRANCH   2   3
ENDBRANCH   1   2
BRANCH   1  28
ATOM     28  C   UNL A   1      31.026  31.999  26.436  1.00  0.00     0.021 C 
BRANCH  28  29
ATOM     29  C   UNL A   1      32.374  32.461  26.971  1.00  0.00     0.116 C 
BRANCH  29  30
ATOM     30  N   UNL A   1      32.370  33.863  27.355  1.00  0.00    -0.352 N 
ATOM     31  C   UNL A   1      33.137  34.512  28.286  1.00  0.00     0.251 C 
ATOM     32  H   UNL A   1      31.721  34.428  26.875  1.00  0.00     0.163 HD
ATOM     33  O   UNL A   1      32.870  35.678  28.584  1.00  0.00    -0.269 OA
BRANCH  31  34
ATOM     34  C   UNL A   1      34.264  33.819  28.946  1.00  0.00     0.039 A 
ATOM     35  C   UNL A   1      35.557  34.317  28.766  1.00  0.00     0.014 A 
ATOM     36  C   UNL A   1      34.059  32.673  29.720  1.00  0.00     0.014 A 
ATOM     37  C   UNL A   1      36.636  33.690  29.391  1.00  0.00     0.010 A 
ATOM     38  C   UNL A   1      35.124  32.099  30.409  1.00  0.00     0.010 A 
ATOM     39  C   UNL A   1      36.427  32.588  30.237  1.00  0.00    -0.014 A 
BRANCH  39  40
ATOM     40  C   UNL A   1      37.563  31.929  30.932  1.00  0.00     0.031 A 
ATOM     41  C   UNL A   1      38.401  30.904  30.214  1.00  0.00     0.074 A 
ATOM     42  C   UNL A   1      37.803  32.208  32.229  1.00  0.00     0.049 A 
ATOM     43  N   UNL A   1      39.413  30.207  30.662  1.00  0.00    -0.248 NA
ATOM     44  C   UNL A   1      38.038  30.600  28.820  1.00  0.00     0.031 C 
ATOM     45  C   UNL A   1      37.016  33.125  33.056  1.00  0.00     0.029 A 
ATOM     46  N   UNL A   1      38.766  31.734  33.084  1.00  0.00    -0.354 N 
ATOM     47  C   UNL A   1      39.785  29.363  29.622  1.00  0.00     0.074 A 
ATOM     48  C   UNL A   1      38.865  29.604  28.534  1.00  0.00     0.031 C 
ATOM     49  C   UNL A   1      37.533  33.152  34.295  1.00  0.00     0.029 A 
ATOM     50  C   UNL A   1      38.667  32.236  34.360  1.00  0.00     0.049 A 
ATOM     51  H   UNL A   1      39.462  31.093  32.809  1.00  0.00     0.167 HD
ATOM     52  C   UNL A   1      40.817  28.487  29.565  1.00  0.00     0.034 A 
ATOM     53  C   UNL A   1      39.405  31.986  35.459  1.00  0.00     0.034 A 
ATOM     54  C   UNL A   1      41.754  28.279  30.635  1.00  0.00     0.049 A 
ATOM     55  C   UNL A   1      40.572  31.041  35.355  1.00  0.00     0.074 A 
ATOM     56  C   UNL A   1      42.883  27.477  30.647  1.00  0.00     0.029 A 
ATOM     57  N   UNL A   1      41.672  28.871  31.886  1.00  0.00    -0.354 N 
ATOM     58  N   UNL A   1      41.000  30.368  34.315  1.00  0.00    -0.248 NA
ATOM     59  C   UNL A   1      41.383  30.854  36.567  1.00  0.00     0.031 C 
ATOM     60  C   UNL A   1      43.466  27.562  31.915  1.00  0.00     0.029 A 
ATOM     61  C   UNL A   1      42.723  28.447  32.681  1.00  0.00     0.049 A 
ATOM     62  H   UNL A   1      40.970  29.500  32.167  1.00  0.00     0.167 HD
ATOM     63  C   UNL A   1      42.151  29.712  34.733  1.00  0.00     0.074 A 
ATOM     64  C   UNL A   1      42.365  30.085  36.116  1.00  0.00     0.031 C 
ATOM     65  C   UNL A   1      42.954  28.868  34.038  1.00  0.00     0.034 A 
BRANCH  52  66
ATOM     66  C   UNL A   1      41.015  27.720  28.282  1.00  0.00     0.023 A 
ATOM     67  C   UNL A   1      41.637  28.347  27.183  1.00  0.00     0.012 A 
ATOM     68  C   UNL A   1      40.642  26.366  28.183  1.00  0.00     0.148 A 
ATOM     69  C   UNL A   1      41.849  27.652  25.992  1.00  0.00     0.002 A 
ATOM     70  C   UNL A   1      40.900  25.665  27.010  1.00  0.00     0.091 A 
ATOM     71  F   UNL A   1      40.035  25.790  29.230  1.00  0.00    -0.205 F 
ATOM     72  C   UNL A   1      41.491  26.310  25.910  1.00  0.00     0.022 A 
BRANCH  70  73
ATOM     73  S   UNL A   1      40.556  23.911  26.830  1.00  0.00     0.127 S 
ATOM     74  O   UNL A   1      41.478  23.539  25.757  1.00  0.00    -0.237 OA
ATOM     75  O   UNL A   1      40.913  23.391  28.150  1.00  0.00    -0.237 OA
ATOM     76  O   UNL A   1      39.142  23.810  26.499  1.00  0.00    -0.744 OA
ENDBRANCH  70  73
ENDBRANCH  52  66
BRANCH  53  77
ATOM     77  C   UNL A   1      39.103  32.691  36.738  1.00  0.00     0.023 A 
ATOM     78  C   UNL A   1      38.175  32.131  37.637  1.00  0.00     0.012 A 
ATOM     79  C   UNL A   1      39.744  33.898  37.075  1.00  0.00     0.148 A 
ATOM     80  C   UNL A   1      37.861  32.781  38.832  1.00  0.00     0.002 A 
ATOM     81  C   UNL A   1      39.470  34.511  38.293  1.00  0.00     0.091 A 
ATOM     82  F   UNL A   1      40.618  34.419  36.202  1.00  0.00    -0.205 F 
ATOM     83  C   UNL A   1      38.514  33.965  39.163  1.00  0.00     0.022 A 
BRANCH  81  84
ATOM     84  S   UNL A   1      40.360  35.963  38.860  1.00  0.00     0.127 S 
ATOM     85  O   UNL A   1      39.824  37.004  37.988  1.00  0.00    -0.237 OA
ATOM     86  O   UNL A   1      39.934  36.050  40.258  1.00  0.00    -0.237 OA
ATOM     87  O   UNL A   1      41.772  35.654  38.683  1.00  0.00    -0.744 OA
ENDBRANCH  81  84
ENDBRANCH  53  77
BRANCH  65  88
ATOM     88  C   UNL A   1      44.172  28.325  34.740  1.00  0.00     0.023 A 
ATOM     89  C   UNL A   1      45.389  29.034  34.695  1.00  0.00     0.012 A 
ATOM     90  C   UNL A   1      44.090  27.141  35.500  1.00  0.00     0.148 A 
ATOM     91  C   UNL A   1      46.515  28.552  35.361  1.00  0.00     0.002 A 
ATOM     92  C   UNL A   1      45.201  26.696  36.205  1.00  0.00     0.091 A 
ATOM     93  F   UNL A   1      42.928  26.471  35.516  1.00  0.00    -0.205 F 
ATOM     94  C   UNL A   1      46.418  27.390  36.124  1.00  0.00     0.022 A 
BRANCH  92  95
ATOM     95  S   UNL A   1      45.139  25.268  37.293  1.00  0.00     0.127 S 
ATOM     96  O   UNL A   1      44.801  24.195  36.359  1.00  0.00    -0.237 OA
ATOM     97  O   UNL A   1      46.504  25.217  37.817  1.00  0.00    -0.237 OA
ATOM     98  O   UNL A   1      44.121  25.569  38.292  1.00  0.00    -0.744 OA
ENDBRANCH  92  95
ENDBRANCH  65  88
ENDBRANCH  39  40
ENDBRANCH  31  34
ENDBRANCH  29  30
ENDBRANCH  28  29
ENDBRANCH   1  28
TORSDOF 20
ENDMDL
