MODEL 1
REMARK VINA RESULT:     -11.7      0.000      0.000
REMARK SMILES Cn1c(=O)c(=O)n(C)c2cc(S(=O)(=O)N3CCC[C@H]3C(=O)NCCCCCCNC(=O)c3ccc(-c4c5nc(c(-c6cccc(S(=O)(=O)[O-])c6F)c6ccc([nH]6)c(-c6cccc(S(=O)(=O)[O-])c6F)c6nc(c(-c7cccc(S(=O)(=O)[O-])c7F)c7ccc4[nH]7)C=C6)C=C5)cc3)ccc21
REMARK SMILES IDX 26 1 25 2 24 3 23 4 22 5 20 6 21 7 19 9 15 10 16 11 17 12
REMARK SMILES IDX 18 13 12 14 13 15 14 16 11 17 1 18 2 19 3 20 97 21 4 22 5 23
REMARK SMILES IDX 9 24 96 25 6 26 7 27 10 28 95 29 8 30 27 31 28 32 29 33
REMARK SMILES IDX 30 34 31 36 32 37 33 38 94 39 34 40 93 41 35 42 36 43 37 44
REMARK SMILES IDX 87 45 38 46 92 47 86 48 88 49 39 50 91 51 85 52 84 53 40 55
REMARK SMILES IDX 72 56 52 57 71 58 53 59 56 60 70 61 89 62 54 63 55 64 69 66
REMARK SMILES IDX 90 67 57 68 41 69 42 70 50 71 43 72 45 73 51 74 44 75 46 76
REMARK SMILES IDX 47 77 48 78 49 79 73 80 74 81 82 82 75 83 77 84 83 85 76 86
REMARK SMILES IDX 78 87 79 88 80 89 81 90 58 91 59 92 67 93 60 94 62 95 68 96
REMARK SMILES IDX 61 97 63 98 64 99 65 100 66 101
REMARK H PARENT 22 8 29 35 88 54 56 65
REMARK Flexibility Score: inf
ROOT
ATOM      1  C   UNL A   1      38.212  21.103  25.355  1.00  0.00     0.002 C 
ENDROOT
BRANCH   1   2
ATOM      2  C   UNL A   1      38.948  22.192  26.146  1.00  0.00     0.002 C 
BRANCH   2   3
ATOM      3  C   UNL A   1      38.310  23.581  26.081  1.00  0.00     0.021 C 
BRANCH   3   4
ATOM      4  C   UNL A   1      36.783  23.557  26.009  1.00  0.00     0.116 C 
BRANCH   4   5
ATOM      5  N   UNL A   1      36.302  23.709  24.640  1.00  0.00    -0.355 N 
ATOM      6  C   UNL A   1      35.211  23.123  24.038  1.00  0.00     0.238 C 
ATOM      7  O   UNL A   1      35.003  23.331  22.845  1.00  0.00    -0.273 OA
ATOM      8  H   UNL A   1      36.829  24.313  24.069  1.00  0.00     0.163 HD
BRANCH   6   9
ATOM      9  C   UNL A   1      34.352  22.209  24.899  1.00  0.00     0.162 C 
ATOM     10  N   UNL A   1      32.885  22.290  24.724  1.00  0.00    -0.185 NA
ATOM     11  C   UNL A   1      32.394  21.062  24.088  1.00  0.00     0.103 C 
ATOM     12  C   UNL A   1      33.373  20.001  24.547  1.00  0.00     0.019 C 
ATOM     13  C   UNL A   1      34.699  20.738  24.618  1.00  0.00     0.032 C 
BRANCH  10  14
ATOM     14  S   UNL A   1      31.959  23.077  25.888  1.00  0.00     0.243 S 
ATOM     15  O   UNL A   1      32.836  23.383  26.996  1.00  0.00    -0.207 OA
ATOM     16  O   UNL A   1      30.737  22.322  26.076  1.00  0.00    -0.207 OA
BRANCH  14  17
ATOM     17  C   UNL A   1      31.442  24.660  25.211  1.00  0.00     0.084 A 
ATOM     18  C   UNL A   1      29.229  28.539  22.693  1.00  0.00     0.154 C 
ATOM     19  N   UNL A   1      30.140  28.458  23.829  1.00  0.00    -0.305 N 
ATOM     20  C   UNL A   1      30.577  29.648  24.403  1.00  0.00     0.316 A 
ATOM     21  C   UNL A   1      30.577  27.196  24.311  1.00  0.00     0.068 A 
ATOM     22  O   UNL A   1      30.276  30.759  23.979  1.00  0.00    -0.263 OA
ATOM     23  C   UNL A   1      31.485  29.555  25.635  1.00  0.00     0.316 A 
ATOM     24  C   UNL A   1      31.473  27.104  25.392  1.00  0.00     0.069 A 
ATOM     25  C   UNL A   1      30.113  26.019  23.716  1.00  0.00     0.030 A 
ATOM     26  O   UNL A   1      31.817  30.594  26.200  1.00  0.00    -0.263 OA
ATOM     27  N   UNL A   1      31.897  28.288  26.054  1.00  0.00    -0.305 N 
ATOM     28  C   UNL A   1      31.914  25.832  25.818  1.00  0.00     0.050 A 
ATOM     29  C   UNL A   1      30.530  24.770  24.169  1.00  0.00     0.024 A 
ATOM     30  C   UNL A   1      32.744  28.209  27.234  1.00  0.00     0.154 C 
ENDBRANCH  14  17
ENDBRANCH  10  14
ENDBRANCH   6   9
ENDBRANCH   4   5
ENDBRANCH   3   4
ENDBRANCH   2   3
ENDBRANCH   1   2
BRANCH   1  31
ATOM     31  C   UNL A   1      38.881  19.727  25.359  1.00  0.00     0.021 C 
BRANCH  31  32
ATOM     32  C   UNL A   1      39.886  19.509  26.484  1.00  0.00     0.116 C 
BRANCH  32  33
ATOM     33  N   UNL A   1      41.130  18.920  26.012  1.00  0.00    -0.352 N 
ATOM     34  C   UNL A   1      42.340  19.529  25.771  1.00  0.00     0.251 C 
ATOM     35  H   UNL A   1      41.102  17.950  25.844  1.00  0.00     0.163 HD
ATOM     36  O   UNL A   1      43.241  18.909  25.216  1.00  0.00    -0.269 OA
BRANCH  34  37
ATOM     37  C   UNL A   1      42.526  20.944  26.156  1.00  0.00     0.039 A 
ATOM     38  C   UNL A   1      42.557  21.941  25.178  1.00  0.00     0.014 A 
ATOM     39  C   UNL A   1      42.716  21.270  27.501  1.00  0.00     0.014 A 
ATOM     40  C   UNL A   1      42.949  23.229  25.524  1.00  0.00     0.010 A 
ATOM     41  C   UNL A   1      43.030  22.585  27.856  1.00  0.00     0.010 A 
ATOM     42  C   UNL A   1      43.202  23.564  26.864  1.00  0.00    -0.014 A 
BRANCH  42  43
ATOM     43  C   UNL A   1      43.648  24.941  27.201  1.00  0.00     0.031 A 
ATOM     44  C   UNL A   1      45.066  25.381  26.944  1.00  0.00     0.074 A 
ATOM     45  C   UNL A   1      42.755  25.817  27.703  1.00  0.00     0.049 A 
ATOM     46  N   UNL A   1      45.610  26.553  27.152  1.00  0.00    -0.248 NA
ATOM     47  C   UNL A   1      45.995  24.385  26.382  1.00  0.00     0.031 C 
ATOM     48  C   UNL A   1      41.357  25.509  28.011  1.00  0.00     0.029 A 
ATOM     49  N   UNL A   1      42.882  27.144  28.028  1.00  0.00    -0.354 N 
ATOM     50  C   UNL A   1      46.946  26.425  26.793  1.00  0.00     0.074 A 
ATOM     51  C   UNL A   1      47.136  25.062  26.349  1.00  0.00     0.031 C 
ATOM     52  C   UNL A   1      40.745  26.621  28.441  1.00  0.00     0.029 A 
ATOM     53  C   UNL A   1      41.716  27.710  28.489  1.00  0.00     0.049 A 
ATOM     54  H   UNL A   1      43.725  27.643  27.939  1.00  0.00     0.167 HD
ATOM     55  C   UNL A   1      47.922  27.364  26.809  1.00  0.00     0.034 A 
ATOM     56  C   UNL A   1      41.455  28.961  28.914  1.00  0.00     0.034 A 
ATOM     57  C   UNL A   1      47.723  28.733  27.197  1.00  0.00     0.049 A 
ATOM     58  C   UNL A   1      42.551  29.983  28.912  1.00  0.00     0.074 A 
ATOM     59  C   UNL A   1      48.646  29.765  27.194  1.00  0.00     0.029 A 
ATOM     60  N   UNL A   1      46.528  29.265  27.650  1.00  0.00    -0.354 N 
ATOM     61  N   UNL A   1      43.786  29.859  28.492  1.00  0.00    -0.248 NA
ATOM     62  C   UNL A   1      42.220  31.319  29.427  1.00  0.00     0.031 C 
ATOM     63  C   UNL A   1      48.008  30.922  27.651  1.00  0.00     0.029 A 
ATOM     64  C   UNL A   1      46.688  30.610  27.930  1.00  0.00     0.049 A 
ATOM     65  H   UNL A   1      45.689  28.760  27.756  1.00  0.00     0.167 HD
ATOM     66  C   UNL A   1      44.378  31.100  28.683  1.00  0.00     0.074 A 
ATOM     67  C   UNL A   1      43.361  31.971  29.235  1.00  0.00     0.031 C 
ATOM     68  C   UNL A   1      45.656  31.476  28.438  1.00  0.00     0.034 A 
BRANCH  55  69
ATOM     69  C   UNL A   1      49.296  26.968  26.345  1.00  0.00     0.023 A 
ATOM     70  C   UNL A   1      50.096  26.162  27.177  1.00  0.00     0.012 A 
ATOM     71  C   UNL A   1      49.745  27.295  25.049  1.00  0.00     0.148 A 
ATOM     72  C   UNL A   1      51.330  25.689  26.729  1.00  0.00     0.002 A 
ATOM     73  C   UNL A   1      50.963  26.797  24.601  1.00  0.00     0.091 A 
ATOM     74  F   UNL A   1      48.968  28.073  24.283  1.00  0.00    -0.205 F 
ATOM     75  C   UNL A   1      51.756  25.997  25.440  1.00  0.00     0.022 A 
BRANCH  73  76
ATOM     76  S   UNL A   1      51.582  27.088  22.940  1.00  0.00     0.127 S 
ATOM     77  O   UNL A   1      50.432  26.696  22.126  1.00  0.00    -0.237 OA
ATOM     78  O   UNL A   1      51.852  28.525  22.962  1.00  0.00    -0.237 OA
ATOM     79  O   UNL A   1      52.759  26.245  22.794  1.00  0.00    -0.744 OA
ENDBRANCH  73  76
ENDBRANCH  55  69
BRANCH  56  80
ATOM     80  C   UNL A   1      40.071  29.309  29.330  1.00  0.00     0.023 A 
ATOM     81  C   UNL A   1      39.105  29.587  28.346  1.00  0.00     0.012 A 
ATOM     82  C   UNL A   1      39.688  29.275  30.685  1.00  0.00     0.148 A 
ATOM     83  C   UNL A   1      37.779  29.829  28.703  1.00  0.00     0.002 A 
ATOM     84  C   UNL A   1      38.358  29.471  31.031  1.00  0.00     0.091 A 
ATOM     85  F   UNL A   1      40.630  29.011  31.602  1.00  0.00    -0.205 F 
ATOM     86  C   UNL A   1      37.403  29.759  30.043  1.00  0.00     0.022 A 
BRANCH  84  87
ATOM     87  S   UNL A   1      37.757  29.281  32.713  1.00  0.00     0.127 S 
ATOM     88  O   UNL A   1      36.421  29.866  32.619  1.00  0.00    -0.237 OA
ATOM     89  O   UNL A   1      37.784  27.827  32.876  1.00  0.00    -0.237 OA
ATOM     90  O   UNL A   1      38.699  30.003  33.555  1.00  0.00    -0.744 OA
ENDBRANCH  84  87
ENDBRANCH  56  80
BRANCH  68  91
ATOM     91  C   UNL A   1      46.048  32.891  28.755  1.00  0.00     0.023 A 
ATOM     92  C   UNL A   1      46.745  33.162  29.948  1.00  0.00     0.012 A 
ATOM     93  C   UNL A   1      45.840  33.923  27.819  1.00  0.00     0.148 A 
ATOM     94  C   UNL A   1      47.225  34.443  30.209  1.00  0.00     0.002 A 
ATOM     95  C   UNL A   1      46.351  35.189  28.070  1.00  0.00     0.091 A 
ATOM     96  F   UNL A   1      45.167  33.637  26.695  1.00  0.00    -0.205 F 
ATOM     97  C   UNL A   1      47.041  35.452  29.266  1.00  0.00     0.022 A 
BRANCH  95  98
ATOM     98  S   UNL A   1      46.230  36.535  26.887  1.00  0.00     0.127 S 
ATOM     99  O   UNL A   1      46.999  36.009  25.759  1.00  0.00    -0.237 OA
ATOM    100  O   UNL A   1      44.787  36.615  26.658  1.00  0.00    -0.237 OA
ATOM    101  O   UNL A   1      46.807  37.700  27.541  1.00  0.00    -0.744 OA
ENDBRANCH  95  98
ENDBRANCH  68  91
ENDBRANCH  42  43
ENDBRANCH  34  37
ENDBRANCH  32  33
ENDBRANCH  31  32
ENDBRANCH   1  31
TORSDOF 18
ENDMDL
MODEL 2
REMARK VINA RESULT:     -11.7      5.747     11.921
REMARK SMILES Cn1c(=O)c(=O)n(C)c2cc(S(=O)(=O)N3CCC[C@H]3C(=O)NCCCCCCNC(=O)c3ccc(-c4c5nc(c(-c6cccc(S(=O)(=O)[O-])c6F)c6ccc([nH]6)c(-c6cccc(S(=O)(=O)[O-])c6F)c6nc(c(-c7cccc(S(=O)(=O)[O-])c7F)c7ccc4[nH]7)C=C6)C=C5)cc3)ccc21
REMARK SMILES IDX 26 1 25 2 24 3 23 4 22 5 20 6 21 7 19 9 15 10 16 11 17 12
REMARK SMILES IDX 18 13 12 14 13 15 14 16 11 17 1 18 2 19 3 20 97 21 4 22 5 23
REMARK SMILES IDX 9 24 96 25 6 26 7 27 10 28 95 29 8 30 27 31 28 32 29 33
REMARK SMILES IDX 30 34 31 36 32 37 33 38 94 39 34 40 93 41 35 42 36 43 37 44
REMARK SMILES IDX 87 45 38 46 92 47 86 48 88 49 39 50 91 51 85 52 84 53 40 55
REMARK SMILES IDX 72 56 52 57 71 58 53 59 56 60 70 61 89 62 54 63 55 64 69 66
REMARK SMILES IDX 90 67 57 68 41 69 42 70 50 71 43 72 45 73 51 74 44 75 46 76
REMARK SMILES IDX 47 77 48 78 49 79 73 80 74 81 82 82 75 83 77 84 83 85 76 86
REMARK SMILES IDX 78 87 79 88 80 89 81 90 58 91 59 92 67 93 60 94 62 95 68 96
REMARK SMILES IDX 61 97 63 98 64 99 65 100 66 101
REMARK H PARENT 22 8 29 35 88 54 56 65
REMARK Flexibility Score: inf
ROOT
ATOM      1  C   UNL A   1      34.595  31.590  28.435  1.00  0.00     0.002 C 
ENDROOT
BRANCH   1   2
ATOM      2  C   UNL A   1      35.165  30.412  27.637  1.00  0.00     0.002 C 
BRANCH   2   3
ATOM      3  C   UNL A   1      34.152  29.321  27.280  1.00  0.00     0.021 C 
BRANCH   3   4
ATOM      4  C   UNL A   1      34.297  28.785  25.856  1.00  0.00     0.116 C 
BRANCH   4   5
ATOM      5  N   UNL A   1      33.281  29.332  24.965  1.00  0.00    -0.355 N 
ATOM      6  C   UNL A   1      32.594  28.705  23.949  1.00  0.00     0.238 C 
ATOM      7  O   UNL A   1      31.811  29.359  23.264  1.00  0.00    -0.273 OA
ATOM      8  H   UNL A   1      33.055  30.279  25.108  1.00  0.00     0.163 HD
BRANCH   6   9
ATOM      9  C   UNL A   1      32.891  27.231  23.719  1.00  0.00     0.162 C 
ATOM     10  N   UNL A   1      31.780  26.273  23.918  1.00  0.00    -0.185 NA
ATOM     11  C   UNL A   1      31.370  25.717  22.623  1.00  0.00     0.103 C 
ATOM     12  C   UNL A   1      32.639  25.747  21.797  1.00  0.00     0.019 C 
ATOM     13  C   UNL A   1      33.348  27.005  22.268  1.00  0.00     0.032 C 
BRANCH  10  14
ATOM     14  S   UNL A   1      31.755  25.320  25.304  1.00  0.00     0.243 S 
ATOM     15  O   UNL A   1      30.595  24.461  25.209  1.00  0.00    -0.207 OA
ATOM     16  O   UNL A   1      31.965  26.184  26.448  1.00  0.00    -0.207 OA
BRANCH  14  17
ATOM     17  C   UNL A   1      33.185  24.232  25.258  1.00  0.00     0.084 A 
ATOM     18  C   UNL A   1      37.790  22.010  25.624  1.00  0.00     0.154 C 
ATOM     19  N   UNL A   1      36.453  21.522  25.307  1.00  0.00    -0.305 N 
ATOM     20  C   UNL A   1      36.306  20.174  24.997  1.00  0.00     0.316 A 
ATOM     21  C   UNL A   1      35.348  22.412  25.297  1.00  0.00     0.068 A 
ATOM     22  O   UNL A   1      37.242  19.384  24.932  1.00  0.00    -0.263 OA
ATOM     23  C   UNL A   1      34.888  19.655  24.725  1.00  0.00     0.316 A 
ATOM     24  C   UNL A   1      34.056  21.960  24.970  1.00  0.00     0.069 A 
ATOM     25  C   UNL A   1      35.529  23.761  25.619  1.00  0.00     0.030 A 
ATOM     26  O   UNL A   1      34.731  18.453  24.527  1.00  0.00    -0.263 OA
ATOM     27  N   UNL A   1      33.841  20.579  24.711  1.00  0.00    -0.305 N 
ATOM     28  C   UNL A   1      32.988  22.883  24.934  1.00  0.00     0.050 A 
ATOM     29  C   UNL A   1      34.460  24.654  25.613  1.00  0.00     0.024 A 
ATOM     30  C   UNL A   1      32.498  20.075  24.469  1.00  0.00     0.154 C 
ENDBRANCH  14  17
ENDBRANCH  10  14
ENDBRANCH   6   9
ENDBRANCH   4   5
ENDBRANCH   3   4
ENDBRANCH   2   3
ENDBRANCH   1   2
BRANCH   1  31
ATOM     31  C   UNL A   1      33.559  32.440  27.696  1.00  0.00     0.021 C 
BRANCH  31  32
ATOM     32  C   UNL A   1      33.894  33.925  27.612  1.00  0.00     0.116 C 
BRANCH  32  33
ATOM     33  N   UNL A   1      33.027  34.739  28.450  1.00  0.00    -0.352 N 
ATOM     34  C   UNL A   1      33.097  34.968  29.806  1.00  0.00     0.251 C 
ATOM     35  H   UNL A   1      32.287  35.190  27.982  1.00  0.00     0.163 HD
ATOM     36  O   UNL A   1      32.184  35.551  30.380  1.00  0.00    -0.269 OA
BRANCH  34  37
ATOM     37  C   UNL A   1      34.269  34.474  30.561  1.00  0.00     0.039 A 
ATOM     38  C   UNL A   1      35.551  34.934  30.250  1.00  0.00     0.014 A 
ATOM     39  C   UNL A   1      34.088  33.509  31.554  1.00  0.00     0.014 A 
ATOM     40  C   UNL A   1      36.659  34.306  30.808  1.00  0.00     0.010 A 
ATOM     41  C   UNL A   1      35.203  32.937  32.173  1.00  0.00     0.010 A 
ATOM     42  C   UNL A   1      36.499  33.293  31.767  1.00  0.00    -0.014 A 
BRANCH  42  43
ATOM     43  C   UNL A   1      37.700  32.619  32.325  1.00  0.00     0.031 A 
ATOM     44  C   UNL A   1      38.244  33.000  33.678  1.00  0.00     0.074 A 
ATOM     45  C   UNL A   1      38.280  31.624  31.624  1.00  0.00     0.049 A 
ATOM     46  N   UNL A   1      39.264  32.492  34.322  1.00  0.00    -0.248 NA
ATOM     47  C   UNL A   1      37.562  34.084  34.404  1.00  0.00     0.031 C 
ATOM     48  C   UNL A   1      37.857  31.174  30.297  1.00  0.00     0.029 A 
ATOM     49  N   UNL A   1      39.336  30.804  31.933  1.00  0.00    -0.354 N 
ATOM     50  C   UNL A   1      39.374  33.219  35.500  1.00  0.00     0.074 A 
ATOM     51  C   UNL A   1      38.316  34.205  35.489  1.00  0.00     0.031 C 
ATOM     52  C   UNL A   1      38.616  30.135  29.922  1.00  0.00     0.029 A 
ATOM     53  C   UNL A   1      39.614  29.877  30.956  1.00  0.00     0.049 A 
ATOM     54  H   UNL A   1      39.845  30.873  32.772  1.00  0.00     0.167 HD
ATOM     55  C   UNL A   1      40.262  33.066  36.511  1.00  0.00     0.034 A 
ATOM     56  C   UNL A   1      40.568  28.929  30.891  1.00  0.00     0.034 A 
ATOM     57  C   UNL A   1      41.279  32.052  36.551  1.00  0.00     0.049 A 
ATOM     58  C   UNL A   1      41.532  28.774  32.029  1.00  0.00     0.074 A 
ATOM     59  C   UNL A   1      42.189  31.792  37.561  1.00  0.00     0.029 A 
ATOM     60  N   UNL A   1      41.522  31.130  35.545  1.00  0.00    -0.354 N 
ATOM     61  N   UNL A   1      41.565  29.422  33.168  1.00  0.00    -0.248 NA
ATOM     62  C   UNL A   1      42.579  27.754  31.884  1.00  0.00     0.031 C 
ATOM     63  C   UNL A   1      42.986  30.714  37.164  1.00  0.00     0.029 A 
ATOM     64  C   UNL A   1      42.566  30.300  35.910  1.00  0.00     0.049 A 
ATOM     65  H   UNL A   1      41.023  31.074  34.698  1.00  0.00     0.167 HD
ATOM     66  C   UNL A   1      42.629  28.884  33.879  1.00  0.00     0.074 A 
ATOM     67  C   UNL A   1      43.202  27.840  33.053  1.00  0.00     0.031 C 
ATOM     68  C   UNL A   1      43.097  29.238  35.099  1.00  0.00     0.034 A 
BRANCH  55  69
ATOM     69  C   UNL A   1      40.152  33.982  37.699  1.00  0.00     0.023 A 
ATOM     70  C   UNL A   1      40.762  35.250  37.647  1.00  0.00     0.012 A 
ATOM     71  C   UNL A   1      39.354  33.637  38.808  1.00  0.00     0.148 A 
ATOM     72  C   UNL A   1      40.586  36.163  38.686  1.00  0.00     0.002 A 
ATOM     73  C   UNL A   1      39.162  34.562  39.827  1.00  0.00     0.091 A 
ATOM     74  F   UNL A   1      38.795  32.420  38.837  1.00  0.00    -0.205 F 
ATOM     75  C   UNL A   1      39.778  35.823  39.769  1.00  0.00     0.022 A 
BRANCH  73  76
ATOM     76  S   UNL A   1      38.098  34.247  41.240  1.00  0.00     0.127 S 
ATOM     77  O   UNL A   1      36.928  33.648  40.599  1.00  0.00    -0.237 OA
ATOM     78  O   UNL A   1      38.905  33.318  42.029  1.00  0.00    -0.237 OA
ATOM     79  O   UNL A   1      37.865  35.540  41.867  1.00  0.00    -0.744 OA
ENDBRANCH  73  76
ENDBRANCH  55  69
BRANCH  56  80
ATOM     80  C   UNL A   1      40.612  28.028  29.709  1.00  0.00     0.023 A 
ATOM     81  C   UNL A   1      39.688  26.970  29.616  1.00  0.00     0.012 A 
ATOM     82  C   UNL A   1      41.500  28.268  28.643  1.00  0.00     0.148 A 
ATOM     83  C   UNL A   1      39.648  26.164  28.478  1.00  0.00     0.002 A 
ATOM     84  C   UNL A   1      41.424  27.491  27.495  1.00  0.00     0.091 A 
ATOM     85  F   UNL A   1      42.372  29.279  28.762  1.00  0.00    -0.205 F 
ATOM     86  C   UNL A   1      40.506  26.432  27.414  1.00  0.00     0.022 A 
BRANCH  84  87
ATOM     87  S   UNL A   1      42.402  27.834  26.028  1.00  0.00     0.127 S 
ATOM     88  O   UNL A   1      41.874  26.853  25.082  1.00  0.00    -0.237 OA
ATOM     89  O   UNL A   1      42.037  29.223  25.745  1.00  0.00    -0.237 OA
ATOM     90  O   UNL A   1      43.790  27.641  26.422  1.00  0.00    -0.744 OA
ENDBRANCH  84  87
ENDBRANCH  56  80
BRANCH  68  91
ATOM     91  C   UNL A   1      44.288  28.497  35.639  1.00  0.00     0.023 A 
ATOM     92  C   UNL A   1      45.582  28.905  35.261  1.00  0.00     0.012 A 
ATOM     93  C   UNL A   1      44.130  27.489  36.610  1.00  0.00     0.148 A 
ATOM     94  C   UNL A   1      46.704  28.316  35.839  1.00  0.00     0.002 A 
ATOM     95  C   UNL A   1      45.252  26.930  37.207  1.00  0.00     0.091 A 
ATOM     96  F   UNL A   1      42.886  27.116  36.944  1.00  0.00    -0.205 F 
ATOM     97  C   UNL A   1      46.540  27.339  36.820  1.00  0.00     0.022 A 
BRANCH  95  98
ATOM     98  S   UNL A   1      45.145  25.720  38.529  1.00  0.00     0.127 S 
ATOM     99  O   UNL A   1      44.276  26.404  39.487  1.00  0.00    -0.237 OA
ATOM    100  O   UNL A   1      44.529  24.578  37.853  1.00  0.00    -0.237 OA
ATOM    101  O   UNL A   1      46.510  25.495  38.982  1.00  0.00    -0.744 OA
ENDBRANCH  95  98
ENDBRANCH  68  91
ENDBRANCH  42  43
ENDBRANCH  34  37
ENDBRANCH  32  33
ENDBRANCH  31  32
ENDBRANCH   1  31
TORSDOF 18
ENDMDL
MODEL 3
REMARK VINA RESULT:     -11.6      6.010     11.771
REMARK SMILES Cn1c(=O)c(=O)n(C)c2cc(S(=O)(=O)N3CCC[C@H]3C(=O)NCCCCCCNC(=O)c3ccc(-c4c5nc(c(-c6cccc(S(=O)(=O)[O-])c6F)c6ccc([nH]6)c(-c6cccc(S(=O)(=O)[O-])c6F)c6nc(c(-c7cccc(S(=O)(=O)[O-])c7F)c7ccc4[nH]7)C=C6)C=C5)cc3)ccc21
REMARK SMILES IDX 26 1 25 2 24 3 23 4 22 5 20 6 21 7 19 9 15 10 16 11 17 12
REMARK SMILES IDX 18 13 12 14 13 15 14 16 11 17 1 18 2 19 3 20 97 21 4 22 5 23
REMARK SMILES IDX 9 24 96 25 6 26 7 27 10 28 95 29 8 30 27 31 28 32 29 33
REMARK SMILES IDX 30 34 31 36 32 37 33 38 94 39 34 40 93 41 35 42 36 43 37 44
REMARK SMILES IDX 87 45 38 46 92 47 86 48 88 49 39 50 91 51 85 52 84 53 40 55
REMARK SMILES IDX 72 56 52 57 71 58 53 59 56 60 70 61 89 62 54 63 55 64 69 66
REMARK SMILES IDX 90 67 57 68 41 69 42 70 50 71 43 72 45 73 51 74 44 75 46 76
REMARK SMILES IDX 47 77 48 78 49 79 73 80 74 81 82 82 75 83 77 84 83 85 76 86
REMARK SMILES IDX 78 87 79 88 80 89 81 90 58 91 59 92 67 93 60 94 62 95 68 96
REMARK SMILES IDX 61 97 63 98 64 99 65 100 66 101
REMARK H PARENT 22 8 29 35 88 54 56 65
REMARK Flexibility Score: inf
ROOT
ATOM      1  C   UNL A   1      38.610  32.522  38.114  1.00  0.00     0.002 C 
ENDROOT
BRANCH   1   2
ATOM      2  C   UNL A   1      37.805  32.314  36.826  1.00  0.00     0.002 C 
BRANCH   2   3
ATOM      3  C   UNL A   1      38.487  31.439  35.771  1.00  0.00     0.021 C 
BRANCH   3   4
ATOM      4  C   UNL A   1      37.830  31.507  34.393  1.00  0.00     0.116 C 
BRANCH   4   5
ATOM      5  N   UNL A   1      38.603  32.323  33.464  1.00  0.00    -0.355 N 
ATOM      6  C   UNL A   1      39.076  31.995  32.212  1.00  0.00     0.238 C 
ATOM      7  O   UNL A   1      39.767  32.808  31.602  1.00  0.00    -0.273 OA
ATOM      8  H   UNL A   1      38.816  33.233  33.773  1.00  0.00     0.163 HD
BRANCH   6   9
ATOM      9  C   UNL A   1      38.737  30.608  31.685  1.00  0.00     0.162 C 
ATOM     10  N   UNL A   1      38.154  30.520  30.328  1.00  0.00    -0.185 NA
ATOM     11  C   UNL A   1      39.126  29.912  29.412  1.00  0.00     0.103 C 
ATOM     12  C   UNL A   1      39.941  28.997  30.302  1.00  0.00     0.019 C 
ATOM     13  C   UNL A   1      40.007  29.743  31.624  1.00  0.00     0.032 C 
BRANCH  10  14
ATOM     14  S   UNL A   1      36.510  30.208  30.158  1.00  0.00     0.243 S 
ATOM     15  O   UNL A   1      36.067  29.572  31.379  1.00  0.00    -0.207 OA
ATOM     16  O   UNL A   1      36.302  29.590  28.864  1.00  0.00    -0.207 OA
BRANCH  14  17
ATOM     17  C   UNL A   1      35.650  31.785  30.078  1.00  0.00     0.084 A 
ATOM     18  C   UNL A   1      32.854  35.898  28.834  1.00  0.00     0.154 C 
ATOM     19  N   UNL A   1      33.479  35.433  30.067  1.00  0.00    -0.305 N 
ATOM     20  C   UNL A   1      33.363  36.233  31.200  1.00  0.00     0.316 A 
ATOM     21  C   UNL A   1      34.199  34.211  30.092  1.00  0.00     0.068 A 
ATOM     22  O   UNL A   1      32.806  37.326  31.208  1.00  0.00    -0.263 OA
ATOM     23  C   UNL A   1      33.970  35.710  32.508  1.00  0.00     0.316 A 
ATOM     24  C   UNL A   1      34.826  33.762  31.269  1.00  0.00     0.069 A 
ATOM     25  C   UNL A   1      34.291  33.427  28.937  1.00  0.00     0.030 A 
ATOM     26  O   UNL A   1      33.809  36.367  33.534  1.00  0.00    -0.263 OA
ATOM     27  N   UNL A   1      34.682  34.510  32.469  1.00  0.00    -0.305 N 
ATOM     28  C   UNL A   1      35.566  32.559  31.243  1.00  0.00     0.050 A 
ATOM     29  C   UNL A   1      34.994  32.225  28.935  1.00  0.00     0.024 A 
ATOM     30  C   UNL A   1      35.238  34.013  33.717  1.00  0.00     0.154 C 
ENDBRANCH  14  17
ENDBRANCH  10  14
ENDBRANCH   6   9
ENDBRANCH   4   5
ENDBRANCH   3   4
ENDBRANCH   2   3
ENDBRANCH   1   2
BRANCH   1  31
ATOM     31  C   UNL A   1      38.120  33.657  39.015  1.00  0.00     0.021 C 
BRANCH  31  32
ATOM     32  C   UNL A   1      39.206  34.323  39.852  1.00  0.00     0.116 C 
BRANCH  32  33
ATOM     33  N   UNL A   1      39.223  35.769  39.693  1.00  0.00    -0.352 N 
ATOM     34  C   UNL A   1      39.827  36.527  38.716  1.00  0.00     0.251 C 
ATOM     35  H   UNL A   1      38.732  36.276  40.380  1.00  0.00     0.163 HD
ATOM     36  O   UNL A   1      39.880  37.747  38.827  1.00  0.00    -0.269 OA
BRANCH  34  37
ATOM     37  C   UNL A   1      40.439  35.848  37.553  1.00  0.00     0.039 A 
ATOM     38  C   UNL A   1      39.682  35.598  36.406  1.00  0.00     0.014 A 
ATOM     39  C   UNL A   1      41.766  35.419  37.629  1.00  0.00     0.014 A 
ATOM     40  C   UNL A   1      40.194  34.771  35.413  1.00  0.00     0.010 A 
ATOM     41  C   UNL A   1      42.306  34.656  36.589  1.00  0.00     0.010 A 
ATOM     42  C   UNL A   1      41.507  34.281  35.497  1.00  0.00    -0.014 A 
BRANCH  42  43
ATOM     43  C   UNL A   1      42.018  33.375  34.435  1.00  0.00     0.031 A 
ATOM     44  C   UNL A   1      42.184  31.900  34.689  1.00  0.00     0.074 A 
ATOM     45  C   UNL A   1      42.293  33.882  33.216  1.00  0.00     0.049 A 
ATOM     46  N   UNL A   1      42.589  30.968  33.864  1.00  0.00    -0.248 NA
ATOM     47  C   UNL A   1      41.855  31.400  36.035  1.00  0.00     0.031 C 
ATOM     48  C   UNL A   1      42.188  35.296  32.850  1.00  0.00     0.029 A 
ATOM     49  N   UNL A   1      42.702  33.268  32.060  1.00  0.00    -0.354 N 
ATOM     50  C   UNL A   1      42.607  29.788  34.597  1.00  0.00     0.074 A 
ATOM     51  C   UNL A   1      42.170  30.115  35.936  1.00  0.00     0.031 C 
ATOM     52  C   UNL A   1      42.483  35.437  31.551  1.00  0.00     0.029 A 
ATOM     53  C   UNL A   1      42.849  34.134  31.002  1.00  0.00     0.049 A 
ATOM     54  H   UNL A   1      42.873  32.301  31.993  1.00  0.00     0.167 HD
ATOM     55  C   UNL A   1      42.937  28.540  34.187  1.00  0.00     0.034 A 
ATOM     56  C   UNL A   1      43.243  33.913  29.733  1.00  0.00     0.034 A 
ATOM     57  C   UNL A   1      43.318  28.202  32.843  1.00  0.00     0.049 A 
ATOM     58  C   UNL A   1      43.592  32.520  29.303  1.00  0.00     0.074 A 
ATOM     59  C   UNL A   1      43.618  26.953  32.328  1.00  0.00     0.029 A 
ATOM     60  N   UNL A   1      43.447  29.107  31.803  1.00  0.00    -0.354 N 
ATOM     61  N   UNL A   1      43.524  31.408  29.993  1.00  0.00    -0.248 NA
ATOM     62  C   UNL A   1      44.056  32.344  27.920  1.00  0.00     0.031 C 
ATOM     63  C   UNL A   1      43.934  27.103  30.975  1.00  0.00     0.029 A 
ATOM     64  C   UNL A   1      43.823  28.445  30.648  1.00  0.00     0.049 A 
ATOM     65  H   UNL A   1      43.293  30.077  31.875  1.00  0.00     0.167 HD
ATOM     66  C   UNL A   1      43.929  30.400  29.129  1.00  0.00     0.074 A 
ATOM     67  C   UNL A   1      44.219  31.028  27.856  1.00  0.00     0.031 C 
ATOM     68  C   UNL A   1      44.065  29.076  29.377  1.00  0.00     0.034 A 
BRANCH  55  69
ATOM     69  C   UNL A   1      42.853  27.419  35.185  1.00  0.00     0.023 A 
ATOM     70  C   UNL A   1      41.700  26.611  35.216  1.00  0.00     0.012 A 
ATOM     71  C   UNL A   1      43.953  27.095  36.004  1.00  0.00     0.148 A 
ATOM     72  C   UNL A   1      41.638  25.498  36.054  1.00  0.00     0.002 A 
ATOM     73  C   UNL A   1      43.894  25.968  36.816  1.00  0.00     0.091 A 
ATOM     74  F   UNL A   1      45.034  27.886  35.963  1.00  0.00    -0.205 F 
ATOM     75  C   UNL A   1      42.737  25.171  36.844  1.00  0.00     0.022 A 
BRANCH  73  76
ATOM     76  S   UNL A   1      45.272  25.426  37.833  1.00  0.00     0.127 S 
ATOM     77  O   UNL A   1      45.363  26.513  38.807  1.00  0.00    -0.237 OA
ATOM     78  O   UNL A   1      44.775  24.161  38.373  1.00  0.00    -0.237 OA
ATOM     79  O   UNL A   1      46.412  25.304  36.936  1.00  0.00    -0.744 OA
ENDBRANCH  73  76
ENDBRANCH  55  69
BRANCH  56  80
ATOM     80  C   UNL A   1      43.276  35.051  28.777  1.00  0.00     0.023 A 
ATOM     81  C   UNL A   1      42.075  35.494  28.192  1.00  0.00     0.012 A 
ATOM     82  C   UNL A   1      44.471  35.749  28.517  1.00  0.00     0.148 A 
ATOM     83  C   UNL A   1      42.063  36.614  27.362  1.00  0.00     0.002 A 
ATOM     84  C   UNL A   1      44.445  36.890  27.727  1.00  0.00     0.091 A 
ATOM     85  F   UNL A   1      45.601  35.301  29.084  1.00  0.00    -0.205 F 
ATOM     86  C   UNL A   1      43.245  37.319  27.139  1.00  0.00     0.022 A 
BRANCH  84  87
ATOM     87  S   UNL A   1      45.888  37.931  27.482  1.00  0.00     0.127 S 
ATOM     88  O   UNL A   1      46.772  37.042  26.730  1.00  0.00    -0.237 OA
ATOM     89  O   UNL A   1      45.327  39.041  26.711  1.00  0.00    -0.237 OA
ATOM     90  O   UNL A   1      46.349  38.291  28.815  1.00  0.00    -0.744 OA
ENDBRANCH  84  87
ENDBRANCH  56  80
BRANCH  68  91
ATOM     91  C   UNL A   1      44.544  28.194  28.259  1.00  0.00     0.023 A 
ATOM     92  C   UNL A   1      45.927  28.036  28.050  1.00  0.00     0.012 A 
ATOM     93  C   UNL A   1      43.633  27.430  27.504  1.00  0.00     0.148 A 
ATOM     94  C   UNL A   1      46.399  27.133  27.100  1.00  0.00     0.002 A 
ATOM     95  C   UNL A   1      44.110  26.507  26.583  1.00  0.00     0.091 A 
ATOM     96  F   UNL A   1      42.321  27.608  27.719  1.00  0.00    -0.205 F 
ATOM     97  C   UNL A   1      45.493  26.360  26.376  1.00  0.00     0.022 A 
BRANCH  95  98
ATOM     98  S   UNL A   1      43.027  25.415  25.656  1.00  0.00     0.127 S 
ATOM     99  O   UNL A   1      42.114  26.367  25.025  1.00  0.00    -0.237 OA
ATOM    100  O   UNL A   1      43.961  24.762  24.737  1.00  0.00    -0.237 OA
ATOM    101  O   UNL A   1      42.417  24.526  26.635  1.00  0.00    -0.744 OA
ENDBRANCH  95  98
ENDBRANCH  68  91
ENDBRANCH  42  43
ENDBRANCH  34  37
ENDBRANCH  32  33
ENDBRANCH  31  32
ENDBRANCH   1  31
TORSDOF 18
ENDMDL
