MODEL 1
REMARK VINA RESULT:      -9.3      0.000      0.000
REMARK SMILES CC(C)C[C@H](NC(=O)[C@H](Cc1ccccc1)NC(=O)CNC(=O)C[NH3+])C(=O)NCCCCCCNC(=O)c1ccc(-c2c3nc(c(-c4cccc(S(=O)(=O)[O-])c4F)c4ccc([nH]4)c(-c4cccc(S(=O)(=O)[O-])c4F)c4nc(c(-c5cccc(S(=O)(=O)[O-])c5F)c5ccc2[nH]5)C=C4)C=C3)cc1
REMARK SMILES IDX 29 1 28 2 26 3 27 4 5 6 4 7 2 8 1 9 3 10 6 11 7 12 8 14 9 15
REMARK SMILES IDX 17 16 18 17 19 19 20 20 21 21 22 22 23 24 24 25 25 26 10 30
REMARK SMILES IDX 11 31 12 32 16 33 13 34 15 35 14 36 30 37 31 38 32 39 33 40
REMARK SMILES IDX 34 41 35 42 36 43 37 45 38 46 39 47 100 48 40 49 99 50 41 51
REMARK SMILES IDX 42 52 43 53 93 54 44 55 98 56 92 57 94 58 45 59 97 60 91 61
REMARK SMILES IDX 90 62 46 64 78 65 58 66 77 67 59 68 62 69 76 70 95 71 60 72
REMARK SMILES IDX 61 73 75 75 96 76 63 77 47 78 48 79 56 80 49 81 51 82 57 83
REMARK SMILES IDX 50 84 52 85 53 86 54 87 55 88 79 89 80 90 88 91 81 92 83 93
REMARK SMILES IDX 89 94 82 95 84 96 85 97 86 98 87 99 64 100 65 101 73 102
REMARK SMILES IDX 66 103 68 104 74 105 67 106 69 107 70 108 71 109 72 110
REMARK H PARENT 28 5 6 13 17 18 21 23 25 27 25 28 25 29 35 44 94 63 62 74
REMARK Flexibility Score: inf
ROOT
ATOM      1  C   UNL A   1      39.490  29.729  28.869  1.00  0.00     0.116 C 
ENDROOT
BRANCH   1   2
ATOM      2  N   UNL A   1      38.312  29.211  29.544  1.00  0.00    -0.354 N 
ATOM      3  C   UNL A   1      37.670  29.613  30.675  1.00  0.00     0.242 C 
ATOM      4  O   UNL A   1      36.590  29.082  30.939  1.00  0.00    -0.273 OA
ATOM      5  H   UNL A   1      37.905  28.430  29.104  1.00  0.00     0.163 HD
BRANCH   3   6
ATOM      6  C   UNL A   1      38.184  30.780  31.518  1.00  0.00     0.171 C 
BRANCH   6   7
ATOM      7  C   UNL A   1      37.386  30.611  32.831  1.00  0.00     0.038 C 
BRANCH   7   8
ATOM      8  C   UNL A   1      38.133  30.543  34.166  1.00  0.00    -0.015 C 
ATOM      9  C   UNL A   1      39.644  30.483  33.960  1.00  0.00     0.007 C 
ATOM     10  C   UNL A   1      37.781  31.812  34.963  1.00  0.00     0.007 C 
ENDBRANCH   7   8
ENDBRANCH   6   7
BRANCH   6  11
ATOM     11  N   UNL A   1      38.055  32.051  30.802  1.00  0.00    -0.343 N 
ATOM     12  C   UNL A   1      37.079  32.437  29.909  1.00  0.00     0.243 C 
ATOM     13  H   UNL A   1      38.760  32.716  30.980  1.00  0.00     0.164 HD
ATOM     14  O   UNL A   1      37.285  33.454  29.239  1.00  0.00    -0.273 OA
BRANCH  12  15
ATOM     15  C   UNL A   1      35.738  31.661  29.769  1.00  0.00     0.175 C 
BRANCH  15  16
ATOM     16  N   UNL A   1      34.904  31.881  30.964  1.00  0.00    -0.342 N 
ATOM     17  C   UNL A   1      34.449  33.056  31.489  1.00  0.00     0.240 C 
ATOM     18  H   UNL A   1      34.639  31.068  31.451  1.00  0.00     0.164 HD
ATOM     19  O   UNL A   1      33.998  33.067  32.634  1.00  0.00    -0.273 OA
BRANCH  17  20
ATOM     20  C   UNL A   1      34.462  34.322  30.628  1.00  0.00     0.216 C 
BRANCH  20  21
ATOM     21  N   UNL A   1      33.975  35.554  31.207  1.00  0.00    -0.342 N 
ATOM     22  C   UNL A   1      33.290  36.559  30.568  1.00  0.00     0.275 C 
ATOM     23  H   UNL A   1      34.153  35.687  32.166  1.00  0.00     0.164 HD
ATOM     24  O   UNL A   1      32.987  37.555  31.229  1.00  0.00    -0.268 OA
BRANCH  22  25
ATOM     25  C   UNL A   1      32.923  36.415  29.071  1.00  0.00     0.360 C 
BRANCH  25  26
ATOM     26  N   UNL A   1      33.927  37.040  28.204  1.00  0.00    -0.350 N 
ATOM     27  H   UNL A   1      34.523  37.652  28.761  1.00  0.00     0.344 HD
ATOM     28  H   UNL A   1      33.459  37.587  27.481  1.00  0.00     0.344 HD
ATOM     29  H   UNL A   1      34.497  36.316  27.767  1.00  0.00     0.344 HD
ENDBRANCH  25  26
ENDBRANCH  22  25
ENDBRANCH  20  21
ENDBRANCH  17  20
ENDBRANCH  15  16
BRANCH  15  30
ATOM     30  C   UNL A   1      34.943  32.150  28.546  1.00  0.00     0.070 C 
BRANCH  30  31
ATOM     31  C   UNL A   1      34.353  31.003  27.771  1.00  0.00    -0.045 A 
ATOM     32  C   UNL A   1      35.053  29.799  27.645  1.00  0.00     0.004 A 
ATOM     33  C   UNL A   1      33.057  31.105  27.246  1.00  0.00     0.004 A 
ATOM     34  C   UNL A   1      34.452  28.701  27.033  1.00  0.00     0.000 A 
ATOM     35  C   UNL A   1      32.455  30.004  26.642  1.00  0.00     0.000 A 
ATOM     36  C   UNL A   1      33.150  28.801  26.542  1.00  0.00     0.000 A 
ENDBRANCH  30  31
ENDBRANCH  15  30
ENDBRANCH  12  15
ENDBRANCH   6  11
ENDBRANCH   3   6
ENDBRANCH   1   2
BRANCH   1  37
ATOM     37  C   UNL A   1      39.619  29.213  27.439  1.00  0.00     0.021 C 
BRANCH  37  38
ATOM     38  C   UNL A   1      40.105  27.770  27.291  1.00  0.00     0.002 C 
BRANCH  38  39
ATOM     39  C   UNL A   1      41.127  27.496  26.191  1.00  0.00     0.002 C 
BRANCH  39  40
ATOM     40  C   UNL A   1      41.239  26.037  25.780  1.00  0.00     0.021 C 
BRANCH  40  41
ATOM     41  C   UNL A   1      41.504  25.078  26.928  1.00  0.00     0.116 C 
BRANCH  41  42
ATOM     42  N   UNL A   1      41.713  23.694  26.514  1.00  0.00    -0.352 N 
ATOM     43  C   UNL A   1      42.902  23.090  26.173  1.00  0.00     0.251 C 
ATOM     44  H   UNL A   1      40.910  23.126  26.472  1.00  0.00     0.163 HD
ATOM     45  O   UNL A   1      42.946  21.917  25.819  1.00  0.00    -0.269 OA
BRANCH  43  46
ATOM     46  C   UNL A   1      44.111  23.928  26.191  1.00  0.00     0.039 A 
ATOM     47  C   UNL A   1      44.522  24.528  25.002  1.00  0.00     0.014 A 
ATOM     48  C   UNL A   1      44.677  24.282  27.417  1.00  0.00     0.014 A 
ATOM     49  C   UNL A   1      45.454  25.561  25.055  1.00  0.00     0.010 A 
ATOM     50  C   UNL A   1      45.518  25.384  27.475  1.00  0.00     0.010 A 
ATOM     51  C   UNL A   1      45.918  26.032  26.295  1.00  0.00    -0.014 A 
BRANCH  51  52
ATOM     52  C   UNL A   1      46.815  27.209  26.374  1.00  0.00     0.031 A 
ATOM     53  C   UNL A   1      48.306  27.018  26.369  1.00  0.00     0.074 A 
ATOM     54  C   UNL A   1      46.288  28.442  26.529  1.00  0.00     0.049 A 
ATOM     55  N   UNL A   1      49.249  27.921  26.407  1.00  0.00    -0.248 NA
ATOM     56  C   UNL A   1      48.804  25.632  26.367  1.00  0.00     0.031 C 
ATOM     57  C   UNL A   1      44.861  28.745  26.671  1.00  0.00     0.029 A 
ATOM     58  N   UNL A   1      46.894  29.671  26.596  1.00  0.00    -0.354 N 
ATOM     59  C   UNL A   1      50.443  27.215  26.475  1.00  0.00     0.074 A 
ATOM     60  C   UNL A   1      50.105  25.811  26.532  1.00  0.00     0.031 C 
ATOM     61  C   UNL A   1      44.701  30.075  26.772  1.00  0.00     0.029 A 
ATOM     62  C   UNL A   1      46.009  30.718  26.713  1.00  0.00     0.049 A 
ATOM     63  H   UNL A   1      47.870  29.792  26.564  1.00  0.00     0.167 HD
ATOM     64  C   UNL A   1      51.711  27.686  26.443  1.00  0.00     0.034 A 
ATOM     65  C   UNL A   1      46.231  32.047  26.742  1.00  0.00     0.034 A 
ATOM     66  C   UNL A   1      52.038  29.077  26.303  1.00  0.00     0.049 A 
ATOM     67  C   UNL A   1      47.643  32.548  26.600  1.00  0.00     0.074 A 
ATOM     68  C   UNL A   1      53.281  29.656  26.123  1.00  0.00     0.029 A 
ATOM     69  N   UNL A   1      51.113  30.108  26.324  1.00  0.00    -0.354 N 
ATOM     70  N   UNL A   1      48.751  31.862  26.458  1.00  0.00    -0.248 NA
ATOM     71  C   UNL A   1      47.830  34.006  26.579  1.00  0.00     0.031 C 
ATOM     72  C   UNL A   1      53.107  31.043  26.047  1.00  0.00     0.029 A 
ATOM     73  C   UNL A   1      51.754  31.324  26.170  1.00  0.00     0.049 A 
ATOM     74  H   UNL A   1      50.141  29.992  26.432  1.00  0.00     0.167 HD
ATOM     75  C   UNL A   1      49.764  32.801  26.303  1.00  0.00     0.074 A 
ATOM     76  C   UNL A   1      49.131  34.105  26.339  1.00  0.00     0.031 C 
ATOM     77  C   UNL A   1      51.100  32.607  26.163  1.00  0.00     0.034 A 
BRANCH  64  78
ATOM     78  C   UNL A   1      52.824  26.675  26.484  1.00  0.00     0.023 A 
ATOM     79  C   UNL A   1      53.047  25.841  25.367  1.00  0.00     0.012 A 
ATOM     80  C   UNL A   1      53.659  26.555  27.611  1.00  0.00     0.148 A 
ATOM     81  C   UNL A   1      54.051  24.875  25.390  1.00  0.00     0.002 A 
ATOM     82  C   UNL A   1      54.687  25.620  27.608  1.00  0.00     0.091 A 
ATOM     83  F   UNL A   1      53.414  27.334  28.676  1.00  0.00    -0.205 F 
ATOM     84  C   UNL A   1      54.877  24.771  26.505  1.00  0.00     0.022 A 
BRANCH  82  85
ATOM     85  S   UNL A   1      55.848  25.465  28.969  1.00  0.00     0.127 S 
ATOM     86  O   UNL A   1      54.948  25.288  30.107  1.00  0.00    -0.237 OA
ATOM     87  O   UNL A   1      56.605  24.269  28.598  1.00  0.00    -0.237 OA
ATOM     88  O   UNL A   1      56.627  26.695  28.968  1.00  0.00    -0.744 OA
ENDBRANCH  82  85
ENDBRANCH  64  78
BRANCH  65  89
ATOM     89  C   UNL A   1      45.079  32.994  26.787  1.00  0.00     0.023 A 
ATOM     90  C   UNL A   1      44.511  33.437  25.576  1.00  0.00     0.012 A 
ATOM     91  C   UNL A   1      44.520  33.424  28.005  1.00  0.00     0.148 A 
ATOM     92  C   UNL A   1      43.424  34.311  25.575  1.00  0.00     0.002 A 
ATOM     93  C   UNL A   1      43.404  34.256  27.998  1.00  0.00     0.091 A 
ATOM     94  F   UNL A   1      45.080  33.002  29.146  1.00  0.00    -0.205 F 
ATOM     95  C   UNL A   1      42.864  34.712  26.785  1.00  0.00     0.022 A 
BRANCH  93  96
ATOM     96  S   UNL A   1      42.539  34.717  29.504  1.00  0.00     0.127 S 
ATOM     97  O   UNL A   1      43.577  35.434  30.238  1.00  0.00    -0.237 OA
ATOM     98  O   UNL A   1      41.456  35.556  28.989  1.00  0.00    -0.237 OA
ATOM     99  O   UNL A   1      42.092  33.464  30.097  1.00  0.00    -0.744 OA
ENDBRANCH  93  96
ENDBRANCH  65  89
BRANCH  77 100
ATOM    100  C   UNL A   1      51.966  33.830  26.034  1.00  0.00     0.023 A 
ATOM    101  C   UNL A   1      52.291  34.317  24.753  1.00  0.00     0.012 A 
ATOM    102  C   UNL A   1      52.400  34.533  27.173  1.00  0.00     0.148 A 
ATOM    103  C   UNL A   1      53.062  35.468  24.608  1.00  0.00     0.002 A 
ATOM    104  C   UNL A   1      53.130  35.706  27.020  1.00  0.00     0.091 A 
ATOM    105  F   UNL A   1      52.101  34.043  28.385  1.00  0.00    -0.205 F 
ATOM    106  C   UNL A   1      53.472  36.169  25.740  1.00  0.00     0.022 A 
BRANCH 104 107
ATOM    107  S   UNL A   1      53.610  36.716  28.426  1.00  0.00     0.127 S 
ATOM    108  O   UNL A   1      54.394  37.769  27.784  1.00  0.00    -0.237 OA
ATOM    109  O   UNL A   1      52.318  37.155  28.956  1.00  0.00    -0.237 OA
ATOM    110  O   UNL A   1      54.350  35.827  29.313  1.00  0.00    -0.744 OA
ENDBRANCH 104 107
ENDBRANCH  77 100
ENDBRANCH  51  52
ENDBRANCH  43  46
ENDBRANCH  41  42
ENDBRANCH  40  41
ENDBRANCH  39  40
ENDBRANCH  38  39
ENDBRANCH  37  38
ENDBRANCH   1  37
TORSDOF 27
ENDMDL
MODEL 2
REMARK VINA RESULT:      -9.0      5.566      8.991
REMARK SMILES CC(C)C[C@H](NC(=O)[C@H](Cc1ccccc1)NC(=O)CNC(=O)C[NH3+])C(=O)NCCCCCCNC(=O)c1ccc(-c2c3nc(c(-c4cccc(S(=O)(=O)[O-])c4F)c4ccc([nH]4)c(-c4cccc(S(=O)(=O)[O-])c4F)c4nc(c(-c5cccc(S(=O)(=O)[O-])c5F)c5ccc2[nH]5)C=C4)C=C3)cc1
REMARK SMILES IDX 29 1 28 2 26 3 27 4 5 6 4 7 2 8 1 9 3 10 6 11 7 12 8 14 9 15
REMARK SMILES IDX 17 16 18 17 19 19 20 20 21 21 22 22 23 24 24 25 25 26 10 30
REMARK SMILES IDX 11 31 12 32 16 33 13 34 15 35 14 36 30 37 31 38 32 39 33 40
REMARK SMILES IDX 34 41 35 42 36 43 37 45 38 46 39 47 100 48 40 49 99 50 41 51
REMARK SMILES IDX 42 52 43 53 93 54 44 55 98 56 92 57 94 58 45 59 97 60 91 61
REMARK SMILES IDX 90 62 46 64 78 65 58 66 77 67 59 68 62 69 76 70 95 71 60 72
REMARK SMILES IDX 61 73 75 75 96 76 63 77 47 78 48 79 56 80 49 81 51 82 57 83
REMARK SMILES IDX 50 84 52 85 53 86 54 87 55 88 79 89 80 90 88 91 81 92 83 93
REMARK SMILES IDX 89 94 82 95 84 96 85 97 86 98 87 99 64 100 65 101 73 102
REMARK SMILES IDX 66 103 68 104 74 105 67 106 69 107 70 108 71 109 72 110
REMARK H PARENT 28 5 6 13 17 18 21 23 25 27 25 28 25 29 35 44 94 63 62 74
REMARK Flexibility Score: inf
ROOT
ATOM      1  C   UNL A   1      38.063  30.968  29.146  1.00  0.00     0.116 C 
ENDROOT
BRANCH   1   2
ATOM      2  N   UNL A   1      36.793  31.001  29.852  1.00  0.00    -0.354 N 
ATOM      3  C   UNL A   1      36.500  31.033  31.181  1.00  0.00     0.242 C 
ATOM      4  O   UNL A   1      35.324  31.215  31.503  1.00  0.00    -0.273 OA
ATOM      5  H   UNL A   1      36.003  31.001  29.263  1.00  0.00     0.163 HD
BRANCH   3   6
ATOM      6  C   UNL A   1      37.595  30.993  32.247  1.00  0.00     0.171 C 
BRANCH   6   7
ATOM      7  C   UNL A   1      38.192  29.581  32.048  1.00  0.00     0.038 C 
BRANCH   7   8
ATOM      8  C   UNL A   1      39.689  29.427  31.764  1.00  0.00    -0.015 C 
ATOM      9  C   UNL A   1      40.524  29.638  33.025  1.00  0.00     0.007 C 
ATOM     10  C   UNL A   1      39.920  27.999  31.238  1.00  0.00     0.007 C 
ENDBRANCH   7   8
ENDBRANCH   6   7
BRANCH   6  11
ATOM     11  N   UNL A   1      37.063  31.329  33.569  1.00  0.00    -0.343 N 
ATOM     12  C   UNL A   1      36.916  32.573  34.142  1.00  0.00     0.243 C 
ATOM     13  H   UNL A   1      36.773  30.566  34.121  1.00  0.00     0.164 HD
ATOM     14  O   UNL A   1      36.670  32.621  35.352  1.00  0.00    -0.273 OA
BRANCH  12  15
ATOM     15  C   UNL A   1      37.005  33.882  33.306  1.00  0.00     0.175 C 
BRANCH  15  16
ATOM     16  N   UNL A   1      36.002  34.851  33.783  1.00  0.00    -0.342 N 
ATOM     17  C   UNL A   1      35.004  35.467  33.085  1.00  0.00     0.240 C 
ATOM     18  H   UNL A   1      36.060  35.085  34.737  1.00  0.00     0.164 HD
ATOM     19  O   UNL A   1      34.441  36.443  33.581  1.00  0.00    -0.273 OA
BRANCH  17  20
ATOM     20  C   UNL A   1      34.574  34.906  31.728  1.00  0.00     0.216 C 
BRANCH  20  21
ATOM     21  N   UNL A   1      33.628  35.662  30.938  1.00  0.00    -0.342 N 
ATOM     22  C   UNL A   1      33.286  35.451  29.624  1.00  0.00     0.275 C 
ATOM     23  H   UNL A   1      33.178  36.410  31.392  1.00  0.00     0.164 HD
ATOM     24  O   UNL A   1      32.479  36.228  29.111  1.00  0.00    -0.268 OA
BRANCH  22  25
ATOM     25  C   UNL A   1      33.906  34.266  28.844  1.00  0.00     0.360 C 
BRANCH  25  26
ATOM     26  N   UNL A   1      35.032  34.697  28.009  1.00  0.00    -0.350 N 
ATOM     27  H   UNL A   1      35.541  35.442  28.485  1.00  0.00     0.344 HD
ATOM     28  H   UNL A   1      34.680  35.041  27.116  1.00  0.00     0.344 HD
ATOM     29  H   UNL A   1      35.657  33.907  27.847  1.00  0.00     0.344 HD
ENDBRANCH  25  26
ENDBRANCH  22  25
ENDBRANCH  20  21
ENDBRANCH  17  20
ENDBRANCH  15  16
BRANCH  15  30
ATOM     30  C   UNL A   1      38.391  34.533  33.446  1.00  0.00     0.070 C 
BRANCH  30  31
ATOM     31  C   UNL A   1      39.128  34.563  32.135  1.00  0.00    -0.045 A 
ATOM     32  C   UNL A   1      40.519  34.418  32.101  1.00  0.00     0.004 A 
ATOM     33  C   UNL A   1      38.413  34.647  30.931  1.00  0.00     0.004 A 
ATOM     34  C   UNL A   1      41.182  34.324  30.879  1.00  0.00     0.000 A 
ATOM     35  C   UNL A   1      39.078  34.544  29.712  1.00  0.00     0.000 A 
ATOM     36  C   UNL A   1      40.461  34.376  29.686  1.00  0.00     0.000 A 
ENDBRANCH  30  31
ENDBRANCH  15  30
ENDBRANCH  12  15
ENDBRANCH   6  11
ENDBRANCH   3   6
ENDBRANCH   1   2
BRANCH   1  37
ATOM     37  C   UNL A   1      38.217  29.724  28.278  1.00  0.00     0.021 C 
BRANCH  37  38
ATOM     38  C   UNL A   1      39.614  29.480  27.701  1.00  0.00     0.002 C 
BRANCH  38  39
ATOM     39  C   UNL A   1      40.007  28.030  27.436  1.00  0.00     0.002 C 
BRANCH  39  40
ATOM     40  C   UNL A   1      41.116  27.852  26.412  1.00  0.00     0.021 C 
BRANCH  40  41
ATOM     41  C   UNL A   1      42.520  27.886  26.994  1.00  0.00     0.116 C 
BRANCH  41  42
ATOM     42  N   UNL A   1      42.681  27.097  28.212  1.00  0.00    -0.352 N 
ATOM     43  C   UNL A   1      43.133  27.529  29.437  1.00  0.00     0.251 C 
ATOM     44  H   UNL A   1      42.438  26.145  28.149  1.00  0.00     0.163 HD
ATOM     45  O   UNL A   1      43.244  26.760  30.386  1.00  0.00    -0.269 OA
BRANCH  43  46
ATOM     46  C   UNL A   1      43.539  28.939  29.546  1.00  0.00     0.039 A 
ATOM     47  C   UNL A   1      42.560  29.924  29.428  1.00  0.00     0.014 A 
ATOM     48  C   UNL A   1      44.829  29.245  29.985  1.00  0.00     0.014 A 
ATOM     49  C   UNL A   1      42.855  31.221  29.839  1.00  0.00     0.010 A 
ATOM     50  C   UNL A   1      45.081  30.509  30.496  1.00  0.00     0.010 A 
ATOM     51  C   UNL A   1      44.100  31.510  30.425  1.00  0.00    -0.014 A 
BRANCH  51  52
ATOM     52  C   UNL A   1      44.384  32.856  30.979  1.00  0.00     0.031 A 
ATOM     53  C   UNL A   1      45.104  33.875  30.142  1.00  0.00     0.074 A 
ATOM     54  C   UNL A   1      44.063  33.134  32.260  1.00  0.00     0.049 A 
ATOM     55  N   UNL A   1      45.422  35.107  30.439  1.00  0.00    -0.248 NA
ATOM     56  C   UNL A   1      45.570  33.442  28.813  1.00  0.00     0.031 C 
ATOM     57  C   UNL A   1      43.472  32.189  33.212  1.00  0.00     0.029 A 
ATOM     58  N   UNL A   1      44.193  34.292  32.983  1.00  0.00    -0.354 N 
ATOM     59  C   UNL A   1      46.156  35.578  29.358  1.00  0.00     0.074 A 
ATOM     60  C   UNL A   1      46.288  34.485  28.424  1.00  0.00     0.031 C 
ATOM     61  C   UNL A   1      43.258  32.817  34.381  1.00  0.00     0.029 A 
ATOM     62  C   UNL A   1      43.705  34.201  34.266  1.00  0.00     0.049 A 
ATOM     63  H   UNL A   1      44.598  35.111  32.618  1.00  0.00     0.167 HD
ATOM     64  C   UNL A   1      46.636  36.824  29.138  1.00  0.00     0.034 A 
ATOM     65  C   UNL A   1      43.606  35.138  35.230  1.00  0.00     0.034 A 
ATOM     66  C   UNL A   1      46.429  37.926  30.034  1.00  0.00     0.049 A 
ATOM     67  C   UNL A   1      44.053  36.541  34.922  1.00  0.00     0.074 A 
ATOM     68  C   UNL A   1      46.752  39.258  29.851  1.00  0.00     0.029 A 
ATOM     69  N   UNL A   1      45.841  37.822  31.285  1.00  0.00    -0.354 N 
ATOM     70  N   UNL A   1      44.562  37.020  33.813  1.00  0.00    -0.248 NA
ATOM     71  C   UNL A   1      43.873  37.542  35.984  1.00  0.00     0.031 C 
ATOM     72  C   UNL A   1      46.368  39.959  31.000  1.00  0.00     0.029 A 
ATOM     73  C   UNL A   1      45.798  39.063  31.892  1.00  0.00     0.049 A 
ATOM     74  H   UNL A   1      45.504  36.987  31.682  1.00  0.00     0.167 HD
ATOM     75  C   UNL A   1      44.737  38.382  34.030  1.00  0.00     0.074 A 
ATOM     76  C   UNL A   1      44.252  38.655  35.368  1.00  0.00     0.031 C 
ATOM     77  C   UNL A   1      45.269  39.321  33.207  1.00  0.00     0.034 A 
BRANCH  64  78
ATOM     78  C   UNL A   1      47.362  37.063  27.841  1.00  0.00     0.023 A 
ATOM     79  C   UNL A   1      46.650  37.558  26.728  1.00  0.00     0.012 A 
ATOM     80  C   UNL A   1      48.742  36.816  27.723  1.00  0.00     0.148 A 
ATOM     81  C   UNL A   1      47.289  37.760  25.507  1.00  0.00     0.002 A 
ATOM     82  C   UNL A   1      49.383  37.064  26.514  1.00  0.00     0.091 A 
ATOM     83  F   UNL A   1      49.397  36.316  28.781  1.00  0.00    -0.205 F 
ATOM     84  C   UNL A   1      48.657  37.523  25.402  1.00  0.00     0.022 A 
BRANCH  82  85
ATOM     85  S   UNL A   1      51.154  36.858  26.306  1.00  0.00     0.127 S 
ATOM     86  O   UNL A   1      51.353  35.494  26.792  1.00  0.00    -0.237 OA
ATOM     87  O   UNL A   1      51.319  37.022  24.862  1.00  0.00    -0.237 OA
ATOM     88  O   UNL A   1      51.771  37.907  27.106  1.00  0.00    -0.744 OA
ENDBRANCH  82  85
ENDBRANCH  64  78
BRANCH  65  89
ATOM     89  C   UNL A   1      42.949  34.806  36.527  1.00  0.00     0.023 A 
ATOM     90  C   UNL A   1      43.721  34.234  37.558  1.00  0.00     0.012 A 
ATOM     91  C   UNL A   1      41.591  35.088  36.764  1.00  0.00     0.148 A 
ATOM     92  C   UNL A   1      43.148  33.923  38.791  1.00  0.00     0.002 A 
ATOM     93  C   UNL A   1      41.037  34.821  38.013  1.00  0.00     0.091 A 
ATOM     94  F   UNL A   1      40.869  35.621  35.769  1.00  0.00    -0.205 F 
ATOM     95  C   UNL A   1      41.809  34.226  39.022  1.00  0.00     0.022 A 
BRANCH  93  96
ATOM     96  S   UNL A   1      39.358  35.298  38.441  1.00  0.00     0.127 S 
ATOM     97  O   UNL A   1      39.339  36.707  38.059  1.00  0.00    -0.237 OA
ATOM     98  O   UNL A   1      38.563  34.416  37.585  1.00  0.00    -0.237 OA
ATOM     99  O   UNL A   1      39.225  35.023  39.865  1.00  0.00    -0.744 OA
ENDBRANCH  93  96
ENDBRANCH  65  89
BRANCH  77 100
ATOM    100  C   UNL A   1      45.351  40.730  33.727  1.00  0.00     0.023 A 
ATOM    101  C   UNL A   1      44.269  41.608  33.522  1.00  0.00     0.012 A 
ATOM    102  C   UNL A   1      46.463  41.162  34.475  1.00  0.00     0.148 A 
ATOM    103  C   UNL A   1      44.306  42.907  34.025  1.00  0.00     0.002 A 
ATOM    104  C   UNL A   1      46.472  42.445  35.012  1.00  0.00     0.091 A 
ATOM    105  F   UNL A   1      47.493  40.321  34.641  1.00  0.00    -0.205 F 
ATOM    106  C   UNL A   1      45.401  43.321  34.780  1.00  0.00     0.022 A 
BRANCH 104 107
ATOM    107  S   UNL A   1      47.802  43.018  36.075  1.00  0.00     0.127 S 
ATOM    108  O   UNL A   1      47.735  42.062  37.179  1.00  0.00    -0.237 OA
ATOM    109  O   UNL A   1      48.979  42.875  35.216  1.00  0.00    -0.237 OA
ATOM    110  O   UNL A   1      47.470  44.396  36.410  1.00  0.00    -0.744 OA
ENDBRANCH 104 107
ENDBRANCH  77 100
ENDBRANCH  51  52
ENDBRANCH  43  46
ENDBRANCH  41  42
ENDBRANCH  40  41
ENDBRANCH  39  40
ENDBRANCH  38  39
ENDBRANCH  37  38
ENDBRANCH   1  37
TORSDOF 27
ENDMDL
MODEL 3
REMARK VINA RESULT:      -8.7      5.283     12.205
REMARK SMILES CC(C)C[C@H](NC(=O)[C@H](Cc1ccccc1)NC(=O)CNC(=O)C[NH3+])C(=O)NCCCCCCNC(=O)c1ccc(-c2c3nc(c(-c4cccc(S(=O)(=O)[O-])c4F)c4ccc([nH]4)c(-c4cccc(S(=O)(=O)[O-])c4F)c4nc(c(-c5cccc(S(=O)(=O)[O-])c5F)c5ccc2[nH]5)C=C4)C=C3)cc1
REMARK SMILES IDX 29 1 28 2 26 3 27 4 5 6 4 7 2 8 1 9 3 10 6 11 7 12 8 14 9 15
REMARK SMILES IDX 17 16 18 17 19 19 20 20 21 21 22 22 23 24 24 25 25 26 10 30
REMARK SMILES IDX 11 31 12 32 16 33 13 34 15 35 14 36 30 37 31 38 32 39 33 40
REMARK SMILES IDX 34 41 35 42 36 43 37 45 38 46 39 47 100 48 40 49 99 50 41 51
REMARK SMILES IDX 42 52 43 53 93 54 44 55 98 56 92 57 94 58 45 59 97 60 91 61
REMARK SMILES IDX 90 62 46 64 78 65 58 66 77 67 59 68 62 69 76 70 95 71 60 72
REMARK SMILES IDX 61 73 75 75 96 76 63 77 47 78 48 79 56 80 49 81 51 82 57 83
REMARK SMILES IDX 50 84 52 85 53 86 54 87 55 88 79 89 80 90 88 91 81 92 83 93
REMARK SMILES IDX 89 94 82 95 84 96 85 97 86 98 87 99 64 100 65 101 73 102
REMARK SMILES IDX 66 103 68 104 74 105 67 106 69 107 70 108 71 109 72 110
REMARK H PARENT 28 5 6 13 17 18 21 23 25 27 25 28 25 29 35 44 94 63 62 74
REMARK Flexibility Score: inf
ROOT
ATOM      1  C   UNL A   1      40.147  28.499  30.125  1.00  0.00     0.116 C 
ENDROOT
BRANCH   1   2
ATOM      2  N   UNL A   1      40.943  28.977  29.008  1.00  0.00    -0.354 N 
ATOM      3  C   UNL A   1      41.814  28.336  28.182  1.00  0.00     0.242 C 
ATOM      4  O   UNL A   1      42.240  28.957  27.206  1.00  0.00    -0.273 OA
ATOM      5  H   UNL A   1      40.832  29.936  28.813  1.00  0.00     0.163 HD
BRANCH   3   6
ATOM      6  C   UNL A   1      42.149  26.855  28.359  1.00  0.00     0.171 C 
BRANCH   6   7
ATOM      7  C   UNL A   1      40.750  26.199  28.340  1.00  0.00     0.038 C 
BRANCH   7   8
ATOM      8  C   UNL A   1      40.457  25.071  27.347  1.00  0.00    -0.015 C 
ATOM      9  C   UNL A   1      38.997  24.633  27.410  1.00  0.00     0.007 C 
ATOM     10  C   UNL A   1      40.766  25.601  25.934  1.00  0.00     0.007 C 
ENDBRANCH   7   8
ENDBRANCH   6   7
BRANCH   6  11
ATOM     11  N   UNL A   1      42.988  26.637  29.540  1.00  0.00    -0.343 N 
ATOM     12  C   UNL A   1      43.751  25.534  29.856  1.00  0.00     0.243 C 
ATOM     13  H   UNL A   1      43.009  27.374  30.192  1.00  0.00     0.164 HD
ATOM     14  O   UNL A   1      44.193  25.455  31.007  1.00  0.00    -0.273 OA
BRANCH  12  15
ATOM     15  C   UNL A   1      44.095  24.440  28.805  1.00  0.00     0.175 C 
BRANCH  15  16
ATOM     16  N   UNL A   1      45.557  24.295  28.693  1.00  0.00    -0.342 N 
ATOM     17  C   UNL A   1      46.394  24.763  27.720  1.00  0.00     0.240 C 
ATOM     18  H   UNL A   1      45.990  23.793  29.420  1.00  0.00     0.164 HD
ATOM     19  O   UNL A   1      47.539  24.317  27.650  1.00  0.00    -0.273 OA
BRANCH  17  20
ATOM     20  C   UNL A   1      45.911  25.863  26.773  1.00  0.00     0.216 C 
BRANCH  20  21
ATOM     21  N   UNL A   1      45.508  27.132  27.338  1.00  0.00    -0.342 N 
ATOM     22  C   UNL A   1      45.963  28.380  26.987  1.00  0.00     0.275 C 
ATOM     23  H   UNL A   1      44.833  27.097  28.053  1.00  0.00     0.164 HD
ATOM     24  O   UNL A   1      45.523  29.346  27.612  1.00  0.00    -0.268 OA
BRANCH  22  25
ATOM     25  C   UNL A   1      46.990  28.534  25.838  1.00  0.00     0.360 C 
BRANCH  25  26
ATOM     26  N   UNL A   1      46.442  29.311  24.723  1.00  0.00    -0.350 N 
ATOM     27  H   UNL A   1      46.257  30.265  25.032  1.00  0.00     0.344 HD
ATOM     28  H   UNL A   1      45.573  28.882  24.404  1.00  0.00     0.344 HD
ATOM     29  H   UNL A   1      47.115  29.326  23.956  1.00  0.00     0.344 HD
ENDBRANCH  25  26
ENDBRANCH  22  25
ENDBRANCH  20  21
ENDBRANCH  17  20
ENDBRANCH  15  16
BRANCH  15  30
ATOM     30  C   UNL A   1      43.519  23.076  29.219  1.00  0.00     0.070 C 
BRANCH  30  31
ATOM     31  C   UNL A   1      42.730  22.443  28.105  1.00  0.00    -0.045 A 
ATOM     32  C   UNL A   1      41.554  21.738  28.382  1.00  0.00     0.004 A 
ATOM     33  C   UNL A   1      43.123  22.632  26.773  1.00  0.00     0.004 A 
ATOM     34  C   UNL A   1      40.763  21.260  27.339  1.00  0.00     0.000 A 
ATOM     35  C   UNL A   1      42.327  22.160  25.732  1.00  0.00     0.000 A 
ATOM     36  C   UNL A   1      41.144  21.480  26.016  1.00  0.00     0.000 A 
ENDBRANCH  30  31
ENDBRANCH  15  30
ENDBRANCH  12  15
ENDBRANCH   6  11
ENDBRANCH   3   6
ENDBRANCH   1   2
BRANCH   1  37
ATOM     37  C   UNL A   1      38.651  28.709  29.909  1.00  0.00     0.021 C 
BRANCH  37  38
ATOM     38  C   UNL A   1      38.157  28.561  28.468  1.00  0.00     0.002 C 
BRANCH  38  39
ATOM     39  C   UNL A   1      37.559  29.802  27.813  1.00  0.00     0.002 C 
BRANCH  39  40
ATOM     40  C   UNL A   1      36.052  29.930  27.957  1.00  0.00     0.021 C 
BRANCH  40  41
ATOM     41  C   UNL A   1      35.524  31.347  27.803  1.00  0.00     0.116 C 
BRANCH  41  42
ATOM     42  N   UNL A   1      34.632  31.772  28.878  1.00  0.00    -0.352 N 
ATOM     43  C   UNL A   1      34.962  32.477  30.013  1.00  0.00     0.251 C 
ATOM     44  H   UNL A   1      33.684  31.525  28.781  1.00  0.00     0.163 HD
ATOM     45  O   UNL A   1      34.121  32.759  30.859  1.00  0.00    -0.269 OA
BRANCH  43  46
ATOM     46  C   UNL A   1      36.380  32.825  30.200  1.00  0.00     0.039 A 
ATOM     47  C   UNL A   1      36.786  34.130  29.926  1.00  0.00     0.014 A 
ATOM     48  C   UNL A   1      37.223  31.923  30.852  1.00  0.00     0.014 A 
ATOM     49  C   UNL A   1      38.025  34.562  30.391  1.00  0.00     0.010 A 
ATOM     50  C   UNL A   1      38.404  32.390  31.409  1.00  0.00     0.010 A 
ATOM     51  C   UNL A   1      38.818  33.712  31.182  1.00  0.00    -0.014 A 
BRANCH  51  52
ATOM     52  C   UNL A   1      40.082  34.198  31.786  1.00  0.00     0.031 A 
ATOM     53  C   UNL A   1      40.158  34.448  33.266  1.00  0.00     0.074 A 
ATOM     54  C   UNL A   1      41.135  34.488  30.993  1.00  0.00     0.049 A 
ATOM     55  N   UNL A   1      41.176  34.849  33.981  1.00  0.00    -0.248 NA
ATOM     56  C   UNL A   1      38.918  34.268  34.041  1.00  0.00     0.031 C 
ATOM     57  C   UNL A   1      41.145  34.406  29.530  1.00  0.00     0.029 A 
ATOM     58  N   UNL A   1      42.399  34.916  31.308  1.00  0.00    -0.354 N 
ATOM     59  C   UNL A   1      40.690  35.008  35.272  1.00  0.00     0.074 A 
ATOM     60  C   UNL A   1      39.275  34.717  35.234  1.00  0.00     0.031 C 
ATOM     61  C   UNL A   1      42.367  34.735  29.079  1.00  0.00     0.029 A 
ATOM     62  C   UNL A   1      43.221  35.064  30.215  1.00  0.00     0.049 A 
ATOM     63  H   UNL A   1      42.691  35.101  32.229  1.00  0.00     0.167 HD
ATOM     64  C   UNL A   1      41.368  35.320  36.401  1.00  0.00     0.034 A 
ATOM     65  C   UNL A   1      44.525  35.399  30.143  1.00  0.00     0.034 A 
ATOM     66  C   UNL A   1      42.788  35.526  36.444  1.00  0.00     0.049 A 
ATOM     67  C   UNL A   1      45.281  35.639  31.421  1.00  0.00     0.074 A 
ATOM     68  C   UNL A   1      43.598  35.712  37.549  1.00  0.00     0.029 A 
ATOM     69  N   UNL A   1      43.610  35.569  35.329  1.00  0.00    -0.354 N 
ATOM     70  N   UNL A   1      44.849  35.584  32.658  1.00  0.00    -0.248 NA
ATOM     71  C   UNL A   1      46.713  35.946  31.297  1.00  0.00     0.031 C 
ATOM     72  C   UNL A   1      44.913  35.881  37.099  1.00  0.00     0.029 A 
ATOM     73  C   UNL A   1      44.919  35.789  35.714  1.00  0.00     0.049 A 
ATOM     74  H   UNL A   1      43.306  35.460  34.399  1.00  0.00     0.167 HD
ATOM     75  C   UNL A   1      45.959  35.821  33.461  1.00  0.00     0.074 A 
ATOM     76  C   UNL A   1      47.088  35.990  32.569  1.00  0.00     0.031 C 
ATOM     77  C   UNL A   1      46.036  35.909  34.813  1.00  0.00     0.034 A 
BRANCH  64  78
ATOM     78  C   UNL A   1      40.582  35.376  37.683  1.00  0.00     0.023 A 
ATOM     79  C   UNL A   1      40.112  36.620  38.156  1.00  0.00     0.012 A 
ATOM     80  C   UNL A   1      40.295  34.207  38.413  1.00  0.00     0.148 A 
ATOM     81  C   UNL A   1      39.409  36.705  39.356  1.00  0.00     0.002 A 
ATOM     82  C   UNL A   1      39.553  34.295  39.586  1.00  0.00     0.091 A 
ATOM     83  F   UNL A   1      40.776  33.038  37.966  1.00  0.00    -0.205 F 
ATOM     84  C   UNL A   1      39.121  35.542  40.065  1.00  0.00     0.022 A 
BRANCH  82  85
ATOM     85  S   UNL A   1      39.070  32.844  40.527  1.00  0.00     0.127 S 
ATOM     86  O   UNL A   1      38.262  32.114  39.551  1.00  0.00    -0.237 OA
ATOM     87  O   UNL A   1      40.361  32.228  40.833  1.00  0.00    -0.237 OA
ATOM     88  O   UNL A   1      38.351  33.347  41.689  1.00  0.00    -0.744 OA
ENDBRANCH  82  85
ENDBRANCH  64  78
BRANCH  65  89
ATOM     89  C   UNL A   1      45.221  35.405  28.824  1.00  0.00     0.023 A 
ATOM     90  C   UNL A   1      45.181  36.572  28.035  1.00  0.00     0.012 A 
ATOM     91  C   UNL A   1      45.952  34.293  28.366  1.00  0.00     0.148 A 
ATOM     92  C   UNL A   1      45.831  36.623  26.802  1.00  0.00     0.002 A 
ATOM     93  C   UNL A   1      46.641  34.367  27.159  1.00  0.00     0.091 A 
ATOM     94  F   UNL A   1      45.971  33.188  29.124  1.00  0.00    -0.205 F 
ATOM     95  C   UNL A   1      46.570  35.525  26.369  1.00  0.00     0.022 A 
BRANCH  93  96
ATOM     96  S   UNL A   1      47.721  33.051  26.586  1.00  0.00     0.127 S 
ATOM     97  O   UNL A   1      46.761  32.029  26.180  1.00  0.00    -0.237 OA
ATOM     98  O   UNL A   1      48.434  33.700  25.484  1.00  0.00    -0.237 OA
ATOM     99  O   UNL A   1      48.565  32.714  27.725  1.00  0.00    -0.744 OA
ENDBRANCH  93  96
ENDBRANCH  65  89
BRANCH  77 100
ATOM    100  C   UNL A   1      47.386  36.198  35.411  1.00  0.00     0.023 A 
ATOM    101  C   UNL A   1      48.242  35.129  35.737  1.00  0.00     0.012 A 
ATOM    102  C   UNL A   1      47.832  37.522  35.584  1.00  0.00     0.148 A 
ATOM    103  C   UNL A   1      49.512  35.373  36.259  1.00  0.00     0.002 A 
ATOM    104  C   UNL A   1      49.117  37.757  36.061  1.00  0.00     0.091 A 
ATOM    105  F   UNL A   1      46.996  38.528  35.289  1.00  0.00    -0.205 F 
ATOM    106  C   UNL A   1      49.953  36.685  36.410  1.00  0.00     0.022 A 
BRANCH 104 107
ATOM    107  S   UNL A   1      49.792  39.417  36.191  1.00  0.00     0.127 S 
ATOM    108  O   UNL A   1      48.930  40.011  37.212  1.00  0.00    -0.237 OA
ATOM    109  O   UNL A   1      51.167  39.166  36.625  1.00  0.00    -0.237 OA
ATOM    110  O   UNL A   1      49.681  39.991  34.857  1.00  0.00    -0.744 OA
ENDBRANCH 104 107
ENDBRANCH  77 100
ENDBRANCH  51  52
ENDBRANCH  43  46
ENDBRANCH  41  42
ENDBRANCH  40  41
ENDBRANCH  39  40
ENDBRANCH  38  39
ENDBRANCH  37  38
ENDBRANCH   1  37
TORSDOF 27
ENDMDL
