MODEL 1
REMARK VINA RESULT:     -12.9      0.000      0.000
REMARK SMILES COc1ccc(-c2cc(Cl)cc3c2O[C@@H](C(F)(F)F)C(C(=O)NCCCCCCNC(=O)c2ccc(-c4c5nc(c(-c6cccc(S(=O)(=O)[O-])c6F)c6ccc([nH]6)c(-c6cccc(S(=O)(=O)[O-])c6F)c6nc(c(-c7cccc(S(=O)(=O)[O-])c7F)c7ccc4[nH]7)C=C6)C=C5)cc2)=C3)cc1C
REMARK SMILES IDX 27 1 26 2 25 3 24 4 23 5 21 6 22 7 20 9 7 10 8 11 13 12 9 13
REMARK SMILES IDX 12 14 14 15 10 16 11 17 96 18 15 19 6 20 3 21 4 22 98 23
REMARK SMILES IDX 5 24 97 25 99 26 2 27 1 28 16 29 17 30 18 31 19 32 28 33
REMARK SMILES IDX 29 34 30 35 31 36 32 38 33 39 34 40 95 41 35 42 94 43 36 44
REMARK SMILES IDX 37 45 38 46 88 47 39 48 93 49 87 50 89 51 40 52 92 53 86 54
REMARK SMILES IDX 85 55 41 57 73 58 53 59 72 60 54 61 57 62 71 63 90 64 55 65
REMARK SMILES IDX 56 66 70 68 91 69 58 70 42 71 43 72 51 73 44 74 46 75 52 76
REMARK SMILES IDX 45 77 47 78 48 79 49 80 50 81 74 82 75 83 83 84 76 85 78 86
REMARK SMILES IDX 84 87 77 88 79 89 80 90 81 91 82 92 59 93 60 94 68 95 61 96
REMARK SMILES IDX 63 97 69 98 62 99 64 100 65 101 66 102 67 103
REMARK H PARENT 23 8 30 37 89 56 57 67
REMARK Flexibility Score: inf
ROOT
ATOM      1  C   UNL A   1      33.171  30.288  27.299  1.00  0.00     0.002 C 
ENDROOT
BRANCH   1   2
ATOM      2  C   UNL A   1      33.444  28.829  26.940  1.00  0.00     0.002 C 
BRANCH   2   3
ATOM      3  C   UNL A   1      34.014  28.488  25.567  1.00  0.00     0.021 C 
BRANCH   3   4
ATOM      4  C   UNL A   1      33.313  27.510  24.628  1.00  0.00     0.116 C 
BRANCH   4   5
ATOM      5  N   UNL A   1      34.016  26.347  24.132  1.00  0.00    -0.352 N 
ATOM      6  C   UNL A   1      33.557  25.190  23.553  1.00  0.00     0.251 C 
ATOM      7  O   UNL A   1      34.375  24.552  22.881  1.00  0.00    -0.270 OA
ATOM      8  H   UNL A   1      34.995  26.394  24.226  1.00  0.00     0.163 HD
BRANCH   6   9
ATOM      9  C   UNL A   1      32.141  24.610  23.740  1.00  0.00     0.067 C 
ATOM     10  C   UNL A   1      34.010  21.722  25.766  1.00  0.00     0.026 A 
ATOM     11  C   UNL A   1      33.614  20.375  25.644  1.00  0.00     0.033 A 
ATOM     12  C   UNL A   1      33.136  22.642  25.194  1.00  0.00     0.135 A 
ATOM     13  C   UNL A   1      32.671  20.002  24.679  1.00  0.00     0.042 A 
ATOM     14  C   UNL A   1      32.444  22.292  24.007  1.00  0.00     0.019 A 
ATOM     15  O   UNL A   1      32.787  23.833  25.876  1.00  0.00    -0.475 OA
ATOM     16  Cl  UNL A   1      32.270  18.340  24.486  1.00  0.00    -0.084 Cl
ATOM     17  C   UNL A   1      32.163  20.949  23.786  1.00  0.00     0.032 A 
ATOM     18  C   UNL A   1      31.988  23.414  23.108  1.00  0.00     0.025 C 
ATOM     19  C   UNL A   1      31.655  24.437  25.167  1.00  0.00     0.314 C 
BRANCH  10  20
ATOM     20  C   UNL A   1      35.483  21.921  25.592  1.00  0.00    -0.014 A 
ATOM     21  C   UNL A   1      38.323  21.941  25.565  1.00  0.00     0.121 A 
ATOM     22  C   UNL A   1      37.581  23.076  25.937  1.00  0.00     0.047 A 
ATOM     23  C   UNL A   1      37.656  20.777  25.182  1.00  0.00    -0.008 A 
ATOM     24  C   UNL A   1      36.174  23.072  25.952  1.00  0.00     0.013 A 
ATOM     25  C   UNL A   1      36.251  20.805  25.159  1.00  0.00     0.016 A 
ATOM     26  C   UNL A   1      38.342  19.480  24.855  1.00  0.00     0.048 C 
BRANCH  21  27
ATOM     27  O   UNL A   1      39.677  22.044  25.747  1.00  0.00    -0.496 OA
ATOM     28  C   UNL A   1      40.130  21.809  27.076  1.00  0.00     0.278 C 
ENDBRANCH  21  27
ENDBRANCH  10  20
BRANCH  19  29
ATOM     29  C   UNL A   1      30.795  25.590  25.719  1.00  0.00     0.429 C 
ATOM     30  F   UNL A   1      30.601  26.523  24.743  1.00  0.00    -0.167 F 
ATOM     31  F   UNL A   1      29.573  25.187  26.120  1.00  0.00    -0.167 F 
ATOM     32  F   UNL A   1      31.382  26.260  26.738  1.00  0.00    -0.167 F 
ENDBRANCH  19  29
ENDBRANCH   6   9
ENDBRANCH   4   5
ENDBRANCH   3   4
ENDBRANCH   2   3
ENDBRANCH   1   2
BRANCH   1  33
ATOM     33  C   UNL A   1      34.221  31.023  28.128  1.00  0.00     0.021 C 
BRANCH  33  34
ATOM     34  C   UNL A   1      34.495  32.469  27.726  1.00  0.00     0.116 C 
BRANCH  34  35
ATOM     35  N   UNL A   1      33.732  33.428  28.513  1.00  0.00    -0.352 N 
ATOM     36  C   UNL A   1      34.064  34.049  29.710  1.00  0.00     0.251 C 
ATOM     37  H   UNL A   1      32.853  33.673  28.142  1.00  0.00     0.163 HD
ATOM     38  O   UNL A   1      33.265  34.786  30.252  1.00  0.00    -0.269 OA
BRANCH  36  39
ATOM     39  C   UNL A   1      35.428  33.849  30.256  1.00  0.00     0.039 A 
ATOM     40  C   UNL A   1      36.512  34.406  29.568  1.00  0.00     0.014 A 
ATOM     41  C   UNL A   1      35.640  32.984  31.327  1.00  0.00     0.014 A 
ATOM     42  C   UNL A   1      37.799  33.926  29.809  1.00  0.00     0.010 A 
ATOM     43  C   UNL A   1      36.902  32.456  31.521  1.00  0.00     0.010 A 
ATOM     44  C   UNL A   1      37.969  32.877  30.716  1.00  0.00    -0.014 A 
BRANCH  44  45
ATOM     45  C   UNL A   1      39.167  32.047  30.779  1.00  0.00     0.031 A 
ATOM     46  C   UNL A   1      39.270  30.761  30.061  1.00  0.00     0.074 A 
ATOM     47  C   UNL A   1      40.256  32.541  31.408  1.00  0.00     0.049 A 
ATOM     48  N   UNL A   1      40.127  29.839  30.354  1.00  0.00    -0.248 NA
ATOM     49  C   UNL A   1      38.383  30.404  28.964  1.00  0.00     0.031 C 
ATOM     50  C   UNL A   1      41.634  32.088  31.264  1.00  0.00     0.029 A 
ATOM     51  N   UNL A   1      40.293  33.421  32.495  1.00  0.00    -0.354 N 
ATOM     52  C   UNL A   1      40.083  28.891  29.353  1.00  0.00     0.074 A 
ATOM     53  C   UNL A   1      38.939  29.261  28.548  1.00  0.00     0.031 C 
ATOM     54  C   UNL A   1      42.317  32.444  32.360  1.00  0.00     0.029 A 
ATOM     55  C   UNL A   1      41.364  33.003  33.302  1.00  0.00     0.049 A 
ATOM     56  H   UNL A   1      39.690  34.182  32.661  1.00  0.00     0.167 HD
ATOM     57  C   UNL A   1      41.097  27.985  29.236  1.00  0.00     0.034 A 
ATOM     58  C   UNL A   1      41.255  32.668  34.618  1.00  0.00     0.034 A 
ATOM     59  C   UNL A   1      42.096  28.153  30.296  1.00  0.00     0.049 A 
ATOM     60  C   UNL A   1      41.792  31.289  34.943  1.00  0.00     0.074 A 
ATOM     61  C   UNL A   1      43.314  28.813  30.346  1.00  0.00     0.029 A 
ATOM     62  N   UNL A   1      41.790  27.795  31.601  1.00  0.00    -0.354 N 
ATOM     63  N   UNL A   1      42.203  30.431  34.052  1.00  0.00    -0.248 NA
ATOM     64  C   UNL A   1      41.861  30.750  36.299  1.00  0.00     0.031 C 
ATOM     65  C   UNL A   1      43.712  28.903  31.704  1.00  0.00     0.029 A 
ATOM     66  C   UNL A   1      42.745  28.284  32.478  1.00  0.00     0.049 A 
ATOM     67  H   UNL A   1      41.003  27.267  31.867  1.00  0.00     0.167 HD
ATOM     68  C   UNL A   1      42.420  29.214  34.649  1.00  0.00     0.074 A 
ATOM     69  C   UNL A   1      42.293  29.497  36.068  1.00  0.00     0.031 C 
ATOM     70  C   UNL A   1      42.602  28.072  33.915  1.00  0.00     0.034 A 
BRANCH  57  71
ATOM     71  C   UNL A   1      41.372  27.159  27.987  1.00  0.00     0.023 A 
ATOM     72  C   UNL A   1      40.325  26.347  27.492  1.00  0.00     0.012 A 
ATOM     73  C   UNL A   1      42.601  27.057  27.304  1.00  0.00     0.148 A 
ATOM     74  C   UNL A   1      40.518  25.396  26.483  1.00  0.00     0.002 A 
ATOM     75  C   UNL A   1      42.825  26.048  26.362  1.00  0.00     0.091 A 
ATOM     76  F   UNL A   1      43.538  27.996  27.482  1.00  0.00    -0.205 F 
ATOM     77  C   UNL A   1      41.784  25.210  25.953  1.00  0.00     0.022 A 
BRANCH  75  78
ATOM     78  S   UNL A   1      44.471  25.679  25.728  1.00  0.00     0.127 S 
ATOM     79  O   UNL A   1      44.827  26.927  25.045  1.00  0.00    -0.237 OA
ATOM     80  O   UNL A   1      45.230  25.417  26.947  1.00  0.00    -0.237 OA
ATOM     81  O   UNL A   1      44.302  24.545  24.828  1.00  0.00    -0.744 OA
ENDBRANCH  75  78
ENDBRANCH  57  71
BRANCH  58  82
ATOM     82  C   UNL A   1      40.143  33.350  35.335  1.00  0.00     0.023 A 
ATOM     83  C   UNL A   1      38.875  32.726  35.295  1.00  0.00     0.012 A 
ATOM     84  C   UNL A   1      40.382  34.342  36.302  1.00  0.00     0.148 A 
ATOM     85  C   UNL A   1      37.903  33.010  36.255  1.00  0.00     0.002 A 
ATOM     86  C   UNL A   1      39.411  34.612  37.264  1.00  0.00     0.091 A 
ATOM     87  F   UNL A   1      41.576  34.949  36.316  1.00  0.00    -0.205 F 
ATOM     88  C   UNL A   1      38.183  33.930  37.258  1.00  0.00     0.022 A 
BRANCH  86  89
ATOM     89  S   UNL A   1      39.738  35.720  38.642  1.00  0.00     0.127 S 
ATOM     90  O   UNL A   1      41.026  35.225  39.116  1.00  0.00    -0.237 OA
ATOM     91  O   UNL A   1      39.781  37.027  37.988  1.00  0.00    -0.237 OA
ATOM     92  O   UNL A   1      38.603  35.541  39.534  1.00  0.00    -0.744 OA
ENDBRANCH  86  89
ENDBRANCH  58  82
BRANCH  70  93
ATOM     93  C   UNL A   1      42.629  26.652  34.458  1.00  0.00     0.023 A 
ATOM     94  C   UNL A   1      41.576  26.114  35.223  1.00  0.00     0.012 A 
ATOM     95  C   UNL A   1      43.665  25.751  34.090  1.00  0.00     0.148 A 
ATOM     96  C   UNL A   1      41.570  24.779  35.648  1.00  0.00     0.002 A 
ATOM     97  C   UNL A   1      43.602  24.400  34.427  1.00  0.00     0.091 A 
ATOM     98  F   UNL A   1      44.737  26.201  33.422  1.00  0.00    -0.205 F 
ATOM     99  C   UNL A   1      42.571  23.914  35.231  1.00  0.00     0.022 A 
BRANCH  97 100
ATOM    100  S   UNL A   1      44.760  23.224  33.708  1.00  0.00     0.127 S 
ATOM    101  O   UNL A   1      46.048  23.747  34.156  1.00  0.00    -0.237 OA
ATOM    102  O   UNL A   1      44.368  21.960  34.336  1.00  0.00    -0.237 OA
ATOM    103  O   UNL A   1      44.497  23.283  32.277  1.00  0.00    -0.744 OA
ENDBRANCH  97 100
ENDBRANCH  70  93
ENDBRANCH  44  45
ENDBRANCH  36  39
ENDBRANCH  34  35
ENDBRANCH  33  34
ENDBRANCH   1  33
TORSDOF 19
ENDMDL
MODEL 2
REMARK VINA RESULT:     -12.8      2.473      3.338
REMARK SMILES COc1ccc(-c2cc(Cl)cc3c2O[C@@H](C(F)(F)F)C(C(=O)NCCCCCCNC(=O)c2ccc(-c4c5nc(c(-c6cccc(S(=O)(=O)[O-])c6F)c6ccc([nH]6)c(-c6cccc(S(=O)(=O)[O-])c6F)c6nc(c(-c7cccc(S(=O)(=O)[O-])c7F)c7ccc4[nH]7)C=C6)C=C5)cc2)=C3)cc1C
REMARK SMILES IDX 27 1 26 2 25 3 24 4 23 5 21 6 22 7 20 9 7 10 8 11 13 12 9 13
REMARK SMILES IDX 12 14 14 15 10 16 11 17 96 18 15 19 6 20 3 21 4 22 98 23
REMARK SMILES IDX 5 24 97 25 99 26 2 27 1 28 16 29 17 30 18 31 19 32 28 33
REMARK SMILES IDX 29 34 30 35 31 36 32 38 33 39 34 40 95 41 35 42 94 43 36 44
REMARK SMILES IDX 37 45 38 46 88 47 39 48 93 49 87 50 89 51 40 52 92 53 86 54
REMARK SMILES IDX 85 55 41 57 73 58 53 59 72 60 54 61 57 62 71 63 90 64 55 65
REMARK SMILES IDX 56 66 70 68 91 69 58 70 42 71 43 72 51 73 44 74 46 75 52 76
REMARK SMILES IDX 45 77 47 78 48 79 49 80 50 81 74 82 75 83 83 84 76 85 78 86
REMARK SMILES IDX 84 87 77 88 79 89 80 90 81 91 82 92 59 93 60 94 68 95 61 96
REMARK SMILES IDX 63 97 69 98 62 99 64 100 65 101 66 102 67 103
REMARK H PARENT 23 8 30 37 89 56 57 67
REMARK Flexibility Score: inf
ROOT
ATOM      1  C   UNL A   1      31.518  29.544  26.402  1.00  0.00     0.002 C 
ENDROOT
BRANCH   1   2
ATOM      2  C   UNL A   1      31.840  29.665  24.914  1.00  0.00     0.002 C 
BRANCH   2   3
ATOM      3  C   UNL A   1      32.755  28.636  24.259  1.00  0.00     0.021 C 
BRANCH   3   4
ATOM      4  C   UNL A   1      33.301  27.439  25.034  1.00  0.00     0.116 C 
BRANCH   4   5
ATOM      5  N   UNL A   1      33.999  26.380  24.339  1.00  0.00    -0.352 N 
ATOM      6  C   UNL A   1      33.537  25.353  23.554  1.00  0.00     0.251 C 
ATOM      7  O   UNL A   1      34.355  24.842  22.782  1.00  0.00    -0.270 OA
ATOM      8  H   UNL A   1      34.978  26.400  24.446  1.00  0.00     0.163 HD
BRANCH   6   9
ATOM      9  C   UNL A   1      32.115  24.762  23.622  1.00  0.00     0.067 C 
ATOM     10  C   UNL A   1      33.901  21.675  25.415  1.00  0.00     0.026 A 
ATOM     11  C   UNL A   1      33.512  20.349  25.140  1.00  0.00     0.033 A 
ATOM     12  C   UNL A   1      33.050  22.651  24.905  1.00  0.00     0.135 A 
ATOM     13  C   UNL A   1      32.610  20.080  24.103  1.00  0.00     0.042 A 
ATOM     14  C   UNL A   1      32.409  22.427  23.662  1.00  0.00     0.019 A 
ATOM     15  O   UNL A   1      32.673  23.767  25.691  1.00  0.00    -0.475 OA
ATOM     16  Cl  UNL A   1      32.219  18.448  23.724  1.00  0.00    -0.084 Cl
ATOM     17  C   UNL A   1      32.138  21.115  23.292  1.00  0.00     0.032 A 
ATOM     18  C   UNL A   1      31.989  23.637  22.865  1.00  0.00     0.025 C 
ATOM     19  C   UNL A   1      31.570  24.444  25.002  1.00  0.00     0.314 C 
BRANCH  10  20
ATOM     20  C   UNL A   1      35.380  21.885  25.324  1.00  0.00    -0.014 A 
ATOM     21  C   UNL A   1      38.214  21.959  25.487  1.00  0.00     0.121 A 
ATOM     22  C   UNL A   1      37.434  23.109  25.700  1.00  0.00     0.047 A 
ATOM     23  C   UNL A   1      37.591  20.751  25.171  1.00  0.00    -0.008 A 
ATOM     24  C   UNL A   1      36.029  23.078  25.621  1.00  0.00     0.013 A 
ATOM     25  C   UNL A   1      36.191  20.750  25.050  1.00  0.00     0.016 A 
ATOM     26  C   UNL A   1      38.315  19.444  25.014  1.00  0.00     0.048 C 
BRANCH  21  27
ATOM     27  O   UNL A   1      39.551  22.105  25.750  1.00  0.00    -0.496 OA
ATOM     28  C   UNL A   1      39.959  21.712  27.057  1.00  0.00     0.278 C 
ENDBRANCH  21  27
ENDBRANCH  10  20
BRANCH  19  29
ATOM     29  C   UNL A   1      30.687  25.538  25.633  1.00  0.00     0.429 C 
ATOM     30  F   UNL A   1      31.380  26.171  26.623  1.00  0.00    -0.167 F 
ATOM     31  F   UNL A   1      30.316  26.487  24.751  1.00  0.00    -0.167 F 
ATOM     32  F   UNL A   1      29.576  25.052  26.233  1.00  0.00    -0.167 F 
ENDBRANCH  19  29
ENDBRANCH   6   9
ENDBRANCH   4   5
ENDBRANCH   3   4
ENDBRANCH   2   3
ENDBRANCH   1   2
BRANCH   1  33
ATOM     33  C   UNL A   1      32.667  29.706  27.393  1.00  0.00     0.021 C 
BRANCH  33  34
ATOM     34  C   UNL A   1      33.757  30.695  26.994  1.00  0.00     0.116 C 
BRANCH  34  35
ATOM     35  N   UNL A   1      34.130  31.594  28.078  1.00  0.00    -0.352 N 
ATOM     36  C   UNL A   1      35.170  31.490  28.991  1.00  0.00     0.251 C 
ATOM     37  H   UNL A   1      33.561  32.392  28.178  1.00  0.00     0.163 HD
ATOM     38  O   UNL A   1      35.290  32.318  29.871  1.00  0.00    -0.269 OA
BRANCH  36  39
ATOM     39  C   UNL A   1      36.159  30.398  28.816  1.00  0.00     0.039 A 
ATOM     40  C   UNL A   1      36.384  29.522  29.884  1.00  0.00     0.014 A 
ATOM     41  C   UNL A   1      36.968  30.353  27.683  1.00  0.00     0.014 A 
ATOM     42  C   UNL A   1      37.550  28.756  29.910  1.00  0.00     0.010 A 
ATOM     43  C   UNL A   1      38.157  29.650  27.736  1.00  0.00     0.010 A 
ATOM     44  C   UNL A   1      38.479  28.905  28.878  1.00  0.00    -0.014 A 
BRANCH  44  45
ATOM     45  C   UNL A   1      39.867  28.468  28.969  1.00  0.00     0.031 A 
ATOM     46  C   UNL A   1      40.300  27.126  28.528  1.00  0.00     0.074 A 
ATOM     47  C   UNL A   1      40.800  29.371  29.346  1.00  0.00     0.049 A 
ATOM     48  N   UNL A   1      41.402  26.565  28.902  1.00  0.00    -0.248 NA
ATOM     49  C   UNL A   1      39.494  26.297  27.645  1.00  0.00     0.031 C 
ATOM     50  C   UNL A   1      42.240  29.286  29.135  1.00  0.00     0.029 A 
ATOM     51  N   UNL A   1      40.641  30.458  30.212  1.00  0.00    -0.354 N 
ATOM     52  C   UNL A   1      41.578  25.434  28.135  1.00  0.00     0.074 A 
ATOM     53  C   UNL A   1      40.333  25.282  27.413  1.00  0.00     0.031 C 
ATOM     54  C   UNL A   1      42.851  30.060  30.042  1.00  0.00     0.029 A 
ATOM     55  C   UNL A   1      41.830  30.545  30.954  1.00  0.00     0.049 A 
ATOM     56  H   UNL A   1      39.853  31.044  30.286  1.00  0.00     0.167 HD
ATOM     57  C   UNL A   1      42.803  24.833  28.088  1.00  0.00     0.034 A 
ATOM     58  C   UNL A   1      41.897  30.512  32.314  1.00  0.00     0.034 A 
ATOM     59  C   UNL A   1      43.769  25.508  28.962  1.00  0.00     0.049 A 
ATOM     60  C   UNL A   1      42.828  29.445  32.853  1.00  0.00     0.074 A 
ATOM     61  C   UNL A   1      44.744  26.465  28.726  1.00  0.00     0.029 A 
ATOM     62  N   UNL A   1      43.653  25.398  30.340  1.00  0.00    -0.354 N 
ATOM     63  N   UNL A   1      43.420  28.546  32.118  1.00  0.00    -0.248 NA
ATOM     64  C   UNL A   1      43.126  29.278  34.273  1.00  0.00     0.031 C 
ATOM     65  C   UNL A   1      45.173  26.975  29.977  1.00  0.00     0.029 A 
ATOM     66  C   UNL A   1      44.473  26.318  30.974  1.00  0.00     0.049 A 
ATOM     67  H   UNL A   1      43.069  24.754  30.803  1.00  0.00     0.167 HD
ATOM     68  C   UNL A   1      44.013  27.608  32.926  1.00  0.00     0.074 A 
ATOM     69  C   UNL A   1      43.889  28.170  34.259  1.00  0.00     0.031 C 
ATOM     70  C   UNL A   1      44.477  26.418  32.430  1.00  0.00     0.034 A 
BRANCH  57  71
ATOM     71  C   UNL A   1      43.236  23.843  27.015  1.00  0.00     0.023 A 
ATOM     72  C   UNL A   1      43.607  24.363  25.754  1.00  0.00     0.012 A 
ATOM     73  C   UNL A   1      43.235  22.437  27.123  1.00  0.00     0.148 A 
ATOM     74  C   UNL A   1      43.824  23.548  24.636  1.00  0.00     0.002 A 
ATOM     75  C   UNL A   1      43.359  21.624  25.992  1.00  0.00     0.091 A 
ATOM     76  F   UNL A   1      43.215  21.866  28.333  1.00  0.00    -0.205 F 
ATOM     77  C   UNL A   1      43.648  22.179  24.743  1.00  0.00     0.022 A 
BRANCH  75  78
ATOM     78  S   UNL A   1      43.023  19.855  26.046  1.00  0.00     0.127 S 
ATOM     79  O   UNL A   1      41.968  19.709  25.039  1.00  0.00    -0.237 OA
ATOM     80  O   UNL A   1      44.308  19.275  25.667  1.00  0.00    -0.237 OA
ATOM     81  O   UNL A   1      42.578  19.579  27.407  1.00  0.00    -0.744 OA
ENDBRANCH  75  78
ENDBRANCH  57  71
BRANCH  58  82
ATOM     82  C   UNL A   1      40.677  31.016  33.002  1.00  0.00     0.023 A 
ATOM     83  C   UNL A   1      39.803  30.050  33.552  1.00  0.00     0.012 A 
ATOM     84  C   UNL A   1      40.560  32.354  33.418  1.00  0.00     0.148 A 
ATOM     85  C   UNL A   1      38.904  30.387  34.564  1.00  0.00     0.002 A 
ATOM     86  C   UNL A   1      39.668  32.681  34.437  1.00  0.00     0.091 A 
ATOM     87  F   UNL A   1      41.371  33.268  32.871  1.00  0.00    -0.205 F 
ATOM     88  C   UNL A   1      38.859  31.696  35.027  1.00  0.00     0.022 A 
BRANCH  86  89
ATOM     89  S   UNL A   1      39.620  34.331  35.150  1.00  0.00     0.127 S 
ATOM     90  O   UNL A   1      41.028  34.554  35.466  1.00  0.00    -0.237 OA
ATOM     91  O   UNL A   1      39.101  35.134  34.043  1.00  0.00    -0.237 OA
ATOM     92  O   UNL A   1      38.710  34.217  36.278  1.00  0.00    -0.744 OA
ENDBRANCH  86  89
ENDBRANCH  58  82
BRANCH  70  93
ATOM     93  C   UNL A   1      44.945  25.227  33.250  1.00  0.00     0.023 A 
ATOM     94  C   UNL A   1      44.159  24.071  33.424  1.00  0.00     0.012 A 
ATOM     95  C   UNL A   1      46.270  25.170  33.763  1.00  0.00     0.148 A 
ATOM     96  C   UNL A   1      44.631  22.944  34.109  1.00  0.00     0.002 A 
ATOM     97  C   UNL A   1      46.769  24.009  34.352  1.00  0.00     0.091 A 
ATOM     98  F   UNL A   1      47.058  26.252  33.700  1.00  0.00    -0.205 F 
ATOM     99  C   UNL A   1      45.944  22.903  34.554  1.00  0.00     0.022 A 
BRANCH  97 100
ATOM    100  S   UNL A   1      48.523  23.855  34.725  1.00  0.00     0.127 S 
ATOM    101  O   UNL A   1      48.653  22.431  35.020  1.00  0.00    -0.237 OA
ATOM    102  O   UNL A   1      49.157  24.274  33.472  1.00  0.00    -0.237 OA
ATOM    103  O   UNL A   1      48.740  24.773  35.835  1.00  0.00    -0.744 OA
ENDBRANCH  97 100
ENDBRANCH  70  93
ENDBRANCH  44  45
ENDBRANCH  36  39
ENDBRANCH  34  35
ENDBRANCH  33  34
ENDBRANCH   1  33
TORSDOF 19
ENDMDL
MODEL 3
REMARK VINA RESULT:     -12.2      2.512      3.475
REMARK SMILES COc1ccc(-c2cc(Cl)cc3c2O[C@@H](C(F)(F)F)C(C(=O)NCCCCCCNC(=O)c2ccc(-c4c5nc(c(-c6cccc(S(=O)(=O)[O-])c6F)c6ccc([nH]6)c(-c6cccc(S(=O)(=O)[O-])c6F)c6nc(c(-c7cccc(S(=O)(=O)[O-])c7F)c7ccc4[nH]7)C=C6)C=C5)cc2)=C3)cc1C
REMARK SMILES IDX 27 1 26 2 25 3 24 4 23 5 21 6 22 7 20 9 7 10 8 11 13 12 9 13
REMARK SMILES IDX 12 14 14 15 10 16 11 17 96 18 15 19 6 20 3 21 4 22 98 23
REMARK SMILES IDX 5 24 97 25 99 26 2 27 1 28 16 29 17 30 18 31 19 32 28 33
REMARK SMILES IDX 29 34 30 35 31 36 32 38 33 39 34 40 95 41 35 42 94 43 36 44
REMARK SMILES IDX 37 45 38 46 88 47 39 48 93 49 87 50 89 51 40 52 92 53 86 54
REMARK SMILES IDX 85 55 41 57 73 58 53 59 72 60 54 61 57 62 71 63 90 64 55 65
REMARK SMILES IDX 56 66 70 68 91 69 58 70 42 71 43 72 51 73 44 74 46 75 52 76
REMARK SMILES IDX 45 77 47 78 48 79 49 80 50 81 74 82 75 83 83 84 76 85 78 86
REMARK SMILES IDX 84 87 77 88 79 89 80 90 81 91 82 92 59 93 60 94 68 95 61 96
REMARK SMILES IDX 63 97 69 98 62 99 64 100 65 101 66 102 67 103
REMARK H PARENT 23 8 30 37 89 56 57 67
REMARK Flexibility Score: inf
ROOT
ATOM      1  C   UNL A   1      31.800  29.901  26.356  1.00  0.00     0.002 C 
ENDROOT
BRANCH   1   2
ATOM      2  C   UNL A   1      32.385  29.740  24.954  1.00  0.00     0.002 C 
BRANCH   2   3
ATOM      3  C   UNL A   1      33.467  28.694  24.709  1.00  0.00     0.021 C 
BRANCH   3   4
ATOM      4  C   UNL A   1      33.294  27.242  25.147  1.00  0.00     0.116 C 
BRANCH   4   5
ATOM      5  N   UNL A   1      34.025  26.189  24.478  1.00  0.00    -0.352 N 
ATOM      6  C   UNL A   1      33.613  25.216  23.601  1.00  0.00     0.251 C 
ATOM      7  O   UNL A   1      34.491  24.708  22.894  1.00  0.00    -0.270 OA
ATOM      8  H   UNL A   1      34.987  26.166  24.686  1.00  0.00     0.163 HD
BRANCH   6   9
ATOM      9  C   UNL A   1      32.173  24.677  23.494  1.00  0.00     0.067 C 
ATOM     10  C   UNL A   1      33.698  21.372  25.133  1.00  0.00     0.026 A 
ATOM     11  C   UNL A   1      33.294  20.092  24.702  1.00  0.00     0.033 A 
ATOM     12  C   UNL A   1      32.927  22.423  24.647  1.00  0.00     0.135 A 
ATOM     13  C   UNL A   1      32.477  19.955  23.572  1.00  0.00     0.042 A 
ATOM     14  C   UNL A   1      32.389  22.339  23.338  1.00  0.00     0.019 A 
ATOM     15  O   UNL A   1      32.517  23.477  25.500  1.00  0.00    -0.475 OA
ATOM     16  Cl  UNL A   1      32.070  18.381  23.010  1.00  0.00    -0.084 Cl
ATOM     17  C   UNL A   1      32.111  21.077  22.825  1.00  0.00     0.032 A 
ATOM     18  C   UNL A   1      32.078  23.632  22.626  1.00  0.00     0.025 C 
ATOM     19  C   UNL A   1      31.501  24.257  24.788  1.00  0.00     0.314 C 
BRANCH  10  20
ATOM     20  C   UNL A   1      35.185  21.531  25.185  1.00  0.00    -0.014 A 
ATOM     21  C   UNL A   1      37.996  21.479  25.591  1.00  0.00     0.121 A 
ATOM     22  C   UNL A   1      37.236  22.634  25.846  1.00  0.00     0.047 A 
ATOM     23  C   UNL A   1      37.365  20.330  25.111  1.00  0.00    -0.008 A 
ATOM     24  C   UNL A   1      35.843  22.666  25.647  1.00  0.00     0.013 A 
ATOM     25  C   UNL A   1      35.981  20.395  24.874  1.00  0.00     0.016 A 
ATOM     26  C   UNL A   1      38.059  19.015  24.893  1.00  0.00     0.048 C 
BRANCH  21  27
ATOM     27  O   UNL A   1      39.309  21.547  25.978  1.00  0.00    -0.496 OA
ATOM     28  C   UNL A   1      39.901  22.840  25.891  1.00  0.00     0.278 C 
ENDBRANCH  21  27
ENDBRANCH  10  20
BRANCH  19  29
ATOM     29  C   UNL A   1      30.601  25.322  25.443  1.00  0.00     0.429 C 
ATOM     30  F   UNL A   1      30.247  26.256  24.514  1.00  0.00    -0.167 F 
ATOM     31  F   UNL A   1      29.454  24.810  25.934  1.00  0.00    -0.167 F 
ATOM     32  F   UNL A   1      31.217  26.016  26.427  1.00  0.00    -0.167 F 
ENDBRANCH  19  29
ENDBRANCH   6   9
ENDBRANCH   4   5
ENDBRANCH   3   4
ENDBRANCH   2   3
ENDBRANCH   1   2
BRANCH   1  33
ATOM     33  C   UNL A   1      32.772  30.135  27.508  1.00  0.00     0.021 C 
BRANCH  33  34
ATOM     34  C   UNL A   1      33.875  31.157  27.253  1.00  0.00     0.116 C 
BRANCH  34  35
ATOM     35  N   UNL A   1      34.224  31.921  28.443  1.00  0.00    -0.352 N 
ATOM     36  C   UNL A   1      35.217  31.684  29.383  1.00  0.00     0.251 C 
ATOM     37  H   UNL A   1      33.675  32.723  28.604  1.00  0.00     0.163 HD
ATOM     38  O   UNL A   1      35.321  32.410  30.351  1.00  0.00    -0.269 OA
BRANCH  36  39
ATOM     39  C   UNL A   1      36.180  30.584  29.133  1.00  0.00     0.039 A 
ATOM     40  C   UNL A   1      36.535  29.750  30.200  1.00  0.00     0.014 A 
ATOM     41  C   UNL A   1      36.846  30.493  27.913  1.00  0.00     0.014 A 
ATOM     42  C   UNL A   1      37.697  28.983  30.115  1.00  0.00     0.010 A 
ATOM     43  C   UNL A   1      38.034  29.789  27.850  1.00  0.00     0.010 A 
ATOM     44  C   UNL A   1      38.494  29.089  28.974  1.00  0.00    -0.014 A 
BRANCH  44  45
ATOM     45  C   UNL A   1      39.884  28.653  28.914  1.00  0.00     0.031 A 
ATOM     46  C   UNL A   1      40.256  27.239  28.697  1.00  0.00     0.074 A 
ATOM     47  C   UNL A   1      40.853  29.595  28.926  1.00  0.00     0.049 A 
ATOM     48  N   UNL A   1      41.415  26.747  28.985  1.00  0.00    -0.248 NA
ATOM     49  C   UNL A   1      39.324  26.260  28.161  1.00  0.00     0.031 C 
ATOM     50  C   UNL A   1      42.236  29.438  28.492  1.00  0.00     0.029 A 
ATOM     51  N   UNL A   1      40.828  30.843  29.558  1.00  0.00    -0.354 N 
ATOM     52  C   UNL A   1      41.475  25.476  28.454  1.00  0.00     0.074 A 
ATOM     53  C   UNL A   1      40.127  25.202  28.007  1.00  0.00     0.031 C 
ATOM     54  C   UNL A   1      42.981  30.373  29.097  1.00  0.00     0.029 A 
ATOM     55  C   UNL A   1      42.126  31.060  30.048  1.00  0.00     0.049 A 
ATOM     56  H   UNL A   1      40.056  31.448  29.642  1.00  0.00     0.167 HD
ATOM     57  C   UNL A   1      42.683  24.855  28.324  1.00  0.00     0.034 A 
ATOM     58  C   UNL A   1      42.427  31.312  31.353  1.00  0.00     0.034 A 
ATOM     59  C   UNL A   1      43.774  25.678  28.857  1.00  0.00     0.049 A 
ATOM     60  C   UNL A   1      43.455  30.363  31.935  1.00  0.00     0.074 A 
ATOM     61  C   UNL A   1      44.678  26.544  28.260  1.00  0.00     0.029 A 
ATOM     62  N   UNL A   1      43.900  25.862  30.226  1.00  0.00    -0.354 N 
ATOM     63  N   UNL A   1      43.926  29.317  31.315  1.00  0.00    -0.248 NA
ATOM     64  C   UNL A   1      43.997  30.491  33.285  1.00  0.00     0.031 C 
ATOM     65  C   UNL A   1      45.309  27.296  29.283  1.00  0.00     0.029 A 
ATOM     66  C   UNL A   1      44.802  26.878  30.501  1.00  0.00     0.049 A 
ATOM     67  H   UNL A   1      43.415  25.342  30.908  1.00  0.00     0.167 HD
ATOM     68  C   UNL A   1      44.666  28.558  32.187  1.00  0.00     0.074 A 
ATOM     69  C   UNL A   1      44.765  29.390  33.374  1.00  0.00     0.031 C 
ATOM     70  C   UNL A   1      45.056  27.281  31.880  1.00  0.00     0.034 A 
BRANCH  57  71
ATOM     71  C   UNL A   1      42.941  23.653  27.426  1.00  0.00     0.023 A 
ATOM     72  C   UNL A   1      42.549  22.380  27.903  1.00  0.00     0.012 A 
ATOM     73  C   UNL A   1      43.606  23.663  26.182  1.00  0.00     0.148 A 
ATOM     74  C   UNL A   1      42.914  21.189  27.265  1.00  0.00     0.002 A 
ATOM     75  C   UNL A   1      44.053  22.477  25.591  1.00  0.00     0.091 A 
ATOM     76  F   UNL A   1      43.727  24.811  25.506  1.00  0.00    -0.205 F 
ATOM     77  C   UNL A   1      43.713  21.236  26.134  1.00  0.00     0.022 A 
BRANCH  75  78
ATOM     78  S   UNL A   1      45.191  22.476  24.194  1.00  0.00     0.127 S 
ATOM     79  O   UNL A   1      44.284  22.298  23.056  1.00  0.00    -0.237 OA
ATOM     80  O   UNL A   1      45.803  23.799  24.280  1.00  0.00    -0.237 OA
ATOM     81  O   UNL A   1      46.086  21.347  24.415  1.00  0.00    -0.744 OA
ENDBRANCH  75  78
ENDBRANCH  57  71
BRANCH  58  82
ATOM     82  C   UNL A   1      41.337  31.974  32.119  1.00  0.00     0.023 A 
ATOM     83  C   UNL A   1      40.891  33.230  31.647  1.00  0.00     0.012 A 
ATOM     84  C   UNL A   1      40.531  31.264  33.026  1.00  0.00     0.148 A 
ATOM     85  C   UNL A   1      39.631  33.721  31.990  1.00  0.00     0.002 A 
ATOM     86  C   UNL A   1      39.270  31.756  33.355  1.00  0.00     0.091 A 
ATOM     87  F   UNL A   1      40.973  30.088  33.491  1.00  0.00    -0.205 F 
ATOM     88  C   UNL A   1      38.809  32.969  32.820  1.00  0.00     0.022 A 
BRANCH  86  89
ATOM     89  S   UNL A   1      38.118  30.795  34.346  1.00  0.00     0.127 S 
ATOM     90  O   UNL A   1      37.348  30.106  33.315  1.00  0.00    -0.237 OA
ATOM     91  O   UNL A   1      39.013  29.939  35.124  1.00  0.00    -0.237 OA
ATOM     92  O   UNL A   1      37.404  31.783  35.140  1.00  0.00    -0.744 OA
ENDBRANCH  86  89
ENDBRANCH  58  82
BRANCH  70  93
ATOM     93  C   UNL A   1      45.679  26.279  32.840  1.00  0.00     0.023 A 
ATOM     94  C   UNL A   1      47.071  26.184  33.038  1.00  0.00     0.012 A 
ATOM     95  C   UNL A   1      44.866  25.486  33.693  1.00  0.00     0.148 A 
ATOM     96  C   UNL A   1      47.631  25.318  33.985  1.00  0.00     0.002 A 
ATOM     97  C   UNL A   1      45.425  24.704  34.704  1.00  0.00     0.091 A 
ATOM     98  F   UNL A   1      43.537  25.466  33.523  1.00  0.00    -0.205 F 
ATOM     99  C   UNL A   1      46.809  24.594  34.835  1.00  0.00     0.022 A 
BRANCH  97 100
ATOM    100  S   UNL A   1      44.378  23.944  35.955  1.00  0.00     0.127 S 
ATOM    101  O   UNL A   1      43.663  25.094  36.502  1.00  0.00    -0.237 OA
ATOM    102  O   UNL A   1      43.545  23.031  35.168  1.00  0.00    -0.237 OA
ATOM    103  O   UNL A   1      45.310  23.273  36.851  1.00  0.00    -0.744 OA
ENDBRANCH  97 100
ENDBRANCH  70  93
ENDBRANCH  44  45
ENDBRANCH  36  39
ENDBRANCH  34  35
ENDBRANCH  33  34
ENDBRANCH   1  33
TORSDOF 19
ENDMDL
