MODEL 1
REMARK VINA RESULT:     -11.2      0.000      0.000
REMARK SMILES CN(C)S(=O)(=O)c1c[nH]c(C(=O)NCCCCCCNC(=O)c2ccc(-c3c4nc(c(-c5cccc(S(=O)(=O)[O-])c5F)c5ccc([nH]5)c(-c5cccc(S(=O)(=O)[O-])c5F)c5nc(c(-c6cccc(S(=O)(=O)[O-])c6F)c6ccc3[nH]6)C=C5)C=C4)cc2)c1
REMARK SMILES IDX 17 1 16 2 15 3 14 4 13 5 11 6 12 7 10 9 7 10 8 11 86 12 9 13
REMARK SMILES IDX 4 15 5 16 6 17 2 18 1 19 3 20 18 21 19 22 20 23 21 24 22 26
REMARK SMILES IDX 23 27 24 28 85 29 25 30 84 31 26 32 27 33 28 34 78 35 29 36
REMARK SMILES IDX 83 37 77 38 79 39 30 40 82 41 76 42 75 43 31 45 63 46 43 47
REMARK SMILES IDX 62 48 44 49 47 50 61 51 80 52 45 53 46 54 60 56 81 57 48 58
REMARK SMILES IDX 32 59 33 60 41 61 34 62 36 63 42 64 35 65 37 66 38 67 39 68
REMARK SMILES IDX 40 69 64 70 65 71 73 72 66 73 68 74 74 75 67 76 69 77 70 78
REMARK SMILES IDX 71 79 72 80 49 81 50 82 58 83 51 84 53 85 59 86 52 87 54 88
REMARK SMILES IDX 55 89 56 90 57 91
REMARK H PARENT 13 8 9 14 20 25 79 44 47 55
REMARK Flexibility Score: inf
ROOT
ATOM      1  C   UNL A   1      35.471  22.563  24.538  1.00  0.00     0.002 C 
ENDROOT
BRANCH   1   2
ATOM      2  C   UNL A   1      34.540  21.342  24.536  1.00  0.00     0.002 C 
BRANCH   2   3
ATOM      3  C   UNL A   1      33.112  21.613  24.045  1.00  0.00     0.021 C 
BRANCH   3   4
ATOM      4  C   UNL A   1      32.034  21.204  25.048  1.00  0.00     0.116 C 
BRANCH   4   5
ATOM      5  N   UNL A   1      32.442  21.514  26.403  1.00  0.00    -0.351 N 
ATOM      6  C   UNL A   1      32.488  22.686  27.104  1.00  0.00     0.267 C 
ATOM      7  O   UNL A   1      32.839  22.605  28.285  1.00  0.00    -0.268 OA
ATOM      8  H   UNL A   1      32.744  20.731  26.916  1.00  0.00     0.163 HD
BRANCH   6   9
ATOM      9  C   UNL A   1      32.089  23.961  26.543  1.00  0.00     0.105 A 
ATOM     10  C   UNL A   1      31.731  25.919  25.441  1.00  0.00     0.100 A 
ATOM     11  C   UNL A   1      30.548  25.552  26.043  1.00  0.00     0.104 A 
ATOM     12  C   UNL A   1      32.715  24.968  25.825  1.00  0.00     0.055 A 
ATOM     13  N   UNL A   1      30.785  24.395  26.729  1.00  0.00    -0.356 N 
ATOM     14  H   UNL A   1      30.118  23.932  27.284  1.00  0.00     0.166 HD
BRANCH  10  15
ATOM     15  S   UNL A   1      32.025  27.280  24.413  1.00  0.00     0.244 S 
ATOM     16  O   UNL A   1      33.349  27.751  24.802  1.00  0.00    -0.207 OA
ATOM     17  O   UNL A   1      30.858  28.101  24.585  1.00  0.00    -0.207 OA
BRANCH  15  18
ATOM     18  N   UNL A   1      32.103  26.714  22.817  1.00  0.00    -0.204 NA
ATOM     19  C   UNL A   1      33.457  26.762  22.223  1.00  0.00     0.124 C 
ATOM     20  C   UNL A   1      31.425  25.428  22.571  1.00  0.00     0.124 C 
ENDBRANCH  15  18
ENDBRANCH  10  15
ENDBRANCH   6   9
ENDBRANCH   4   5
ENDBRANCH   3   4
ENDBRANCH   2   3
ENDBRANCH   1   2
BRANCH   1  21
ATOM     21  C   UNL A   1      36.097  22.904  25.899  1.00  0.00     0.021 C 
BRANCH  21  22
ATOM     22  C   UNL A   1      37.309  23.832  25.790  1.00  0.00     0.116 C 
BRANCH  22  23
ATOM     23  N   UNL A   1      38.491  23.160  26.311  1.00  0.00    -0.352 N 
ATOM     24  C   UNL A   1      39.611  23.652  26.919  1.00  0.00     0.251 C 
ATOM     25  H   UNL A   1      38.481  22.181  26.206  1.00  0.00     0.163 HD
ATOM     26  O   UNL A   1      40.603  22.925  26.985  1.00  0.00    -0.269 OA
BRANCH  24  27
ATOM     27  C   UNL A   1      39.679  25.022  27.468  1.00  0.00     0.039 A 
ATOM     28  C   UNL A   1      39.133  25.228  28.743  1.00  0.00     0.014 A 
ATOM     29  C   UNL A   1      40.172  26.104  26.733  1.00  0.00     0.014 A 
ATOM     30  C   UNL A   1      39.147  26.498  29.312  1.00  0.00     0.010 A 
ATOM     31  C   UNL A   1      40.190  27.377  27.301  1.00  0.00     0.010 A 
ATOM     32  C   UNL A   1      39.708  27.567  28.603  1.00  0.00    -0.014 A 
BRANCH  32  33
ATOM     33  C   UNL A   1      39.966  28.839  29.323  1.00  0.00     0.031 A 
ATOM     34  C   UNL A   1      38.853  29.896  29.054  1.00  0.00     0.074 A 
ATOM     35  C   UNL A   1      41.116  28.897  30.056  1.00  0.00     0.049 A 
ATOM     36  N   UNL A   1      38.879  31.203  29.047  1.00  0.00    -0.248 NA
ATOM     37  C   UNL A   1      37.523  29.393  28.602  1.00  0.00     0.031 C 
ATOM     38  C   UNL A   1      42.093  27.795  30.223  1.00  0.00     0.029 A 
ATOM     39  N   UNL A   1      41.707  29.888  30.802  1.00  0.00    -0.354 N 
ATOM     40  C   UNL A   1      37.550  31.646  28.800  1.00  0.00     0.074 A 
ATOM     41  C   UNL A   1      36.806  30.496  28.393  1.00  0.00     0.031 C 
ATOM     42  C   UNL A   1      43.170  28.204  30.933  1.00  0.00     0.029 A 
ATOM     43  C   UNL A   1      42.994  29.593  31.312  1.00  0.00     0.049 A 
ATOM     44  H   UNL A   1      41.263  30.751  30.972  1.00  0.00     0.167 HD
ATOM     45  C   UNL A   1      37.078  32.894  29.101  1.00  0.00     0.034 A 
ATOM     46  C   UNL A   1      43.881  30.434  31.932  1.00  0.00     0.034 A 
ATOM     47  C   UNL A   1      38.087  33.688  29.724  1.00  0.00     0.049 A 
ATOM     48  C   UNL A   1      43.176  31.719  32.017  1.00  0.00     0.074 A 
ATOM     49  C   UNL A   1      38.942  34.711  29.397  1.00  0.00     0.029 A 
ATOM     50  N   UNL A   1      38.258  33.393  31.049  1.00  0.00    -0.354 N 
ATOM     51  N   UNL A   1      42.228  31.991  32.857  1.00  0.00    -0.248 NA
ATOM     52  C   UNL A   1      43.357  32.644  30.901  1.00  0.00     0.031 C 
ATOM     53  C   UNL A   1      39.730  34.942  30.557  1.00  0.00     0.029 A 
ATOM     54  C   UNL A   1      39.468  33.893  31.431  1.00  0.00     0.049 A 
ATOM     55  H   UNL A   1      37.623  32.909  31.624  1.00  0.00     0.167 HD
ATOM     56  C   UNL A   1      41.507  32.973  32.219  1.00  0.00     0.074 A 
ATOM     57  C   UNL A   1      42.306  33.428  31.091  1.00  0.00     0.031 C 
ATOM     58  C   UNL A   1      40.177  33.138  32.416  1.00  0.00     0.034 A 
BRANCH  45  59
ATOM     59  C   UNL A   1      35.663  33.471  29.233  1.00  0.00     0.023 A 
ATOM     60  C   UNL A   1      35.031  33.798  27.996  1.00  0.00     0.012 A 
ATOM     61  C   UNL A   1      35.085  34.026  30.393  1.00  0.00     0.148 A 
ATOM     62  C   UNL A   1      34.014  34.745  27.886  1.00  0.00     0.002 A 
ATOM     63  C   UNL A   1      34.009  34.922  30.284  1.00  0.00     0.091 A 
ATOM     64  F   UNL A   1      35.620  33.764  31.590  1.00  0.00    -0.205 F 
ATOM     65  C   UNL A   1      33.513  35.322  29.035  1.00  0.00     0.022 A 
BRANCH  63  66
ATOM     66  S   UNL A   1      33.170  35.633  31.710  1.00  0.00     0.127 S 
ATOM     67  O   UNL A   1      34.164  36.574  32.219  1.00  0.00    -0.237 OA
ATOM     68  O   UNL A   1      32.002  36.266  31.092  1.00  0.00    -0.237 OA
ATOM     69  O   UNL A   1      32.841  34.505  32.572  1.00  0.00    -0.744 OA
ENDBRANCH  63  66
ENDBRANCH  45  59
BRANCH  46  70
ATOM     70  C   UNL A   1      45.337  30.396  32.320  1.00  0.00     0.023 A 
ATOM     71  C   UNL A   1      46.388  30.528  31.401  1.00  0.00     0.012 A 
ATOM     72  C   UNL A   1      45.714  30.259  33.692  1.00  0.00     0.148 A 
ATOM     73  C   UNL A   1      47.727  30.617  31.831  1.00  0.00     0.002 A 
ATOM     74  C   UNL A   1      47.027  30.431  34.122  1.00  0.00     0.091 A 
ATOM     75  F   UNL A   1      44.790  29.944  34.603  1.00  0.00    -0.205 F 
ATOM     76  C   UNL A   1      48.045  30.607  33.190  1.00  0.00     0.022 A 
BRANCH  74  77
ATOM     77  S   UNL A   1      47.453  30.561  35.872  1.00  0.00     0.127 S 
ATOM     78  O   UNL A   1      46.632  31.686  36.312  1.00  0.00    -0.237 OA
ATOM     79  O   UNL A   1      47.023  29.255  36.374  1.00  0.00    -0.237 OA
ATOM     80  O   UNL A   1      48.891  30.789  35.931  1.00  0.00    -0.744 OA
ENDBRANCH  74  77
ENDBRANCH  46  70
BRANCH  58  81
ATOM     81  C   UNL A   1      39.534  32.175  33.398  1.00  0.00     0.023 A 
ATOM     82  C   UNL A   1      39.221  30.884  32.962  1.00  0.00     0.012 A 
ATOM     83  C   UNL A   1      39.164  32.543  34.720  1.00  0.00     0.148 A 
ATOM     84  C   UNL A   1      38.576  29.980  33.813  1.00  0.00     0.002 A 
ATOM     85  C   UNL A   1      38.518  31.644  35.566  1.00  0.00     0.091 A 
ATOM     86  F   UNL A   1      39.475  33.768  35.147  1.00  0.00    -0.205 F 
ATOM     87  C   UNL A   1      38.228  30.355  35.111  1.00  0.00     0.022 A 
BRANCH  85  88
ATOM     88  S   UNL A   1      37.987  32.054  37.242  1.00  0.00     0.127 S 
ATOM     89  O   UNL A   1      39.252  32.387  37.900  1.00  0.00    -0.237 OA
ATOM     90  O   UNL A   1      37.111  33.202  37.016  1.00  0.00    -0.237 OA
ATOM     91  O   UNL A   1      37.328  30.868  37.776  1.00  0.00    -0.744 OA
ENDBRANCH  85  88
ENDBRANCH  58  81
ENDBRANCH  32  33
ENDBRANCH  24  27
ENDBRANCH  22  23
ENDBRANCH  21  22
ENDBRANCH   1  21
TORSDOF 18
ENDMDL
MODEL 2
REMARK VINA RESULT:     -11.0      4.490      9.816
REMARK SMILES CN(C)S(=O)(=O)c1c[nH]c(C(=O)NCCCCCCNC(=O)c2ccc(-c3c4nc(c(-c5cccc(S(=O)(=O)[O-])c5F)c5ccc([nH]5)c(-c5cccc(S(=O)(=O)[O-])c5F)c5nc(c(-c6cccc(S(=O)(=O)[O-])c6F)c6ccc3[nH]6)C=C5)C=C4)cc2)c1
REMARK SMILES IDX 17 1 16 2 15 3 14 4 13 5 11 6 12 7 10 9 7 10 8 11 86 12 9 13
REMARK SMILES IDX 4 15 5 16 6 17 2 18 1 19 3 20 18 21 19 22 20 23 21 24 22 26
REMARK SMILES IDX 23 27 24 28 85 29 25 30 84 31 26 32 27 33 28 34 78 35 29 36
REMARK SMILES IDX 83 37 77 38 79 39 30 40 82 41 76 42 75 43 31 45 63 46 43 47
REMARK SMILES IDX 62 48 44 49 47 50 61 51 80 52 45 53 46 54 60 56 81 57 48 58
REMARK SMILES IDX 32 59 33 60 41 61 34 62 36 63 42 64 35 65 37 66 38 67 39 68
REMARK SMILES IDX 40 69 64 70 65 71 73 72 66 73 68 74 74 75 67 76 69 77 70 78
REMARK SMILES IDX 71 79 72 80 49 81 50 82 58 83 51 84 53 85 59 86 52 87 54 88
REMARK SMILES IDX 55 89 56 90 57 91
REMARK H PARENT 13 8 9 14 20 25 79 44 47 55
REMARK Flexibility Score: inf
ROOT
ATOM      1  C   UNL A   1      32.237  27.779  25.633  1.00  0.00     0.002 C 
ENDROOT
BRANCH   1   2
ATOM      2  C   UNL A   1      31.152  28.188  24.628  1.00  0.00     0.002 C 
BRANCH   2   3
ATOM      3  C   UNL A   1      31.634  28.356  23.180  1.00  0.00     0.021 C 
BRANCH   3   4
ATOM      4  C   UNL A   1      33.027  27.778  22.932  1.00  0.00     0.116 C 
BRANCH   4   5
ATOM      5  N   UNL A   1      33.090  27.111  21.648  1.00  0.00    -0.351 N 
ATOM      6  C   UNL A   1      32.952  25.800  21.285  1.00  0.00     0.267 C 
ATOM      7  O   UNL A   1      33.005  25.558  20.075  1.00  0.00    -0.268 OA
ATOM      8  H   UNL A   1      33.265  27.717  20.893  1.00  0.00     0.163 HD
BRANCH   6   9
ATOM      9  C   UNL A   1      32.691  24.738  22.235  1.00  0.00     0.105 A 
ATOM     10  C   UNL A   1      32.628  23.066  23.777  1.00  0.00     0.100 A 
ATOM     11  C   UNL A   1      31.389  23.664  23.753  1.00  0.00     0.104 A 
ATOM     12  C   UNL A   1      33.416  23.683  22.766  1.00  0.00     0.055 A 
ATOM     13  N   UNL A   1      31.429  24.642  22.801  1.00  0.00    -0.356 N 
ATOM     14  H   UNL A   1      30.662  25.204  22.548  1.00  0.00     0.166 HD
BRANCH  10  15
ATOM     15  S   UNL A   1      33.175  21.788  24.809  1.00  0.00     0.244 S 
ATOM     16  O   UNL A   1      34.423  21.339  24.203  1.00  0.00    -0.207 OA
ATOM     17  O   UNL A   1      32.037  20.916  24.912  1.00  0.00    -0.207 OA
BRANCH  15  18
ATOM     18  N   UNL A   1      33.525  22.463  26.324  1.00  0.00    -0.204 NA
ATOM     19  C   UNL A   1      33.707  21.468  27.402  1.00  0.00     0.124 C 
ATOM     20  C   UNL A   1      34.578  23.495  26.326  1.00  0.00     0.124 C 
ENDBRANCH  15  18
ENDBRANCH  10  15
ENDBRANCH   6   9
ENDBRANCH   4   5
ENDBRANCH   3   4
ENDBRANCH   2   3
ENDBRANCH   1   2
BRANCH   1  21
ATOM     21  C   UNL A   1      32.658  28.878  26.621  1.00  0.00     0.021 C 
BRANCH  21  22
ATOM     22  C   UNL A   1      34.173  28.952  26.832  1.00  0.00     0.116 C 
BRANCH  22  23
ATOM     23  N   UNL A   1      34.567  30.332  27.075  1.00  0.00    -0.352 N 
ATOM     24  C   UNL A   1      35.656  30.857  27.711  1.00  0.00     0.251 C 
ATOM     25  H   UNL A   1      33.941  31.003  26.719  1.00  0.00     0.163 HD
ATOM     26  O   UNL A   1      35.611  32.037  28.062  1.00  0.00    -0.269 OA
BRANCH  24  27
ATOM     27  C   UNL A   1      36.861  30.057  28.013  1.00  0.00     0.039 A 
ATOM     28  C   UNL A   1      37.838  29.967  27.011  1.00  0.00     0.014 A 
ATOM     29  C   UNL A   1      37.004  29.331  29.199  1.00  0.00     0.014 A 
ATOM     30  C   UNL A   1      38.989  29.214  27.223  1.00  0.00     0.010 A 
ATOM     31  C   UNL A   1      38.158  28.578  29.416  1.00  0.00     0.010 A 
ATOM     32  C   UNL A   1      39.165  28.547  28.442  1.00  0.00    -0.014 A 
BRANCH  32  33
ATOM     33  C   UNL A   1      40.501  27.985  28.758  1.00  0.00     0.031 A 
ATOM     34  C   UNL A   1      40.605  26.478  28.376  1.00  0.00     0.074 A 
ATOM     35  C   UNL A   1      41.391  28.838  29.346  1.00  0.00     0.049 A 
ATOM     36  N   UNL A   1      41.324  25.504  28.869  1.00  0.00    -0.248 NA
ATOM     37  C   UNL A   1      39.654  25.963  27.349  1.00  0.00     0.031 C 
ATOM     38  C   UNL A   1      41.149  30.267  29.652  1.00  0.00     0.029 A 
ATOM     39  N   UNL A   1      42.674  28.681  29.816  1.00  0.00    -0.354 N 
ATOM     40  C   UNL A   1      41.057  24.349  28.084  1.00  0.00     0.074 A 
ATOM     41  C   UNL A   1      39.924  24.661  27.271  1.00  0.00     0.031 C 
ATOM     42  C   UNL A   1      42.196  30.805  30.319  1.00  0.00     0.029 A 
ATOM     43  C   UNL A   1      43.222  29.796  30.495  1.00  0.00     0.049 A 
ATOM     44  H   UNL A   1      43.179  27.846  29.688  1.00  0.00     0.167 HD
ATOM     45  C   UNL A   1      41.874  23.254  28.009  1.00  0.00     0.034 A 
ATOM     46  C   UNL A   1      44.390  29.871  31.207  1.00  0.00     0.034 A 
ATOM     47  C   UNL A   1      43.047  23.434  28.801  1.00  0.00     0.049 A 
ATOM     48  C   UNL A   1      44.999  28.542  31.064  1.00  0.00     0.074 A 
ATOM     49  C   UNL A   1      43.549  23.018  30.010  1.00  0.00     0.029 A 
ATOM     50  N   UNL A   1      43.987  24.222  28.196  1.00  0.00    -0.354 N 
ATOM     51  N   UNL A   1      45.599  28.113  29.999  1.00  0.00    -0.248 NA
ATOM     52  C   UNL A   1      44.655  27.548  32.077  1.00  0.00     0.031 C 
ATOM     53  C   UNL A   1      44.791  23.690  30.165  1.00  0.00     0.029 A 
ATOM     54  C   UNL A   1      44.852  24.648  29.159  1.00  0.00     0.049 A 
ATOM     55  H   UNL A   1      44.032  24.440  27.237  1.00  0.00     0.167 HD
ATOM     56  C   UNL A   1      45.458  26.748  30.081  1.00  0.00     0.074 A 
ATOM     57  C   UNL A   1      44.992  26.444  31.426  1.00  0.00     0.031 C 
ATOM     58  C   UNL A   1      45.394  25.959  28.982  1.00  0.00     0.034 A 
BRANCH  45  59
ATOM     59  C   UNL A   1      41.964  22.084  27.021  1.00  0.00     0.023 A 
ATOM     60  C   UNL A   1      40.941  21.099  27.162  1.00  0.00     0.012 A 
ATOM     61  C   UNL A   1      43.093  21.706  26.266  1.00  0.00     0.148 A 
ATOM     62  C   UNL A   1      41.093  19.778  26.745  1.00  0.00     0.002 A 
ATOM     63  C   UNL A   1      43.208  20.393  25.780  1.00  0.00     0.091 A 
ATOM     64  F   UNL A   1      44.093  22.575  26.087  1.00  0.00    -0.205 F 
ATOM     65  C   UNL A   1      42.240  19.420  26.066  1.00  0.00     0.022 A 
BRANCH  63  66
ATOM     66  S   UNL A   1      44.581  19.836  24.759  1.00  0.00     0.127 S 
ATOM     67  O   UNL A   1      44.447  20.675  23.572  1.00  0.00    -0.237 OA
ATOM     68  O   UNL A   1      45.738  20.161  25.599  1.00  0.00    -0.237 OA
ATOM     69  O   UNL A   1      44.374  18.406  24.572  1.00  0.00    -0.744 OA
ENDBRANCH  63  66
ENDBRANCH  45  59
BRANCH  46  70
ATOM     70  C   UNL A   1      45.022  30.841  32.172  1.00  0.00     0.023 A 
ATOM     71  C   UNL A   1      46.283  31.423  31.973  1.00  0.00     0.012 A 
ATOM     72  C   UNL A   1      44.320  31.251  33.347  1.00  0.00     0.148 A 
ATOM     73  C   UNL A   1      46.772  32.423  32.838  1.00  0.00     0.002 A 
ATOM     74  C   UNL A   1      44.764  32.297  34.152  1.00  0.00     0.091 A 
ATOM     75  F   UNL A   1      43.203  30.611  33.706  1.00  0.00    -0.205 F 
ATOM     76  C   UNL A   1      46.000  32.887  33.903  1.00  0.00     0.022 A 
BRANCH  74  77
ATOM     77  S   UNL A   1      43.733  33.011  35.451  1.00  0.00     0.127 S 
ATOM     78  O   UNL A   1      42.383  32.793  34.935  1.00  0.00    -0.237 OA
ATOM     79  O   UNL A   1      44.092  32.179  36.599  1.00  0.00    -0.237 OA
ATOM     80  O   UNL A   1      44.127  34.409  35.568  1.00  0.00    -0.744 OA
ENDBRANCH  74  77
ENDBRANCH  46  70
BRANCH  58  81
ATOM     81  C   UNL A   1      45.500  26.680  27.650  1.00  0.00     0.023 A 
ATOM     82  C   UNL A   1      44.373  27.344  27.156  1.00  0.00     0.012 A 
ATOM     83  C   UNL A   1      46.667  26.650  26.840  1.00  0.00     0.148 A 
ATOM     84  C   UNL A   1      44.405  27.974  25.907  1.00  0.00     0.002 A 
ATOM     85  C   UNL A   1      46.699  27.273  25.594  1.00  0.00     0.091 A 
ATOM     86  F   UNL A   1      47.751  26.032  27.312  1.00  0.00    -0.205 F 
ATOM     87  C   UNL A   1      45.563  27.943  25.129  1.00  0.00     0.022 A 
BRANCH  85  88
ATOM     88  S   UNL A   1      48.133  27.245  24.498  1.00  0.00     0.127 S 
ATOM     89  O   UNL A   1      47.571  27.723  23.233  1.00  0.00    -0.237 OA
ATOM     90  O   UNL A   1      49.036  28.192  25.147  1.00  0.00    -0.237 OA
ATOM     91  O   UNL A   1      48.605  25.866  24.459  1.00  0.00    -0.744 OA
ENDBRANCH  85  88
ENDBRANCH  58  81
ENDBRANCH  32  33
ENDBRANCH  24  27
ENDBRANCH  22  23
ENDBRANCH  21  22
ENDBRANCH   1  21
TORSDOF 18
ENDMDL
MODEL 3
REMARK VINA RESULT:     -10.9      1.456      2.240
REMARK SMILES CN(C)S(=O)(=O)c1c[nH]c(C(=O)NCCCCCCNC(=O)c2ccc(-c3c4nc(c(-c5cccc(S(=O)(=O)[O-])c5F)c5ccc([nH]5)c(-c5cccc(S(=O)(=O)[O-])c5F)c5nc(c(-c6cccc(S(=O)(=O)[O-])c6F)c6ccc3[nH]6)C=C5)C=C4)cc2)c1
REMARK SMILES IDX 17 1 16 2 15 3 14 4 13 5 11 6 12 7 10 9 7 10 8 11 86 12 9 13
REMARK SMILES IDX 4 15 5 16 6 17 2 18 1 19 3 20 18 21 19 22 20 23 21 24 22 26
REMARK SMILES IDX 23 27 24 28 85 29 25 30 84 31 26 32 27 33 28 34 78 35 29 36
REMARK SMILES IDX 83 37 77 38 79 39 30 40 82 41 76 42 75 43 31 45 63 46 43 47
REMARK SMILES IDX 62 48 44 49 47 50 61 51 80 52 45 53 46 54 60 56 81 57 48 58
REMARK SMILES IDX 32 59 33 60 41 61 34 62 36 63 42 64 35 65 37 66 38 67 39 68
REMARK SMILES IDX 40 69 64 70 65 71 73 72 66 73 68 74 74 75 67 76 69 77 70 78
REMARK SMILES IDX 71 79 72 80 49 81 50 82 58 83 51 84 53 85 59 86 52 87 54 88
REMARK SMILES IDX 55 89 56 90 57 91
REMARK H PARENT 13 8 9 14 20 25 79 44 47 55
REMARK Flexibility Score: inf
ROOT
ATOM      1  C   UNL A   1      35.055  23.146  25.263  1.00  0.00     0.002 C 
ENDROOT
BRANCH   1   2
ATOM      2  C   UNL A   1      34.330  22.452  24.101  1.00  0.00     0.002 C 
BRANCH   2   3
ATOM      3  C   UNL A   1      34.246  23.268  22.804  1.00  0.00     0.021 C 
BRANCH   3   4
ATOM      4  C   UNL A   1      32.884  23.182  22.117  1.00  0.00     0.116 C 
BRANCH   4   5
ATOM      5  N   UNL A   1      32.890  23.908  20.863  1.00  0.00    -0.351 N 
ATOM      6  C   UNL A   1      32.767  25.237  20.569  1.00  0.00     0.267 C 
ATOM      7  O   UNL A   1      32.872  25.547  19.378  1.00  0.00    -0.268 OA
ATOM      8  H   UNL A   1      33.006  23.334  20.072  1.00  0.00     0.163 HD
BRANCH   6   9
ATOM      9  C   UNL A   1      32.588  26.259  21.580  1.00  0.00     0.105 A 
ATOM     10  C   UNL A   1      32.123  27.621  23.343  1.00  0.00     0.100 A 
ATOM     11  C   UNL A   1      33.246  28.112  22.716  1.00  0.00     0.104 A 
ATOM     12  C   UNL A   1      31.663  26.512  22.582  1.00  0.00     0.055 A 
ATOM     13  N   UNL A   1      33.494  27.307  21.641  1.00  0.00    -0.356 N 
ATOM     14  H   UNL A   1      34.220  27.453  20.993  1.00  0.00     0.166 HD
BRANCH  10  15
ATOM     15  S   UNL A   1      31.362  28.212  24.781  1.00  0.00     0.244 S 
ATOM     16  O   UNL A   1      30.628  27.066  25.303  1.00  0.00    -0.207 OA
ATOM     17  O   UNL A   1      30.683  29.402  24.347  1.00  0.00    -0.207 OA
BRANCH  15  18
ATOM     18  N   UNL A   1      32.585  28.615  25.884  1.00  0.00    -0.204 NA
ATOM     19  C   UNL A   1      32.905  30.058  25.931  1.00  0.00     0.124 C 
ATOM     20  C   UNL A   1      32.441  28.025  27.227  1.00  0.00     0.124 C 
ENDBRANCH  15  18
ENDBRANCH  10  15
ENDBRANCH   6   9
ENDBRANCH   4   5
ENDBRANCH   3   4
ENDBRANCH   2   3
ENDBRANCH   1   2
BRANCH   1  21
ATOM     21  C   UNL A   1      36.492  22.665  25.515  1.00  0.00     0.021 C 
BRANCH  21  22
ATOM     22  C   UNL A   1      37.399  23.752  26.096  1.00  0.00     0.116 C 
BRANCH  22  23
ATOM     23  N   UNL A   1      38.661  23.163  26.523  1.00  0.00    -0.352 N 
ATOM     24  C   UNL A   1      39.795  23.733  27.028  1.00  0.00     0.251 C 
ATOM     25  H   UNL A   1      38.703  22.183  26.432  1.00  0.00     0.163 HD
ATOM     26  O   UNL A   1      40.832  23.070  27.019  1.00  0.00    -0.269 OA
BRANCH  24  27
ATOM     27  C   UNL A   1      39.822  25.115  27.551  1.00  0.00     0.039 A 
ATOM     28  C   UNL A   1      39.270  25.329  28.822  1.00  0.00     0.014 A 
ATOM     29  C   UNL A   1      40.284  26.197  26.796  1.00  0.00     0.014 A 
ATOM     30  C   UNL A   1      39.247  26.609  29.368  1.00  0.00     0.010 A 
ATOM     31  C   UNL A   1      40.265  27.481  27.341  1.00  0.00     0.010 A 
ATOM     32  C   UNL A   1      39.777  27.680  28.639  1.00  0.00    -0.014 A 
BRANCH  32  33
ATOM     33  C   UNL A   1      39.998  28.973  29.335  1.00  0.00     0.031 A 
ATOM     34  C   UNL A   1      38.815  29.963  29.112  1.00  0.00     0.074 A 
ATOM     35  C   UNL A   1      41.177  29.102  30.012  1.00  0.00     0.049 A 
ATOM     36  N   UNL A   1      38.768  31.270  29.092  1.00  0.00    -0.248 NA
ATOM     37  C   UNL A   1      37.496  29.383  28.729  1.00  0.00     0.031 C 
ATOM     38  C   UNL A   1      42.220  28.058  30.140  1.00  0.00     0.029 A 
ATOM     39  N   UNL A   1      41.746  30.133  30.720  1.00  0.00    -0.354 N 
ATOM     40  C   UNL A   1      37.407  31.635  28.906  1.00  0.00     0.074 A 
ATOM     41  C   UNL A   1      36.709  30.442  28.545  1.00  0.00     0.031 C 
ATOM     42  C   UNL A   1      43.305  28.534  30.794  1.00  0.00     0.029 A 
ATOM     43  C   UNL A   1      43.071  29.915  31.170  1.00  0.00     0.049 A 
ATOM     44  H   UNL A   1      41.263  30.971  30.904  1.00  0.00     0.167 HD
ATOM     45  C   UNL A   1      36.880  32.859  29.220  1.00  0.00     0.034 A 
ATOM     46  C   UNL A   1      43.937  30.810  31.739  1.00  0.00     0.034 A 
ATOM     47  C   UNL A   1      37.872  33.714  29.787  1.00  0.00     0.049 A 
ATOM     48  C   UNL A   1      43.166  32.055  31.847  1.00  0.00     0.074 A 
ATOM     49  C   UNL A   1      38.652  34.779  29.410  1.00  0.00     0.029 A 
ATOM     50  N   UNL A   1      38.123  33.444  31.104  1.00  0.00    -0.354 N 
ATOM     51  N   UNL A   1      42.246  32.284  32.730  1.00  0.00    -0.248 NA
ATOM     52  C   UNL A   1      43.242  32.976  30.716  1.00  0.00     0.031 C 
ATOM     53  C   UNL A   1      39.480  35.067  30.529  1.00  0.00     0.029 A 
ATOM     54  C   UNL A   1      39.319  34.013  31.423  1.00  0.00     0.049 A 
ATOM     55  H   UNL A   1      37.544  32.932  31.713  1.00  0.00     0.167 HD
ATOM     56  C   UNL A   1      41.442  33.217  32.119  1.00  0.00     0.074 A 
ATOM     57  C   UNL A   1      42.159  33.703  30.950  1.00  0.00     0.031 C 
ATOM     58  C   UNL A   1      40.115  33.310  32.379  1.00  0.00     0.034 A 
BRANCH  45  59
ATOM     59  C   UNL A   1      35.444  33.359  29.414  1.00  0.00     0.023 A 
ATOM     60  C   UNL A   1      34.627  33.311  28.245  1.00  0.00     0.012 A 
ATOM     61  C   UNL A   1      34.967  34.158  30.474  1.00  0.00     0.148 A 
ATOM     62  C   UNL A   1      33.515  34.130  28.057  1.00  0.00     0.002 A 
ATOM     63  C   UNL A   1      33.802  34.924  30.309  1.00  0.00     0.091 A 
ATOM     64  F   UNL A   1      35.675  34.251  31.604  1.00  0.00    -0.205 F 
ATOM     65  C   UNL A   1      33.111  34.952  29.089  1.00  0.00     0.022 A 
BRANCH  63  66
ATOM     66  S   UNL A   1      33.086  35.926  31.622  1.00  0.00     0.127 S 
ATOM     67  O   UNL A   1      32.407  36.980  30.875  1.00  0.00    -0.237 OA
ATOM     68  O   UNL A   1      32.184  34.973  32.276  1.00  0.00    -0.237 OA
ATOM     69  O   UNL A   1      34.209  36.339  32.454  1.00  0.00    -0.744 OA
ENDBRANCH  63  66
ENDBRANCH  45  59
BRANCH  46  70
ATOM     70  C   UNL A   1      45.410  30.857  32.057  1.00  0.00     0.023 A 
ATOM     71  C   UNL A   1      46.389  31.266  31.139  1.00  0.00     0.012 A 
ATOM     72  C   UNL A   1      45.877  30.513  33.363  1.00  0.00     0.148 A 
ATOM     73  C   UNL A   1      47.736  31.416  31.526  1.00  0.00     0.002 A 
ATOM     74  C   UNL A   1      47.190  30.742  33.767  1.00  0.00     0.091 A 
ATOM     75  F   UNL A   1      45.042  29.940  34.234  1.00  0.00    -0.205 F 
ATOM     76  C   UNL A   1      48.131  31.192  32.846  1.00  0.00     0.022 A 
BRANCH  74  77
ATOM     77  S   UNL A   1      47.701  30.594  35.493  1.00  0.00     0.127 S 
ATOM     78  O   UNL A   1      46.627  31.289  36.198  1.00  0.00    -0.237 OA
ATOM     79  O   UNL A   1      47.713  29.142  35.670  1.00  0.00    -0.237 OA
ATOM     80  O   UNL A   1      49.010  31.227  35.590  1.00  0.00    -0.744 OA
ENDBRANCH  74  77
ENDBRANCH  46  70
BRANCH  58  81
ATOM     81  C   UNL A   1      39.575  32.324  33.399  1.00  0.00     0.023 A 
ATOM     82  C   UNL A   1      39.449  30.981  33.030  1.00  0.00     0.012 A 
ATOM     83  C   UNL A   1      39.118  32.709  34.688  1.00  0.00     0.148 A 
ATOM     84  C   UNL A   1      38.903  30.045  33.915  1.00  0.00     0.002 A 
ATOM     85  C   UNL A   1      38.570  31.779  35.568  1.00  0.00     0.091 A 
ATOM     86  F   UNL A   1      39.251  33.986  35.052  1.00  0.00    -0.205 F 
ATOM     87  C   UNL A   1      38.468  30.440  35.181  1.00  0.00     0.022 A 
BRANCH  85  88
ATOM     88  S   UNL A   1      37.937  32.203  37.205  1.00  0.00     0.127 S 
ATOM     89  O   UNL A   1      37.528  30.900  37.732  1.00  0.00    -0.237 OA
ATOM     90  O   UNL A   1      39.118  32.766  37.856  1.00  0.00    -0.237 OA
ATOM     91  O   UNL A   1      36.837  33.139  37.000  1.00  0.00    -0.744 OA
ENDBRANCH  85  88
ENDBRANCH  58  81
ENDBRANCH  32  33
ENDBRANCH  24  27
ENDBRANCH  22  23
ENDBRANCH  21  22
ENDBRANCH   1  21
TORSDOF 18
ENDMDL
