MODEL 1
REMARK VINA RESULT:     -10.5      0.000      0.000
REMARK SMILES C/C(=N/[NH+]=C1\NC(=O)[C@H](CC(=O)NCCCCCCNC(=O)c2ccc(-c3c4nc(c(-c5cccc(S(=O)(=O)[O-])c5F)c5ccc([nH]5)c(-c5cccc(S(=O)(=O)[O-])c5F)c5nc(c(-c6cccc(S(=O)(=O)[O-])c6F)c6ccc3[nH]6)C=C5)C=C4)cc2)S1)c1ccc(OC(C)C)cc1
REMARK SMILES IDX 15 1 14 2 13 3 11 4 12 5 10 7 9 8 4 9 5 10 6 12 86 13 7 14
REMARK SMILES IDX 8 16 3 17 1 18 2 19 87 20 88 21 96 22 89 23 95 24 90 25
REMARK SMILES IDX 91 26 92 27 93 28 94 29 16 30 17 31 18 32 19 33 20 34 21 35
REMARK SMILES IDX 22 37 23 38 24 39 85 40 25 41 84 42 26 43 27 44 28 45 78 46
REMARK SMILES IDX 29 47 83 48 77 49 79 50 30 51 82 52 76 53 75 54 31 56 63 57
REMARK SMILES IDX 43 58 62 59 44 60 47 61 61 62 80 63 45 64 46 65 60 67 81 68
REMARK SMILES IDX 48 69 32 70 33 71 41 72 34 73 36 74 42 75 35 76 37 77 38 78
REMARK SMILES IDX 39 79 40 80 64 81 65 82 73 83 66 84 68 85 74 86 67 87 69 88
REMARK SMILES IDX 70 89 71 90 72 91 49 92 50 93 58 94 51 95 53 96 59 97 52 98
REMARK SMILES IDX 54 99 55 100 56 101 57 102
REMARK H PARENT 13 6 4 11 6 15 20 36 79 55 47 66
REMARK Flexibility Score: inf
ROOT
ATOM      1  C   UNL A   1      35.742  29.756  27.513  1.00  0.00     0.021 C 
ENDROOT
BRANCH   1   2
ATOM      2  C   UNL A   1      34.654  28.958  26.807  1.00  0.00     0.116 C 
BRANCH   2   3
ATOM      3  N   UNL A   1      33.545  29.782  26.368  1.00  0.00    -0.356 N 
ATOM      4  C   UNL A   1      32.493  29.448  25.568  1.00  0.00     0.221 C 
ATOM      5  O   UNL A   1      31.643  30.299  25.305  1.00  0.00    -0.275 OA
ATOM      6  H   UNL A   1      33.552  30.711  26.693  1.00  0.00     0.163 HD
BRANCH   4   7
ATOM      7  C   UNL A   1      32.381  28.043  25.027  1.00  0.00     0.127 C 
BRANCH   7   8
ATOM      8  C   UNL A   1      30.992  27.449  25.244  1.00  0.00     0.183 C 
ATOM      9  N   UNL A   1      31.420  23.691  24.776  1.00  0.00    -0.142 N 
ATOM     10  C   UNL A   1      31.035  24.919  24.806  1.00  0.00     0.337 C 
ATOM     11  H   UNL A   1      31.782  23.241  25.574  1.00  0.00     0.343 HD
ATOM     12  N   UNL A   1      30.513  25.621  23.779  1.00  0.00    -0.202 N 
ATOM     13  S   UNL A   1      31.191  25.911  26.226  1.00  0.00    -0.020 SA
ATOM     14  C   UNL A   1      30.324  26.960  23.965  1.00  0.00     0.322 C 
ATOM     15  H   UNL A   1      30.278  25.183  22.929  1.00  0.00     0.316 HD
ATOM     16  O   UNL A   1      29.730  27.674  23.175  1.00  0.00    -0.246 OA
BRANCH   9  17
ATOM     17  N   UNL A   1      31.297  23.029  23.550  1.00  0.00    -0.090 NA
ATOM     18  C   UNL A   1      32.065  21.405  21.949  1.00  0.00     0.071 C 
ATOM     19  C   UNL A   1      32.281  22.245  23.193  1.00  0.00     0.088 C 
BRANCH  19  20
ATOM     20  C   UNL A   1      33.637  22.181  23.828  1.00  0.00    -0.000 A 
ATOM     21  C   UNL A   1      34.679  23.012  23.423  1.00  0.00     0.014 A 
ATOM     22  C   UNL A   1      33.910  21.165  24.751  1.00  0.00     0.014 A 
ATOM     23  C   UNL A   1      35.986  22.753  23.848  1.00  0.00     0.047 A 
ATOM     24  C   UNL A   1      35.226  20.926  25.187  1.00  0.00     0.047 A 
ATOM     25  C   UNL A   1      36.280  21.694  24.712  1.00  0.00     0.119 A 
BRANCH  25  26
ATOM     26  O   UNL A   1      37.606  21.538  24.956  1.00  0.00    -0.491 OA
BRANCH  26  27
ATOM     27  C   UNL A   1      38.366  22.149  26.001  1.00  0.00     0.167 C 
ATOM     28  C   UNL A   1      39.838  21.761  26.087  1.00  0.00     0.052 C 
ATOM     29  C   UNL A   1      38.136  23.649  26.117  1.00  0.00     0.052 C 
ENDBRANCH  26  27
ENDBRANCH  25  26
ENDBRANCH  19  20
ENDBRANCH   9  17
ENDBRANCH   7   8
ENDBRANCH   4   7
ENDBRANCH   2   3
ENDBRANCH   1   2
BRANCH   1  30
ATOM     30  C   UNL A   1      35.238  30.981  28.283  1.00  0.00     0.002 C 
BRANCH  30  31
ATOM     31  C   UNL A   1      35.972  32.298  28.009  1.00  0.00     0.002 C 
BRANCH  31  32
ATOM     32  C   UNL A   1      35.084  33.505  27.717  1.00  0.00     0.021 C 
BRANCH  32  33
ATOM     33  C   UNL A   1      33.637  33.359  28.163  1.00  0.00     0.116 C 
BRANCH  33  34
ATOM     34  N   UNL A   1      33.195  34.491  28.960  1.00  0.00    -0.352 N 
ATOM     35  C   UNL A   1      33.549  34.832  30.242  1.00  0.00     0.251 C 
ATOM     36  H   UNL A   1      32.553  35.095  28.521  1.00  0.00     0.163 HD
ATOM     37  O   UNL A   1      32.930  35.704  30.844  1.00  0.00    -0.269 OA
BRANCH  35  38
ATOM     38  C   UNL A   1      34.671  34.125  30.895  1.00  0.00     0.039 A 
ATOM     39  C   UNL A   1      34.423  32.923  31.564  1.00  0.00     0.014 A 
ATOM     40  C   UNL A   1      35.969  34.639  30.823  1.00  0.00     0.014 A 
ATOM     41  C   UNL A   1      35.491  32.205  32.108  1.00  0.00     0.010 A 
ATOM     42  C   UNL A   1      37.036  33.880  31.286  1.00  0.00     0.010 A 
ATOM     43  C   UNL A   1      36.810  32.660  31.943  1.00  0.00    -0.014 A 
BRANCH  43  44
ATOM     44  C   UNL A   1      37.973  31.891  32.452  1.00  0.00     0.031 A 
ATOM     45  C   UNL A   1      38.613  32.282  33.757  1.00  0.00     0.074 A 
ATOM     46  C   UNL A   1      38.518  30.917  31.695  1.00  0.00     0.049 A 
ATOM     47  N   UNL A   1      39.703  31.823  34.311  1.00  0.00    -0.248 NA
ATOM     48  C   UNL A   1      37.958  33.357  34.523  1.00  0.00     0.031 C 
ATOM     49  C   UNL A   1      38.028  30.489  30.384  1.00  0.00     0.029 A 
ATOM     50  N   UNL A   1      39.626  30.134  31.906  1.00  0.00    -0.354 N 
ATOM     51  C   UNL A   1      39.890  32.579  35.463  1.00  0.00     0.074 A 
ATOM     52  C   UNL A   1      38.819  33.549  35.511  1.00  0.00     0.031 C 
ATOM     53  C   UNL A   1      38.832  29.526  29.906  1.00  0.00     0.029 A 
ATOM     54  C   UNL A   1      39.916  29.295  30.856  1.00  0.00     0.049 A 
ATOM     55  H   UNL A   1      40.163  30.170  32.731  1.00  0.00     0.167 HD
ATOM     56  C   UNL A   1      40.850  32.459  36.409  1.00  0.00     0.034 A 
ATOM     57  C   UNL A   1      40.949  28.449  30.668  1.00  0.00     0.034 A 
ATOM     58  C   UNL A   1      41.884  31.462  36.379  1.00  0.00     0.049 A 
ATOM     59  C   UNL A   1      41.990  28.317  31.747  1.00  0.00     0.074 A 
ATOM     60  C   UNL A   1      42.850  31.198  37.333  1.00  0.00     0.029 A 
ATOM     61  N   UNL A   1      42.094  30.570  35.339  1.00  0.00    -0.354 N 
ATOM     62  N   UNL A   1      42.068  28.940  32.897  1.00  0.00    -0.248 NA
ATOM     63  C   UNL A   1      43.069  27.344  31.519  1.00  0.00     0.031 C 
ATOM     64  C   UNL A   1      43.665  30.169  36.855  1.00  0.00     0.029 A 
ATOM     65  C   UNL A   1      43.182  29.764  35.621  1.00  0.00     0.049 A 
ATOM     66  H   UNL A   1      41.550  30.519  34.521  1.00  0.00     0.167 HD
ATOM     67  C   UNL A   1      43.174  28.405  33.547  1.00  0.00     0.074 A 
ATOM     68  C   UNL A   1      43.732  27.400  32.667  1.00  0.00     0.031 C 
ATOM     69  C   UNL A   1      43.687  28.724  34.760  1.00  0.00     0.034 A 
BRANCH  56  70
ATOM     70  C   UNL A   1      40.804  33.403  37.582  1.00  0.00     0.023 A 
ATOM     71  C   UNL A   1      41.615  34.556  37.584  1.00  0.00     0.012 A 
ATOM     72  C   UNL A   1      39.916  33.181  38.652  1.00  0.00     0.148 A 
ATOM     73  C   UNL A   1      41.572  35.454  38.650  1.00  0.00     0.002 A 
ATOM     74  C   UNL A   1      39.843  34.106  39.687  1.00  0.00     0.091 A 
ATOM     75  F   UNL A   1      39.167  32.069  38.643  1.00  0.00    -0.205 F 
ATOM     76  C   UNL A   1      40.679  35.235  39.694  1.00  0.00     0.022 A 
BRANCH  74  77
ATOM     77  S   UNL A   1      38.666  33.959  41.036  1.00  0.00     0.127 S 
ATOM     78  O   UNL A   1      38.757  35.283  41.650  1.00  0.00    -0.237 OA
ATOM     79  O   UNL A   1      37.415  33.700  40.326  1.00  0.00    -0.237 OA
ATOM     80  O   UNL A   1      39.137  32.856  41.862  1.00  0.00    -0.744 OA
ENDBRANCH  74  77
ENDBRANCH  56  70
BRANCH  57  81
ATOM     81  C   UNL A   1      41.023  27.627  29.427  1.00  0.00     0.023 A 
ATOM     82  C   UNL A   1      40.270  26.441  29.335  1.00  0.00     0.012 A 
ATOM     83  C   UNL A   1      41.813  28.025  28.331  1.00  0.00     0.148 A 
ATOM     84  C   UNL A   1      40.327  25.649  28.187  1.00  0.00     0.002 A 
ATOM     85  C   UNL A   1      41.820  27.263  27.170  1.00  0.00     0.091 A 
ATOM     86  F   UNL A   1      42.529  29.152  28.443  1.00  0.00    -0.205 F 
ATOM     87  C   UNL A   1      41.094  26.064  27.102  1.00  0.00     0.022 A 
BRANCH  85  88
ATOM     88  S   UNL A   1      42.667  27.793  25.677  1.00  0.00     0.127 S 
ATOM     89  O   UNL A   1      42.049  29.093  25.428  1.00  0.00    -0.237 OA
ATOM     90  O   UNL A   1      44.059  27.847  26.126  1.00  0.00    -0.237 OA
ATOM     91  O   UNL A   1      42.397  26.762  24.685  1.00  0.00    -0.744 OA
ENDBRANCH  85  88
ENDBRANCH  57  81
BRANCH  69  92
ATOM     92  C   UNL A   1      44.878  27.947  35.252  1.00  0.00     0.023 A 
ATOM     93  C   UNL A   1      46.178  28.460  35.076  1.00  0.00     0.012 A 
ATOM     94  C   UNL A   1      44.694  26.762  35.992  1.00  0.00     0.148 A 
ATOM     95  C   UNL A   1      47.279  27.793  35.612  1.00  0.00     0.002 A 
ATOM     96  C   UNL A   1      45.789  26.131  36.567  1.00  0.00     0.091 A 
ATOM     97  F   UNL A   1      43.449  26.286  36.133  1.00  0.00    -0.205 F 
ATOM     98  C   UNL A   1      47.083  26.639  36.369  1.00  0.00     0.022 A 
BRANCH  96  99
ATOM     99  S   UNL A   1      45.626  24.702  37.642  1.00  0.00     0.127 S 
ATOM    100  O   UNL A   1      46.973  24.594  38.199  1.00  0.00    -0.237 OA
ATOM    101  O   UNL A   1      44.606  25.145  38.591  1.00  0.00    -0.237 OA
ATOM    102  O   UNL A   1      45.220  23.596  36.785  1.00  0.00    -0.744 OA
ENDBRANCH  96  99
ENDBRANCH  69  92
ENDBRANCH  43  44
ENDBRANCH  35  38
ENDBRANCH  33  34
ENDBRANCH  32  33
ENDBRANCH  31  32
ENDBRANCH  30  31
ENDBRANCH   1  30
TORSDOF 21
ENDMDL
MODEL 2
REMARK VINA RESULT:      -9.7      5.337     10.508
REMARK SMILES C/C(=N/[NH+]=C1\NC(=O)[C@H](CC(=O)NCCCCCCNC(=O)c2ccc(-c3c4nc(c(-c5cccc(S(=O)(=O)[O-])c5F)c5ccc([nH]5)c(-c5cccc(S(=O)(=O)[O-])c5F)c5nc(c(-c6cccc(S(=O)(=O)[O-])c6F)c6ccc3[nH]6)C=C5)C=C4)cc2)S1)c1ccc(OC(C)C)cc1
REMARK SMILES IDX 15 1 14 2 13 3 11 4 12 5 10 7 9 8 4 9 5 10 6 12 86 13 7 14
REMARK SMILES IDX 8 16 3 17 1 18 2 19 87 20 88 21 96 22 89 23 95 24 90 25
REMARK SMILES IDX 91 26 92 27 93 28 94 29 16 30 17 31 18 32 19 33 20 34 21 35
REMARK SMILES IDX 22 37 23 38 24 39 85 40 25 41 84 42 26 43 27 44 28 45 78 46
REMARK SMILES IDX 29 47 83 48 77 49 79 50 30 51 82 52 76 53 75 54 31 56 63 57
REMARK SMILES IDX 43 58 62 59 44 60 47 61 61 62 80 63 45 64 46 65 60 67 81 68
REMARK SMILES IDX 48 69 32 70 33 71 41 72 34 73 36 74 42 75 35 76 37 77 38 78
REMARK SMILES IDX 39 79 40 80 64 81 65 82 73 83 66 84 68 85 74 86 67 87 69 88
REMARK SMILES IDX 70 89 71 90 72 91 49 92 50 93 58 94 51 95 53 96 59 97 52 98
REMARK SMILES IDX 54 99 55 100 56 101 57 102
REMARK H PARENT 13 6 4 11 6 15 20 36 79 55 47 66
REMARK Flexibility Score: inf
ROOT
ATOM      1  C   UNL A   1      35.926  21.444  25.719  1.00  0.00     0.021 C 
ENDROOT
BRANCH   1   2
ATOM      2  C   UNL A   1      35.544  20.324  24.758  1.00  0.00     0.116 C 
BRANCH   2   3
ATOM      3  N   UNL A   1      34.345  19.618  25.164  1.00  0.00    -0.356 N 
ATOM      4  C   UNL A   1      33.043  19.903  24.877  1.00  0.00     0.221 C 
ATOM      5  O   UNL A   1      32.156  19.175  25.321  1.00  0.00    -0.275 OA
ATOM      6  H   UNL A   1      34.491  18.821  25.723  1.00  0.00     0.163 HD
BRANCH   4   7
ATOM      7  C   UNL A   1      32.712  21.098  24.014  1.00  0.00     0.127 C 
BRANCH   7   8
ATOM      8  C   UNL A   1      31.701  22.028  24.679  1.00  0.00     0.183 C 
ATOM      9  N   UNL A   1      32.838  25.554  23.787  1.00  0.00    -0.142 N 
ATOM     10  C   UNL A   1      32.392  24.476  24.331  1.00  0.00     0.337 C 
ATOM     11  H   UNL A   1      32.562  25.833  22.884  1.00  0.00     0.343 HD
ATOM     12  N   UNL A   1      32.693  24.016  25.563  1.00  0.00    -0.202 N 
ATOM     13  S   UNL A   1      31.328  23.381  23.497  1.00  0.00    -0.020 SA
ATOM     14  C   UNL A   1      32.249  22.768  25.893  1.00  0.00     0.322 C 
ATOM     15  H   UNL A   1      33.212  24.560  26.198  1.00  0.00     0.316 HD
ATOM     16  O   UNL A   1      32.327  22.298  27.015  1.00  0.00    -0.246 OA
BRANCH   9  17
ATOM     17  N   UNL A   1      33.738  26.309  24.547  1.00  0.00    -0.090 NA
ATOM     18  C   UNL A   1      34.318  28.319  25.737  1.00  0.00     0.071 C 
ATOM     19  C   UNL A   1      33.425  27.559  24.775  1.00  0.00     0.088 C 
BRANCH  19  20
ATOM     20  C   UNL A   1      32.342  28.339  24.093  1.00  0.00    -0.000 A 
ATOM     21  C   UNL A   1      31.053  28.417  24.615  1.00  0.00     0.014 A 
ATOM     22  C   UNL A   1      32.587  28.882  22.827  1.00  0.00     0.014 A 
ATOM     23  C   UNL A   1      30.011  28.927  23.833  1.00  0.00     0.047 A 
ATOM     24  C   UNL A   1      31.534  29.410  22.057  1.00  0.00     0.047 A 
ATOM     25  C   UNL A   1      30.233  29.405  22.537  1.00  0.00     0.119 A 
BRANCH  25  26
ATOM     26  O   UNL A   1      29.101  29.785  21.893  1.00  0.00    -0.491 OA
BRANCH  26  27
ATOM     27  C   UNL A   1      28.549  31.103  21.829  1.00  0.00     0.167 C 
ATOM     28  C   UNL A   1      27.948  31.524  20.494  1.00  0.00     0.052 C 
ATOM     29  C   UNL A   1      27.660  31.442  23.018  1.00  0.00     0.052 C 
ENDBRANCH  26  27
ENDBRANCH  25  26
ENDBRANCH  19  20
ENDBRANCH   9  17
ENDBRANCH   7   8
ENDBRANCH   4   7
ENDBRANCH   2   3
ENDBRANCH   1   2
BRANCH   1  30
ATOM     30  C   UNL A   1      37.405  21.838  25.682  1.00  0.00     0.002 C 
BRANCH  30  31
ATOM     31  C   UNL A   1      37.719  23.305  25.994  1.00  0.00     0.002 C 
BRANCH  31  32
ATOM     32  C   UNL A   1      39.154  23.600  26.427  1.00  0.00     0.021 C 
BRANCH  32  33
ATOM     33  C   UNL A   1      39.947  22.387  26.887  1.00  0.00     0.116 C 
BRANCH  33  34
ATOM     34  N   UNL A   1      41.127  22.163  26.068  1.00  0.00    -0.352 N 
ATOM     35  C   UNL A   1      42.093  23.061  25.688  1.00  0.00     0.251 C 
ATOM     36  H   UNL A   1      41.250  21.242  25.742  1.00  0.00     0.163 HD
ATOM     37  O   UNL A   1      42.914  22.759  24.827  1.00  0.00    -0.269 OA
BRANCH  35  38
ATOM     38  C   UNL A   1      42.122  24.401  26.311  1.00  0.00     0.039 A 
ATOM     39  C   UNL A   1      42.462  24.519  27.661  1.00  0.00     0.014 A 
ATOM     40  C   UNL A   1      41.838  25.540  25.553  1.00  0.00     0.014 A 
ATOM     41  C   UNL A   1      42.577  25.788  28.235  1.00  0.00     0.010 A 
ATOM     42  C   UNL A   1      42.039  26.801  26.101  1.00  0.00     0.010 A 
ATOM     43  C   UNL A   1      42.400  26.940  27.450  1.00  0.00    -0.014 A 
BRANCH  43  44
ATOM     44  C   UNL A   1      42.577  28.303  28.010  1.00  0.00     0.031 A 
ATOM     45  C   UNL A   1      43.955  28.900  28.099  1.00  0.00     0.074 A 
ATOM     46  C   UNL A   1      41.520  28.956  28.534  1.00  0.00     0.049 A 
ATOM     47  N   UNL A   1      44.336  30.016  28.664  1.00  0.00    -0.248 NA
ATOM     48  C   UNL A   1      45.057  28.123  27.505  1.00  0.00     0.031 C 
ATOM     49  C   UNL A   1      40.146  28.455  28.567  1.00  0.00     0.029 A 
ATOM     50  N   UNL A   1      41.445  30.170  29.173  1.00  0.00    -0.354 N 
ATOM     51  C   UNL A   1      45.719  30.053  28.533  1.00  0.00     0.074 A 
ATOM     52  C   UNL A   1      46.115  28.833  27.866  1.00  0.00     0.031 C 
ATOM     53  C   UNL A   1      39.365  29.349  29.194  1.00  0.00     0.029 A 
ATOM     54  C   UNL A   1      40.188  30.468  29.644  1.00  0.00     0.049 A 
ATOM     55  H   UNL A   1      42.217  30.770  29.284  1.00  0.00     0.167 HD
ATOM     56  C   UNL A   1      46.581  31.028  28.909  1.00  0.00     0.034 A 
ATOM     57  C   UNL A   1      39.749  31.513  30.375  1.00  0.00     0.034 A 
ATOM     58  C   UNL A   1      46.175  32.259  29.529  1.00  0.00     0.049 A 
ATOM     59  C   UNL A   1      40.722  32.594  30.759  1.00  0.00     0.074 A 
ATOM     60  C   UNL A   1      46.958  33.348  29.868  1.00  0.00     0.029 A 
ATOM     61  N   UNL A   1      44.879  32.562  29.914  1.00  0.00    -0.354 N 
ATOM     62  N   UNL A   1      42.004  32.679  30.499  1.00  0.00    -0.248 NA
ATOM     63  C   UNL A   1      40.186  33.739  31.511  1.00  0.00     0.031 C 
ATOM     64  C   UNL A   1      46.141  34.296  30.486  1.00  0.00     0.029 A 
ATOM     65  C   UNL A   1      44.841  33.815  30.497  1.00  0.00     0.049 A 
ATOM     66  H   UNL A   1      44.100  31.973  29.789  1.00  0.00     0.167 HD
ATOM     67  C   UNL A   1      42.418  33.902  31.015  1.00  0.00     0.074 A 
ATOM     68  C   UNL A   1      41.249  34.530  31.594  1.00  0.00     0.031 C 
ATOM     69  C   UNL A   1      43.656  34.452  31.014  1.00  0.00     0.034 A 
BRANCH  56  70
ATOM     70  C   UNL A   1      48.045  30.822  28.623  1.00  0.00     0.023 A 
ATOM     71  C   UNL A   1      48.604  31.332  27.434  1.00  0.00     0.012 A 
ATOM     72  C   UNL A   1      48.878  30.176  29.557  1.00  0.00     0.148 A 
ATOM     73  C   UNL A   1      49.962  31.170  27.160  1.00  0.00     0.002 A 
ATOM     74  C   UNL A   1      50.239  30.063  29.300  1.00  0.00     0.091 A 
ATOM     75  F   UNL A   1      48.325  29.679  30.673  1.00  0.00    -0.205 F 
ATOM     76  C   UNL A   1      50.780  30.546  28.097  1.00  0.00     0.022 A 
BRANCH  74  77
ATOM     77  S   UNL A   1      51.393  29.351  30.479  1.00  0.00     0.127 S 
ATOM     78  O   UNL A   1      51.192  30.213  31.643  1.00  0.00    -0.237 OA
ATOM     79  O   UNL A   1      50.877  27.991  30.631  1.00  0.00    -0.237 OA
ATOM     80  O   UNL A   1      52.707  29.437  29.859  1.00  0.00    -0.744 OA
ENDBRANCH  74  77
ENDBRANCH  56  70
BRANCH  57  81
ATOM     81  C   UNL A   1      38.310  31.609  30.749  1.00  0.00     0.023 A 
ATOM     82  C   UNL A   1      37.879  31.092  31.986  1.00  0.00     0.012 A 
ATOM     83  C   UNL A   1      37.373  32.229  29.900  1.00  0.00     0.148 A 
ATOM     84  C   UNL A   1      36.535  31.161  32.357  1.00  0.00     0.002 A 
ATOM     85  C   UNL A   1      36.048  32.348  30.301  1.00  0.00     0.091 A 
ATOM     86  F   UNL A   1      37.802  32.707  28.724  1.00  0.00    -0.205 F 
ATOM     87  C   UNL A   1      35.622  31.798  31.520  1.00  0.00     0.022 A 
BRANCH  85  88
ATOM     88  S   UNL A   1      34.836  33.272  29.351  1.00  0.00     0.127 S 
ATOM     89  O   UNL A   1      33.817  33.554  30.359  1.00  0.00    -0.237 OA
ATOM     90  O   UNL A   1      35.615  34.433  28.918  1.00  0.00    -0.237 OA
ATOM     91  O   UNL A   1      34.428  32.387  28.268  1.00  0.00    -0.744 OA
ENDBRANCH  85  88
ENDBRANCH  57  81
BRANCH  69  92
ATOM     92  C   UNL A   1      43.820  35.828  31.603  1.00  0.00     0.023 A 
ATOM     93  C   UNL A   1      44.104  35.980  32.975  1.00  0.00     0.012 A 
ATOM     94  C   UNL A   1      43.805  36.962  30.768  1.00  0.00     0.148 A 
ATOM     95  C   UNL A   1      44.351  37.244  33.508  1.00  0.00     0.002 A 
ATOM     96  C   UNL A   1      44.103  38.211  31.296  1.00  0.00     0.091 A 
ATOM     97  F   UNL A   1      43.518  36.794  29.469  1.00  0.00    -0.205 F 
ATOM     98  C   UNL A   1      44.365  38.356  32.668  1.00  0.00     0.022 A 
BRANCH  96  99
ATOM     99  S   UNL A   1      44.247  39.682  30.275  1.00  0.00     0.127 S 
ATOM    100  O   UNL A   1      45.082  39.200  29.175  1.00  0.00    -0.237 OA
ATOM    101  O   UNL A   1      42.855  39.945  29.915  1.00  0.00    -0.237 OA
ATOM    102  O   UNL A   1      44.860  40.701  31.117  1.00  0.00    -0.744 OA
ENDBRANCH  96  99
ENDBRANCH  69  92
ENDBRANCH  43  44
ENDBRANCH  35  38
ENDBRANCH  33  34
ENDBRANCH  32  33
ENDBRANCH  31  32
ENDBRANCH  30  31
ENDBRANCH   1  30
TORSDOF 21
ENDMDL
MODEL 3
REMARK VINA RESULT:      -9.2      5.466      9.976
REMARK SMILES C/C(=N/[NH+]=C1\NC(=O)[C@H](CC(=O)NCCCCCCNC(=O)c2ccc(-c3c4nc(c(-c5cccc(S(=O)(=O)[O-])c5F)c5ccc([nH]5)c(-c5cccc(S(=O)(=O)[O-])c5F)c5nc(c(-c6cccc(S(=O)(=O)[O-])c6F)c6ccc3[nH]6)C=C5)C=C4)cc2)S1)c1ccc(OC(C)C)cc1
REMARK SMILES IDX 15 1 14 2 13 3 11 4 12 5 10 7 9 8 4 9 5 10 6 12 86 13 7 14
REMARK SMILES IDX 8 16 3 17 1 18 2 19 87 20 88 21 96 22 89 23 95 24 90 25
REMARK SMILES IDX 91 26 92 27 93 28 94 29 16 30 17 31 18 32 19 33 20 34 21 35
REMARK SMILES IDX 22 37 23 38 24 39 85 40 25 41 84 42 26 43 27 44 28 45 78 46
REMARK SMILES IDX 29 47 83 48 77 49 79 50 30 51 82 52 76 53 75 54 31 56 63 57
REMARK SMILES IDX 43 58 62 59 44 60 47 61 61 62 80 63 45 64 46 65 60 67 81 68
REMARK SMILES IDX 48 69 32 70 33 71 41 72 34 73 36 74 42 75 35 76 37 77 38 78
REMARK SMILES IDX 39 79 40 80 64 81 65 82 73 83 66 84 68 85 74 86 67 87 69 88
REMARK SMILES IDX 70 89 71 90 72 91 49 92 50 93 58 94 51 95 53 96 59 97 52 98
REMARK SMILES IDX 54 99 55 100 56 101 57 102
REMARK H PARENT 13 6 4 11 6 15 20 36 79 55 47 66
REMARK Flexibility Score: inf
ROOT
ATOM      1  C   UNL A   1      35.819  21.954  25.533  1.00  0.00     0.021 C 
ENDROOT
BRANCH   1   2
ATOM      2  C   UNL A   1      35.473  20.781  24.624  1.00  0.00     0.116 C 
BRANCH   2   3
ATOM      3  N   UNL A   1      34.332  20.021  25.096  1.00  0.00    -0.356 N 
ATOM      4  C   UNL A   1      33.004  20.280  24.935  1.00  0.00     0.221 C 
ATOM      5  O   UNL A   1      32.177  19.505  25.417  1.00  0.00    -0.275 OA
ATOM      6  H   UNL A   1      34.547  19.203  25.601  1.00  0.00     0.163 HD
BRANCH   4   7
ATOM      7  C   UNL A   1      32.568  21.503  24.164  1.00  0.00     0.127 C 
BRANCH   7   8
ATOM      8  C   UNL A   1      31.588  22.365  24.954  1.00  0.00     0.183 C 
ATOM      9  N   UNL A   1      32.435  25.963  24.022  1.00  0.00    -0.142 N 
ATOM     10  C   UNL A   1      32.107  24.853  24.588  1.00  0.00     0.337 C 
ATOM     11  H   UNL A   1      32.047  26.240  23.161  1.00  0.00     0.343 HD
ATOM     12  N   UNL A   1      32.564  24.390  25.769  1.00  0.00    -0.202 N 
ATOM     13  S   UNL A   1      31.018  23.716  23.849  1.00  0.00    -0.020 SA
ATOM     14  C   UNL A   1      32.225  23.115  26.118  1.00  0.00     0.322 C 
ATOM     15  H   UNL A   1      33.121  24.951  26.357  1.00  0.00     0.316 HD
ATOM     16  O   UNL A   1      32.450  22.632  27.214  1.00  0.00    -0.246 OA
BRANCH   9  17
ATOM     17  N   UNL A   1      33.370  26.753  24.698  1.00  0.00    -0.090 NA
ATOM     18  C   UNL A   1      34.033  28.841  25.696  1.00  0.00     0.071 C 
ATOM     19  C   UNL A   1      33.099  28.027  24.820  1.00  0.00     0.088 C 
BRANCH  19  20
ATOM     20  C   UNL A   1      32.027  28.777  24.090  1.00  0.00    -0.000 A 
ATOM     21  C   UNL A   1      30.900  29.271  24.744  1.00  0.00     0.014 A 
ATOM     22  C   UNL A   1      32.082  28.861  22.694  1.00  0.00     0.014 A 
ATOM     23  C   UNL A   1      29.806  29.731  24.003  1.00  0.00     0.047 A 
ATOM     24  C   UNL A   1      30.983  29.343  21.960  1.00  0.00     0.047 A 
ATOM     25  C   UNL A   1      29.824  29.749  22.604  1.00  0.00     0.119 A 
BRANCH  25  26
ATOM     26  O   UNL A   1      28.652  30.148  22.048  1.00  0.00    -0.491 OA
BRANCH  26  27
ATOM     27  C   UNL A   1      28.170  31.488  21.925  1.00  0.00     0.167 C 
ATOM     28  C   UNL A   1      28.823  32.530  22.826  1.00  0.00     0.052 C 
ATOM     29  C   UNL A   1      28.033  31.949  20.480  1.00  0.00     0.052 C 
ENDBRANCH  26  27
ENDBRANCH  25  26
ENDBRANCH  19  20
ENDBRANCH   9  17
ENDBRANCH   7   8
ENDBRANCH   4   7
ENDBRANCH   2   3
ENDBRANCH   1   2
BRANCH   1  30
ATOM     30  C   UNL A   1      37.319  22.150  25.778  1.00  0.00     0.002 C 
BRANCH  30  31
ATOM     31  C   UNL A   1      37.766  23.576  26.117  1.00  0.00     0.002 C 
BRANCH  31  32
ATOM     32  C   UNL A   1      39.230  23.735  26.522  1.00  0.00     0.021 C 
BRANCH  32  33
ATOM     33  C   UNL A   1      39.937  22.440  26.887  1.00  0.00     0.116 C 
BRANCH  33  34
ATOM     34  N   UNL A   1      41.120  22.216  26.072  1.00  0.00    -0.352 N 
ATOM     35  C   UNL A   1      42.130  23.093  25.760  1.00  0.00     0.251 C 
ATOM     36  H   UNL A   1      41.209  21.312  25.691  1.00  0.00     0.163 HD
ATOM     37  O   UNL A   1      42.950  22.809  24.894  1.00  0.00    -0.269 OA
BRANCH  35  38
ATOM     38  C   UNL A   1      42.205  24.390  26.465  1.00  0.00     0.039 A 
ATOM     39  C   UNL A   1      42.548  24.412  27.820  1.00  0.00     0.014 A 
ATOM     40  C   UNL A   1      41.960  25.583  25.780  1.00  0.00     0.014 A 
ATOM     41  C   UNL A   1      42.707  25.638  28.470  1.00  0.00     0.010 A 
ATOM     42  C   UNL A   1      42.205  26.799  26.405  1.00  0.00     0.010 A 
ATOM     43  C   UNL A   1      42.571  26.842  27.759  1.00  0.00    -0.014 A 
BRANCH  43  44
ATOM     44  C   UNL A   1      42.794  28.161  28.402  1.00  0.00     0.031 A 
ATOM     45  C   UNL A   1      41.623  28.935  28.944  1.00  0.00     0.074 A 
ATOM     46  C   UNL A   1      44.026  28.709  28.402  1.00  0.00     0.049 A 
ATOM     47  N   UNL A   1      41.588  30.148  29.427  1.00  0.00    -0.248 NA
ATOM     48  C   UNL A   1      40.309  28.267  28.907  1.00  0.00     0.031 C 
ATOM     49  C   UNL A   1      45.230  28.086  27.849  1.00  0.00     0.029 A 
ATOM     50  N   UNL A   1      44.463  29.930  28.852  1.00  0.00    -0.354 N 
ATOM     51  C   UNL A   1      40.251  30.406  29.708  1.00  0.00     0.074 A 
ATOM     52  C   UNL A   1      39.501  29.236  29.310  1.00  0.00     0.031 C 
ATOM     53  C   UNL A   1      46.266  28.928  27.988  1.00  0.00     0.029 A 
ATOM     54  C   UNL A   1      45.795  30.166  28.603  1.00  0.00     0.049 A 
ATOM     55  H   UNL A   1      43.878  30.577  29.309  1.00  0.00     0.167 HD
ATOM     56  C   UNL A   1      39.700  31.507  30.272  1.00  0.00     0.034 A 
ATOM     57  C   UNL A   1      46.548  31.262  28.825  1.00  0.00     0.034 A 
ATOM     58  C   UNL A   1      40.457  32.647  30.707  1.00  0.00     0.049 A 
ATOM     59  C   UNL A   1      45.917  32.463  29.475  1.00  0.00     0.074 A 
ATOM     60  C   UNL A   1      40.007  33.775  31.371  1.00  0.00     0.029 A 
ATOM     61  N   UNL A   1      41.820  32.813  30.517  1.00  0.00    -0.354 N 
ATOM     62  N   UNL A   1      44.677  32.632  29.865  1.00  0.00    -0.248 NA
ATOM     63  C   UNL A   1      46.792  33.614  29.744  1.00  0.00     0.031 C 
ATOM     64  C   UNL A   1      41.091  34.636  31.552  1.00  0.00     0.029 A 
ATOM     65  C   UNL A   1      42.225  34.029  31.037  1.00  0.00     0.049 A 
ATOM     66  H   UNL A   1      42.412  32.162  30.076  1.00  0.00     0.167 HD
ATOM     67  C   UNL A   1      44.633  33.886  30.464  1.00  0.00     0.074 A 
ATOM     68  C   UNL A   1      45.972  34.431  30.394  1.00  0.00     0.031 C 
ATOM     69  C   UNL A   1      43.576  34.530  31.015  1.00  0.00     0.034 A 
BRANCH  56  70
ATOM     70  C   UNL A   1      38.210  31.515  30.488  1.00  0.00     0.023 A 
ATOM     71  C   UNL A   1      37.670  30.941  31.656  1.00  0.00     0.012 A 
ATOM     72  C   UNL A   1      37.351  32.142  29.565  1.00  0.00     0.148 A 
ATOM     73  C   UNL A   1      36.294  30.957  31.886  1.00  0.00     0.002 A 
ATOM     74  C   UNL A   1      35.986  32.198  29.825  1.00  0.00     0.091 A 
ATOM     75  F   UNL A   1      37.880  32.665  28.450  1.00  0.00    -0.205 F 
ATOM     76  C   UNL A   1      35.455  31.595  30.977  1.00  0.00     0.022 A 
BRANCH  74  77
ATOM     77  S   UNL A   1      34.831  33.068  28.759  1.00  0.00     0.127 S 
ATOM     78  O   UNL A   1      34.674  32.118  27.659  1.00  0.00    -0.237 OA
ATOM     79  O   UNL A   1      33.659  33.203  29.622  1.00  0.00    -0.237 OA
ATOM     80  O   UNL A   1      35.477  34.327  28.409  1.00  0.00    -0.744 OA
ENDBRANCH  74  77
ENDBRANCH  56  70
BRANCH  57  81
ATOM     81  C   UNL A   1      47.997  31.254  28.472  1.00  0.00     0.023 A 
ATOM     82  C   UNL A   1      48.412  31.784  27.235  1.00  0.00     0.012 A 
ATOM     83  C   UNL A   1      48.964  30.749  29.362  1.00  0.00     0.148 A 
ATOM     84  C   UNL A   1      49.760  31.782  26.877  1.00  0.00     0.002 A 
ATOM     85  C   UNL A   1      50.311  30.803  29.024  1.00  0.00     0.091 A 
ATOM     86  F   UNL A   1      48.547  30.241  30.530  1.00  0.00    -0.205 F 
ATOM     87  C   UNL A   1      50.710  31.301  27.774  1.00  0.00     0.022 A 
BRANCH  85  88
ATOM     88  S   UNL A   1      51.609  30.335  30.172  1.00  0.00     0.127 S 
ATOM     89  O   UNL A   1      52.813  30.637  29.403  1.00  0.00    -0.237 OA
ATOM     90  O   UNL A   1      51.353  31.235  31.298  1.00  0.00    -0.237 OA
ATOM     91  O   UNL A   1      51.382  28.927  30.468  1.00  0.00    -0.744 OA
ENDBRANCH  85  88
ENDBRANCH  57  81
BRANCH  69  92
ATOM     92  C   UNL A   1      43.817  35.876  31.645  1.00  0.00     0.023 A 
ATOM     93  C   UNL A   1      44.183  35.964  33.003  1.00  0.00     0.012 A 
ATOM     94  C   UNL A   1      43.789  37.042  30.856  1.00  0.00     0.148 A 
ATOM     95  C   UNL A   1      44.500  37.199  33.568  1.00  0.00     0.002 A 
ATOM     96  C   UNL A   1      44.156  38.260  31.413  1.00  0.00     0.091 A 
ATOM     97  F   UNL A   1      43.423  36.934  29.571  1.00  0.00    -0.205 F 
ATOM     98  C   UNL A   1      44.501  38.342  32.772  1.00  0.00     0.022 A 
BRANCH  96  99
ATOM     99  S   UNL A   1      44.288  39.766  30.442  1.00  0.00     0.127 S 
ATOM    100  O   UNL A   1      45.436  39.468  29.586  1.00  0.00    -0.237 OA
ATOM    101  O   UNL A   1      43.002  39.798  29.748  1.00  0.00    -0.237 OA
ATOM    102  O   UNL A   1      44.492  40.846  31.397  1.00  0.00    -0.744 OA
ENDBRANCH  96  99
ENDBRANCH  69  92
ENDBRANCH  43  44
ENDBRANCH  35  38
ENDBRANCH  33  34
ENDBRANCH  32  33
ENDBRANCH  31  32
ENDBRANCH  30  31
ENDBRANCH   1  30
TORSDOF 21
ENDMDL
