MODEL 1
REMARK VINA RESULT:     -11.8      0.000      0.000
REMARK SMILES CC1(C)S[C@@H]2[C@H]([NH2+]Cn3nnc4ccccc43)C(=O)N2[C@@H]1C(=O)NCCCCCCNC(=O)c1ccc(-c2c3nc(c(-c4cccc(S(=O)(=O)[O-])c4F)c4ccc([nH]4)c(-c4cccc(S(=O)(=O)[O-])c4F)c4nc(c(-c5cccc(S(=O)(=O)[O-])c5F)c5ccc2[nH]5)C=C4)C=C3)cc1
REMARK SMILES IDX 27 1 26 2 25 3 24 4 22 5 23 6 21 8 1 9 2 10 3 11 4 12 5 13
REMARK SMILES IDX 20 14 6 15 18 16 19 17 7 18 8 21 9 22 10 23 17 24 11 25
REMARK SMILES IDX 12 26 16 27 13 28 15 29 14 30 28 31 29 32 30 33 31 34 32 35
REMARK SMILES IDX 33 37 34 38 35 39 96 40 36 41 95 42 37 43 38 44 39 45 89 46
REMARK SMILES IDX 40 47 94 48 88 49 90 50 41 51 93 52 87 53 86 54 42 56 74 57
REMARK SMILES IDX 54 58 73 59 55 60 58 61 72 62 91 63 56 64 57 65 71 67 92 68
REMARK SMILES IDX 59 69 43 70 44 71 52 72 45 73 47 74 53 75 46 76 48 77 49 78
REMARK SMILES IDX 50 79 51 80 75 81 76 82 84 83 77 84 79 85 85 86 78 87 80 88
REMARK SMILES IDX 81 89 82 90 83 91 60 92 61 93 69 94 62 95 64 96 70 97 63 98
REMARK SMILES IDX 65 99 66 100 67 101 68 102
REMARK H PARENT 24 7 7 19 7 20 31 36 90 55 58 66
REMARK Flexibility Score: inf
ROOT
ATOM      1  C   UNL A   1      37.190  23.198  25.841  1.00  0.00     0.002 C 
ENDROOT
BRANCH   1   2
ATOM      2  C   UNL A   1      36.183  24.039  25.052  1.00  0.00     0.021 C 
BRANCH   2   3
ATOM      3  C   UNL A   1      34.819  24.239  25.715  1.00  0.00     0.116 C 
BRANCH   3   4
ATOM      4  N   UNL A   1      34.537  23.282  26.769  1.00  0.00    -0.354 N 
ATOM      5  C   UNL A   1      33.637  22.258  26.833  1.00  0.00     0.244 C 
ATOM      6  O   UNL A   1      33.805  21.428  27.738  1.00  0.00    -0.273 OA
ATOM      7  H   UNL A   1      35.091  23.390  27.576  1.00  0.00     0.163 HD
BRANCH   5   8
ATOM      8  C   UNL A   1      32.539  21.990  25.772  1.00  0.00     0.191 C 
ATOM      9  C   UNL A   1      34.508  20.888  24.432  1.00  0.00     0.026 C 
ATOM     10  C   UNL A   1      33.006  21.183  24.513  1.00  0.00     0.042 C 
ATOM     11  C   UNL A   1      32.234  19.863  24.346  1.00  0.00     0.026 C 
ATOM     12  S   UNL A   1      32.480  22.180  22.997  1.00  0.00    -0.121 SA
ATOM     13  C   UNL A   1      31.263  23.136  23.934  1.00  0.00     0.213 C 
ATOM     14  N   UNL A   1      31.915  23.175  25.230  1.00  0.00    -0.306 N 
ATOM     15  C   UNL A   1      31.061  24.680  24.092  1.00  0.00     0.307 C 
ATOM     16  C   UNL A   1      31.355  24.318  25.629  1.00  0.00     0.285 C 
ATOM     17  O   UNL A   1      31.246  24.816  26.730  1.00  0.00    -0.268 OA
BRANCH  15  18
ATOM     18  N   UNL A   1      31.992  25.682  23.498  1.00  0.00    -0.315 N 
ATOM     19  H   UNL A   1      32.532  25.218  22.766  1.00  0.00     0.348 HD
ATOM     20  H   UNL A   1      32.566  26.029  24.265  1.00  0.00     0.348 HD
BRANCH  18  21
ATOM     21  C   UNL A   1      31.350  26.844  22.914  1.00  0.00     0.415 C 
BRANCH  21  22
ATOM     22  N   UNL A   1      31.343  28.039  23.752  1.00  0.00    -0.194 N 
ATOM     23  N   UNL A   1      30.425  29.017  23.675  1.00  0.00    -0.061 NA
ATOM     24  C   UNL A   1      32.281  28.283  24.730  1.00  0.00     0.095 A 
ATOM     25  N   UNL A   1      30.763  29.939  24.574  1.00  0.00    -0.130 NA
ATOM     26  C   UNL A   1      31.880  29.502  25.249  1.00  0.00     0.113 A 
ATOM     27  C   UNL A   1      33.385  27.565  25.212  1.00  0.00     0.030 A 
ATOM     28  C   UNL A   1      32.594  30.035  26.330  1.00  0.00     0.032 A 
ATOM     29  C   UNL A   1      34.060  28.101  26.311  1.00  0.00     0.002 A 
ATOM     30  C   UNL A   1      33.665  29.314  26.872  1.00  0.00     0.002 A 
ENDBRANCH  21  22
ENDBRANCH  18  21
ENDBRANCH  15  18
ENDBRANCH   5   8
ENDBRANCH   3   4
ENDBRANCH   2   3
ENDBRANCH   1   2
BRANCH   1  31
ATOM     31  C   UNL A   1      37.757  21.964  25.123  1.00  0.00     0.002 C 
BRANCH  31  32
ATOM     32  C   UNL A   1      38.905  21.230  25.827  1.00  0.00     0.021 C 
BRANCH  32  33
ATOM     33  C   UNL A   1      38.964  19.715  25.643  1.00  0.00     0.116 C 
BRANCH  33  34
ATOM     34  N   UNL A   1      40.289  19.194  25.384  1.00  0.00    -0.352 N 
ATOM     35  C   UNL A   1      41.540  19.428  25.888  1.00  0.00     0.251 C 
ATOM     36  H   UNL A   1      40.291  18.508  24.678  1.00  0.00     0.163 HD
ATOM     37  O   UNL A   1      42.408  18.621  25.543  1.00  0.00    -0.269 OA
BRANCH  35  38
ATOM     38  C   UNL A   1      41.948  20.606  26.704  1.00  0.00     0.039 A 
ATOM     39  C   UNL A   1      41.881  20.724  28.089  1.00  0.00     0.014 A 
ATOM     40  C   UNL A   1      42.403  21.716  25.966  1.00  0.00     0.014 A 
ATOM     41  C   UNL A   1      42.081  21.969  28.691  1.00  0.00     0.010 A 
ATOM     42  C   UNL A   1      42.616  22.951  26.565  1.00  0.00     0.010 A 
ATOM     43  C   UNL A   1      42.349  23.102  27.917  1.00  0.00    -0.014 A 
BRANCH  43  44
ATOM     44  C   UNL A   1      42.402  24.413  28.568  1.00  0.00     0.031 A 
ATOM     45  C   UNL A   1      41.256  25.311  28.254  1.00  0.00     0.074 A 
ATOM     46  C   UNL A   1      43.367  24.764  29.450  1.00  0.00     0.049 A 
ATOM     47  N   UNL A   1      41.276  26.433  27.610  1.00  0.00    -0.248 NA
ATOM     48  C   UNL A   1      39.905  24.828  28.577  1.00  0.00     0.031 C 
ATOM     49  C   UNL A   1      44.421  23.920  30.025  1.00  0.00     0.029 A 
ATOM     50  N   UNL A   1      43.540  25.943  30.117  1.00  0.00    -0.354 N 
ATOM     51  C   UNL A   1      39.966  26.910  27.653  1.00  0.00     0.074 A 
ATOM     52  C   UNL A   1      39.146  25.814  28.098  1.00  0.00     0.031 C 
ATOM     53  C   UNL A   1      44.936  24.524  31.120  1.00  0.00     0.029 A 
ATOM     54  C   UNL A   1      44.368  25.852  31.238  1.00  0.00     0.049 A 
ATOM     55  H   UNL A   1      43.116  26.785  29.833  1.00  0.00     0.167 HD
ATOM     56  C   UNL A   1      39.678  28.238  27.562  1.00  0.00     0.034 A 
ATOM     57  C   UNL A   1      44.526  26.787  32.213  1.00  0.00     0.034 A 
ATOM     58  C   UNL A   1      40.766  28.991  26.999  1.00  0.00     0.049 A 
ATOM     59  C   UNL A   1      44.114  28.079  31.624  1.00  0.00     0.074 A 
ATOM     60  C   UNL A   1      41.456  28.962  25.803  1.00  0.00     0.029 A 
ATOM     61  N   UNL A   1      41.555  29.701  27.870  1.00  0.00    -0.354 N 
ATOM     62  N   UNL A   1      44.753  28.664  30.652  1.00  0.00    -0.248 NA
ATOM     63  C   UNL A   1      42.740  28.507  31.831  1.00  0.00     0.031 C 
ATOM     64  C   UNL A   1      42.814  29.204  26.163  1.00  0.00     0.029 A 
ATOM     65  C   UNL A   1      42.856  29.433  27.539  1.00  0.00     0.049 A 
ATOM     66  H   UNL A   1      41.243  30.291  28.593  1.00  0.00     0.167 HD
ATOM     67  C   UNL A   1      43.748  29.183  29.849  1.00  0.00     0.074 A 
ATOM     68  C   UNL A   1      42.538  29.136  30.671  1.00  0.00     0.031 C 
ATOM     69  C   UNL A   1      43.924  29.329  28.505  1.00  0.00     0.034 A 
BRANCH  56  70
ATOM     70  C   UNL A   1      38.561  28.909  28.323  1.00  0.00     0.023 A 
ATOM     71  C   UNL A   1      37.682  29.755  27.613  1.00  0.00     0.012 A 
ATOM     72  C   UNL A   1      38.511  28.969  29.736  1.00  0.00     0.148 A 
ATOM     73  C   UNL A   1      36.815  30.631  28.277  1.00  0.00     0.002 A 
ATOM     74  C   UNL A   1      37.599  29.788  30.390  1.00  0.00     0.091 A 
ATOM     75  F   UNL A   1      39.440  28.340  30.461  1.00  0.00    -0.205 F 
ATOM     76  C   UNL A   1      36.764  30.640  29.667  1.00  0.00     0.022 A 
BRANCH  74  77
ATOM     77  S   UNL A   1      37.487  29.821  32.183  1.00  0.00     0.127 S 
ATOM     78  O   UNL A   1      36.304  30.651  32.384  1.00  0.00    -0.237 OA
ATOM     79  O   UNL A   1      37.314  28.402  32.498  1.00  0.00    -0.237 OA
ATOM     80  O   UNL A   1      38.752  30.383  32.640  1.00  0.00    -0.744 OA
ENDBRANCH  74  77
ENDBRANCH  56  70
BRANCH  57  81
ATOM     81  C   UNL A   1      44.748  26.647  33.679  1.00  0.00     0.023 A 
ATOM     82  C   UNL A   1      45.953  27.124  34.245  1.00  0.00     0.012 A 
ATOM     83  C   UNL A   1      43.685  26.348  34.559  1.00  0.00     0.148 A 
ATOM     84  C   UNL A   1      46.074  27.352  35.623  1.00  0.00     0.002 A 
ATOM     85  C   UNL A   1      43.813  26.566  35.931  1.00  0.00     0.091 A 
ATOM     86  F   UNL A   1      42.518  25.941  34.046  1.00  0.00    -0.205 F 
ATOM     87  C   UNL A   1      44.999  27.086  36.465  1.00  0.00     0.022 A 
BRANCH  85  88
ATOM     88  S   UNL A   1      42.468  26.253  37.084  1.00  0.00     0.127 S 
ATOM     89  O   UNL A   1      42.196  24.834  36.853  1.00  0.00    -0.237 OA
ATOM     90  O   UNL A   1      43.093  26.553  38.369  1.00  0.00    -0.237 OA
ATOM     91  O   UNL A   1      41.386  27.142  36.681  1.00  0.00    -0.744 OA
ENDBRANCH  85  88
ENDBRANCH  57  81
BRANCH  69  92
ATOM     92  C   UNL A   1      45.303  29.107  27.938  1.00  0.00     0.023 A 
ATOM     93  C   UNL A   1      46.305  30.102  27.993  1.00  0.00     0.012 A 
ATOM     94  C   UNL A   1      45.656  27.805  27.551  1.00  0.00     0.148 A 
ATOM     95  C   UNL A   1      47.632  29.798  27.675  1.00  0.00     0.002 A 
ATOM     96  C   UNL A   1      46.981  27.499  27.270  1.00  0.00     0.091 A 
ATOM     97  F   UNL A   1      44.690  26.874  27.521  1.00  0.00    -0.205 F 
ATOM     98  C   UNL A   1      47.973  28.492  27.328  1.00  0.00     0.022 A 
BRANCH  96  99
ATOM     99  S   UNL A   1      47.513  25.820  26.931  1.00  0.00     0.127 S 
ATOM    100  O   UNL A   1      47.248  25.152  28.203  1.00  0.00    -0.237 OA
ATOM    101  O   UNL A   1      46.619  25.431  25.838  1.00  0.00    -0.237 OA
ATOM    102  O   UNL A   1      48.919  25.904  26.554  1.00  0.00    -0.744 OA
ENDBRANCH  96  99
ENDBRANCH  69  92
ENDBRANCH  43  44
ENDBRANCH  35  38
ENDBRANCH  33  34
ENDBRANCH  32  33
ENDBRANCH  31  32
ENDBRANCH   1  31
TORSDOF 19
ENDMDL
MODEL 2
REMARK VINA RESULT:     -11.2      3.408      7.192
REMARK SMILES CC1(C)S[C@@H]2[C@H]([NH2+]Cn3nnc4ccccc43)C(=O)N2[C@@H]1C(=O)NCCCCCCNC(=O)c1ccc(-c2c3nc(c(-c4cccc(S(=O)(=O)[O-])c4F)c4ccc([nH]4)c(-c4cccc(S(=O)(=O)[O-])c4F)c4nc(c(-c5cccc(S(=O)(=O)[O-])c5F)c5ccc2[nH]5)C=C4)C=C3)cc1
REMARK SMILES IDX 27 1 26 2 25 3 24 4 22 5 23 6 21 8 1 9 2 10 3 11 4 12 5 13
REMARK SMILES IDX 20 14 6 15 18 16 19 17 7 18 8 21 9 22 10 23 17 24 11 25
REMARK SMILES IDX 12 26 16 27 13 28 15 29 14 30 28 31 29 32 30 33 31 34 32 35
REMARK SMILES IDX 33 37 34 38 35 39 96 40 36 41 95 42 37 43 38 44 39 45 89 46
REMARK SMILES IDX 40 47 94 48 88 49 90 50 41 51 93 52 87 53 86 54 42 56 74 57
REMARK SMILES IDX 54 58 73 59 55 60 58 61 72 62 91 63 56 64 57 65 71 67 92 68
REMARK SMILES IDX 59 69 43 70 44 71 52 72 45 73 47 74 53 75 46 76 48 77 49 78
REMARK SMILES IDX 50 79 51 80 75 81 76 82 84 83 77 84 79 85 85 86 78 87 80 88
REMARK SMILES IDX 81 89 82 90 83 91 60 92 61 93 69 94 62 95 64 96 70 97 63 98
REMARK SMILES IDX 65 99 66 100 67 101 68 102
REMARK H PARENT 24 7 7 19 7 20 31 36 90 55 58 66
REMARK Flexibility Score: inf
ROOT
ATOM      1  C   UNL A   1      38.297  23.898  26.100  1.00  0.00     0.002 C 
ENDROOT
BRANCH   1   2
ATOM      2  C   UNL A   1      36.894  24.073  25.511  1.00  0.00     0.021 C 
BRANCH   2   3
ATOM      3  C   UNL A   1      36.057  22.799  25.397  1.00  0.00     0.116 C 
BRANCH   3   4
ATOM      4  N   UNL A   1      35.442  22.391  26.646  1.00  0.00    -0.354 N 
ATOM      5  C   UNL A   1      34.207  21.872  26.911  1.00  0.00     0.244 C 
ATOM      6  O   UNL A   1      34.051  21.354  28.026  1.00  0.00    -0.273 OA
ATOM      7  H   UNL A   1      36.013  22.508  27.439  1.00  0.00     0.163 HD
BRANCH   5   8
ATOM      8  C   UNL A   1      33.066  21.753  25.868  1.00  0.00     0.191 C 
ATOM      9  C   UNL A   1      34.603  19.898  24.825  1.00  0.00     0.026 C 
ATOM     10  C   UNL A   1      33.256  20.631  24.791  1.00  0.00     0.042 C 
ATOM     11  C   UNL A   1      32.126  19.589  24.826  1.00  0.00     0.026 C 
ATOM     12  S   UNL A   1      33.031  21.449  23.103  1.00  0.00    -0.121 SA
ATOM     13  C   UNL A   1      32.165  22.873  23.806  1.00  0.00     0.213 C 
ATOM     14  N   UNL A   1      32.815  22.951  25.101  1.00  0.00    -0.306 N 
ATOM     15  C   UNL A   1      32.432  24.410  23.683  1.00  0.00     0.307 C 
ATOM     16  C   UNL A   1      32.624  24.260  25.270  1.00  0.00     0.285 C 
ATOM     17  O   UNL A   1      32.681  24.958  26.261  1.00  0.00    -0.268 OA
BRANCH  15  18
ATOM     18  N   UNL A   1      33.611  24.970  22.961  1.00  0.00    -0.315 N 
ATOM     19  H   UNL A   1      33.872  24.314  22.225  1.00  0.00     0.348 HD
ATOM     20  H   UNL A   1      34.339  25.102  23.662  1.00  0.00     0.348 HD
BRANCH  18  21
ATOM     21  C   UNL A   1      33.396  26.268  22.351  1.00  0.00     0.415 C 
BRANCH  21  22
ATOM     22  N   UNL A   1      33.058  27.344  23.278  1.00  0.00    -0.194 N 
ATOM     23  N   UNL A   1      33.870  27.796  24.248  1.00  0.00    -0.061 NA
ATOM     24  C   UNL A   1      31.861  28.024  23.244  1.00  0.00     0.095 A 
ATOM     25  N   UNL A   1      33.209  28.756  24.892  1.00  0.00    -0.130 NA
ATOM     26  C   UNL A   1      31.988  28.931  24.283  1.00  0.00     0.113 A 
ATOM     27  C   UNL A   1      30.732  27.954  22.415  1.00  0.00     0.030 A 
ATOM     28  C   UNL A   1      30.951  29.846  24.502  1.00  0.00     0.032 A 
ATOM     29  C   UNL A   1      29.726  28.899  22.632  1.00  0.00     0.002 A 
ATOM     30  C   UNL A   1      29.836  29.840  23.653  1.00  0.00     0.002 A 
ENDBRANCH  21  22
ENDBRANCH  18  21
ENDBRANCH  15  18
ENDBRANCH   5   8
ENDBRANCH   3   4
ENDBRANCH   2   3
ENDBRANCH   1   2
BRANCH   1  31
ATOM     31  C   UNL A   1      38.913  22.496  25.983  1.00  0.00     0.002 C 
BRANCH  31  32
ATOM     32  C   UNL A   1      40.095  22.188  26.911  1.00  0.00     0.021 C 
BRANCH  32  33
ATOM     33  C   UNL A   1      41.247  21.387  26.311  1.00  0.00     0.116 C 
BRANCH  33  34
ATOM     34  N   UNL A   1      42.124  22.150  25.448  1.00  0.00    -0.352 N 
ATOM     35  C   UNL A   1      42.619  23.426  25.452  1.00  0.00     0.251 C 
ATOM     36  H   UNL A   1      42.438  21.627  24.676  1.00  0.00     0.163 HD
ATOM     37  O   UNL A   1      43.518  23.646  24.634  1.00  0.00    -0.269 OA
BRANCH  35  38
ATOM     38  C   UNL A   1      42.099  24.564  26.260  1.00  0.00     0.039 A 
ATOM     39  C   UNL A   1      41.245  25.574  25.825  1.00  0.00     0.014 A 
ATOM     40  C   UNL A   1      42.571  24.622  27.586  1.00  0.00     0.014 A 
ATOM     41  C   UNL A   1      41.030  26.696  26.628  1.00  0.00     0.010 A 
ATOM     42  C   UNL A   1      42.346  25.731  28.391  1.00  0.00     0.010 A 
ATOM     43  C   UNL A   1      41.662  26.818  27.869  1.00  0.00    -0.014 A 
BRANCH  43  44
ATOM     44  C   UNL A   1      41.532  28.073  28.614  1.00  0.00     0.031 A 
ATOM     45  C   UNL A   1      42.553  29.104  28.278  1.00  0.00     0.074 A 
ATOM     46  C   UNL A   1      40.523  28.319  29.481  1.00  0.00     0.049 A 
ATOM     47  N   UNL A   1      43.480  29.587  29.042  1.00  0.00    -0.248 NA
ATOM     48  C   UNL A   1      42.637  29.549  26.879  1.00  0.00     0.031 C 
ATOM     49  C   UNL A   1      39.333  27.501  29.744  1.00  0.00     0.029 A 
ATOM     50  N   UNL A   1      40.287  29.430  30.240  1.00  0.00    -0.354 N 
ATOM     51  C   UNL A   1      44.115  30.569  28.282  1.00  0.00     0.074 A 
ATOM     52  C   UNL A   1      43.678  30.380  26.923  1.00  0.00     0.031 C 
ATOM     53  C   UNL A   1      38.401  28.249  30.379  1.00  0.00     0.029 A 
ATOM     54  C   UNL A   1      38.975  29.539  30.706  1.00  0.00     0.049 A 
ATOM     55  H   UNL A   1      40.983  30.097  30.441  1.00  0.00     0.167 HD
ATOM     56  C   UNL A   1      44.758  31.622  28.858  1.00  0.00     0.034 A 
ATOM     57  C   UNL A   1      38.399  30.634  31.270  1.00  0.00     0.034 A 
ATOM     58  C   UNL A   1      45.075  31.376  30.238  1.00  0.00     0.049 A 
ATOM     59  C   UNL A   1      39.505  31.470  31.786  1.00  0.00     0.074 A 
ATOM     60  C   UNL A   1      45.820  30.430  30.914  1.00  0.00     0.029 A 
ATOM     61  N   UNL A   1      44.266  31.960  31.181  1.00  0.00    -0.354 N 
ATOM     62  N   UNL A   1      40.288  31.106  32.760  1.00  0.00    -0.248 NA
ATOM     63  C   UNL A   1      40.007  32.529  30.926  1.00  0.00     0.031 C 
ATOM     64  C   UNL A   1      45.068  30.150  32.092  1.00  0.00     0.029 A 
ATOM     65  C   UNL A   1      43.952  30.989  32.093  1.00  0.00     0.049 A 
ATOM     66  H   UNL A   1      43.970  32.898  31.198  1.00  0.00     0.167 HD
ATOM     67  C   UNL A   1      41.543  31.550  32.370  1.00  0.00     0.074 A 
ATOM     68  C   UNL A   1      41.293  32.496  31.282  1.00  0.00     0.031 C 
ATOM     69  C   UNL A   1      42.675  30.898  32.761  1.00  0.00     0.034 A 
BRANCH  56  70
ATOM     70  C   UNL A   1      44.770  33.016  28.279  1.00  0.00     0.023 A 
ATOM     71  C   UNL A   1      43.535  33.676  28.100  1.00  0.00     0.012 A 
ATOM     72  C   UNL A   1      45.901  33.585  27.647  1.00  0.00     0.148 A 
ATOM     73  C   UNL A   1      43.429  34.829  27.314  1.00  0.00     0.002 A 
ATOM     74  C   UNL A   1      45.804  34.769  26.927  1.00  0.00     0.091 A 
ATOM     75  F   UNL A   1      47.055  32.912  27.618  1.00  0.00    -0.205 F 
ATOM     76  C   UNL A   1      44.566  35.384  26.736  1.00  0.00     0.022 A 
BRANCH  74  77
ATOM     77  S   UNL A   1      47.248  35.530  26.176  1.00  0.00     0.127 S 
ATOM     78  O   UNL A   1      47.491  34.638  25.047  1.00  0.00    -0.237 OA
ATOM     79  O   UNL A   1      46.738  36.856  25.823  1.00  0.00    -0.237 OA
ATOM     80  O   UNL A   1      48.266  35.542  27.218  1.00  0.00    -0.744 OA
ENDBRANCH  74  77
ENDBRANCH  56  70
BRANCH  57  81
ATOM     81  C   UNL A   1      37.010  31.166  31.184  1.00  0.00     0.023 A 
ATOM     82  C   UNL A   1      36.375  31.634  32.358  1.00  0.00     0.012 A 
ATOM     83  C   UNL A   1      36.429  31.508  29.944  1.00  0.00     0.148 A 
ATOM     84  C   UNL A   1      35.243  32.460  32.296  1.00  0.00     0.002 A 
ATOM     85  C   UNL A   1      35.297  32.321  29.888  1.00  0.00     0.091 A 
ATOM     86  F   UNL A   1      37.037  31.118  28.817  1.00  0.00    -0.205 F 
ATOM     87  C   UNL A   1      34.712  32.814  31.061  1.00  0.00     0.022 A 
BRANCH  85  88
ATOM     88  S   UNL A   1      34.554  32.829  28.330  1.00  0.00     0.127 S 
ATOM     89  O   UNL A   1      34.020  31.565  27.822  1.00  0.00    -0.237 OA
ATOM     90  O   UNL A   1      33.543  33.785  28.772  1.00  0.00    -0.237 OA
ATOM     91  O   UNL A   1      35.643  33.381  27.534  1.00  0.00    -0.744 OA
ENDBRANCH  85  88
ENDBRANCH  57  81
BRANCH  69  92
ATOM     92  C   UNL A   1      42.549  29.805  33.792  1.00  0.00     0.023 A 
ATOM     93  C   UNL A   1      41.945  28.563  33.495  1.00  0.00     0.012 A 
ATOM     94  C   UNL A   1      43.248  29.952  34.999  1.00  0.00     0.148 A 
ATOM     95  C   UNL A   1      42.045  27.489  34.385  1.00  0.00     0.002 A 
ATOM     96  C   UNL A   1      43.377  28.873  35.864  1.00  0.00     0.091 A 
ATOM     97  F   UNL A   1      43.826  31.137  35.251  1.00  0.00    -0.205 F 
ATOM     98  C   UNL A   1      42.775  27.640  35.563  1.00  0.00     0.022 A 
BRANCH  96  99
ATOM     99  S   UNL A   1      44.394  28.958  37.339  1.00  0.00     0.127 S 
ATOM    100  O   UNL A   1      43.801  30.085  38.055  1.00  0.00    -0.237 OA
ATOM    101  O   UNL A   1      44.153  27.650  37.952  1.00  0.00    -0.237 OA
ATOM    102  O   UNL A   1      45.762  29.164  36.881  1.00  0.00    -0.744 OA
ENDBRANCH  96  99
ENDBRANCH  69  92
ENDBRANCH  43  44
ENDBRANCH  35  38
ENDBRANCH  33  34
ENDBRANCH  32  33
ENDBRANCH  31  32
ENDBRANCH   1  31
TORSDOF 19
ENDMDL
MODEL 3
REMARK VINA RESULT:     -10.6      3.332      6.878
REMARK SMILES CC1(C)S[C@@H]2[C@H]([NH2+]Cn3nnc4ccccc43)C(=O)N2[C@@H]1C(=O)NCCCCCCNC(=O)c1ccc(-c2c3nc(c(-c4cccc(S(=O)(=O)[O-])c4F)c4ccc([nH]4)c(-c4cccc(S(=O)(=O)[O-])c4F)c4nc(c(-c5cccc(S(=O)(=O)[O-])c5F)c5ccc2[nH]5)C=C4)C=C3)cc1
REMARK SMILES IDX 27 1 26 2 25 3 24 4 22 5 23 6 21 8 1 9 2 10 3 11 4 12 5 13
REMARK SMILES IDX 20 14 6 15 18 16 19 17 7 18 8 21 9 22 10 23 17 24 11 25
REMARK SMILES IDX 12 26 16 27 13 28 15 29 14 30 28 31 29 32 30 33 31 34 32 35
REMARK SMILES IDX 33 37 34 38 35 39 96 40 36 41 95 42 37 43 38 44 39 45 89 46
REMARK SMILES IDX 40 47 94 48 88 49 90 50 41 51 93 52 87 53 86 54 42 56 74 57
REMARK SMILES IDX 54 58 73 59 55 60 58 61 72 62 91 63 56 64 57 65 71 67 92 68
REMARK SMILES IDX 59 69 43 70 44 71 52 72 45 73 47 74 53 75 46 76 48 77 49 78
REMARK SMILES IDX 50 79 51 80 75 81 76 82 84 83 77 84 79 85 85 86 78 87 80 88
REMARK SMILES IDX 81 89 82 90 83 91 60 92 61 93 69 94 62 95 64 96 70 97 63 98
REMARK SMILES IDX 65 99 66 100 67 101 68 102
REMARK H PARENT 24 7 7 19 7 20 31 36 90 55 58 66
REMARK Flexibility Score: inf
ROOT
ATOM      1  C   UNL A   1      38.214  24.039  25.959  1.00  0.00     0.002 C 
ENDROOT
BRANCH   1   2
ATOM      2  C   UNL A   1      36.689  24.177  25.904  1.00  0.00     0.021 C 
BRANCH   2   3
ATOM      3  C   UNL A   1      35.913  22.886  25.645  1.00  0.00     0.116 C 
BRANCH   3   4
ATOM      4  N   UNL A   1      35.195  22.394  26.807  1.00  0.00    -0.354 N 
ATOM      5  C   UNL A   1      33.949  21.849  26.926  1.00  0.00     0.244 C 
ATOM      6  O   UNL A   1      33.701  21.260  27.988  1.00  0.00    -0.273 OA
ATOM      7  H   UNL A   1      35.692  22.466  27.654  1.00  0.00     0.163 HD
BRANCH   5   8
ATOM      8  C   UNL A   1      32.907  21.785  25.779  1.00  0.00     0.191 C 
ATOM      9  C   UNL A   1      34.551  20.004  24.773  1.00  0.00     0.026 C 
ATOM     10  C   UNL A   1      33.206  20.730  24.660  1.00  0.00     0.042 C 
ATOM     11  C   UNL A   1      32.088  19.683  24.532  1.00  0.00     0.026 C 
ATOM     12  S   UNL A   1      33.125  21.646  23.010  1.00  0.00    -0.121 SA
ATOM     13  C   UNL A   1      32.184  23.021  23.713  1.00  0.00     0.213 C 
ATOM     14  N   UNL A   1      32.714  23.026  25.064  1.00  0.00    -0.306 N 
ATOM     15  C   UNL A   1      32.445  24.564  23.705  1.00  0.00     0.307 C 
ATOM     16  C   UNL A   1      32.495  24.321  25.291  1.00  0.00     0.285 C 
ATOM     17  O   UNL A   1      32.455  24.960  26.323  1.00  0.00    -0.268 OA
BRANCH  15  18
ATOM     18  N   UNL A   1      33.678  25.172  23.127  1.00  0.00    -0.315 N 
ATOM     19  H   UNL A   1      34.217  24.430  22.680  1.00  0.00     0.348 HD
ATOM     20  H   UNL A   1      34.167  25.618  23.902  1.00  0.00     0.348 HD
BRANCH  18  21
ATOM     21  C   UNL A   1      33.444  26.213  22.144  1.00  0.00     0.415 C 
BRANCH  21  22
ATOM     22  N   UNL A   1      32.296  27.074  22.409  1.00  0.00    -0.194 N 
ATOM     23  N   UNL A   1      31.138  27.028  21.730  1.00  0.00    -0.061 NA
ATOM     24  C   UNL A   1      32.277  28.025  23.405  1.00  0.00     0.095 A 
ATOM     25  N   UNL A   1      30.349  27.972  22.242  1.00  0.00    -0.130 NA
ATOM     26  C   UNL A   1      31.013  28.578  23.283  1.00  0.00     0.113 A 
ATOM     27  C   UNL A   1      33.200  28.418  24.384  1.00  0.00     0.030 A 
ATOM     28  C   UNL A   1      30.624  29.563  24.201  1.00  0.00     0.032 A 
ATOM     29  C   UNL A   1      32.776  29.377  25.308  1.00  0.00     0.002 A 
ATOM     30  C   UNL A   1      31.502  29.935  25.227  1.00  0.00     0.002 A 
ENDBRANCH  21  22
ENDBRANCH  18  21
ENDBRANCH  15  18
ENDBRANCH   5   8
ENDBRANCH   3   4
ENDBRANCH   2   3
ENDBRANCH   1   2
BRANCH   1  31
ATOM     31  C   UNL A   1      38.762  22.614  26.119  1.00  0.00     0.002 C 
BRANCH  31  32
ATOM     32  C   UNL A   1      39.971  22.446  27.048  1.00  0.00     0.021 C 
BRANCH  32  33
ATOM     33  C   UNL A   1      41.138  21.620  26.512  1.00  0.00     0.116 C 
BRANCH  33  34
ATOM     34  N   UNL A   1      41.985  22.319  25.569  1.00  0.00    -0.352 N 
ATOM     35  C   UNL A   1      42.527  23.573  25.496  1.00  0.00     0.251 C 
ATOM     36  H   UNL A   1      42.230  21.758  24.798  1.00  0.00     0.163 HD
ATOM     37  O   UNL A   1      43.379  23.730  24.616  1.00  0.00    -0.269 OA
BRANCH  35  38
ATOM     38  C   UNL A   1      42.101  24.757  26.294  1.00  0.00     0.039 A 
ATOM     39  C   UNL A   1      41.248  25.777  25.881  1.00  0.00     0.014 A 
ATOM     40  C   UNL A   1      42.672  24.850  27.578  1.00  0.00     0.014 A 
ATOM     41  C   UNL A   1      41.125  26.935  26.652  1.00  0.00     0.010 A 
ATOM     42  C   UNL A   1      42.540  25.996  28.352  1.00  0.00     0.010 A 
ATOM     43  C   UNL A   1      41.851  27.084  27.837  1.00  0.00    -0.014 A 
BRANCH  43  44
ATOM     44  C   UNL A   1      41.813  28.369  28.539  1.00  0.00     0.031 A 
ATOM     45  C   UNL A   1      42.938  29.290  28.211  1.00  0.00     0.074 A 
ATOM     46  C   UNL A   1      40.802  28.737  29.359  1.00  0.00     0.049 A 
ATOM     47  N   UNL A   1      43.879  29.709  28.995  1.00  0.00    -0.248 NA
ATOM     48  C   UNL A   1      43.112  29.678  26.804  1.00  0.00     0.031 C 
ATOM     49  C   UNL A   1      39.532  28.043  29.601  1.00  0.00     0.029 A 
ATOM     50  N   UNL A   1      40.645  29.890  30.075  1.00  0.00    -0.354 N 
ATOM     51  C   UNL A   1      44.630  30.602  28.231  1.00  0.00     0.074 A 
ATOM     52  C   UNL A   1      44.225  30.410  26.863  1.00  0.00     0.031 C 
ATOM     53  C   UNL A   1      38.653  28.895  30.177  1.00  0.00     0.029 A 
ATOM     54  C   UNL A   1      39.334  30.136  30.487  1.00  0.00     0.049 A 
ATOM     55  H   UNL A   1      41.393  30.496  30.282  1.00  0.00     0.167 HD
ATOM     56  C   UNL A   1      45.349  31.610  28.799  1.00  0.00     0.034 A 
ATOM     57  C   UNL A   1      38.843  31.299  30.995  1.00  0.00     0.034 A 
ATOM     58  C   UNL A   1      45.592  31.381  30.197  1.00  0.00     0.049 A 
ATOM     59  C   UNL A   1      40.004  32.045  31.527  1.00  0.00     0.074 A 
ATOM     60  C   UNL A   1      46.220  30.394  30.929  1.00  0.00     0.029 A 
ATOM     61  N   UNL A   1      44.809  32.070  31.090  1.00  0.00    -0.354 N 
ATOM     62  N   UNL A   1      40.715  31.642  32.541  1.00  0.00    -0.248 NA
ATOM     63  C   UNL A   1      40.634  33.023  30.656  1.00  0.00     0.031 C 
ATOM     64  C   UNL A   1      45.404  30.225  32.085  1.00  0.00     0.029 A 
ATOM     65  C   UNL A   1      44.373  31.163  32.019  1.00  0.00     0.049 A 
ATOM     66  H   UNL A   1      44.602  33.032  31.067  1.00  0.00     0.167 HD
ATOM     67  C   UNL A   1      42.019  31.955  32.186  1.00  0.00     0.074 A 
ATOM     68  C   UNL A   1      41.898  32.883  31.062  1.00  0.00     0.031 C 
ATOM     69  C   UNL A   1      43.070  31.214  32.640  1.00  0.00     0.034 A 
BRANCH  56  70
ATOM     70  C   UNL A   1      45.512  32.976  28.179  1.00  0.00     0.023 A 
ATOM     71  C   UNL A   1      46.813  33.513  28.077  1.00  0.00     0.012 A 
ATOM     72  C   UNL A   1      44.431  33.862  27.956  1.00  0.00     0.148 A 
ATOM     73  C   UNL A   1      47.026  34.867  27.792  1.00  0.00     0.002 A 
ATOM     74  C   UNL A   1      44.648  35.188  27.603  1.00  0.00     0.091 A 
ATOM     75  F   UNL A   1      43.183  33.467  28.221  1.00  0.00    -0.205 F 
ATOM     76  C   UNL A   1      45.943  35.704  27.542  1.00  0.00     0.022 A 
BRANCH  74  77
ATOM     77  S   UNL A   1      43.281  36.301  27.257  1.00  0.00     0.127 S 
ATOM     78  O   UNL A   1      42.613  36.349  28.554  1.00  0.00    -0.237 OA
ATOM     79  O   UNL A   1      43.983  37.526  26.872  1.00  0.00    -0.237 OA
ATOM     80  O   UNL A   1      42.536  35.675  26.172  1.00  0.00    -0.744 OA
ENDBRANCH  74  77
ENDBRANCH  56  70
BRANCH  57  81
ATOM     81  C   UNL A   1      37.515  31.954  30.840  1.00  0.00     0.023 A 
ATOM     82  C   UNL A   1      36.748  31.696  29.680  1.00  0.00     0.012 A 
ATOM     83  C   UNL A   1      36.863  32.563  31.934  1.00  0.00     0.148 A 
ATOM     84  C   UNL A   1      35.376  31.978  29.634  1.00  0.00     0.002 A 
ATOM     85  C   UNL A   1      35.499  32.852  31.879  1.00  0.00     0.091 A 
ATOM     86  F   UNL A   1      37.554  32.774  33.061  1.00  0.00    -0.205 F 
ATOM     87  C   UNL A   1      34.748  32.543  30.738  1.00  0.00     0.022 A 
BRANCH  85  88
ATOM     88  S   UNL A   1      34.614  33.577  33.268  1.00  0.00     0.127 S 
ATOM     89  O   UNL A   1      34.743  35.009  32.995  1.00  0.00    -0.237 OA
ATOM     90  O   UNL A   1      33.268  33.040  33.084  1.00  0.00    -0.237 OA
ATOM     91  O   UNL A   1      35.318  33.130  34.463  1.00  0.00    -0.744 OA
ENDBRANCH  85  88
ENDBRANCH  57  81
BRANCH  69  92
ATOM     92  C   UNL A   1      42.806  30.173  33.697  1.00  0.00     0.023 A 
ATOM     93  C   UNL A   1      42.148  28.957  33.403  1.00  0.00     0.012 A 
ATOM     94  C   UNL A   1      43.428  30.326  34.945  1.00  0.00     0.148 A 
ATOM     95  C   UNL A   1      42.120  27.916  34.336  1.00  0.00     0.002 A 
ATOM     96  C   UNL A   1      43.429  29.277  35.856  1.00  0.00     0.091 A 
ATOM     97  F   UNL A   1      44.059  31.484  35.195  1.00  0.00    -0.205 F 
ATOM     98  C   UNL A   1      42.774  28.071  35.557  1.00  0.00     0.022 A 
BRANCH  96  99
ATOM     99  S   UNL A   1      44.345  29.361  37.395  1.00  0.00     0.127 S 
ATOM    100  O   UNL A   1      44.132  28.026  37.950  1.00  0.00    -0.237 OA
ATOM    101  O   UNL A   1      45.708  29.617  36.927  1.00  0.00    -0.237 OA
ATOM    102  O   UNL A   1      43.758  30.452  38.162  1.00  0.00    -0.744 OA
ENDBRANCH  96  99
ENDBRANCH  69  92
ENDBRANCH  43  44
ENDBRANCH  35  38
ENDBRANCH  33  34
ENDBRANCH  32  33
ENDBRANCH  31  32
ENDBRANCH   1  31
TORSDOF 19
ENDMDL
