MODEL 1
REMARK VINA RESULT:      -9.3      0.000      0.000
REMARK SMILES CC/C=C/C/C=C/C/C=C/C/C=C/CC/C=C/COCC(=O)NCCCCCCNC(=O)c1ccc(-c2c3nc(c(-c4cccc(S(=O)(=O)[O-])c4F)c4ccc([nH]4)c(-c4cccc(S(=O)(=O)[O-])c4F)c4nc(c(-c5cccc(S(=O)(=O)[O-])c5F)c5ccc2[nH]5)C=C4)C=C3)cc1
REMARK SMILES IDX 20 1 19 2 18 3 17 4 16 5 15 6 14 7 13 8 12 9 11 10 10 11
REMARK SMILES IDX 9 12 8 13 7 14 6 15 5 16 4 17 3 18 2 19 1 20 21 21 22 22
REMARK SMILES IDX 23 23 24 25 25 26 26 27 27 28 28 29 29 30 30 31 31 32 32 34
REMARK SMILES IDX 33 35 34 36 95 37 35 38 94 39 36 40 37 41 38 42 88 43 39 44
REMARK SMILES IDX 93 45 87 46 89 47 40 48 92 49 86 50 85 51 41 53 73 54 53 55
REMARK SMILES IDX 72 56 54 57 57 58 71 59 90 60 55 61 56 62 70 64 91 65 58 66
REMARK SMILES IDX 42 67 43 68 51 69 44 70 46 71 52 72 45 73 47 74 48 75 49 76
REMARK SMILES IDX 50 77 74 78 75 79 83 80 76 81 78 82 84 83 77 84 79 85 80 86
REMARK SMILES IDX 81 87 82 88 59 89 60 90 68 91 61 92 63 93 69 94 62 95 64 96
REMARK SMILES IDX 65 97 66 98 67 99
REMARK H PARENT 23 24 30 33 89 52 57 63
REMARK Flexibility Score: inf
ROOT
ATOM      1  C   UNL A   1      31.035  23.142  25.670  1.00  0.00     0.260 C 
ENDROOT
BRANCH   1   2
ATOM      2  O   UNL A   1      31.351  21.755  25.639  1.00  0.00    -0.368 OA
BRANCH   2   3
ATOM      3  C   UNL A   1      31.870  21.301  24.391  1.00  0.00     0.188 C 
BRANCH   3   4
ATOM      4  C   UNL A   1      31.929  22.436  23.418  1.00  0.00    -0.003 C 
ATOM      5  C   UNL A   1      32.806  22.482  22.405  1.00  0.00    -0.029 C 
BRANCH   5   6
ATOM      6  C   UNL A   1      33.019  23.677  21.521  1.00  0.00     0.031 C 
BRANCH   6   7
ATOM      7  C   UNL A   1      32.156  24.878  21.945  1.00  0.00     0.031 C 
BRANCH   7   8
ATOM      8  C   UNL A   1      32.682  25.575  23.171  1.00  0.00    -0.031 C 
ATOM      9  C   UNL A   1      33.959  25.527  23.582  1.00  0.00    -0.027 C 
BRANCH   9  10
ATOM     10  C   UNL A   1      34.451  26.182  24.840  1.00  0.00     0.054 C 
BRANCH  10  11
ATOM     11  C   UNL A   1      34.432  25.204  25.980  1.00  0.00    -0.027 C 
ATOM     12  C   UNL A   1      34.600  23.879  25.839  1.00  0.00    -0.027 C 
BRANCH  12  13
ATOM     13  C   UNL A   1      34.535  22.896  26.970  1.00  0.00     0.054 C 
BRANCH  13  14
ATOM     14  C   UNL A   1      35.016  21.545  26.522  1.00  0.00    -0.027 C 
ATOM     15  C   UNL A   1      35.426  21.267  25.274  1.00  0.00    -0.027 C 
BRANCH  15  16
ATOM     16  C   UNL A   1      35.878  19.909  24.819  1.00  0.00     0.054 C 
BRANCH  16  17
ATOM     17  C   UNL A   1      34.715  18.964  24.722  1.00  0.00    -0.027 C 
ATOM     18  C   UNL A   1      34.805  17.699  24.284  1.00  0.00    -0.031 C 
BRANCH  18  19
ATOM     19  C   UNL A   1      33.635  16.765  24.177  1.00  0.00     0.023 C 
ATOM     20  C   UNL A   1      32.663  16.966  25.332  1.00  0.00     0.008 C 
ENDBRANCH  18  19
ENDBRANCH  16  17
ENDBRANCH  15  16
ENDBRANCH  13  14
ENDBRANCH  12  13
ENDBRANCH  10  11
ENDBRANCH   9  10
ENDBRANCH   7   8
ENDBRANCH   6   7
ENDBRANCH   5   6
ENDBRANCH   3   4
ENDBRANCH   2   3
ENDBRANCH   1   2
BRANCH   1  21
ATOM     21  C   UNL A   1      30.009  23.615  26.709  1.00  0.00     0.246 C 
ATOM     22  O   UNL A   1      29.641  22.896  27.641  1.00  0.00    -0.272 OA
ATOM     23  N   UNL A   1      29.511  24.881  26.610  1.00  0.00    -0.354 N 
ATOM     24  H   UNL A   1      28.919  25.172  27.341  1.00  0.00     0.163 HD
BRANCH  23  25
ATOM     25  C   UNL A   1      29.748  25.852  25.559  1.00  0.00     0.116 C 
BRANCH  25  26
ATOM     26  C   UNL A   1      31.124  26.499  25.707  1.00  0.00     0.021 C 
BRANCH  26  27
ATOM     27  C   UNL A   1      31.221  27.519  26.850  1.00  0.00     0.002 C 
BRANCH  27  28
ATOM     28  C   UNL A   1      31.631  28.933  26.425  1.00  0.00     0.002 C 
BRANCH  28  29
ATOM     29  C   UNL A   1      33.089  29.080  25.984  1.00  0.00     0.021 C 
BRANCH  29  30
ATOM     30  C   UNL A   1      34.049  29.504  27.090  1.00  0.00     0.116 C 
BRANCH  30  31
ATOM     31  N   UNL A   1      33.888  30.906  27.449  1.00  0.00    -0.352 N 
ATOM     32  C   UNL A   1      34.624  31.668  28.320  1.00  0.00     0.251 C 
ATOM     33  H   UNL A   1      33.145  31.373  27.002  1.00  0.00     0.163 HD
ATOM     34  O   UNL A   1      34.226  32.787  28.643  1.00  0.00    -0.269 OA
BRANCH  32  35
ATOM     35  C   UNL A   1      35.882  31.137  28.884  1.00  0.00     0.039 A 
ATOM     36  C   UNL A   1      35.822  30.083  29.800  1.00  0.00     0.014 A 
ATOM     37  C   UNL A   1      37.118  31.672  28.510  1.00  0.00     0.014 A 
ATOM     38  C   UNL A   1      37.005  29.527  30.294  1.00  0.00     0.010 A 
ATOM     39  C   UNL A   1      38.295  31.067  28.942  1.00  0.00     0.010 A 
ATOM     40  C   UNL A   1      38.252  29.990  29.843  1.00  0.00    -0.014 A 
BRANCH  40  41
ATOM     41  C   UNL A   1      39.518  29.350  30.287  1.00  0.00     0.031 A 
ATOM     42  C   UNL A   1      40.297  29.919  31.442  1.00  0.00     0.074 A 
ATOM     43  C   UNL A   1      40.009  28.302  29.595  1.00  0.00     0.049 A 
ATOM     44  N   UNL A   1      41.440  29.523  31.938  1.00  0.00    -0.248 NA
ATOM     45  C   UNL A   1      39.732  31.101  32.112  1.00  0.00     0.031 C 
ATOM     46  C   UNL A   1      39.390  27.707  28.409  1.00  0.00     0.029 A 
ATOM     47  N   UNL A   1      41.155  27.568  29.773  1.00  0.00    -0.354 N 
ATOM     48  C   UNL A   1      41.749  30.423  32.950  1.00  0.00     0.074 A 
ATOM     49  C   UNL A   1      40.688  31.407  32.977  1.00  0.00     0.031 C 
ATOM     50  C   UNL A   1      40.159  26.699  27.969  1.00  0.00     0.029 A 
ATOM     51  C   UNL A   1      41.343  26.597  28.817  1.00  0.00     0.049 A 
ATOM     52  H   UNL A   1      41.785  27.723  30.515  1.00  0.00     0.167 HD
ATOM     53  C   UNL A   1      42.806  30.420  33.798  1.00  0.00     0.034 A 
ATOM     54  C   UNL A   1      42.359  25.730  28.633  1.00  0.00     0.034 A 
ATOM     55  C   UNL A   1      43.841  29.422  33.791  1.00  0.00     0.049 A 
ATOM     56  C   UNL A   1      43.504  25.729  29.608  1.00  0.00     0.074 A 
ATOM     57  C   UNL A   1      44.903  29.280  34.666  1.00  0.00     0.029 A 
ATOM     58  N   UNL A   1      43.957  28.405  32.855  1.00  0.00    -0.354 N 
ATOM     59  N   UNL A   1      43.696  26.489  30.658  1.00  0.00    -0.248 NA
ATOM     60  C   UNL A   1      44.558  24.725  29.394  1.00  0.00     0.031 C 
ATOM     61  C   UNL A   1      45.682  28.200  34.238  1.00  0.00     0.029 A 
ATOM     62  C   UNL A   1      45.080  27.643  33.121  1.00  0.00     0.049 A 
ATOM     63  H   UNL A   1      43.331  28.250  32.111  1.00  0.00     0.167 HD
ATOM     64  C   UNL A   1      44.868  26.033  31.251  1.00  0.00     0.074 A 
ATOM     65  C   UNL A   1      45.332  24.917  30.453  1.00  0.00     0.031 C 
ATOM     66  C   UNL A   1      45.508  26.504  32.350  1.00  0.00     0.034 A 
BRANCH  53  67
ATOM     67  C   UNL A   1      42.879  31.512  34.835  1.00  0.00     0.023 A 
ATOM     68  C   UNL A   1      43.781  32.582  34.662  1.00  0.00     0.012 A 
ATOM     69  C   UNL A   1      42.012  31.514  35.944  1.00  0.00     0.148 A 
ATOM     70  C   UNL A   1      43.843  33.618  35.593  1.00  0.00     0.002 A 
ATOM     71  C   UNL A   1      42.046  32.574  36.843  1.00  0.00     0.091 A 
ATOM     72  F   UNL A   1      41.175  30.479  36.103  1.00  0.00    -0.205 F 
ATOM     73  C   UNL A   1      42.969  33.619  36.676  1.00  0.00     0.022 A 
BRANCH  71  74
ATOM     74  S   UNL A   1      40.905  32.712  38.224  1.00  0.00     0.127 S 
ATOM     75  O   UNL A   1      39.747  31.971  37.725  1.00  0.00    -0.237 OA
ATOM     76  O   UNL A   1      41.640  32.043  39.298  1.00  0.00    -0.237 OA
ATOM     77  O   UNL A   1      40.692  34.138  38.428  1.00  0.00    -0.744 OA
ENDBRANCH  71  74
ENDBRANCH  53  67
BRANCH  54  78
ATOM     78  C   UNL A   1      42.313  24.756  27.505  1.00  0.00     0.023 A 
ATOM     79  C   UNL A   1      42.993  25.047  26.306  1.00  0.00     0.012 A 
ATOM     80  C   UNL A   1      41.615  23.539  27.621  1.00  0.00     0.148 A 
ATOM     81  C   UNL A   1      42.949  24.159  25.230  1.00  0.00     0.002 A 
ATOM     82  C   UNL A   1      41.623  22.633  26.568  1.00  0.00     0.091 A 
ATOM     83  F   UNL A   1      40.966  23.286  28.767  1.00  0.00    -0.205 F 
ATOM     84  C   UNL A   1      42.273  22.949  25.364  1.00  0.00     0.022 A 
BRANCH  82  85
ATOM     85  S   UNL A   1      40.894  20.997  26.697  1.00  0.00     0.127 S 
ATOM     86  O   UNL A   1      39.606  21.191  26.036  1.00  0.00    -0.237 OA
ATOM     87  O   UNL A   1      41.852  20.180  25.952  1.00  0.00    -0.237 OA
ATOM     88  O   UNL A   1      40.835  20.703  28.122  1.00  0.00    -0.744 OA
ENDBRANCH  82  85
ENDBRANCH  54  78
BRANCH  66  89
ATOM     89  C   UNL A   1      46.759  25.789  32.793  1.00  0.00     0.023 A 
ATOM     90  C   UNL A   1      46.713  24.887  33.873  1.00  0.00     0.012 A 
ATOM     91  C   UNL A   1      47.966  25.963  32.087  1.00  0.00     0.148 A 
ATOM     92  C   UNL A   1      47.858  24.195  34.267  1.00  0.00     0.002 A 
ATOM     93  C   UNL A   1      49.088  25.229  32.451  1.00  0.00     0.091 A 
ATOM     94  F   UNL A   1      47.993  26.838  31.073  1.00  0.00    -0.205 F 
ATOM     95  C   UNL A   1      49.041  24.356  33.550  1.00  0.00     0.022 A 
BRANCH  93  96
ATOM     96  S   UNL A   1      50.626  25.296  31.524  1.00  0.00     0.127 S 
ATOM     97  O   UNL A   1      51.146  26.608  31.904  1.00  0.00    -0.237 OA
ATOM     98  O   UNL A   1      51.369  24.162  32.075  1.00  0.00    -0.237 OA
ATOM     99  O   UNL A   1      50.258  25.155  30.122  1.00  0.00    -0.744 OA
ENDBRANCH  93  96
ENDBRANCH  66  89
ENDBRANCH  40  41
ENDBRANCH  32  35
ENDBRANCH  30  31
ENDBRANCH  29  30
ENDBRANCH  28  29
ENDBRANCH  27  28
ENDBRANCH  26  27
ENDBRANCH  25  26
ENDBRANCH  23  25
ENDBRANCH   1  21
TORSDOF 29
ENDMDL
MODEL 2
REMARK VINA RESULT:      -9.2      1.746      2.032
REMARK SMILES CC/C=C/C/C=C/C/C=C/C/C=C/CC/C=C/COCC(=O)NCCCCCCNC(=O)c1ccc(-c2c3nc(c(-c4cccc(S(=O)(=O)[O-])c4F)c4ccc([nH]4)c(-c4cccc(S(=O)(=O)[O-])c4F)c4nc(c(-c5cccc(S(=O)(=O)[O-])c5F)c5ccc2[nH]5)C=C4)C=C3)cc1
REMARK SMILES IDX 20 1 19 2 18 3 17 4 16 5 15 6 14 7 13 8 12 9 11 10 10 11
REMARK SMILES IDX 9 12 8 13 7 14 6 15 5 16 4 17 3 18 2 19 1 20 21 21 22 22
REMARK SMILES IDX 23 23 24 25 25 26 26 27 27 28 28 29 29 30 30 31 31 32 32 34
REMARK SMILES IDX 33 35 34 36 95 37 35 38 94 39 36 40 37 41 38 42 88 43 39 44
REMARK SMILES IDX 93 45 87 46 89 47 40 48 92 49 86 50 85 51 41 53 73 54 53 55
REMARK SMILES IDX 72 56 54 57 57 58 71 59 90 60 55 61 56 62 70 64 91 65 58 66
REMARK SMILES IDX 42 67 43 68 51 69 44 70 46 71 52 72 45 73 47 74 48 75 49 76
REMARK SMILES IDX 50 77 74 78 75 79 83 80 76 81 78 82 84 83 77 84 79 85 80 86
REMARK SMILES IDX 81 87 82 88 59 89 60 90 68 91 61 92 63 93 69 94 62 95 64 96
REMARK SMILES IDX 65 97 66 98 67 99
REMARK H PARENT 23 24 30 33 89 52 57 63
REMARK Flexibility Score: inf
ROOT
ATOM      1  C   UNL A   1      30.913  23.080  25.574  1.00  0.00     0.260 C 
ENDROOT
BRANCH   1   2
ATOM      2  O   UNL A   1      31.188  21.684  25.579  1.00  0.00    -0.368 OA
BRANCH   2   3
ATOM      3  C   UNL A   1      31.969  21.236  24.473  1.00  0.00     0.188 C 
BRANCH   3   4
ATOM      4  C   UNL A   1      32.020  22.299  23.421  1.00  0.00    -0.003 C 
ATOM      5  C   UNL A   1      32.958  22.330  22.463  1.00  0.00    -0.029 C 
BRANCH   5   6
ATOM      6  C   UNL A   1      33.153  23.469  21.503  1.00  0.00     0.031 C 
BRANCH   6   7
ATOM      7  C   UNL A   1      32.268  24.679  21.847  1.00  0.00     0.031 C 
BRANCH   7   8
ATOM      8  C   UNL A   1      32.737  25.420  23.071  1.00  0.00    -0.031 C 
ATOM      9  C   UNL A   1      33.988  25.372  23.555  1.00  0.00    -0.027 C 
BRANCH   9  10
ATOM     10  C   UNL A   1      34.421  26.071  24.811  1.00  0.00     0.054 C 
BRANCH  10  11
ATOM     11  C   UNL A   1      34.474  25.101  25.956  1.00  0.00    -0.027 C 
ATOM     12  C   UNL A   1      34.520  23.767  25.813  1.00  0.00    -0.027 C 
BRANCH  12  13
ATOM     13  C   UNL A   1      34.526  22.796  26.956  1.00  0.00     0.054 C 
BRANCH  13  14
ATOM     14  C   UNL A   1      35.016  21.451  26.502  1.00  0.00    -0.027 C 
ATOM     15  C   UNL A   1      35.532  21.208  25.286  1.00  0.00    -0.027 C 
BRANCH  15  16
ATOM     16  C   UNL A   1      35.994  19.857  24.821  1.00  0.00     0.054 C 
BRANCH  16  17
ATOM     17  C   UNL A   1      34.853  18.879  24.806  1.00  0.00    -0.027 C 
ATOM     18  C   UNL A   1      34.881  17.697  24.172  1.00  0.00    -0.031 C 
BRANCH  18  19
ATOM     19  C   UNL A   1      33.732  16.732  24.151  1.00  0.00     0.023 C 
ATOM     20  C   UNL A   1      32.477  17.357  24.743  1.00  0.00     0.008 C 
ENDBRANCH  18  19
ENDBRANCH  16  17
ENDBRANCH  15  16
ENDBRANCH  13  14
ENDBRANCH  12  13
ENDBRANCH  10  11
ENDBRANCH   9  10
ENDBRANCH   7   8
ENDBRANCH   6   7
ENDBRANCH   5   6
ENDBRANCH   3   4
ENDBRANCH   2   3
ENDBRANCH   1   2
BRANCH   1  21
ATOM     21  C   UNL A   1      29.977  23.625  26.660  1.00  0.00     0.246 C 
ATOM     22  O   UNL A   1      29.647  22.952  27.640  1.00  0.00    -0.272 OA
ATOM     23  N   UNL A   1      29.517  24.904  26.549  1.00  0.00    -0.354 N 
ATOM     24  H   UNL A   1      28.986  25.241  27.306  1.00  0.00     0.163 HD
BRANCH  23  25
ATOM     25  C   UNL A   1      29.716  25.830  25.450  1.00  0.00     0.116 C 
BRANCH  25  26
ATOM     26  C   UNL A   1      31.091  26.494  25.531  1.00  0.00     0.021 C 
BRANCH  26  27
ATOM     27  C   UNL A   1      31.226  27.527  26.657  1.00  0.00     0.002 C 
BRANCH  27  28
ATOM     28  C   UNL A   1      31.651  28.928  26.206  1.00  0.00     0.002 C 
BRANCH  28  29
ATOM     29  C   UNL A   1      33.126  29.067  25.824  1.00  0.00     0.021 C 
BRANCH  29  30
ATOM     30  C   UNL A   1      34.043  29.478  26.970  1.00  0.00     0.116 C 
BRANCH  30  31
ATOM     31  N   UNL A   1      33.897  30.885  27.312  1.00  0.00    -0.352 N 
ATOM     32  C   UNL A   1      34.624  31.644  28.196  1.00  0.00     0.251 C 
ATOM     33  H   UNL A   1      33.175  31.361  26.843  1.00  0.00     0.163 HD
ATOM     34  O   UNL A   1      34.238  32.772  28.498  1.00  0.00    -0.269 OA
BRANCH  32  35
ATOM     35  C   UNL A   1      35.858  31.096  28.796  1.00  0.00     0.039 A 
ATOM     36  C   UNL A   1      35.759  30.027  29.691  1.00  0.00     0.014 A 
ATOM     37  C   UNL A   1      37.110  31.631  28.477  1.00  0.00     0.014 A 
ATOM     38  C   UNL A   1      36.920  29.457  30.219  1.00  0.00     0.010 A 
ATOM     39  C   UNL A   1      38.266  31.012  28.942  1.00  0.00     0.010 A 
ATOM     40  C   UNL A   1      38.186  29.921  29.822  1.00  0.00    -0.014 A 
BRANCH  40  41
ATOM     41  C   UNL A   1      39.431  29.267  30.302  1.00  0.00     0.031 A 
ATOM     42  C   UNL A   1      40.150  29.790  31.516  1.00  0.00     0.074 A 
ATOM     43  C   UNL A   1      39.961  28.249  29.593  1.00  0.00     0.049 A 
ATOM     44  N   UNL A   1      41.269  29.378  32.051  1.00  0.00    -0.248 NA
ATOM     45  C   UNL A   1      39.547  30.944  32.205  1.00  0.00     0.031 C 
ATOM     46  C   UNL A   1      39.403  27.701  28.355  1.00  0.00     0.029 A 
ATOM     47  N   UNL A   1      41.100  27.512  29.798  1.00  0.00    -0.354 N 
ATOM     48  C   UNL A   1      41.524  30.238  33.113  1.00  0.00     0.074 A 
ATOM     49  C   UNL A   1      40.459  31.216  33.127  1.00  0.00     0.031 C 
ATOM     50  C   UNL A   1      40.198  26.714  27.913  1.00  0.00     0.029 A 
ATOM     51  C   UNL A   1      41.339  26.580  28.814  1.00  0.00     0.049 A 
ATOM     52  H   UNL A   1      41.692  27.638  30.575  1.00  0.00     0.167 HD
ATOM     53  C   UNL A   1      42.538  30.203  34.011  1.00  0.00     0.034 A 
ATOM     54  C   UNL A   1      42.366  25.725  28.646  1.00  0.00     0.034 A 
ATOM     55  C   UNL A   1      43.577  29.209  34.014  1.00  0.00     0.049 A 
ATOM     56  C   UNL A   1      43.463  25.687  29.674  1.00  0.00     0.074 A 
ATOM     57  C   UNL A   1      44.595  29.034  34.935  1.00  0.00     0.029 A 
ATOM     58  N   UNL A   1      43.743  28.231  33.045  1.00  0.00    -0.354 N 
ATOM     59  N   UNL A   1      43.600  26.404  30.762  1.00  0.00    -0.248 NA
ATOM     60  C   UNL A   1      44.531  24.695  29.472  1.00  0.00     0.031 C 
ATOM     61  C   UNL A   1      45.399  27.975  34.502  1.00  0.00     0.029 A 
ATOM     62  C   UNL A   1      44.856  27.461  33.335  1.00  0.00     0.049 A 
ATOM     63  H   UNL A   1      43.155  28.105  32.265  1.00  0.00     0.167 HD
ATOM     64  C   UNL A   1      44.743  25.928  31.394  1.00  0.00     0.074 A 
ATOM     65  C   UNL A   1      45.250  24.846  30.575  1.00  0.00     0.031 C 
ATOM     66  C   UNL A   1      45.325  26.355  32.541  1.00  0.00     0.034 A 
BRANCH  53  67
ATOM     67  C   UNL A   1      42.555  31.252  35.093  1.00  0.00     0.023 A 
ATOM     68  C   UNL A   1      41.797  31.059  36.266  1.00  0.00     0.012 A 
ATOM     69  C   UNL A   1      43.371  32.394  34.980  1.00  0.00     0.148 A 
ATOM     70  C   UNL A   1      41.822  32.002  37.293  1.00  0.00     0.002 A 
ATOM     71  C   UNL A   1      43.428  33.307  36.027  1.00  0.00     0.091 A 
ATOM     72  F   UNL A   1      44.071  32.571  33.850  1.00  0.00    -0.205 F 
ATOM     73  C   UNL A   1      42.645  33.119  37.178  1.00  0.00     0.022 A 
BRANCH  71  74
ATOM     74  S   UNL A   1      44.521  34.732  36.013  1.00  0.00     0.127 S 
ATOM     75  O   UNL A   1      44.628  35.035  37.440  1.00  0.00    -0.237 OA
ATOM     76  O   UNL A   1      45.737  34.182  35.414  1.00  0.00    -0.237 OA
ATOM     77  O   UNL A   1      43.851  35.746  35.211  1.00  0.00    -0.744 OA
ENDBRANCH  71  74
ENDBRANCH  53  67
BRANCH  54  78
ATOM     78  C   UNL A   1      42.380  24.797  27.478  1.00  0.00     0.023 A 
ATOM     79  C   UNL A   1      43.139  25.125  26.338  1.00  0.00     0.012 A 
ATOM     80  C   UNL A   1      41.661  23.587  27.500  1.00  0.00     0.148 A 
ATOM     81  C   UNL A   1      43.153  24.281  25.226  1.00  0.00     0.002 A 
ATOM     82  C   UNL A   1      41.725  22.724  26.413  1.00  0.00     0.091 A 
ATOM     83  F   UNL A   1      40.937  23.298  28.591  1.00  0.00    -0.205 F 
ATOM     84  C   UNL A   1      42.454  23.077  25.267  1.00  0.00     0.022 A 
BRANCH  82  85
ATOM     85  S   UNL A   1      40.968  21.095  26.430  1.00  0.00     0.127 S 
ATOM     86  O   UNL A   1      41.971  20.293  25.734  1.00  0.00    -0.237 OA
ATOM     87  O   UNL A   1      40.854  20.830  27.865  1.00  0.00    -0.237 OA
ATOM     88  O   UNL A   1      39.692  21.245  25.745  1.00  0.00    -0.744 OA
ENDBRANCH  82  85
ENDBRANCH  54  78
BRANCH  66  89
ATOM     89  C   UNL A   1      46.557  25.627  33.015  1.00  0.00     0.023 A 
ATOM     90  C   UNL A   1      47.837  26.097  32.660  1.00  0.00     0.012 A 
ATOM     91  C   UNL A   1      46.441  24.516  33.874  1.00  0.00     0.148 A 
ATOM     92  C   UNL A   1      48.982  25.450  33.124  1.00  0.00     0.002 A 
ATOM     93  C   UNL A   1      47.587  23.911  34.375  1.00  0.00     0.091 A 
ATOM     94  F   UNL A   1      45.215  24.074  34.186  1.00  0.00    -0.205 F 
ATOM     95  C   UNL A   1      48.859  24.367  33.990  1.00  0.00     0.022 A 
BRANCH  93  96
ATOM     96  S   UNL A   1      47.526  22.575  35.574  1.00  0.00     0.127 S 
ATOM     97  O   UNL A   1      48.528  23.002  36.548  1.00  0.00    -0.237 OA
ATOM     98  O   UNL A   1      46.144  22.648  36.049  1.00  0.00    -0.237 OA
ATOM     99  O   UNL A   1      47.850  21.359  34.840  1.00  0.00    -0.744 OA
ENDBRANCH  93  96
ENDBRANCH  66  89
ENDBRANCH  40  41
ENDBRANCH  32  35
ENDBRANCH  30  31
ENDBRANCH  29  30
ENDBRANCH  28  29
ENDBRANCH  27  28
ENDBRANCH  26  27
ENDBRANCH  25  26
ENDBRANCH  23  25
ENDBRANCH   1  21
TORSDOF 29
ENDMDL
MODEL 3
REMARK VINA RESULT:      -7.3      1.982      2.467
REMARK SMILES CC/C=C/C/C=C/C/C=C/C/C=C/CC/C=C/COCC(=O)NCCCCCCNC(=O)c1ccc(-c2c3nc(c(-c4cccc(S(=O)(=O)[O-])c4F)c4ccc([nH]4)c(-c4cccc(S(=O)(=O)[O-])c4F)c4nc(c(-c5cccc(S(=O)(=O)[O-])c5F)c5ccc2[nH]5)C=C4)C=C3)cc1
REMARK SMILES IDX 20 1 19 2 18 3 17 4 16 5 15 6 14 7 13 8 12 9 11 10 10 11
REMARK SMILES IDX 9 12 8 13 7 14 6 15 5 16 4 17 3 18 2 19 1 20 21 21 22 22
REMARK SMILES IDX 23 23 24 25 25 26 26 27 27 28 28 29 29 30 30 31 31 32 32 34
REMARK SMILES IDX 33 35 34 36 95 37 35 38 94 39 36 40 37 41 38 42 88 43 39 44
REMARK SMILES IDX 93 45 87 46 89 47 40 48 92 49 86 50 85 51 41 53 73 54 53 55
REMARK SMILES IDX 72 56 54 57 57 58 71 59 90 60 55 61 56 62 70 64 91 65 58 66
REMARK SMILES IDX 42 67 43 68 51 69 44 70 46 71 52 72 45 73 47 74 48 75 49 76
REMARK SMILES IDX 50 77 74 78 75 79 83 80 76 81 78 82 84 83 77 84 79 85 80 86
REMARK SMILES IDX 81 87 82 88 59 89 60 90 68 91 61 92 63 93 69 94 62 95 64 96
REMARK SMILES IDX 65 97 66 98 67 99
REMARK H PARENT 23 24 30 33 89 52 57 63
REMARK Flexibility Score: inf
ROOT
ATOM      1  C   UNL A   1      31.151  23.161  25.780  1.00  0.00     0.260 C 
ENDROOT
BRANCH   1   2
ATOM      2  O   UNL A   1      30.828  22.001  25.021  1.00  0.00    -0.368 OA
BRANCH   2   3
ATOM      3  C   UNL A   1      31.480  21.929  23.754  1.00  0.00     0.188 C 
BRANCH   3   4
ATOM      4  C   UNL A   1      31.940  23.290  23.339  1.00  0.00    -0.003 C 
ATOM      5  C   UNL A   1      33.113  23.506  22.725  1.00  0.00    -0.029 C 
BRANCH   5   6
ATOM      6  C   UNL A   1      33.691  24.866  22.454  1.00  0.00     0.031 C 
BRANCH   6   7
ATOM      7  C   UNL A   1      33.777  25.727  23.727  1.00  0.00     0.031 C 
BRANCH   7   8
ATOM      8  C   UNL A   1      34.618  25.097  24.805  1.00  0.00    -0.031 C 
ATOM      9  C   UNL A   1      35.479  24.087  24.604  1.00  0.00    -0.027 C 
BRANCH   9  10
ATOM     10  C   UNL A   1      36.265  23.434  25.704  1.00  0.00     0.054 C 
BRANCH  10  11
ATOM     11  C   UNL A   1      35.532  22.232  26.226  1.00  0.00    -0.027 C 
ATOM     12  C   UNL A   1      34.608  21.551  25.529  1.00  0.00    -0.027 C 
BRANCH  12  13
ATOM     13  C   UNL A   1      33.843  20.378  26.067  1.00  0.00     0.054 C 
BRANCH  13  14
ATOM     14  C   UNL A   1      33.542  19.398  24.969  1.00  0.00    -0.027 C 
ATOM     15  C   UNL A   1      34.465  18.621  24.378  1.00  0.00    -0.027 C 
BRANCH  15  16
ATOM     16  C   UNL A   1      34.170  17.664  23.261  1.00  0.00     0.054 C 
BRANCH  16  17
ATOM     17  C   UNL A   1      33.853  16.298  23.798  1.00  0.00    -0.027 C 
ATOM     18  C   UNL A   1      33.047  16.067  24.846  1.00  0.00    -0.031 C 
BRANCH  18  19
ATOM     19  C   UNL A   1      32.745  14.699  25.385  1.00  0.00     0.023 C 
ATOM     20  C   UNL A   1      31.864  14.778  26.623  1.00  0.00     0.008 C 
ENDBRANCH  18  19
ENDBRANCH  16  17
ENDBRANCH  15  16
ENDBRANCH  13  14
ENDBRANCH  12  13
ENDBRANCH  10  11
ENDBRANCH   9  10
ENDBRANCH   7   8
ENDBRANCH   6   7
ENDBRANCH   5   6
ENDBRANCH   3   4
ENDBRANCH   2   3
ENDBRANCH   1   2
BRANCH   1  21
ATOM     21  C   UNL A   1      30.102  23.677  26.772  1.00  0.00     0.246 C 
ATOM     22  O   UNL A   1      29.594  22.948  27.628  1.00  0.00    -0.272 OA
ATOM     23  N   UNL A   1      29.740  24.991  26.720  1.00  0.00    -0.354 N 
ATOM     24  H   UNL A   1      29.125  25.299  27.425  1.00  0.00     0.163 HD
BRANCH  23  25
ATOM     25  C   UNL A   1      30.150  25.990  25.752  1.00  0.00     0.116 C 
BRANCH  25  26
ATOM     26  C   UNL A   1      31.478  26.633  26.153  1.00  0.00     0.021 C 
BRANCH  26  27
ATOM     27  C   UNL A   1      31.369  27.631  27.313  1.00  0.00     0.002 C 
BRANCH  27  28
ATOM     28  C   UNL A   1      31.810  29.061  26.983  1.00  0.00     0.002 C 
BRANCH  28  29
ATOM     29  C   UNL A   1      33.318  29.251  26.811  1.00  0.00     0.021 C 
BRANCH  29  30
ATOM     30  C   UNL A   1      33.990  30.047  27.926  1.00  0.00     0.116 C 
BRANCH  30  31
ATOM     31  N   UNL A   1      34.389  31.376  27.488  1.00  0.00    -0.352 N 
ATOM     32  C   UNL A   1      35.536  32.074  27.769  1.00  0.00     0.251 C 
ATOM     33  H   UNL A   1      33.744  31.840  26.906  1.00  0.00     0.163 HD
ATOM     34  O   UNL A   1      35.620  33.263  27.466  1.00  0.00    -0.269 OA
BRANCH  32  35
ATOM     35  C   UNL A   1      36.661  31.401  28.452  1.00  0.00     0.039 A 
ATOM     36  C   UNL A   1      36.624  30.013  28.609  1.00  0.00     0.014 A 
ATOM     37  C   UNL A   1      37.749  32.134  28.935  1.00  0.00     0.014 A 
ATOM     38  C   UNL A   1      37.707  29.354  29.195  1.00  0.00     0.010 A 
ATOM     39  C   UNL A   1      38.859  31.468  29.447  1.00  0.00     0.010 A 
ATOM     40  C   UNL A   1      38.850  30.072  29.588  1.00  0.00    -0.014 A 
BRANCH  40  41
ATOM     41  C   UNL A   1      40.048  29.377  30.128  1.00  0.00     0.031 A 
ATOM     42  C   UNL A   1      40.864  30.005  31.225  1.00  0.00     0.074 A 
ATOM     43  C   UNL A   1      40.449  28.216  29.571  1.00  0.00     0.049 A 
ATOM     44  N   UNL A   1      41.962  29.570  31.787  1.00  0.00    -0.248 NA
ATOM     45  C   UNL A   1      40.403  31.304  31.744  1.00  0.00     0.031 C 
ATOM     46  C   UNL A   1      39.790  27.545  28.450  1.00  0.00     0.029 A 
ATOM     47  N   UNL A   1      41.521  27.409  29.856  1.00  0.00    -0.354 N 
ATOM     48  C   UNL A   1      42.342  30.551  32.694  1.00  0.00     0.074 A 
ATOM     49  C   UNL A   1      41.375  31.621  32.586  1.00  0.00     0.031 C 
ATOM     50  C   UNL A   1      40.468  26.428  28.144  1.00  0.00     0.029 A 
ATOM     51  C   UNL A   1      41.629  26.320  29.022  1.00  0.00     0.049 A 
ATOM     52  H   UNL A   1      42.155  27.592  30.587  1.00  0.00     0.167 HD
ATOM     53  C   UNL A   1      43.386  30.552  33.558  1.00  0.00     0.034 A 
ATOM     54  C   UNL A   1      42.564  25.351  28.960  1.00  0.00     0.034 A 
ATOM     55  C   UNL A   1      44.326  29.471  33.687  1.00  0.00     0.049 A 
ATOM     56  C   UNL A   1      43.695  25.360  29.951  1.00  0.00     0.074 A 
ATOM     57  C   UNL A   1      45.362  29.338  34.594  1.00  0.00     0.029 A 
ATOM     58  N   UNL A   1      44.358  28.347  32.877  1.00  0.00    -0.354 N 
ATOM     59  N   UNL A   1      43.945  26.218  30.910  1.00  0.00    -0.248 NA
ATOM     60  C   UNL A   1      44.655  24.249  29.875  1.00  0.00     0.031 C 
ATOM     61  C   UNL A   1      46.044  28.151  34.309  1.00  0.00     0.029 A 
ATOM     62  C   UNL A   1      45.405  27.523  33.252  1.00  0.00     0.049 A 
ATOM     63  H   UNL A   1      43.728  28.162  32.143  1.00  0.00     0.167 HD
ATOM     64  C   UNL A   1      45.065  25.731  31.576  1.00  0.00     0.074 A 
ATOM     65  C   UNL A   1      45.432  24.493  30.921  1.00  0.00     0.031 C 
ATOM     66  C   UNL A   1      45.734  26.268  32.625  1.00  0.00     0.034 A 
BRANCH  53  67
ATOM     67  C   UNL A   1      43.549  31.747  34.464  1.00  0.00     0.023 A 
ATOM     68  C   UNL A   1      42.961  31.737  35.746  1.00  0.00     0.012 A 
ATOM     69  C   UNL A   1      44.335  32.847  34.074  1.00  0.00     0.148 A 
ATOM     70  C   UNL A   1      43.124  32.818  36.611  1.00  0.00     0.002 A 
ATOM     71  C   UNL A   1      44.533  33.900  34.959  1.00  0.00     0.091 A 
ATOM     72  F   UNL A   1      44.870  32.848  32.844  1.00  0.00    -0.205 F 
ATOM     73  C   UNL A   1      43.918  33.893  36.222  1.00  0.00     0.022 A 
BRANCH  71  74
ATOM     74  S   UNL A   1      45.605  35.292  34.587  1.00  0.00     0.127 S 
ATOM     75  O   UNL A   1      45.683  35.960  35.886  1.00  0.00    -0.237 OA
ATOM     76  O   UNL A   1      46.840  34.626  34.170  1.00  0.00    -0.237 OA
ATOM     77  O   UNL A   1      44.936  36.048  33.538  1.00  0.00    -0.744 OA
ENDBRANCH  71  74
ENDBRANCH  53  67
BRANCH  54  78
ATOM     78  C   UNL A   1      42.440  24.260  27.951  1.00  0.00     0.023 A 
ATOM     79  C   UNL A   1      41.317  23.409  27.981  1.00  0.00     0.012 A 
ATOM     80  C   UNL A   1      43.417  24.073  26.955  1.00  0.00     0.148 A 
ATOM     81  C   UNL A   1      41.188  22.370  27.059  1.00  0.00     0.002 A 
ATOM     82  C   UNL A   1      43.254  23.073  26.005  1.00  0.00     0.091 A 
ATOM     83  F   UNL A   1      44.483  24.887  26.951  1.00  0.00    -0.205 F 
ATOM     84  C   UNL A   1      42.151  22.207  26.065  1.00  0.00     0.022 A 
BRANCH  82  85
ATOM     85  S   UNL A   1      44.372  22.875  24.613  1.00  0.00     0.127 S 
ATOM     86  O   UNL A   1      45.192  24.079  24.715  1.00  0.00    -0.237 OA
ATOM     87  O   UNL A   1      45.060  21.630  24.954  1.00  0.00    -0.237 OA
ATOM     88  O   UNL A   1      43.522  22.788  23.434  1.00  0.00    -0.744 OA
ENDBRANCH  82  85
ENDBRANCH  54  78
BRANCH  66  89
ATOM     89  C   UNL A   1      46.911  25.502  33.172  1.00  0.00     0.023 A 
ATOM     90  C   UNL A   1      46.728  24.579  34.221  1.00  0.00     0.012 A 
ATOM     91  C   UNL A   1      48.188  25.648  32.594  1.00  0.00     0.148 A 
ATOM     92  C   UNL A   1      47.805  23.839  34.709  1.00  0.00     0.002 A 
ATOM     93  C   UNL A   1      49.243  24.868  33.050  1.00  0.00     0.091 A 
ATOM     94  F   UNL A   1      48.345  26.543  31.610  1.00  0.00    -0.205 F 
ATOM     95  C   UNL A   1      49.058  23.974  34.117  1.00  0.00     0.022 A 
BRANCH  93  96
ATOM     96  S   UNL A   1      50.867  24.901  32.282  1.00  0.00     0.127 S 
ATOM     97  O   UNL A   1      50.555  24.512  30.908  1.00  0.00    -0.237 OA
ATOM     98  O   UNL A   1      51.259  26.301  32.447  1.00  0.00    -0.237 OA
ATOM     99  O   UNL A   1      51.685  23.952  33.026  1.00  0.00    -0.744 OA
ENDBRANCH  93  96
ENDBRANCH  66  89
ENDBRANCH  40  41
ENDBRANCH  32  35
ENDBRANCH  30  31
ENDBRANCH  29  30
ENDBRANCH  28  29
ENDBRANCH  27  28
ENDBRANCH  26  27
ENDBRANCH  25  26
ENDBRANCH  23  25
ENDBRANCH   1  21
TORSDOF 29
ENDMDL
