MODEL 1
REMARK VINA RESULT:     -11.6      0.000      0.000
REMARK SMILES O=C(Cc1ccn[nH]1)Nc1sc2c(c1C(=O)NCCCCCCNC(=O)c1ccc(-c3c4nc(c(-c5cccc(S(=O)(=O)[O-])c5F)c5ccc([nH]5)c(-c5cccc(S(=O)(=O)[O-])c5F)c5nc(c(-c6cccc(S(=O)(=O)[O-])c6F)c6ccc3[nH]6)C=C5)C=C4)cc1)CCC2
REMARK SMILES IDX 20 1 19 2 18 3 17 4 15 5 16 6 14 8 10 9 11 10 12 11 13 12
REMARK SMILES IDX 92 13 90 14 91 15 9 16 1 17 2 18 3 20 4 21 5 22 8 23 6 24
REMARK SMILES IDX 7 25 21 27 22 28 23 29 24 30 25 31 26 33 27 34 28 35 89 36
REMARK SMILES IDX 29 37 88 38 30 39 31 40 32 41 82 42 33 43 87 44 81 45 83 46
REMARK SMILES IDX 34 47 86 48 80 49 79 50 35 52 67 53 47 54 66 55 48 56 51 57
REMARK SMILES IDX 65 58 84 59 49 60 50 61 64 63 85 64 52 65 36 66 37 67 45 68
REMARK SMILES IDX 38 69 40 70 46 71 39 72 41 73 42 74 43 75 44 76 68 77 69 78
REMARK SMILES IDX 77 79 70 80 72 81 78 82 71 83 73 84 74 85 75 86 76 87 53 88
REMARK SMILES IDX 54 89 62 90 55 91 57 92 63 93 56 94 58 95 59 96 60 97 61 98
REMARK H PARENT 17 7 9 19 8 26 24 32 83 51 51 62
REMARK Flexibility Score: inf
ROOT
ATOM      1  C   UNL A   1      33.732  30.748  27.182  1.00  0.00     0.002 C 
ENDROOT
BRANCH   1   2
ATOM      2  C   UNL A   1      34.180  29.347  27.611  1.00  0.00     0.021 C 
BRANCH   2   3
ATOM      3  C   UNL A   1      34.016  28.307  26.511  1.00  0.00     0.116 C 
BRANCH   3   4
ATOM      4  N   UNL A   1      32.811  27.548  26.643  1.00  0.00    -0.352 N 
ATOM      5  C   UNL A   1      32.416  26.354  26.107  1.00  0.00     0.254 C 
ATOM      6  O   UNL A   1      31.576  25.771  26.809  1.00  0.00    -0.269 OA
ATOM      7  H   UNL A   1      32.138  27.964  27.229  1.00  0.00     0.163 HD
BRANCH   5   8
ATOM      8  C   UNL A   1      32.971  25.729  24.885  1.00  0.00     0.078 A 
ATOM      9  C   UNL A   1      32.740  26.342  23.644  1.00  0.00     0.108 A 
ATOM     10  S   UNL A   1      33.024  25.350  22.283  1.00  0.00    -0.122 S 
ATOM     11  C   UNL A   1      33.774  24.236  23.263  1.00  0.00     0.011 A 
ATOM     12  C   UNL A   1      33.728  24.526  24.607  1.00  0.00    -0.019 A 
ATOM     13  C   UNL A   1      34.471  22.979  22.903  1.00  0.00     0.047 C 
ATOM     14  C   UNL A   1      34.449  23.433  25.334  1.00  0.00     0.038 C 
ATOM     15  C   UNL A   1      35.221  22.674  24.218  1.00  0.00     0.010 C 
BRANCH   9  16
ATOM     16  N   UNL A   1      32.277  27.581  23.265  1.00  0.00    -0.317 N 
ATOM     17  O   UNL A   1      30.010  27.243  23.691  1.00  0.00    -0.274 OA
ATOM     18  C   UNL A   1      30.930  27.888  23.193  1.00  0.00     0.230 C 
ATOM     19  H   UNL A   1      32.932  28.279  23.036  1.00  0.00     0.170 HD
BRANCH  18  20
ATOM     20  C   UNL A   1      30.657  29.168  22.423  1.00  0.00     0.155 C 
BRANCH  20  21
ATOM     21  C   UNL A   1      29.378  29.791  22.862  1.00  0.00     0.044 A 
ATOM     22  C   UNL A   1      29.111  30.965  23.532  1.00  0.00     0.045 A 
ATOM     23  N   UNL A   1      28.165  29.188  22.658  1.00  0.00    -0.282 N 
ATOM     24  C   UNL A   1      27.714  30.981  23.676  1.00  0.00     0.135 A 
ATOM     25  N   UNL A   1      27.133  29.918  23.118  1.00  0.00    -0.184 NA
ATOM     26  H   UNL A   1      28.058  28.313  22.219  1.00  0.00     0.190 HD
ENDBRANCH  20  21
ENDBRANCH  18  20
ENDBRANCH   9  16
ENDBRANCH   5   8
ENDBRANCH   3   4
ENDBRANCH   2   3
ENDBRANCH   1   2
BRANCH   1  27
ATOM     27  C   UNL A   1      32.259  30.869  26.750  1.00  0.00     0.002 C 
BRANCH  27  28
ATOM     28  C   UNL A   1      31.519  32.136  27.212  1.00  0.00     0.021 C 
BRANCH  28  29
ATOM     29  C   UNL A   1      32.226  33.416  26.803  1.00  0.00     0.116 C 
BRANCH  29  30
ATOM     30  N   UNL A   1      32.175  34.419  27.871  1.00  0.00    -0.352 N 
ATOM     31  C   UNL A   1      32.955  34.530  29.005  1.00  0.00     0.251 C 
ATOM     32  H   UNL A   1      31.485  35.113  27.764  1.00  0.00     0.163 HD
ATOM     33  O   UNL A   1      32.591  35.199  29.955  1.00  0.00    -0.269 OA
BRANCH  31  34
ATOM     34  C   UNL A   1      34.249  33.830  29.027  1.00  0.00     0.039 A 
ATOM     35  C   UNL A   1      35.230  34.066  28.059  1.00  0.00     0.014 A 
ATOM     36  C   UNL A   1      34.471  32.941  30.072  1.00  0.00     0.014 A 
ATOM     37  C   UNL A   1      36.465  33.438  28.196  1.00  0.00     0.010 A 
ATOM     38  C   UNL A   1      35.736  32.494  30.315  1.00  0.00     0.010 A 
ATOM     39  C   UNL A   1      36.705  32.658  29.335  1.00  0.00    -0.014 A 
BRANCH  39  40
ATOM     40  C   UNL A   1      38.005  32.062  29.601  1.00  0.00     0.031 A 
ATOM     41  C   UNL A   1      38.133  30.658  29.131  1.00  0.00     0.074 A 
ATOM     42  C   UNL A   1      39.057  32.829  29.966  1.00  0.00     0.049 A 
ATOM     43  N   UNL A   1      38.264  29.592  29.849  1.00  0.00    -0.248 NA
ATOM     44  C   UNL A   1      37.902  30.386  27.702  1.00  0.00     0.031 C 
ATOM     45  C   UNL A   1      39.093  34.294  30.115  1.00  0.00     0.029 A 
ATOM     46  N   UNL A   1      40.364  32.490  30.104  1.00  0.00    -0.354 N 
ATOM     47  C   UNL A   1      38.413  28.549  28.933  1.00  0.00     0.074 A 
ATOM     48  C   UNL A   1      37.911  29.052  27.685  1.00  0.00     0.031 C 
ATOM     49  C   UNL A   1      40.370  34.724  30.036  1.00  0.00     0.029 A 
ATOM     50  C   UNL A   1      41.243  33.568  30.018  1.00  0.00     0.049 A 
ATOM     51  H   UNL A   1      40.664  31.565  30.251  1.00  0.00     0.167 HD
ATOM     52  C   UNL A   1      39.231  27.493  29.206  1.00  0.00     0.034 A 
ATOM     53  C   UNL A   1      42.591  33.508  29.879  1.00  0.00     0.034 A 
ATOM     54  C   UNL A   1      39.568  27.461  30.612  1.00  0.00     0.049 A 
ATOM     55  C   UNL A   1      43.005  32.150  30.298  1.00  0.00     0.074 A 
ATOM     56  C   UNL A   1      38.854  27.409  31.793  1.00  0.00     0.029 A 
ATOM     57  N   UNL A   1      40.825  27.902  30.952  1.00  0.00    -0.354 N 
ATOM     58  N   UNL A   1      42.885  31.710  31.519  1.00  0.00    -0.248 NA
ATOM     59  C   UNL A   1      43.122  31.130  29.270  1.00  0.00     0.031 C 
ATOM     60  C   UNL A   1      39.562  28.267  32.687  1.00  0.00     0.029 A 
ATOM     61  C   UNL A   1      40.708  28.728  32.035  1.00  0.00     0.049 A 
ATOM     62  H   UNL A   1      41.664  27.666  30.493  1.00  0.00     0.167 HD
ATOM     63  C   UNL A   1      42.429  30.407  31.366  1.00  0.00     0.074 A 
ATOM     64  C   UNL A   1      42.714  30.069  29.971  1.00  0.00     0.031 C 
ATOM     65  C   UNL A   1      41.593  29.845  32.289  1.00  0.00     0.034 A 
BRANCH  52  66
ATOM     66  C   UNL A   1      40.094  26.758  28.187  1.00  0.00     0.023 A 
ATOM     67  C   UNL A   1      40.147  25.347  28.309  1.00  0.00     0.012 A 
ATOM     68  C   UNL A   1      41.064  27.350  27.345  1.00  0.00     0.148 A 
ATOM     69  C   UNL A   1      41.174  24.591  27.735  1.00  0.00     0.002 A 
ATOM     70  C   UNL A   1      42.050  26.587  26.725  1.00  0.00     0.091 A 
ATOM     71  F   UNL A   1      41.128  28.672  27.203  1.00  0.00    -0.205 F 
ATOM     72  C   UNL A   1      42.134  25.212  26.950  1.00  0.00     0.022 A 
BRANCH  70  73
ATOM     73  S   UNL A   1      43.301  27.339  25.672  1.00  0.00     0.127 S 
ATOM     74  O   UNL A   1      44.067  26.168  25.255  1.00  0.00    -0.237 OA
ATOM     75  O   UNL A   1      42.480  27.950  24.627  1.00  0.00    -0.237 OA
ATOM     76  O   UNL A   1      44.008  28.297  26.514  1.00  0.00    -0.744 OA
ENDBRANCH  70  73
ENDBRANCH  52  66
BRANCH  53  77
ATOM     77  C   UNL A   1      43.516  34.429  29.180  1.00  0.00     0.023 A 
ATOM     78  C   UNL A   1      44.094  35.505  29.884  1.00  0.00     0.012 A 
ATOM     79  C   UNL A   1      44.051  34.092  27.918  1.00  0.00     0.148 A 
ATOM     80  C   UNL A   1      45.193  36.201  29.362  1.00  0.00     0.002 A 
ATOM     81  C   UNL A   1      45.141  34.788  27.402  1.00  0.00     0.091 A 
ATOM     82  F   UNL A   1      43.552  33.032  27.269  1.00  0.00    -0.205 F 
ATOM     83  C   UNL A   1      45.723  35.837  28.127  1.00  0.00     0.022 A 
BRANCH  81  84
ATOM     84  S   UNL A   1      45.901  34.352  25.832  1.00  0.00     0.127 S 
ATOM     85  O   UNL A   1      44.774  34.476  24.907  1.00  0.00    -0.237 OA
ATOM     86  O   UNL A   1      46.924  35.386  25.695  1.00  0.00    -0.237 OA
ATOM     87  O   UNL A   1      46.399  32.992  25.998  1.00  0.00    -0.744 OA
ENDBRANCH  81  84
ENDBRANCH  53  77
BRANCH  65  88
ATOM     88  C   UNL A   1      41.382  30.573  33.594  1.00  0.00     0.023 A 
ATOM     89  C   UNL A   1      42.321  30.536  34.648  1.00  0.00     0.012 A 
ATOM     90  C   UNL A   1      40.298  31.458  33.685  1.00  0.00     0.148 A 
ATOM     91  C   UNL A   1      42.168  31.349  35.775  1.00  0.00     0.002 A 
ATOM     92  C   UNL A   1      40.174  32.299  34.785  1.00  0.00     0.091 A 
ATOM     93  F   UNL A   1      39.417  31.485  32.673  1.00  0.00    -0.205 F 
ATOM     94  C   UNL A   1      41.100  32.242  35.837  1.00  0.00     0.022 A 
BRANCH  92  95
ATOM     95  S   UNL A   1      38.896  33.555  34.858  1.00  0.00     0.127 S 
ATOM     96  O   UNL A   1      37.678  32.761  34.709  1.00  0.00    -0.237 OA
ATOM     97  O   UNL A   1      39.094  34.128  36.190  1.00  0.00    -0.237 OA
ATOM     98  O   UNL A   1      39.180  34.479  33.767  1.00  0.00    -0.744 OA
ENDBRANCH  92  95
ENDBRANCH  65  88
ENDBRANCH  39  40
ENDBRANCH  31  34
ENDBRANCH  29  30
ENDBRANCH  28  29
ENDBRANCH  27  28
ENDBRANCH   1  27
TORSDOF 19
ENDMDL
MODEL 2
REMARK VINA RESULT:     -11.0      3.001      6.934
REMARK SMILES O=C(Cc1ccn[nH]1)Nc1sc2c(c1C(=O)NCCCCCCNC(=O)c1ccc(-c3c4nc(c(-c5cccc(S(=O)(=O)[O-])c5F)c5ccc([nH]5)c(-c5cccc(S(=O)(=O)[O-])c5F)c5nc(c(-c6cccc(S(=O)(=O)[O-])c6F)c6ccc3[nH]6)C=C5)C=C4)cc1)CCC2
REMARK SMILES IDX 20 1 19 2 18 3 17 4 15 5 16 6 14 8 10 9 11 10 12 11 13 12
REMARK SMILES IDX 92 13 90 14 91 15 9 16 1 17 2 18 3 20 4 21 5 22 8 23 6 24
REMARK SMILES IDX 7 25 21 27 22 28 23 29 24 30 25 31 26 33 27 34 28 35 89 36
REMARK SMILES IDX 29 37 88 38 30 39 31 40 32 41 82 42 33 43 87 44 81 45 83 46
REMARK SMILES IDX 34 47 86 48 80 49 79 50 35 52 67 53 47 54 66 55 48 56 51 57
REMARK SMILES IDX 65 58 84 59 49 60 50 61 64 63 85 64 52 65 36 66 37 67 45 68
REMARK SMILES IDX 38 69 40 70 46 71 39 72 41 73 42 74 43 75 44 76 68 77 69 78
REMARK SMILES IDX 77 79 70 80 72 81 78 82 71 83 73 84 74 85 75 86 76 87 53 88
REMARK SMILES IDX 54 89 62 90 55 91 57 92 63 93 56 94 58 95 59 96 60 97 61 98
REMARK H PARENT 17 7 9 19 8 26 24 32 83 51 51 62
REMARK Flexibility Score: inf
ROOT
ATOM      1  C   UNL A   1      34.441  29.351  27.549  1.00  0.00     0.002 C 
ENDROOT
BRANCH   1   2
ATOM      2  C   UNL A   1      34.264  28.847  26.112  1.00  0.00     0.021 C 
BRANCH   2   3
ATOM      3  C   UNL A   1      32.910  29.208  25.517  1.00  0.00     0.116 C 
BRANCH   3   4
ATOM      4  N   UNL A   1      31.822  28.565  26.188  1.00  0.00    -0.352 N 
ATOM      5  C   UNL A   1      31.354  27.281  26.153  1.00  0.00     0.254 C 
ATOM      6  O   UNL A   1      30.764  26.961  27.196  1.00  0.00    -0.269 OA
ATOM      7  H   UNL A   1      31.315  29.159  26.788  1.00  0.00     0.163 HD
BRANCH   5   8
ATOM      8  C   UNL A   1      31.584  26.306  25.063  1.00  0.00     0.078 A 
ATOM      9  C   UNL A   1      30.555  26.061  24.142  1.00  0.00     0.108 A 
ATOM     10  S   UNL A   1      30.739  24.639  23.213  1.00  0.00    -0.122 S 
ATOM     11  C   UNL A   1      32.310  24.509  23.741  1.00  0.00     0.011 A 
ATOM     12  C   UNL A   1      32.681  25.439  24.684  1.00  0.00    -0.019 A 
ATOM     13  C   UNL A   1      33.359  23.536  23.354  1.00  0.00     0.047 C 
ATOM     14  C   UNL A   1      34.113  25.181  25.040  1.00  0.00     0.038 C 
ATOM     15  C   UNL A   1      34.618  24.223  23.925  1.00  0.00     0.010 C 
BRANCH   9  16
ATOM     16  N   UNL A   1      29.372  26.697  23.843  1.00  0.00    -0.317 N 
ATOM     17  O   UNL A   1      30.190  28.218  22.277  1.00  0.00    -0.274 OA
ATOM     18  C   UNL A   1      29.307  27.816  23.031  1.00  0.00     0.230 C 
ATOM     19  H   UNL A   1      28.536  26.341  24.221  1.00  0.00     0.170 HD
BRANCH  18  20
ATOM     20  C   UNL A   1      27.977  28.542  23.133  1.00  0.00     0.155 C 
BRANCH  20  21
ATOM     21  C   UNL A   1      28.065  29.900  22.529  1.00  0.00     0.044 A 
ATOM     22  C   UNL A   1      28.337  31.133  23.079  1.00  0.00     0.045 A 
ATOM     23  N   UNL A   1      27.824  30.124  21.199  1.00  0.00    -0.282 N 
ATOM     24  C   UNL A   1      28.246  32.031  22.002  1.00  0.00     0.135 A 
ATOM     25  N   UNL A   1      27.965  31.417  20.852  1.00  0.00    -0.184 NA
ATOM     26  H   UNL A   1      27.576  29.415  20.563  1.00  0.00     0.190 HD
ENDBRANCH  20  21
ENDBRANCH  18  20
ENDBRANCH   9  16
ENDBRANCH   5   8
ENDBRANCH   3   4
ENDBRANCH   2   3
ENDBRANCH   1   2
BRANCH   1  27
ATOM     27  C   UNL A   1      35.134  30.719  27.691  1.00  0.00     0.002 C 
BRANCH  27  28
ATOM     28  C   UNL A   1      34.209  31.947  27.718  1.00  0.00     0.021 C 
BRANCH  28  29
ATOM     29  C   UNL A   1      34.942  33.233  28.061  1.00  0.00     0.116 C 
BRANCH  29  30
ATOM     30  N   UNL A   1      34.434  33.821  29.303  1.00  0.00    -0.352 N 
ATOM     31  C   UNL A   1      34.717  33.481  30.612  1.00  0.00     0.251 C 
ATOM     32  H   UNL A   1      33.800  34.565  29.188  1.00  0.00     0.163 HD
ATOM     33  O   UNL A   1      33.983  33.822  31.522  1.00  0.00    -0.269 OA
BRANCH  31  34
ATOM     34  C   UNL A   1      35.940  32.709  30.879  1.00  0.00     0.039 A 
ATOM     35  C   UNL A   1      35.896  31.349  31.202  1.00  0.00     0.014 A 
ATOM     36  C   UNL A   1      37.151  33.382  30.770  1.00  0.00     0.014 A 
ATOM     37  C   UNL A   1      37.097  30.662  31.351  1.00  0.00     0.010 A 
ATOM     38  C   UNL A   1      38.311  32.669  30.712  1.00  0.00     0.010 A 
ATOM     39  C   UNL A   1      38.299  31.335  31.096  1.00  0.00    -0.014 A 
BRANCH  39  40
ATOM     40  C   UNL A   1      39.584  30.655  31.124  1.00  0.00     0.031 A 
ATOM     41  C   UNL A   1      40.208  30.598  32.471  1.00  0.00     0.074 A 
ATOM     42  C   UNL A   1      39.994  29.906  30.075  1.00  0.00     0.049 A 
ATOM     43  N   UNL A   1      41.287  31.186  32.871  1.00  0.00    -0.248 NA
ATOM     44  C   UNL A   1      39.445  29.959  33.558  1.00  0.00     0.031 C 
ATOM     45  C   UNL A   1      39.262  29.628  28.828  1.00  0.00     0.029 A 
ATOM     46  N   UNL A   1      41.068  29.082  29.972  1.00  0.00    -0.354 N 
ATOM     47  C   UNL A   1      41.475  30.756  34.184  1.00  0.00     0.074 A 
ATOM     48  C   UNL A   1      40.202  30.253  34.617  1.00  0.00     0.031 C 
ATOM     49  C   UNL A   1      39.762  28.515  28.250  1.00  0.00     0.029 A 
ATOM     50  C   UNL A   1      40.948  28.114  28.977  1.00  0.00     0.049 A 
ATOM     51  H   UNL A   1      41.860  29.161  30.550  1.00  0.00     0.167 HD
ATOM     52  C   UNL A   1      42.730  30.551  34.678  1.00  0.00     0.034 A 
ATOM     53  C   UNL A   1      41.738  27.025  28.804  1.00  0.00     0.034 A 
ATOM     54  C   UNL A   1      43.720  31.165  33.820  1.00  0.00     0.049 A 
ATOM     55  C   UNL A   1      42.995  27.285  29.541  1.00  0.00     0.074 A 
ATOM     56  C   UNL A   1      43.951  32.440  33.342  1.00  0.00     0.029 A 
ATOM     57  N   UNL A   1      44.428  30.321  32.998  1.00  0.00    -0.354 N 
ATOM     58  N   UNL A   1      43.835  28.227  29.213  1.00  0.00    -0.248 NA
ATOM     59  C   UNL A   1      43.090  26.805  30.909  1.00  0.00     0.031 C 
ATOM     60  C   UNL A   1      44.384  32.253  31.996  1.00  0.00     0.029 A 
ATOM     61  C   UNL A   1      44.474  30.881  31.752  1.00  0.00     0.049 A 
ATOM     62  H   UNL A   1      44.830  29.462  33.261  1.00  0.00     0.167 HD
ATOM     63  C   UNL A   1      44.214  28.780  30.429  1.00  0.00     0.074 A 
ATOM     64  C   UNL A   1      43.825  27.789  31.433  1.00  0.00     0.031 C 
ATOM     65  C   UNL A   1      44.520  30.108  30.528  1.00  0.00     0.034 A 
BRANCH  52  66
ATOM     66  C   UNL A   1      43.128  29.446  35.650  1.00  0.00     0.023 A 
ATOM     67  C   UNL A   1      44.006  29.816  36.698  1.00  0.00     0.012 A 
ATOM     68  C   UNL A   1      42.956  28.058  35.438  1.00  0.00     0.148 A 
ATOM     69  C   UNL A   1      44.761  28.873  37.402  1.00  0.00     0.002 A 
ATOM     70  C   UNL A   1      43.664  27.118  36.182  1.00  0.00     0.091 A 
ATOM     71  F   UNL A   1      42.189  27.609  34.446  1.00  0.00    -0.205 F 
ATOM     72  C   UNL A   1      44.597  27.521  37.137  1.00  0.00     0.022 A 
BRANCH  70  73
ATOM     73  S   UNL A   1      43.466  25.351  35.900  1.00  0.00     0.127 S 
ATOM     74  O   UNL A   1      43.949  25.223  34.528  1.00  0.00    -0.237 OA
ATOM     75  O   UNL A   1      44.345  24.787  36.925  1.00  0.00    -0.237 OA
ATOM     76  O   UNL A   1      42.051  25.070  36.107  1.00  0.00    -0.744 OA
ENDBRANCH  70  73
ENDBRANCH  52  66
BRANCH  53  77
ATOM     77  C   UNL A   1      41.404  25.684  28.273  1.00  0.00     0.023 A 
ATOM     78  C   UNL A   1      40.062  25.253  28.260  1.00  0.00     0.012 A 
ATOM     79  C   UNL A   1      42.348  24.949  27.524  1.00  0.00     0.148 A 
ATOM     80  C   UNL A   1      39.667  24.145  27.497  1.00  0.00     0.002 A 
ATOM     81  C   UNL A   1      41.952  23.847  26.770  1.00  0.00     0.091 A 
ATOM     82  F   UNL A   1      43.614  25.385  27.477  1.00  0.00    -0.205 F 
ATOM     83  C   UNL A   1      40.609  23.449  26.745  1.00  0.00     0.022 A 
BRANCH  81  84
ATOM     84  S   UNL A   1      43.105  22.922  25.746  1.00  0.00     0.127 S 
ATOM     85  O   UNL A   1      42.275  21.806  25.292  1.00  0.00    -0.237 OA
ATOM     86  O   UNL A   1      43.439  23.898  24.712  1.00  0.00    -0.237 OA
ATOM     87  O   UNL A   1      44.200  22.540  26.629  1.00  0.00    -0.744 OA
ENDBRANCH  81  84
ENDBRANCH  53  77
BRANCH  65  88
ATOM     88  C   UNL A   1      44.684  30.897  29.253  1.00  0.00     0.023 A 
ATOM     89  C   UNL A   1      43.619  31.602  28.650  1.00  0.00     0.012 A 
ATOM     90  C   UNL A   1      45.981  31.075  28.751  1.00  0.00     0.148 A 
ATOM     91  C   UNL A   1      43.843  32.449  27.561  1.00  0.00     0.002 A 
ATOM     92  C   UNL A   1      46.209  31.954  27.699  1.00  0.00     0.091 A 
ATOM     93  F   UNL A   1      46.983  30.402  29.337  1.00  0.00    -0.205 F 
ATOM     94  C   UNL A   1      45.142  32.636  27.094  1.00  0.00     0.022 A 
BRANCH  92  95
ATOM     95  S   UNL A   1      47.871  32.331  27.142  1.00  0.00     0.127 S 
ATOM     96  O   UNL A   1      48.512  32.779  28.377  1.00  0.00    -0.237 OA
ATOM     97  O   UNL A   1      48.338  31.037  26.644  1.00  0.00    -0.237 OA
ATOM     98  O   UNL A   1      47.725  33.347  26.106  1.00  0.00    -0.744 OA
ENDBRANCH  92  95
ENDBRANCH  65  88
ENDBRANCH  39  40
ENDBRANCH  31  34
ENDBRANCH  29  30
ENDBRANCH  28  29
ENDBRANCH  27  28
ENDBRANCH   1  27
TORSDOF 19
ENDMDL
MODEL 3
REMARK VINA RESULT:     -10.7      1.455      3.375
REMARK SMILES O=C(Cc1ccn[nH]1)Nc1sc2c(c1C(=O)NCCCCCCNC(=O)c1ccc(-c3c4nc(c(-c5cccc(S(=O)(=O)[O-])c5F)c5ccc([nH]5)c(-c5cccc(S(=O)(=O)[O-])c5F)c5nc(c(-c6cccc(S(=O)(=O)[O-])c6F)c6ccc3[nH]6)C=C5)C=C4)cc1)CCC2
REMARK SMILES IDX 20 1 19 2 18 3 17 4 15 5 16 6 14 8 10 9 11 10 12 11 13 12
REMARK SMILES IDX 92 13 90 14 91 15 9 16 1 17 2 18 3 20 4 21 5 22 8 23 6 24
REMARK SMILES IDX 7 25 21 27 22 28 23 29 24 30 25 31 26 33 27 34 28 35 89 36
REMARK SMILES IDX 29 37 88 38 30 39 31 40 32 41 82 42 33 43 87 44 81 45 83 46
REMARK SMILES IDX 34 47 86 48 80 49 79 50 35 52 67 53 47 54 66 55 48 56 51 57
REMARK SMILES IDX 65 58 84 59 49 60 50 61 64 63 85 64 52 65 36 66 37 67 45 68
REMARK SMILES IDX 38 69 40 70 46 71 39 72 41 73 42 74 43 75 44 76 68 77 69 78
REMARK SMILES IDX 77 79 70 80 72 81 78 82 71 83 73 84 74 85 75 86 76 87 53 88
REMARK SMILES IDX 54 89 62 90 55 91 57 92 63 93 56 94 58 95 59 96 60 97 61 98
REMARK H PARENT 17 7 9 19 8 26 24 32 83 51 51 62
REMARK Flexibility Score: inf
ROOT
ATOM      1  C   UNL A   1      34.279  29.230  27.104  1.00  0.00     0.002 C 
ENDROOT
BRANCH   1   2
ATOM      2  C   UNL A   1      33.320  28.954  25.940  1.00  0.00     0.021 C 
BRANCH   2   3
ATOM      3  C   UNL A   1      33.093  27.469  25.695  1.00  0.00     0.116 C 
BRANCH   3   4
ATOM      4  N   UNL A   1      33.100  27.131  24.304  1.00  0.00    -0.352 N 
ATOM      5  C   UNL A   1      32.160  27.273  23.322  1.00  0.00     0.254 C 
ATOM      6  O   UNL A   1      32.662  27.356  22.191  1.00  0.00    -0.269 OA
ATOM      7  H   UNL A   1      33.939  26.718  23.997  1.00  0.00     0.163 HD
BRANCH   5   8
ATOM      8  C   UNL A   1      30.702  27.420  23.535  1.00  0.00     0.078 A 
ATOM      9  C   UNL A   1      30.004  26.392  24.185  1.00  0.00     0.108 A 
ATOM     10  S   UNL A   1      28.306  26.439  23.997  1.00  0.00    -0.122 S 
ATOM     11  C   UNL A   1      28.428  27.973  23.368  1.00  0.00     0.011 A 
ATOM     12  C   UNL A   1      29.716  28.422  23.187  1.00  0.00    -0.019 A 
ATOM     13  C   UNL A   1      27.359  28.916  22.965  1.00  0.00     0.047 C 
ATOM     14  C   UNL A   1      29.641  29.808  22.623  1.00  0.00     0.038 C 
ATOM     15  C   UNL A   1      28.160  30.230  22.841  1.00  0.00     0.010 C 
BRANCH   9  16
ATOM     16  N   UNL A   1      30.389  25.295  24.920  1.00  0.00    -0.317 N 
ATOM     17  O   UNL A   1      31.179  23.973  23.170  1.00  0.00    -0.274 OA
ATOM     18  C   UNL A   1      30.825  24.117  24.337  1.00  0.00     0.230 C 
ATOM     19  H   UNL A   1      30.356  25.350  25.902  1.00  0.00     0.170 HD
BRANCH  18  20
ATOM     20  C   UNL A   1      30.851  22.952  25.311  1.00  0.00     0.155 C 
BRANCH  20  21
ATOM     21  C   UNL A   1      32.180  22.840  25.972  1.00  0.00     0.044 A 
ATOM     22  C   UNL A   1      32.543  22.760  27.298  1.00  0.00     0.045 A 
ATOM     23  N   UNL A   1      33.351  22.834  25.259  1.00  0.00    -0.282 N 
ATOM     24  C   UNL A   1      33.946  22.701  27.280  1.00  0.00     0.135 A 
ATOM     25  N   UNL A   1      34.440  22.715  26.041  1.00  0.00    -0.184 NA
ATOM     26  H   UNL A   1      33.392  22.908  24.279  1.00  0.00     0.190 HD
ENDBRANCH  20  21
ENDBRANCH  18  20
ENDBRANCH   9  16
ENDBRANCH   5   8
ENDBRANCH   3   4
ENDBRANCH   2   3
ENDBRANCH   1   2
BRANCH   1  27
ATOM     27  C   UNL A   1      34.227  30.657  27.681  1.00  0.00     0.002 C 
BRANCH  27  28
ATOM     28  C   UNL A   1      33.431  31.689  26.864  1.00  0.00     0.021 C 
BRANCH  28  29
ATOM     29  C   UNL A   1      32.209  32.210  27.599  1.00  0.00     0.116 C 
BRANCH  29  30
ATOM     30  N   UNL A   1      32.202  33.675  27.652  1.00  0.00    -0.352 N 
ATOM     31  C   UNL A   1      33.021  34.528  28.365  1.00  0.00     0.251 C 
ATOM     32  H   UNL A   1      31.516  34.113  27.099  1.00  0.00     0.163 HD
ATOM     33  O   UNL A   1      32.695  35.683  28.574  1.00  0.00    -0.269 OA
BRANCH  31  34
ATOM     34  C   UNL A   1      34.308  34.009  28.853  1.00  0.00     0.039 A 
ATOM     35  C   UNL A   1      34.416  33.348  30.081  1.00  0.00     0.014 A 
ATOM     36  C   UNL A   1      35.413  34.177  28.028  1.00  0.00     0.014 A 
ATOM     37  C   UNL A   1      35.646  32.802  30.437  1.00  0.00     0.010 A 
ATOM     38  C   UNL A   1      36.551  33.470  28.280  1.00  0.00     0.010 A 
ATOM     39  C   UNL A   1      36.705  32.865  29.521  1.00  0.00    -0.014 A 
BRANCH  39  40
ATOM     40  C   UNL A   1      37.984  32.222  29.776  1.00  0.00     0.031 A 
ATOM     41  C   UNL A   1      38.065  30.823  29.285  1.00  0.00     0.074 A 
ATOM     42  C   UNL A   1      39.061  32.949  30.153  1.00  0.00     0.049 A 
ATOM     43  N   UNL A   1      38.162  29.741  29.985  1.00  0.00    -0.248 NA
ATOM     44  C   UNL A   1      37.825  30.581  27.851  1.00  0.00     0.031 C 
ATOM     45  C   UNL A   1      39.146  34.409  30.324  1.00  0.00     0.029 A 
ATOM     46  N   UNL A   1      40.357  32.564  30.283  1.00  0.00    -0.354 N 
ATOM     47  C   UNL A   1      38.275  28.709  29.052  1.00  0.00     0.074 A 
ATOM     48  C   UNL A   1      37.789  29.247  27.814  1.00  0.00     0.031 C 
ATOM     49  C   UNL A   1      40.437  34.797  30.251  1.00  0.00     0.029 A 
ATOM     50  C   UNL A   1      41.271  33.614  30.213  1.00  0.00     0.049 A 
ATOM     51  H   UNL A   1      40.626  31.627  30.415  1.00  0.00     0.167 HD
ATOM     52  C   UNL A   1      39.058  27.622  29.308  1.00  0.00     0.034 A 
ATOM     53  C   UNL A   1      42.616  33.511  30.072  1.00  0.00     0.034 A 
ATOM     54  C   UNL A   1      39.395  27.557  30.713  1.00  0.00     0.049 A 
ATOM     55  C   UNL A   1      42.985  32.134  30.468  1.00  0.00     0.074 A 
ATOM     56  C   UNL A   1      38.681  27.510  31.894  1.00  0.00     0.029 A 
ATOM     57  N   UNL A   1      40.667  27.951  31.058  1.00  0.00    -0.354 N 
ATOM     58  N   UNL A   1      42.852  31.679  31.683  1.00  0.00    -0.248 NA
ATOM     59  C   UNL A   1      43.068  31.127  29.425  1.00  0.00     0.031 C 
ATOM     60  C   UNL A   1      39.418  28.330  32.800  1.00  0.00     0.029 A 
ATOM     61  C   UNL A   1      40.578  28.762  32.154  1.00  0.00     0.049 A 
ATOM     62  H   UNL A   1      41.497  27.694  30.595  1.00  0.00     0.167 HD
ATOM     63  C   UNL A   1      42.353  30.394  31.510  1.00  0.00     0.074 A 
ATOM     64  C   UNL A   1      42.625  30.069  30.109  1.00  0.00     0.031 C 
ATOM     65  C   UNL A   1      41.499  29.846  32.425  1.00  0.00     0.034 A 
BRANCH  52  66
ATOM     66  C   UNL A   1      39.896  26.875  28.276  1.00  0.00     0.023 A 
ATOM     67  C   UNL A   1      39.930  25.464  28.397  1.00  0.00     0.012 A 
ATOM     68  C   UNL A   1      40.862  27.453  27.421  1.00  0.00     0.148 A 
ATOM     69  C   UNL A   1      40.937  24.693  27.808  1.00  0.00     0.002 A 
ATOM     70  C   UNL A   1      41.828  26.677  26.787  1.00  0.00     0.091 A 
ATOM     71  F   UNL A   1      40.943  28.775  27.279  1.00  0.00    -0.205 F 
ATOM     72  C   UNL A   1      41.895  25.301  27.009  1.00  0.00     0.022 A 
BRANCH  70  73
ATOM     73  S   UNL A   1      43.074  27.411  25.715  1.00  0.00     0.127 S 
ATOM     74  O   UNL A   1      43.802  26.227  25.268  1.00  0.00    -0.237 OA
ATOM     75  O   UNL A   1      42.247  28.055  24.696  1.00  0.00    -0.237 OA
ATOM     76  O   UNL A   1      43.823  28.340  26.553  1.00  0.00    -0.744 OA
ENDBRANCH  70  73
ENDBRANCH  52  66
BRANCH  53  77
ATOM     77  C   UNL A   1      43.570  34.412  29.386  1.00  0.00     0.023 A 
ATOM     78  C   UNL A   1      44.301  35.356  30.136  1.00  0.00     0.012 A 
ATOM     79  C   UNL A   1      43.974  34.158  28.057  1.00  0.00     0.148 A 
ATOM     80  C   UNL A   1      45.420  36.000  29.590  1.00  0.00     0.002 A 
ATOM     81  C   UNL A   1      45.084  34.803  27.518  1.00  0.00     0.091 A 
ATOM     82  F   UNL A   1      43.327  33.217  27.356  1.00  0.00    -0.205 F 
ATOM     83  C   UNL A   1      45.817  35.717  28.286  1.00  0.00     0.022 A 
BRANCH  81  84
ATOM     84  S   UNL A   1      45.678  34.461  25.856  1.00  0.00     0.127 S 
ATOM     85  O   UNL A   1      46.213  33.107  26.000  1.00  0.00    -0.237 OA
ATOM     86  O   UNL A   1      44.449  34.555  25.072  1.00  0.00    -0.237 OA
ATOM     87  O   UNL A   1      46.683  35.480  25.578  1.00  0.00    -0.744 OA
ENDBRANCH  81  84
ENDBRANCH  53  77
BRANCH  65  88
ATOM     88  C   UNL A   1      41.314  30.560  33.741  1.00  0.00     0.023 A 
ATOM     89  C   UNL A   1      42.269  30.506  34.779  1.00  0.00     0.012 A 
ATOM     90  C   UNL A   1      40.236  31.449  33.861  1.00  0.00     0.148 A 
ATOM     91  C   UNL A   1      42.139  31.306  35.918  1.00  0.00     0.002 A 
ATOM     92  C   UNL A   1      40.134  32.278  34.971  1.00  0.00     0.091 A 
ATOM     93  F   UNL A   1      39.338  31.492  32.864  1.00  0.00    -0.205 F 
ATOM     94  C   UNL A   1      41.077  32.203  36.007  1.00  0.00     0.022 A 
BRANCH  92  95
ATOM     95  S   UNL A   1      38.864  33.539  35.081  1.00  0.00     0.127 S 
ATOM     96  O   UNL A   1      37.736  32.790  35.629  1.00  0.00    -0.237 OA
ATOM     97  O   UNL A   1      39.462  34.508  36.001  1.00  0.00    -0.237 OA
ATOM     98  O   UNL A   1      38.684  34.043  33.725  1.00  0.00    -0.744 OA
ENDBRANCH  92  95
ENDBRANCH  65  88
ENDBRANCH  39  40
ENDBRANCH  31  34
ENDBRANCH  29  30
ENDBRANCH  28  29
ENDBRANCH  27  28
ENDBRANCH   1  27
TORSDOF 19
ENDMDL
