MODEL 1
REMARK VINA RESULT:     -12.1      0.000      0.000
REMARK SMILES Cc1c(CC(=O)NCCCCCCNC(=O)c2ccc(-c3c4nc(c(-c5cccc(S(=O)(=O)[O-])c5F)c5ccc([nH]5)c(-c5cccc(S(=O)(=O)[O-])c5F)c5nc(c(-c6cccc(S(=O)(=O)[O-])c6F)c6ccc3[nH]6)C=C5)C=C4)cc2)c(=O)oc2cc(OCc3c(F)cccc3Cl)ccc12
REMARK SMILES IDX 10 1 9 2 8 3 7 4 5 5 6 6 4 8 3 9 1 10 2 11 98 12 80 13 83 14
REMARK SMILES IDX 97 15 81 16 82 17 84 18 96 19 85 20 86 21 87 22 88 23 89 24
REMARK SMILES IDX 94 25 90 26 91 27 93 28 95 29 92 30 11 31 12 32 13 33 14 34
REMARK SMILES IDX 15 35 16 37 17 38 18 39 79 40 19 41 78 42 20 43 21 44 22 45
REMARK SMILES IDX 72 46 23 47 77 48 71 49 73 50 24 51 76 52 70 53 69 54 25 56
REMARK SMILES IDX 57 57 37 58 56 59 38 60 41 61 55 62 74 63 39 64 40 65 54 67
REMARK SMILES IDX 75 68 42 69 26 70 27 71 35 72 28 73 30 74 36 75 29 76 31 77
REMARK SMILES IDX 32 78 33 79 34 80 58 81 59 82 67 83 60 84 62 85 68 86 61 87
REMARK SMILES IDX 63 88 64 89 65 90 66 91 43 92 44 93 52 94 45 95 47 96 53 97
REMARK SMILES IDX 46 98 48 99 49 100 50 101 51 102
REMARK H PARENT 7 7 14 36 73 55 41 66
REMARK Flexibility Score: inf
ROOT
ATOM      1  C   UNL A   1      32.072  30.533  26.662  1.00  0.00     0.002 C 
ENDROOT
BRANCH   1   2
ATOM      2  C   UNL A   1      31.837  29.311  25.762  1.00  0.00     0.021 C 
BRANCH   2   3
ATOM      3  C   UNL A   1      30.814  29.543  24.650  1.00  0.00     0.116 C 
BRANCH   3   4
ATOM      4  N   UNL A   1      30.388  28.286  24.066  1.00  0.00    -0.356 N 
ATOM      5  C   UNL A   1      31.089  27.391  23.318  1.00  0.00     0.224 C 
ATOM      6  O   UNL A   1      30.486  26.410  22.876  1.00  0.00    -0.275 OA
ATOM      7  H   UNL A   1      29.449  28.043  24.237  1.00  0.00     0.163 HD
BRANCH   5   8
ATOM      8  C   UNL A   1      32.586  27.570  23.077  1.00  0.00     0.143 C 
BRANCH   8   9
ATOM      9  C   UNL A   1      33.424  26.332  23.322  1.00  0.00     0.051 A 
ATOM     10  C   UNL A   1      33.850  26.803  25.762  1.00  0.00     0.046 C 
ATOM     11  C   UNL A   1      33.962  25.973  24.509  1.00  0.00    -0.029 A 
ATOM     12  C   UNL A   1      34.661  24.678  24.616  1.00  0.00     0.021 A 
ATOM     13  C   UNL A   1      33.655  25.513  22.095  1.00  0.00     0.340 A 
ATOM     14  C   UNL A   1      34.767  23.867  23.488  1.00  0.00     0.142 A 
ATOM     15  C   UNL A   1      35.169  24.170  25.816  1.00  0.00     0.016 A 
ATOM     16  O   UNL A   1      33.278  25.889  20.990  1.00  0.00    -0.246 OA
ATOM     17  O   UNL A   1      34.300  24.301  22.241  1.00  0.00    -0.422 OA
ATOM     18  C   UNL A   1      35.291  22.571  23.528  1.00  0.00     0.094 A 
ATOM     19  C   UNL A   1      35.685  22.871  25.878  1.00  0.00     0.047 A 
ATOM     20  C   UNL A   1      35.689  22.047  24.750  1.00  0.00     0.123 A 
BRANCH  20  21
ATOM     21  O   UNL A   1      35.984  20.742  25.021  1.00  0.00    -0.489 OA
BRANCH  21  22
ATOM     22  C   UNL A   1      34.954  19.863  25.482  1.00  0.00     0.270 C 
BRANCH  22  23
ATOM     23  C   UNL A   1      34.013  19.198  24.496  1.00  0.00     0.044 A 
ATOM     24  C   UNL A   1      34.367  17.888  24.127  1.00  0.00     0.131 A 
ATOM     25  C   UNL A   1      32.840  19.717  23.932  1.00  0.00     0.050 A 
ATOM     26  F   UNL A   1      35.430  17.310  24.705  1.00  0.00    -0.207 F 
ATOM     27  C   UNL A   1      33.656  17.154  23.180  1.00  0.00     0.040 A 
ATOM     28  C   UNL A   1      32.149  19.003  22.936  1.00  0.00     0.021 A 
ATOM     29  Cl  UNL A   1      32.102  21.199  24.422  1.00  0.00    -0.084 Cl
ATOM     30  C   UNL A   1      32.561  17.729  22.554  1.00  0.00     0.005 A 
ENDBRANCH  22  23
ENDBRANCH  21  22
ENDBRANCH  20  21
ENDBRANCH   8   9
ENDBRANCH   5   8
ENDBRANCH   3   4
ENDBRANCH   2   3
ENDBRANCH   1   2
BRANCH   1  31
ATOM     31  C   UNL A   1      31.076  31.683  26.473  1.00  0.00     0.002 C 
BRANCH  31  32
ATOM     32  C   UNL A   1      31.690  33.084  26.508  1.00  0.00     0.021 C 
BRANCH  32  33
ATOM     33  C   UNL A   1      32.926  33.214  27.393  1.00  0.00     0.116 C 
BRANCH  33  34
ATOM     34  N   UNL A   1      32.940  34.467  28.132  1.00  0.00    -0.352 N 
ATOM     35  C   UNL A   1      33.701  34.829  29.216  1.00  0.00     0.251 C 
ATOM     36  H   UNL A   1      32.314  35.154  27.807  1.00  0.00     0.163 HD
ATOM     37  O   UNL A   1      33.436  35.853  29.837  1.00  0.00    -0.269 OA
BRANCH  35  38
ATOM     38  C   UNL A   1      34.830  33.973  29.641  1.00  0.00     0.039 A 
ATOM     39  C   UNL A   1      36.106  34.242  29.142  1.00  0.00     0.014 A 
ATOM     40  C   UNL A   1      34.629  32.906  30.521  1.00  0.00     0.014 A 
ATOM     41  C   UNL A   1      37.192  33.474  29.570  1.00  0.00     0.010 A 
ATOM     42  C   UNL A   1      35.721  32.191  31.004  1.00  0.00     0.010 A 
ATOM     43  C   UNL A   1      37.014  32.462  30.529  1.00  0.00    -0.014 A 
BRANCH  43  44
ATOM     44  C   UNL A   1      38.170  31.688  31.052  1.00  0.00     0.031 A 
ATOM     45  C   UNL A   1      38.768  32.022  32.393  1.00  0.00     0.074 A 
ATOM     46  C   UNL A   1      38.733  30.734  30.284  1.00  0.00     0.049 A 
ATOM     47  N   UNL A   1      39.797  31.484  32.992  1.00  0.00    -0.248 NA
ATOM     48  C   UNL A   1      38.145  33.123  33.148  1.00  0.00     0.031 C 
ATOM     49  C   UNL A   1      38.299  30.371  28.933  1.00  0.00     0.029 A 
ATOM     50  N   UNL A   1      39.805  29.910  30.519  1.00  0.00    -0.354 N 
ATOM     51  C   UNL A   1      39.968  32.197  34.172  1.00  0.00     0.074 A 
ATOM     52  C   UNL A   1      38.958  33.233  34.188  1.00  0.00     0.031 C 
ATOM     53  C   UNL A   1      39.091  29.395  28.464  1.00  0.00     0.029 A 
ATOM     54  C   UNL A   1      40.106  29.081  29.464  1.00  0.00     0.049 A 
ATOM     55  H   UNL A   1      40.311  29.912  31.364  1.00  0.00     0.167 HD
ATOM     56  C   UNL A   1      40.862  31.991  35.169  1.00  0.00     0.034 A 
ATOM     57  C   UNL A   1      41.093  28.175  29.314  1.00  0.00     0.034 A 
ATOM     58  C   UNL A   1      41.836  30.933  35.171  1.00  0.00     0.049 A 
ATOM     59  C   UNL A   1      42.050  27.941  30.451  1.00  0.00     0.074 A 
ATOM     60  C   UNL A   1      42.725  30.585  36.173  1.00  0.00     0.029 A 
ATOM     61  N   UNL A   1      42.060  30.060  34.117  1.00  0.00    -0.354 N 
ATOM     62  N   UNL A   1      42.090  28.517  31.628  1.00  0.00    -0.248 NA
ATOM     63  C   UNL A   1      43.076  26.906  30.255  1.00  0.00     0.031 C 
ATOM     64  C   UNL A   1      43.506  29.519  35.713  1.00  0.00     0.029 A 
ATOM     65  C   UNL A   1      43.081  29.183  34.438  1.00  0.00     0.049 A 
ATOM     66  H   UNL A   1      41.565  30.064  33.266  1.00  0.00     0.167 HD
ATOM     67  C   UNL A   1      43.118  27.892  32.324  1.00  0.00     0.074 A 
ATOM     68  C   UNL A   1      43.661  26.878  31.444  1.00  0.00     0.031 C 
ATOM     69  C   UNL A   1      43.581  28.144  33.573  1.00  0.00     0.034 A 
BRANCH  56  70
ATOM     70  C   UNL A   1      40.797  32.900  36.369  1.00  0.00     0.023 A 
ATOM     71  C   UNL A   1      41.635  34.032  36.433  1.00  0.00     0.012 A 
ATOM     72  C   UNL A   1      39.867  32.671  37.402  1.00  0.00     0.148 A 
ATOM     73  C   UNL A   1      41.576  34.900  37.523  1.00  0.00     0.002 A 
ATOM     74  C   UNL A   1      39.781  33.566  38.462  1.00  0.00     0.091 A 
ATOM     75  F   UNL A   1      39.093  31.579  37.335  1.00  0.00    -0.205 F 
ATOM     76  C   UNL A   1      40.642  34.674  38.530  1.00  0.00     0.022 A 
BRANCH  74  77
ATOM     77  S   UNL A   1      38.558  33.408  39.767  1.00  0.00     0.127 S 
ATOM     78  O   UNL A   1      38.759  34.652  40.511  1.00  0.00    -0.237 OA
ATOM     79  O   UNL A   1      37.307  33.346  39.011  1.00  0.00    -0.237 OA
ATOM     80  O   UNL A   1      38.894  32.189  40.488  1.00  0.00    -0.744 OA
ENDBRANCH  74  77
ENDBRANCH  56  70
BRANCH  57  81
ATOM     81  C   UNL A   1      41.187  27.378  28.058  1.00  0.00     0.023 A 
ATOM     82  C   UNL A   1      41.742  27.966  26.904  1.00  0.00     0.012 A 
ATOM     83  C   UNL A   1      40.754  26.039  28.006  1.00  0.00     0.148 A 
ATOM     84  C   UNL A   1      41.832  27.246  25.712  1.00  0.00     0.002 A 
ATOM     85  C   UNL A   1      40.898  25.311  26.832  1.00  0.00     0.091 A 
ATOM     86  F   UNL A   1      40.220  25.502  29.112  1.00  0.00    -0.205 F 
ATOM     87  C   UNL A   1      41.420  25.917  25.678  1.00  0.00     0.022 A 
BRANCH  85  88
ATOM     88  S   UNL A   1      40.520  23.558  26.735  1.00  0.00     0.127 S 
ATOM     89  O   UNL A   1      41.454  23.108  25.705  1.00  0.00    -0.237 OA
ATOM     90  O   UNL A   1      40.833  23.105  28.091  1.00  0.00    -0.237 OA
ATOM     91  O   UNL A   1      39.108  23.479  26.387  1.00  0.00    -0.744 OA
ENDBRANCH  85  88
ENDBRANCH  57  81
BRANCH  69  92
ATOM     92  C   UNL A   1      44.708  27.289  34.089  1.00  0.00     0.023 A 
ATOM     93  C   UNL A   1      46.043  27.704  33.914  1.00  0.00     0.012 A 
ATOM     94  C   UNL A   1      44.440  26.110  34.814  1.00  0.00     0.148 A 
ATOM     95  C   UNL A   1      47.095  26.943  34.424  1.00  0.00     0.002 A 
ATOM     96  C   UNL A   1      45.491  25.385  35.364  1.00  0.00     0.091 A 
ATOM     97  F   UNL A   1      43.164  25.723  34.955  1.00  0.00    -0.205 F 
ATOM     98  C   UNL A   1      46.819  25.792  35.158  1.00  0.00     0.022 A 
BRANCH  96  99
ATOM     99  S   UNL A   1      45.227  23.947  36.406  1.00  0.00     0.127 S 
ATOM    100  O   UNL A   1      44.203  23.220  35.657  1.00  0.00    -0.237 OA
ATOM    101  O   UNL A   1      46.547  23.317  36.404  1.00  0.00    -0.237 OA
ATOM    102  O   UNL A   1      44.804  24.460  37.702  1.00  0.00    -0.744 OA
ENDBRANCH  96  99
ENDBRANCH  69  92
ENDBRANCH  43  44
ENDBRANCH  35  38
ENDBRANCH  33  34
ENDBRANCH  32  33
ENDBRANCH  31  32
ENDBRANCH   1  31
TORSDOF 20
ENDMDL
MODEL 2
REMARK VINA RESULT:     -11.8      1.617      7.421
REMARK SMILES Cc1c(CC(=O)NCCCCCCNC(=O)c2ccc(-c3c4nc(c(-c5cccc(S(=O)(=O)[O-])c5F)c5ccc([nH]5)c(-c5cccc(S(=O)(=O)[O-])c5F)c5nc(c(-c6cccc(S(=O)(=O)[O-])c6F)c6ccc3[nH]6)C=C5)C=C4)cc2)c(=O)oc2cc(OCc3c(F)cccc3Cl)ccc12
REMARK SMILES IDX 10 1 9 2 8 3 7 4 5 5 6 6 4 8 3 9 1 10 2 11 98 12 80 13 83 14
REMARK SMILES IDX 97 15 81 16 82 17 84 18 96 19 85 20 86 21 87 22 88 23 89 24
REMARK SMILES IDX 94 25 90 26 91 27 93 28 95 29 92 30 11 31 12 32 13 33 14 34
REMARK SMILES IDX 15 35 16 37 17 38 18 39 79 40 19 41 78 42 20 43 21 44 22 45
REMARK SMILES IDX 72 46 23 47 77 48 71 49 73 50 24 51 76 52 70 53 69 54 25 56
REMARK SMILES IDX 57 57 37 58 56 59 38 60 41 61 55 62 74 63 39 64 40 65 54 67
REMARK SMILES IDX 75 68 42 69 26 70 27 71 35 72 28 73 30 74 36 75 29 76 31 77
REMARK SMILES IDX 32 78 33 79 34 80 58 81 59 82 67 83 60 84 62 85 68 86 61 87
REMARK SMILES IDX 63 88 64 89 65 90 66 91 43 92 44 93 52 94 45 95 47 96 53 97
REMARK SMILES IDX 46 98 48 99 49 100 50 101 51 102
REMARK H PARENT 7 7 14 36 73 55 41 66
REMARK Flexibility Score: inf
ROOT
ATOM      1  C   UNL A   1      32.010  30.524  26.890  1.00  0.00     0.002 C 
ENDROOT
BRANCH   1   2
ATOM      2  C   UNL A   1      31.753  29.261  26.055  1.00  0.00     0.021 C 
BRANCH   2   3
ATOM      3  C   UNL A   1      30.982  29.518  24.759  1.00  0.00     0.116 C 
BRANCH   3   4
ATOM      4  N   UNL A   1      30.454  28.281  24.216  1.00  0.00    -0.356 N 
ATOM      5  C   UNL A   1      31.035  27.379  23.380  1.00  0.00     0.224 C 
ATOM      6  O   UNL A   1      30.355  26.420  23.003  1.00  0.00    -0.275 OA
ATOM      7  H   UNL A   1      29.536  28.060  24.497  1.00  0.00     0.163 HD
BRANCH   5   8
ATOM      8  C   UNL A   1      32.497  27.521  22.963  1.00  0.00     0.143 C 
BRANCH   8   9
ATOM      9  C   UNL A   1      33.355  26.300  23.220  1.00  0.00     0.051 A 
ATOM     10  C   UNL A   1      33.836  26.844  25.634  1.00  0.00     0.046 C 
ATOM     11  C   UNL A   1      33.927  25.981  24.402  1.00  0.00    -0.029 A 
ATOM     12  C   UNL A   1      34.645  24.697  24.528  1.00  0.00     0.021 A 
ATOM     13  C   UNL A   1      33.566  25.450  22.012  1.00  0.00     0.340 A 
ATOM     14  C   UNL A   1      34.732  23.856  23.421  1.00  0.00     0.142 A 
ATOM     15  C   UNL A   1      35.189  24.229  25.729  1.00  0.00     0.016 A 
ATOM     16  O   UNL A   1      33.157  25.790  20.906  1.00  0.00    -0.246 OA
ATOM     17  O   UNL A   1      34.229  24.249  22.174  1.00  0.00    -0.422 OA
ATOM     18  C   UNL A   1      35.273  22.568  23.484  1.00  0.00     0.094 A 
ATOM     19  C   UNL A   1      35.721  22.938  25.814  1.00  0.00     0.047 A 
ATOM     20  C   UNL A   1      35.708  22.083  24.710  1.00  0.00     0.123 A 
BRANCH  20  21
ATOM     21  O   UNL A   1      36.026  20.790  25.009  1.00  0.00    -0.489 OA
BRANCH  21  22
ATOM     22  C   UNL A   1      35.012  19.906  25.496  1.00  0.00     0.270 C 
BRANCH  22  23
ATOM     23  C   UNL A   1      34.071  19.210  24.531  1.00  0.00     0.044 A 
ATOM     24  C   UNL A   1      34.448  17.904  24.170  1.00  0.00     0.131 A 
ATOM     25  C   UNL A   1      32.879  19.697  23.979  1.00  0.00     0.050 A 
ATOM     26  F   UNL A   1      35.531  17.355  24.739  1.00  0.00    -0.207 F 
ATOM     27  C   UNL A   1      33.739  17.144  23.242  1.00  0.00     0.040 A 
ATOM     28  C   UNL A   1      32.189  18.959  23.001  1.00  0.00     0.021 A 
ATOM     29  Cl  UNL A   1      32.117  21.169  24.464  1.00  0.00    -0.084 Cl
ATOM     30  C   UNL A   1      32.622  17.689  22.626  1.00  0.00     0.005 A 
ENDBRANCH  22  23
ENDBRANCH  21  22
ENDBRANCH  20  21
ENDBRANCH   8   9
ENDBRANCH   5   8
ENDBRANCH   3   4
ENDBRANCH   2   3
ENDBRANCH   1   2
BRANCH   1  31
ATOM     31  C   UNL A   1      31.103  31.717  26.566  1.00  0.00     0.002 C 
BRANCH  31  32
ATOM     32  C   UNL A   1      31.806  33.074  26.527  1.00  0.00     0.021 C 
BRANCH  32  33
ATOM     33  C   UNL A   1      32.908  33.249  27.568  1.00  0.00     0.116 C 
BRANCH  33  34
ATOM     34  N   UNL A   1      32.885  34.573  28.171  1.00  0.00    -0.352 N 
ATOM     35  C   UNL A   1      33.608  35.056  29.234  1.00  0.00     0.251 C 
ATOM     36  H   UNL A   1      32.262  35.213  27.757  1.00  0.00     0.163 HD
ATOM     37  O   UNL A   1      33.312  36.136  29.735  1.00  0.00    -0.269 OA
BRANCH  35  38
ATOM     38  C   UNL A   1      34.732  34.266  29.780  1.00  0.00     0.039 A 
ATOM     39  C   UNL A   1      36.020  34.494  29.291  1.00  0.00     0.014 A 
ATOM     40  C   UNL A   1      34.515  33.298  30.765  1.00  0.00     0.014 A 
ATOM     41  C   UNL A   1      37.099  33.791  29.830  1.00  0.00     0.010 A 
ATOM     42  C   UNL A   1      35.600  32.653  31.353  1.00  0.00     0.010 A 
ATOM     43  C   UNL A   1      36.903  32.887  30.887  1.00  0.00    -0.014 A 
BRANCH  43  44
ATOM     44  C   UNL A   1      38.050  32.188  31.523  1.00  0.00     0.031 A 
ATOM     45  C   UNL A   1      38.738  31.051  30.816  1.00  0.00     0.074 A 
ATOM     46  C   UNL A   1      38.425  32.527  32.773  1.00  0.00     0.049 A 
ATOM     47  N   UNL A   1      39.726  30.302  31.230  1.00  0.00    -0.248 NA
ATOM     48  C   UNL A   1      38.232  30.689  29.481  1.00  0.00     0.031 C 
ATOM     49  C   UNL A   1      37.787  33.556  33.597  1.00  0.00     0.029 A 
ATOM     50  N   UNL A   1      39.417  32.027  33.579  1.00  0.00    -0.354 N 
ATOM     51  C   UNL A   1      39.939  29.362  30.228  1.00  0.00     0.074 A 
ATOM     52  C   UNL A   1      38.951  29.611  29.200  1.00  0.00     0.031 C 
ATOM     53  C   UNL A   1      38.407  33.616  34.785  1.00  0.00     0.029 A 
ATOM     54  C   UNL A   1      39.467  32.613  34.822  1.00  0.00     0.049 A 
ATOM     55  H   UNL A   1      40.036  31.316  33.294  1.00  0.00     0.167 HD
ATOM     56  C   UNL A   1      40.888  28.400  30.152  1.00  0.00     0.034 A 
ATOM     57  C   UNL A   1      40.269  32.366  35.877  1.00  0.00     0.034 A 
ATOM     58  C   UNL A   1      41.896  28.182  31.154  1.00  0.00     0.049 A 
ATOM     59  C   UNL A   1      41.338  31.316  35.753  1.00  0.00     0.074 A 
ATOM     60  C   UNL A   1      42.958  27.294  31.128  1.00  0.00     0.029 A 
ATOM     61  N   UNL A   1      41.964  28.850  32.367  1.00  0.00    -0.354 N 
ATOM     62  N   UNL A   1      41.627  30.548  34.729  1.00  0.00    -0.248 NA
ATOM     63  C   UNL A   1      42.218  31.122  36.914  1.00  0.00     0.031 C 
ATOM     64  C   UNL A   1      43.650  27.404  32.339  1.00  0.00     0.029 A 
ATOM     65  C   UNL A   1      43.040  28.384  33.104  1.00  0.00     0.049 A 
ATOM     66  H   UNL A   1      41.340  29.552  32.662  1.00  0.00     0.167 HD
ATOM     67  C   UNL A   1      42.740  29.808  35.109  1.00  0.00     0.074 A 
ATOM     68  C   UNL A   1      43.087  30.235  36.449  1.00  0.00     0.031 C 
ATOM     69  C   UNL A   1      43.406  28.851  34.417  1.00  0.00     0.034 A 
BRANCH  56  70
ATOM     70  C   UNL A   1      40.915  27.536  28.917  1.00  0.00     0.023 A 
ATOM     71  C   UNL A   1      39.899  26.580  28.713  1.00  0.00     0.012 A 
ATOM     72  C   UNL A   1      41.906  27.710  27.932  1.00  0.00     0.148 A 
ATOM     73  C   UNL A   1      39.890  25.785  27.567  1.00  0.00     0.002 A 
ATOM     74  C   UNL A   1      41.864  26.948  26.770  1.00  0.00     0.091 A 
ATOM     75  F   UNL A   1      42.876  28.609  28.153  1.00  0.00    -0.205 F 
ATOM     76  C   UNL A   1      40.865  25.977  26.591  1.00  0.00     0.022 A 
BRANCH  74  77
ATOM     77  S   UNL A   1      43.026  27.175  25.420  1.00  0.00     0.127 S 
ATOM     78  O   UNL A   1      42.306  28.123  24.569  1.00  0.00    -0.237 OA
ATOM     79  O   UNL A   1      44.190  27.735  26.106  1.00  0.00    -0.237 OA
ATOM     80  O   UNL A   1      43.236  25.855  24.843  1.00  0.00    -0.744 OA
ENDBRANCH  74  77
ENDBRANCH  56  70
BRANCH  57  81
ATOM     81  C   UNL A   1      40.128  33.171  37.123  1.00  0.00     0.023 A 
ATOM     82  C   UNL A   1      39.142  32.822  38.067  1.00  0.00     0.012 A 
ATOM     83  C   UNL A   1      40.977  34.262  37.390  1.00  0.00     0.148 A 
ATOM     84  C   UNL A   1      38.981  33.565  39.237  1.00  0.00     0.002 A 
ATOM     85  C   UNL A   1      40.849  34.963  38.582  1.00  0.00     0.091 A 
ATOM     86  F   UNL A   1      41.903  34.584  36.475  1.00  0.00    -0.205 F 
ATOM     87  C   UNL A   1      39.840  34.629  39.499  1.00  0.00     0.022 A 
BRANCH  85  88
ATOM     88  S   UNL A   1      41.996  36.259  39.065  1.00  0.00     0.127 S 
ATOM     89  O   UNL A   1      41.294  36.875  40.188  1.00  0.00    -0.237 OA
ATOM     90  O   UNL A   1      43.186  35.489  39.429  1.00  0.00    -0.237 OA
ATOM     91  O   UNL A   1      42.161  37.097  37.885  1.00  0.00    -0.744 OA
ENDBRANCH  85  88
ENDBRANCH  57  81
BRANCH  69  92
ATOM     92  C   UNL A   1      44.606  28.219  35.073  1.00  0.00     0.023 A 
ATOM     93  C   UNL A   1      45.864  28.848  34.994  1.00  0.00     0.012 A 
ATOM     94  C   UNL A   1      44.469  27.041  35.834  1.00  0.00     0.148 A 
ATOM     95  C   UNL A   1      46.974  28.297  35.634  1.00  0.00     0.002 A 
ATOM     96  C   UNL A   1      45.568  26.525  36.511  1.00  0.00     0.091 A 
ATOM     97  F   UNL A   1      43.268  26.448  35.883  1.00  0.00    -0.205 F 
ATOM     98  C   UNL A   1      46.824  27.144  36.400  1.00  0.00     0.022 A 
BRANCH  96  99
ATOM     99  S   UNL A   1      45.448  25.103  37.600  1.00  0.00     0.127 S 
ATOM    100  O   UNL A   1      45.794  24.006  36.697  1.00  0.00    -0.237 OA
ATOM    101  O   UNL A   1      46.461  25.403  38.613  1.00  0.00    -0.237 OA
ATOM    102  O   UNL A   1      44.081  25.092  38.100  1.00  0.00    -0.744 OA
ENDBRANCH  96  99
ENDBRANCH  69  92
ENDBRANCH  43  44
ENDBRANCH  35  38
ENDBRANCH  33  34
ENDBRANCH  32  33
ENDBRANCH  31  32
ENDBRANCH   1  31
TORSDOF 20
ENDMDL
MODEL 3
REMARK VINA RESULT:     -10.9      5.613      9.986
REMARK SMILES Cc1c(CC(=O)NCCCCCCNC(=O)c2ccc(-c3c4nc(c(-c5cccc(S(=O)(=O)[O-])c5F)c5ccc([nH]5)c(-c5cccc(S(=O)(=O)[O-])c5F)c5nc(c(-c6cccc(S(=O)(=O)[O-])c6F)c6ccc3[nH]6)C=C5)C=C4)cc2)c(=O)oc2cc(OCc3c(F)cccc3Cl)ccc12
REMARK SMILES IDX 10 1 9 2 8 3 7 4 5 5 6 6 4 8 3 9 1 10 2 11 98 12 80 13 83 14
REMARK SMILES IDX 97 15 81 16 82 17 84 18 96 19 85 20 86 21 87 22 88 23 89 24
REMARK SMILES IDX 94 25 90 26 91 27 93 28 95 29 92 30 11 31 12 32 13 33 14 34
REMARK SMILES IDX 15 35 16 37 17 38 18 39 79 40 19 41 78 42 20 43 21 44 22 45
REMARK SMILES IDX 72 46 23 47 77 48 71 49 73 50 24 51 76 52 70 53 69 54 25 56
REMARK SMILES IDX 57 57 37 58 56 59 38 60 41 61 55 62 74 63 39 64 40 65 54 67
REMARK SMILES IDX 75 68 42 69 26 70 27 71 35 72 28 73 30 74 36 75 29 76 31 77
REMARK SMILES IDX 32 78 33 79 34 80 58 81 59 82 67 83 60 84 62 85 68 86 61 87
REMARK SMILES IDX 63 88 64 89 65 90 66 91 43 92 44 93 52 94 45 95 47 96 53 97
REMARK SMILES IDX 46 98 48 99 49 100 50 101 51 102
REMARK H PARENT 7 7 14 36 73 55 41 66
REMARK Flexibility Score: inf
ROOT
ATOM      1  C   UNL A   1      38.681  21.309  25.753  1.00  0.00     0.002 C 
ENDROOT
BRANCH   1   2
ATOM      2  C   UNL A   1      37.609  20.403  25.128  1.00  0.00     0.021 C 
BRANCH   2   3
ATOM      3  C   UNL A   1      36.387  21.157  24.603  1.00  0.00     0.116 C 
BRANCH   3   4
ATOM      4  N   UNL A   1      35.159  20.541  25.070  1.00  0.00    -0.356 N 
ATOM      5  C   UNL A   1      34.313  20.929  26.061  1.00  0.00     0.224 C 
ATOM      6  O   UNL A   1      33.351  20.199  26.319  1.00  0.00    -0.275 OA
ATOM      7  H   UNL A   1      34.899  19.718  24.596  1.00  0.00     0.163 HD
BRANCH   5   8
ATOM      8  C   UNL A   1      34.517  22.251  26.798  1.00  0.00     0.143 C 
BRANCH   8   9
ATOM      9  C   UNL A   1      33.581  23.365  26.380  1.00  0.00     0.051 A 
ATOM     10  C   UNL A   1      35.137  24.362  24.665  1.00  0.00     0.046 C 
ATOM     11  C   UNL A   1      33.836  24.284  25.422  1.00  0.00    -0.029 A 
ATOM     12  C   UNL A   1      32.778  25.242  25.047  1.00  0.00     0.021 A 
ATOM     13  C   UNL A   1      32.309  23.403  27.160  1.00  0.00     0.340 A 
ATOM     14  C   UNL A   1      31.550  25.190  25.703  1.00  0.00     0.142 A 
ATOM     15  C   UNL A   1      32.905  26.168  24.007  1.00  0.00     0.016 A 
ATOM     16  O   UNL A   1      32.115  22.655  28.112  1.00  0.00    -0.246 OA
ATOM     17  O   UNL A   1      31.338  24.304  26.768  1.00  0.00    -0.422 OA
ATOM     18  C   UNL A   1      30.450  25.965  25.324  1.00  0.00     0.094 A 
ATOM     19  C   UNL A   1      31.811  26.942  23.604  1.00  0.00     0.047 A 
ATOM     20  C   UNL A   1      30.566  26.798  24.220  1.00  0.00     0.123 A 
BRANCH  20  21
ATOM     21  O   UNL A   1      29.549  27.427  23.562  1.00  0.00    -0.489 OA
BRANCH  21  22
ATOM     22  C   UNL A   1      29.845  28.487  22.648  1.00  0.00     0.270 C 
BRANCH  22  23
ATOM     23  C   UNL A   1      29.401  29.906  22.948  1.00  0.00     0.044 A 
ATOM     24  C   UNL A   1      28.373  30.395  22.122  1.00  0.00     0.131 A 
ATOM     25  C   UNL A   1      29.871  30.768  23.948  1.00  0.00     0.050 A 
ATOM     26  F   UNL A   1      27.824  29.581  21.209  1.00  0.00    -0.207 F 
ATOM     27  C   UNL A   1      27.891  31.699  22.211  1.00  0.00     0.040 A 
ATOM     28  C   UNL A   1      29.428  32.103  24.007  1.00  0.00     0.021 A 
ATOM     29  Cl  UNL A   1      30.952  30.294  25.208  1.00  0.00    -0.084 Cl
ATOM     30  C   UNL A   1      28.448  32.570  23.136  1.00  0.00     0.005 A 
ENDBRANCH  22  23
ENDBRANCH  21  22
ENDBRANCH  20  21
ENDBRANCH   8   9
ENDBRANCH   5   8
ENDBRANCH   3   4
ENDBRANCH   2   3
ENDBRANCH   1   2
BRANCH   1  31
ATOM     31  C   UNL A   1      38.210  22.721  26.118  1.00  0.00     0.002 C 
BRANCH  31  32
ATOM     32  C   UNL A   1      39.321  23.689  26.530  1.00  0.00     0.021 C 
BRANCH  32  33
ATOM     33  C   UNL A   1      40.575  23.018  27.081  1.00  0.00     0.116 C 
BRANCH  33  34
ATOM     34  N   UNL A   1      41.671  23.038  26.125  1.00  0.00    -0.352 N 
ATOM     35  C   UNL A   1      42.512  24.071  25.787  1.00  0.00     0.251 C 
ATOM     36  H   UNL A   1      41.832  22.190  25.651  1.00  0.00     0.163 HD
ATOM     37  O   UNL A   1      43.249  23.966  24.812  1.00  0.00    -0.269 OA
BRANCH  35  38
ATOM     38  C   UNL A   1      42.515  25.311  26.592  1.00  0.00     0.039 A 
ATOM     39  C   UNL A   1      42.767  25.226  27.963  1.00  0.00     0.014 A 
ATOM     40  C   UNL A   1      42.263  26.551  25.999  1.00  0.00     0.014 A 
ATOM     41  C   UNL A   1      42.822  26.392  28.730  1.00  0.00     0.010 A 
ATOM     42  C   UNL A   1      42.392  27.717  26.749  1.00  0.00     0.010 A 
ATOM     43  C   UNL A   1      42.666  27.650  28.124  1.00  0.00    -0.014 A 
BRANCH  43  44
ATOM     44  C   UNL A   1      42.797  28.903  28.912  1.00  0.00     0.031 A 
ATOM     45  C   UNL A   1      41.573  29.622  29.412  1.00  0.00     0.074 A 
ATOM     46  C   UNL A   1      44.019  29.437  29.111  1.00  0.00     0.049 A 
ATOM     47  N   UNL A   1      41.492  30.744  30.079  1.00  0.00    -0.248 NA
ATOM     48  C   UNL A   1      40.267  29.018  29.099  1.00  0.00     0.031 C 
ATOM     49  C   UNL A   1      45.277  28.882  28.608  1.00  0.00     0.029 A 
ATOM     50  N   UNL A   1      44.402  30.579  29.769  1.00  0.00    -0.354 N 
ATOM     51  C   UNL A   1      40.135  30.998  30.236  1.00  0.00     0.074 A 
ATOM     52  C   UNL A   1      39.426  29.932  29.561  1.00  0.00     0.031 C 
ATOM     53  C   UNL A   1      46.291  29.677  28.982  1.00  0.00     0.029 A 
ATOM     54  C   UNL A   1      45.757  30.814  29.725  1.00  0.00     0.049 A 
ATOM     55  H   UNL A   1      43.767  31.174  30.231  1.00  0.00     0.167 HD
ATOM     56  C   UNL A   1      39.530  32.007  30.907  1.00  0.00     0.034 A 
ATOM     57  C   UNL A   1      46.487  31.834  30.219  1.00  0.00     0.034 A 
ATOM     58  C   UNL A   1      40.237  33.041  31.614  1.00  0.00     0.049 A 
ATOM     59  C   UNL A   1      45.794  32.923  30.991  1.00  0.00     0.074 A 
ATOM     60  C   UNL A   1      39.718  34.055  32.400  1.00  0.00     0.029 A 
ATOM     61  N   UNL A   1      41.614  33.202  31.613  1.00  0.00    -0.354 N 
ATOM     62  N   UNL A   1      44.518  33.056  31.268  1.00  0.00    -0.248 NA
ATOM     63  C   UNL A   1      46.642  33.985  31.551  1.00  0.00     0.031 C 
ATOM     64  C   UNL A   1      40.780  34.847  32.851  1.00  0.00     0.029 A 
ATOM     65  C   UNL A   1      41.962  34.306  32.373  1.00  0.00     0.049 A 
ATOM     66  H   UNL A   1      42.251  32.618  31.142  1.00  0.00     0.167 HD
ATOM     67  C   UNL A   1      44.417  34.192  32.062  1.00  0.00     0.074 A 
ATOM     68  C   UNL A   1      45.763  34.698  32.240  1.00  0.00     0.031 C 
ATOM     69  C   UNL A   1      43.309  34.772  32.585  1.00  0.00     0.034 A 
BRANCH  56  70
ATOM     70  C   UNL A   1      38.024  32.017  30.952  1.00  0.00     0.023 A 
ATOM     71  C   UNL A   1      37.356  31.459  32.062  1.00  0.00     0.012 A 
ATOM     72  C   UNL A   1      37.272  32.630  29.931  1.00  0.00     0.148 A 
ATOM     73  C   UNL A   1      35.964  31.478  32.136  1.00  0.00     0.002 A 
ATOM     74  C   UNL A   1      35.887  32.687  30.035  1.00  0.00     0.091 A 
ATOM     75  F   UNL A   1      37.923  33.137  28.874  1.00  0.00    -0.205 F 
ATOM     76  C   UNL A   1      35.231  32.101  31.130  1.00  0.00     0.022 A 
BRANCH  74  77
ATOM     77  S   UNL A   1      34.859  33.537  28.833  1.00  0.00     0.127 S 
ATOM     78  O   UNL A   1      35.041  32.702  27.647  1.00  0.00    -0.237 OA
ATOM     79  O   UNL A   1      33.533  33.447  29.445  1.00  0.00    -0.237 OA
ATOM     80  O   UNL A   1      35.391  34.889  28.732  1.00  0.00    -0.744 OA
ENDBRANCH  74  77
ENDBRANCH  56  70
BRANCH  57  81
ATOM     81  C   UNL A   1      47.967  31.840  30.049  1.00  0.00     0.023 A 
ATOM     82  C   UNL A   1      48.780  31.240  31.031  1.00  0.00     0.012 A 
ATOM     83  C   UNL A   1      48.572  32.414  28.914  1.00  0.00     0.148 A 
ATOM     84  C   UNL A   1      50.170  31.241  30.903  1.00  0.00     0.002 A 
ATOM     85  C   UNL A   1      49.952  32.362  28.765  1.00  0.00     0.091 A 
ATOM     86  F   UNL A   1      47.781  32.989  27.997  1.00  0.00    -0.205 F 
ATOM     87  C   UNL A   1      50.755  31.793  29.766  1.00  0.00     0.022 A 
BRANCH  85  88
ATOM     88  S   UNL A   1      50.781  32.925  27.275  1.00  0.00     0.127 S 
ATOM     89  O   UNL A   1      52.172  32.583  27.559  1.00  0.00    -0.237 OA
ATOM     90  O   UNL A   1      50.141  32.105  26.245  1.00  0.00    -0.237 OA
ATOM     91  O   UNL A   1      50.487  34.349  27.176  1.00  0.00    -0.744 OA
ENDBRANCH  85  88
ENDBRANCH  57  81
BRANCH  69  92
ATOM     92  C   UNL A   1      43.496  36.001  33.435  1.00  0.00     0.023 A 
ATOM     93  C   UNL A   1      43.664  35.875  34.828  1.00  0.00     0.012 A 
ATOM     94  C   UNL A   1      43.583  37.277  32.842  1.00  0.00     0.148 A 
ATOM     95  C   UNL A   1      43.882  37.000  35.621  1.00  0.00     0.002 A 
ATOM     96  C   UNL A   1      43.852  38.388  33.632  1.00  0.00     0.091 A 
ATOM     97  F   UNL A   1      43.404  37.379  31.517  1.00  0.00    -0.205 F 
ATOM     98  C   UNL A   1      43.988  38.254  35.023  1.00  0.00     0.022 A 
BRANCH  96  99
ATOM     99  S   UNL A   1      44.103  40.025  32.938  1.00  0.00     0.127 S 
ATOM    100  O   UNL A   1      45.121  39.765  31.921  1.00  0.00    -0.237 OA
ATOM    101  O   UNL A   1      42.777  40.343  32.408  1.00  0.00    -0.237 OA
ATOM    102  O   UNL A   1      44.530  40.871  34.045  1.00  0.00    -0.744 OA
ENDBRANCH  96  99
ENDBRANCH  69  92
ENDBRANCH  43  44
ENDBRANCH  35  38
ENDBRANCH  33  34
ENDBRANCH  32  33
ENDBRANCH  31  32
ENDBRANCH   1  31
TORSDOF 20
ENDMDL
