MODEL 1
REMARK VINA RESULT:     -10.6      0.000      0.000
REMARK SMILES CC[C@@H]1CCCN(S(=O)(=O)c2cc(C(=O)NCCCCCCNC(=O)c3ccc(-c4c5nc(c(-c6cccc(S(=O)(=O)[O-])c6F)c6ccc([nH]6)c(-c6cccc(S(=O)(=O)[O-])c6F)c6nc(c(-c7cccc(S(=O)(=O)[O-])c7F)c7ccc4[nH]7)C=C6)C=C5)cc3)ccc2F)C1
REMARK SMILES IDX 19 1 18 2 17 3 16 4 14 5 15 6 13 8 11 9 12 10 91 11 90 12
REMARK SMILES IDX 92 13 89 14 8 15 9 16 10 17 7 18 3 19 4 20 93 21 5 22 6 23
REMARK SMILES IDX 2 24 1 25 20 26 21 27 22 28 23 29 24 30 25 32 26 33 27 34
REMARK SMILES IDX 88 35 28 36 87 37 29 38 30 39 31 40 81 41 32 42 86 43 80 44
REMARK SMILES IDX 82 45 33 46 85 47 79 48 78 49 34 51 66 52 46 53 65 54 47 55
REMARK SMILES IDX 50 56 64 57 83 58 48 59 49 60 63 62 84 63 51 64 35 65 36 66
REMARK SMILES IDX 44 67 37 68 39 69 45 70 38 71 40 72 41 73 42 74 43 75 67 76
REMARK SMILES IDX 68 77 76 78 69 79 71 80 77 81 70 82 72 83 73 84 74 85 75 86
REMARK SMILES IDX 52 87 53 88 61 89 54 90 56 91 62 92 55 93 57 94 58 95 59 96
REMARK SMILES IDX 60 97
REMARK H PARENT 16 7 23 31 82 50 50 61
REMARK Flexibility Score: inf
ROOT
ATOM      1  C   UNL A   1      35.120  30.545  28.520  1.00  0.00     0.002 C 
ENDROOT
BRANCH   1   2
ATOM      2  C   UNL A   1      35.352  29.387  27.538  1.00  0.00     0.021 C 
BRANCH   2   3
ATOM      3  C   UNL A   1      34.106  29.003  26.737  1.00  0.00     0.116 C 
BRANCH   3   4
ATOM      4  N   UNL A   1      34.404  28.980  25.319  1.00  0.00    -0.352 N 
ATOM      5  C   UNL A   1      33.755  28.461  24.234  1.00  0.00     0.251 C 
ATOM      6  O   UNL A   1      34.271  28.645  23.131  1.00  0.00    -0.269 OA
ATOM      7  H   UNL A   1      35.248  29.431  25.090  1.00  0.00     0.163 HD
BRANCH   5   8
ATOM      8  C   UNL A   1      32.465  27.712  24.300  1.00  0.00     0.041 A 
ATOM      9  C   UNL A   1      31.368  25.616  24.910  1.00  0.00     0.119 A 
ATOM     10  C   UNL A   1      32.534  26.376  24.744  1.00  0.00     0.038 A 
ATOM     11  C   UNL A   1      30.132  26.185  24.644  1.00  0.00     0.143 A 
ATOM     12  C   UNL A   1      30.046  27.494  24.183  1.00  0.00     0.041 A 
ATOM     13  F   UNL A   1      28.992  25.504  24.815  1.00  0.00    -0.206 F 
ATOM     14  C   UNL A   1      31.205  28.264  24.042  1.00  0.00     0.017 A 
BRANCH   9  15
ATOM     15  S   UNL A   1      31.454  24.020  25.653  1.00  0.00     0.246 S 
ATOM     16  O   UNL A   1      30.541  23.139  24.946  1.00  0.00    -0.207 OA
ATOM     17  O   UNL A   1      31.313  24.192  27.082  1.00  0.00    -0.207 OA
BRANCH  15  18
ATOM     18  N   UNL A   1      33.070  23.433  25.382  1.00  0.00    -0.197 NA
ATOM     19  C   UNL A   1      35.281  23.012  26.558  1.00  0.00     0.004 C 
ATOM     20  C   UNL A   1      35.314  21.616  25.926  1.00  0.00     0.006 C 
ATOM     21  C   UNL A   1      33.832  23.504  26.676  1.00  0.00     0.106 C 
ATOM     22  C   UNL A   1      34.552  21.581  24.610  1.00  0.00     0.017 C 
ATOM     23  C   UNL A   1      33.120  22.063  24.790  1.00  0.00     0.102 C 
BRANCH  19  24
ATOM     24  C   UNL A   1      36.185  24.024  25.827  1.00  0.00     0.001 C 
ATOM     25  C   UNL A   1      37.646  23.585  25.831  1.00  0.00     0.004 C 
ENDBRANCH  19  24
ENDBRANCH  15  18
ENDBRANCH   9  15
ENDBRANCH   5   8
ENDBRANCH   3   4
ENDBRANCH   2   3
ENDBRANCH   1   2
BRANCH   1  26
ATOM     26  C   UNL A   1      35.111  31.941  27.885  1.00  0.00     0.002 C 
BRANCH  26  27
ATOM     27  C   UNL A   1      33.750  32.646  27.890  1.00  0.00     0.021 C 
BRANCH  27  28
ATOM     28  C   UNL A   1      33.812  34.133  27.554  1.00  0.00     0.116 C 
BRANCH  28  29
ATOM     29  N   UNL A   1      33.047  34.928  28.504  1.00  0.00    -0.352 N 
ATOM     30  C   UNL A   1      33.154  34.983  29.871  1.00  0.00     0.251 C 
ATOM     31  H   UNL A   1      32.356  35.507  28.110  1.00  0.00     0.163 HD
ATOM     32  O   UNL A   1      32.271  35.522  30.532  1.00  0.00    -0.269 OA
BRANCH  30  33
ATOM     33  C   UNL A   1      34.329  34.390  30.543  1.00  0.00     0.039 A 
ATOM     34  C   UNL A   1      34.134  33.381  31.488  1.00  0.00     0.014 A 
ATOM     35  C   UNL A   1      35.620  34.844  30.253  1.00  0.00     0.014 A 
ATOM     36  C   UNL A   1      35.238  32.795  32.111  1.00  0.00     0.010 A 
ATOM     37  C   UNL A   1      36.720  34.212  30.823  1.00  0.00     0.010 A 
ATOM     38  C   UNL A   1      36.541  33.188  31.764  1.00  0.00    -0.014 A 
BRANCH  38  39
ATOM     39  C   UNL A   1      37.729  32.535  32.371  1.00  0.00     0.031 A 
ATOM     40  C   UNL A   1      38.414  31.399  31.662  1.00  0.00     0.074 A 
ATOM     41  C   UNL A   1      38.141  32.913  33.597  1.00  0.00     0.049 A 
ATOM     42  N   UNL A   1      39.424  30.671  32.060  1.00  0.00    -0.248 NA
ATOM     43  C   UNL A   1      37.880  31.009  30.346  1.00  0.00     0.031 C 
ATOM     44  C   UNL A   1      37.512  33.954  34.413  1.00  0.00     0.029 A 
ATOM     45  N   UNL A   1      39.170  32.452  34.380  1.00  0.00    -0.354 N 
ATOM     46  C   UNL A   1      39.626  29.723  31.065  1.00  0.00     0.074 A 
ATOM     47  C   UNL A   1      38.613  29.943  30.059  1.00  0.00     0.031 C 
ATOM     48  C   UNL A   1      38.174  34.058  35.576  1.00  0.00     0.029 A 
ATOM     49  C   UNL A   1      39.252  33.074  35.604  1.00  0.00     0.049 A 
ATOM     50  H   UNL A   1      39.791  31.744  34.092  1.00  0.00     0.167 HD
ATOM     51  C   UNL A   1      40.590  28.775  30.983  1.00  0.00     0.034 A 
ATOM     52  C   UNL A   1      40.095  32.872  36.637  1.00  0.00     0.034 A 
ATOM     53  C   UNL A   1      41.627  28.596  31.963  1.00  0.00     0.049 A 
ATOM     54  C   UNL A   1      41.181  31.840  36.502  1.00  0.00     0.074 A 
ATOM     55  C   UNL A   1      42.698  27.722  31.925  1.00  0.00     0.029 A 
ATOM     56  N   UNL A   1      41.723  29.296  33.154  1.00  0.00    -0.354 N 
ATOM     57  N   UNL A   1      41.444  31.050  35.490  1.00  0.00    -0.248 NA
ATOM     58  C   UNL A   1      42.107  31.692  37.635  1.00  0.00     0.031 C 
ATOM     59  C   UNL A   1      43.429  27.877  33.104  1.00  0.00     0.029 A 
ATOM     60  C   UNL A   1      42.830  28.869  33.865  1.00  0.00     0.049 A 
ATOM     61  H   UNL A   1      41.096  29.994  33.452  1.00  0.00     0.167 HD
ATOM     62  C   UNL A   1      42.582  30.335  35.847  1.00  0.00     0.074 A 
ATOM     63  C   UNL A   1      42.969  30.797  37.164  1.00  0.00     0.031 C 
ATOM     64  C   UNL A   1      43.236  29.372  35.152  1.00  0.00     0.034 A 
BRANCH  51  65
ATOM     65  C   UNL A   1      40.616  27.895  29.761  1.00  0.00     0.023 A 
ATOM     66  C   UNL A   1      39.711  26.820  29.662  1.00  0.00     0.012 A 
ATOM     67  C   UNL A   1      41.461  28.191  28.672  1.00  0.00     0.148 A 
ATOM     68  C   UNL A   1      39.660  26.038  28.509  1.00  0.00     0.002 A 
ATOM     69  C   UNL A   1      41.372  27.434  27.509  1.00  0.00     0.091 A 
ATOM     70  F   UNL A   1      42.329  29.205  28.794  1.00  0.00    -0.205 F 
ATOM     71  C   UNL A   1      40.480  26.353  27.430  1.00  0.00     0.022 A 
BRANCH  69  72
ATOM     72  S   UNL A   1      42.321  27.811  26.031  1.00  0.00     0.127 S 
ATOM     73  O   UNL A   1      43.690  27.595  26.497  1.00  0.00    -0.237 OA
ATOM     74  O   UNL A   1      41.832  26.807  25.088  1.00  0.00    -0.237 OA
ATOM     75  O   UNL A   1      41.995  29.187  25.681  1.00  0.00    -0.744 OA
ENDBRANCH  69  72
ENDBRANCH  51  65
BRANCH  52  76
ATOM     76  C   UNL A   1      39.983  33.727  37.852  1.00  0.00     0.023 A 
ATOM     77  C   UNL A   1      40.669  34.957  37.895  1.00  0.00     0.012 A 
ATOM     78  C   UNL A   1      39.150  33.368  38.929  1.00  0.00     0.148 A 
ATOM     79  C   UNL A   1      40.543  35.803  38.996  1.00  0.00     0.002 A 
ATOM     80  C   UNL A   1      38.982  34.243  39.996  1.00  0.00     0.091 A 
ATOM     81  F   UNL A   1      38.514  32.189  38.873  1.00  0.00    -0.205 F 
ATOM     82  C   UNL A   1      39.689  35.453  40.039  1.00  0.00     0.022 A 
BRANCH  80  83
ATOM     83  S   UNL A   1      37.795  33.943  41.311  1.00  0.00     0.127 S 
ATOM     84  O   UNL A   1      37.601  35.285  41.853  1.00  0.00    -0.237 OA
ATOM     85  O   UNL A   1      36.654  33.405  40.569  1.00  0.00    -0.237 OA
ATOM     86  O   UNL A   1      38.431  32.986  42.208  1.00  0.00    -0.744 OA
ENDBRANCH  80  83
ENDBRANCH  52  76
BRANCH  64  87
ATOM     87  C   UNL A   1      44.458  28.751  35.776  1.00  0.00     0.023 A 
ATOM     88  C   UNL A   1      45.732  29.276  35.484  1.00  0.00     0.012 A 
ATOM     89  C   UNL A   1      44.331  27.738  36.747  1.00  0.00     0.148 A 
ATOM     90  C   UNL A   1      46.864  28.790  36.138  1.00  0.00     0.002 A 
ATOM     91  C   UNL A   1      45.456  27.294  37.429  1.00  0.00     0.091 A 
ATOM     92  F   UNL A   1      43.110  27.243  36.997  1.00  0.00    -0.205 F 
ATOM     93  C   UNL A   1      46.725  27.811  37.120  1.00  0.00     0.022 A 
BRANCH  91  94
ATOM     94  S   UNL A   1      45.362  26.116  38.784  1.00  0.00     0.127 S 
ATOM     95  O   UNL A   1      45.047  24.876  38.077  1.00  0.00    -0.237 OA
ATOM     96  O   UNL A   1      46.714  26.175  39.340  1.00  0.00    -0.237 OA
ATOM     97  O   UNL A   1      44.319  26.607  39.673  1.00  0.00    -0.744 OA
ENDBRANCH  91  94
ENDBRANCH  64  87
ENDBRANCH  38  39
ENDBRANCH  30  33
ENDBRANCH  28  29
ENDBRANCH  27  28
ENDBRANCH  26  27
ENDBRANCH   1  26
TORSDOF 19
ENDMDL
MODEL 2
REMARK VINA RESULT:     -10.5      0.799      7.656
REMARK SMILES CC[C@@H]1CCCN(S(=O)(=O)c2cc(C(=O)NCCCCCCNC(=O)c3ccc(-c4c5nc(c(-c6cccc(S(=O)(=O)[O-])c6F)c6ccc([nH]6)c(-c6cccc(S(=O)(=O)[O-])c6F)c6nc(c(-c7cccc(S(=O)(=O)[O-])c7F)c7ccc4[nH]7)C=C6)C=C5)cc3)ccc2F)C1
REMARK SMILES IDX 19 1 18 2 17 3 16 4 14 5 15 6 13 8 11 9 12 10 91 11 90 12
REMARK SMILES IDX 92 13 89 14 8 15 9 16 10 17 7 18 3 19 4 20 93 21 5 22 6 23
REMARK SMILES IDX 2 24 1 25 20 26 21 27 22 28 23 29 24 30 25 32 26 33 27 34
REMARK SMILES IDX 88 35 28 36 87 37 29 38 30 39 31 40 81 41 32 42 86 43 80 44
REMARK SMILES IDX 82 45 33 46 85 47 79 48 78 49 34 51 66 52 46 53 65 54 47 55
REMARK SMILES IDX 50 56 64 57 83 58 48 59 49 60 63 62 84 63 51 64 35 65 36 66
REMARK SMILES IDX 44 67 37 68 39 69 45 70 38 71 40 72 41 73 42 74 43 75 67 76
REMARK SMILES IDX 68 77 76 78 69 79 71 80 77 81 70 82 72 83 73 84 74 85 75 86
REMARK SMILES IDX 52 87 53 88 61 89 54 90 56 91 62 92 55 93 57 94 58 95 59 96
REMARK SMILES IDX 60 97
REMARK H PARENT 16 7 23 31 82 50 50 61
REMARK Flexibility Score: inf
ROOT
ATOM      1  C   UNL A   1      35.084  30.687  28.448  1.00  0.00     0.002 C 
ENDROOT
BRANCH   1   2
ATOM      2  C   UNL A   1      35.364  29.521  27.488  1.00  0.00     0.021 C 
BRANCH   2   3
ATOM      3  C   UNL A   1      34.139  29.084  26.683  1.00  0.00     0.116 C 
BRANCH   3   4
ATOM      4  N   UNL A   1      34.458  29.025  25.270  1.00  0.00    -0.352 N 
ATOM      5  C   UNL A   1      33.818  28.492  24.186  1.00  0.00     0.251 C 
ATOM      6  O   UNL A   1      34.354  28.645  23.087  1.00  0.00    -0.269 OA
ATOM      7  H   UNL A   1      35.313  29.459  25.045  1.00  0.00     0.163 HD
BRANCH   5   8
ATOM      8  C   UNL A   1      32.516  27.764  24.247  1.00  0.00     0.041 A 
ATOM      9  C   UNL A   1      31.369  25.720  24.936  1.00  0.00     0.119 A 
ATOM     10  C   UNL A   1      32.550  26.455  24.770  1.00  0.00     0.038 A 
ATOM     11  C   UNL A   1      30.151  26.288  24.593  1.00  0.00     0.143 A 
ATOM     12  C   UNL A   1      30.100  27.569  24.055  1.00  0.00     0.041 A 
ATOM     13  F   UNL A   1      28.997  25.631  24.762  1.00  0.00    -0.206 F 
ATOM     14  C   UNL A   1      31.274  28.316  23.913  1.00  0.00     0.017 A 
BRANCH   9  15
ATOM     15  S   UNL A   1      31.406  24.169  25.771  1.00  0.00     0.246 S 
ATOM     16  O   UNL A   1      30.387  23.314  25.189  1.00  0.00    -0.207 OA
ATOM     17  O   UNL A   1      31.383  24.434  27.193  1.00  0.00    -0.207 OA
BRANCH  15  18
ATOM     18  N   UNL A   1      32.956  23.455  25.425  1.00  0.00    -0.197 NA
ATOM     19  C   UNL A   1      35.266  23.088  26.411  1.00  0.00     0.004 C 
ATOM     20  C   UNL A   1      35.171  21.614  26.004  1.00  0.00     0.006 C 
ATOM     21  C   UNL A   1      33.861  23.676  26.604  1.00  0.00     0.106 C 
ATOM     22  C   UNL A   1      34.264  21.426  24.798  1.00  0.00     0.017 C 
ATOM     23  C   UNL A   1      32.881  22.012  25.051  1.00  0.00     0.102 C 
BRANCH  19  24
ATOM     24  C   UNL A   1      36.122  23.925  25.440  1.00  0.00     0.001 C 
ATOM     25  C   UNL A   1      37.243  23.100  24.817  1.00  0.00     0.004 C 
ENDBRANCH  19  24
ENDBRANCH  15  18
ENDBRANCH   9  15
ENDBRANCH   5   8
ENDBRANCH   3   4
ENDBRANCH   2   3
ENDBRANCH   1   2
BRANCH   1  26
ATOM     26  C   UNL A   1      34.982  32.065  27.780  1.00  0.00     0.002 C 
BRANCH  26  27
ATOM     27  C   UNL A   1      33.671  32.815  28.038  1.00  0.00     0.021 C 
BRANCH  27  28
ATOM     28  C   UNL A   1      33.778  34.331  27.907  1.00  0.00     0.116 C 
BRANCH  28  29
ATOM     29  N   UNL A   1      33.185  35.010  29.051  1.00  0.00    -0.352 N 
ATOM     30  C   UNL A   1      33.438  34.836  30.388  1.00  0.00     0.251 C 
ATOM     31  H   UNL A   1      32.507  35.689  28.833  1.00  0.00     0.163 HD
ATOM     32  O   UNL A   1      32.677  35.317  31.223  1.00  0.00    -0.269 OA
BRANCH  30  33
ATOM     33  C   UNL A   1      34.624  34.067  30.819  1.00  0.00     0.039 A 
ATOM     34  C   UNL A   1      35.896  34.522  30.463  1.00  0.00     0.014 A 
ATOM     35  C   UNL A   1      34.480  32.889  31.558  1.00  0.00     0.014 A 
ATOM     36  C   UNL A   1      37.026  33.819  30.887  1.00  0.00     0.010 A 
ATOM     37  C   UNL A   1      35.607  32.229  32.037  1.00  0.00     0.010 A 
ATOM     38  C   UNL A   1      36.890  32.680  31.699  1.00  0.00    -0.014 A 
BRANCH  38  39
ATOM     39  C   UNL A   1      38.081  31.953  32.210  1.00  0.00     0.031 A 
ATOM     40  C   UNL A   1      38.714  32.357  33.513  1.00  0.00     0.074 A 
ATOM     41  C   UNL A   1      38.638  30.983  31.459  1.00  0.00     0.049 A 
ATOM     42  N   UNL A   1      39.787  31.881  34.088  1.00  0.00    -0.248 NA
ATOM     43  C   UNL A   1      38.077  33.458  34.256  1.00  0.00     0.031 C 
ATOM     44  C   UNL A   1      38.157  30.552  30.145  1.00  0.00     0.029 A 
ATOM     45  N   UNL A   1      39.742  30.198  31.683  1.00  0.00    -0.354 N 
ATOM     46  C   UNL A   1      39.971  32.638  35.237  1.00  0.00     0.074 A 
ATOM     47  C   UNL A   1      38.921  33.630  35.264  1.00  0.00     0.031 C 
ATOM     48  C   UNL A   1      38.955  29.577  29.683  1.00  0.00     0.029 A 
ATOM     49  C   UNL A   1      40.021  29.333  30.650  1.00  0.00     0.049 A 
ATOM     50  H   UNL A   1      40.284  30.251  32.503  1.00  0.00     0.167 HD
ATOM     51  C   UNL A   1      40.912  32.498  36.201  1.00  0.00     0.034 A 
ATOM     52  C   UNL A   1      41.025  28.446  30.495  1.00  0.00     0.034 A 
ATOM     53  C   UNL A   1      41.923  31.476  36.195  1.00  0.00     0.049 A 
ATOM     54  C   UNL A   1      42.034  28.283  31.599  1.00  0.00     0.074 A 
ATOM     55  C   UNL A   1      42.865  31.198  37.169  1.00  0.00     0.029 A 
ATOM     56  N   UNL A   1      42.127  30.567  35.169  1.00  0.00    -0.354 N 
ATOM     57  N   UNL A   1      42.105  28.912  32.747  1.00  0.00    -0.248 NA
ATOM     58  C   UNL A   1      43.080  27.268  31.405  1.00  0.00     0.031 C 
ATOM     59  C   UNL A   1      43.654  30.137  36.722  1.00  0.00     0.029 A 
ATOM     60  C   UNL A   1      43.186  29.733  35.481  1.00  0.00     0.049 A 
ATOM     61  H   UNL A   1      41.597  30.521  34.341  1.00  0.00     0.167 HD
ATOM     62  C   UNL A   1      43.181  28.350  33.425  1.00  0.00     0.074 A 
ATOM     63  C   UNL A   1      43.721  27.316  32.567  1.00  0.00     0.031 C 
ATOM     64  C   UNL A   1      43.682  28.673  34.642  1.00  0.00     0.034 A 
BRANCH  51  65
ATOM     65  C   UNL A   1      40.861  33.431  37.383  1.00  0.00     0.023 A 
ATOM     66  C   UNL A   1      41.624  34.616  37.364  1.00  0.00     0.012 A 
ATOM     67  C   UNL A   1      39.986  33.188  38.461  1.00  0.00     0.148 A 
ATOM     68  C   UNL A   1      41.535  35.534  38.409  1.00  0.00     0.002 A 
ATOM     69  C   UNL A   1      39.869  34.131  39.476  1.00  0.00     0.091 A 
ATOM     70  F   UNL A   1      39.285  32.046  38.469  1.00  0.00    -0.205 F 
ATOM     71  C   UNL A   1      40.650  35.298  39.457  1.00  0.00     0.022 A 
BRANCH  69  72
ATOM     72  S   UNL A   1      38.695  33.963  40.826  1.00  0.00     0.127 S 
ATOM     73  O   UNL A   1      39.334  32.935  41.646  1.00  0.00    -0.237 OA
ATOM     74  O   UNL A   1      38.707  35.304  41.409  1.00  0.00    -0.237 OA
ATOM     75  O   UNL A   1      37.431  33.575  40.216  1.00  0.00    -0.744 OA
ENDBRANCH  69  72
ENDBRANCH  51  65
BRANCH  52  76
ATOM     76  C   UNL A   1      41.066  27.593  29.274  1.00  0.00     0.023 A 
ATOM     77  C   UNL A   1      40.203  26.484  29.178  1.00  0.00     0.012 A 
ATOM     78  C   UNL A   1      41.898  27.913  28.183  1.00  0.00     0.148 A 
ATOM     79  C   UNL A   1      40.181  25.698  28.026  1.00  0.00     0.002 A 
ATOM     80  C   UNL A   1      41.828  27.161  27.016  1.00  0.00     0.091 A 
ATOM     81  F   UNL A   1      42.719  28.966  28.298  1.00  0.00    -0.205 F 
ATOM     82  C   UNL A   1      40.982  26.044  26.941  1.00  0.00     0.022 A 
BRANCH  80  83
ATOM     83  S   UNL A   1      42.713  27.617  25.520  1.00  0.00     0.127 S 
ATOM     84  O   UNL A   1      44.075  27.790  26.018  1.00  0.00    -0.237 OA
ATOM     85  O   UNL A   1      42.508  26.436  24.679  1.00  0.00    -0.237 OA
ATOM     86  O   UNL A   1      42.063  28.823  25.028  1.00  0.00    -0.744 OA
ENDBRANCH  80  83
ENDBRANCH  52  76
BRANCH  64  87
ATOM     87  C   UNL A   1      44.869  27.896  35.151  1.00  0.00     0.023 A 
ATOM     88  C   UNL A   1      46.169  28.399  34.952  1.00  0.00     0.012 A 
ATOM     89  C   UNL A   1      44.684  26.740  35.937  1.00  0.00     0.148 A 
ATOM     90  C   UNL A   1      47.270  27.755  35.514  1.00  0.00     0.002 A 
ATOM     91  C   UNL A   1      45.781  26.132  36.534  1.00  0.00     0.091 A 
ATOM     92  F   UNL A   1      43.439  26.270  36.100  1.00  0.00    -0.205 F 
ATOM     93  C   UNL A   1      47.076  26.632  36.316  1.00  0.00     0.022 A 
BRANCH  91  94
ATOM     94  S   UNL A   1      45.620  24.749  37.669  1.00  0.00     0.127 S 
ATOM     95  O   UNL A   1      46.976  24.647  38.207  1.00  0.00    -0.237 OA
ATOM     96  O   UNL A   1      44.623  25.242  38.619  1.00  0.00    -0.237 OA
ATOM     97  O   UNL A   1      45.183  23.616  36.865  1.00  0.00    -0.744 OA
ENDBRANCH  91  94
ENDBRANCH  64  87
ENDBRANCH  38  39
ENDBRANCH  30  33
ENDBRANCH  28  29
ENDBRANCH  27  28
ENDBRANCH  26  27
ENDBRANCH   1  26
TORSDOF 19
ENDMDL
MODEL 3
REMARK VINA RESULT:     -10.3      1.848      2.364
REMARK SMILES CC[C@@H]1CCCN(S(=O)(=O)c2cc(C(=O)NCCCCCCNC(=O)c3ccc(-c4c5nc(c(-c6cccc(S(=O)(=O)[O-])c6F)c6ccc([nH]6)c(-c6cccc(S(=O)(=O)[O-])c6F)c6nc(c(-c7cccc(S(=O)(=O)[O-])c7F)c7ccc4[nH]7)C=C6)C=C5)cc3)ccc2F)C1
REMARK SMILES IDX 19 1 18 2 17 3 16 4 14 5 15 6 13 8 11 9 12 10 91 11 90 12
REMARK SMILES IDX 92 13 89 14 8 15 9 16 10 17 7 18 3 19 4 20 93 21 5 22 6 23
REMARK SMILES IDX 2 24 1 25 20 26 21 27 22 28 23 29 24 30 25 32 26 33 27 34
REMARK SMILES IDX 88 35 28 36 87 37 29 38 30 39 31 40 81 41 32 42 86 43 80 44
REMARK SMILES IDX 82 45 33 46 85 47 79 48 78 49 34 51 66 52 46 53 65 54 47 55
REMARK SMILES IDX 50 56 64 57 83 58 48 59 49 60 63 62 84 63 51 64 35 65 36 66
REMARK SMILES IDX 44 67 37 68 39 69 45 70 38 71 40 72 41 73 42 74 43 75 67 76
REMARK SMILES IDX 68 77 76 78 69 79 71 80 77 81 70 82 72 83 73 84 74 85 75 86
REMARK SMILES IDX 52 87 53 88 61 89 54 90 56 91 62 92 55 93 57 94 58 95 59 96
REMARK SMILES IDX 60 97
REMARK H PARENT 16 7 23 31 82 50 50 61
REMARK Flexibility Score: inf
ROOT
ATOM      1  C   UNL A   1      35.091  31.815  28.683  1.00  0.00     0.002 C 
ENDROOT
BRANCH   1   2
ATOM      2  C   UNL A   1      35.065  30.560  27.797  1.00  0.00     0.021 C 
BRANCH   2   3
ATOM      3  C   UNL A   1      33.768  30.401  27.000  1.00  0.00     0.116 C 
BRANCH   3   4
ATOM      4  N   UNL A   1      32.901  29.429  27.636  1.00  0.00    -0.352 N 
ATOM      5  C   UNL A   1      31.994  28.526  27.155  1.00  0.00     0.251 C 
ATOM      6  O   UNL A   1      31.431  27.804  27.979  1.00  0.00    -0.269 OA
ATOM      7  H   UNL A   1      32.981  29.417  28.617  1.00  0.00     0.163 HD
BRANCH   5   8
ATOM      8  C   UNL A   1      31.665  28.348  25.710  1.00  0.00     0.041 A 
ATOM      9  C   UNL A   1      31.609  26.801  23.820  1.00  0.00     0.119 A 
ATOM     10  C   UNL A   1      31.950  27.087  25.149  1.00  0.00     0.038 A 
ATOM     11  C   UNL A   1      30.974  27.764  23.050  1.00  0.00     0.143 A 
ATOM     12  C   UNL A   1      30.705  29.021  23.579  1.00  0.00     0.041 A 
ATOM     13  F   UNL A   1      30.606  27.523  21.786  1.00  0.00    -0.206 F 
ATOM     14  C   UNL A   1      31.020  29.301  24.913  1.00  0.00     0.017 A 
BRANCH   9  15
ATOM     15  S   UNL A   1      31.789  25.163  23.196  1.00  0.00     0.246 S 
ATOM     16  O   UNL A   1      32.287  25.246  21.835  1.00  0.00    -0.207 OA
ATOM     17  O   UNL A   1      30.557  24.453  23.460  1.00  0.00    -0.207 OA
BRANCH  15  18
ATOM     18  N   UNL A   1      33.019  24.396  24.162  1.00  0.00    -0.197 NA
ATOM     19  C   UNL A   1      33.594  22.213  25.323  1.00  0.00     0.004 C 
ATOM     20  C   UNL A   1      34.986  22.278  24.685  1.00  0.00     0.006 C 
ATOM     21  C   UNL A   1      32.583  22.991  24.469  1.00  0.00     0.106 C 
ATOM     22  C   UNL A   1      35.405  23.713  24.405  1.00  0.00     0.017 C 
ATOM     23  C   UNL A   1      34.376  24.429  23.542  1.00  0.00     0.102 C 
BRANCH  19  24
ATOM     24  C   UNL A   1      33.587  22.668  26.797  1.00  0.00     0.001 C 
ATOM     25  C   UNL A   1      32.175  22.960  27.293  1.00  0.00     0.004 C 
ENDBRANCH  19  24
ENDBRANCH  15  18
ENDBRANCH   9  15
ENDBRANCH   5   8
ENDBRANCH   3   4
ENDBRANCH   2   3
ENDBRANCH   1   2
BRANCH   1  26
ATOM     26  C   UNL A   1      35.601  33.086  27.992  1.00  0.00     0.002 C 
BRANCH  26  27
ATOM     27  C   UNL A   1      34.616  34.259  27.984  1.00  0.00     0.021 C 
BRANCH  27  28
ATOM     28  C   UNL A   1      33.262  33.947  28.613  1.00  0.00     0.116 C 
BRANCH  28  29
ATOM     29  N   UNL A   1      32.906  34.925  29.630  1.00  0.00    -0.352 N 
ATOM     30  C   UNL A   1      33.391  35.065  30.906  1.00  0.00     0.251 C 
ATOM     31  H   UNL A   1      32.219  35.579  29.366  1.00  0.00     0.163 HD
ATOM     32  O   UNL A   1      32.807  35.788  31.708  1.00  0.00    -0.269 OA
BRANCH  30  33
ATOM     33  C   UNL A   1      34.613  34.339  31.313  1.00  0.00     0.039 A 
ATOM     34  C   UNL A   1      35.861  34.903  31.039  1.00  0.00     0.014 A 
ATOM     35  C   UNL A   1      34.525  33.095  31.946  1.00  0.00     0.014 A 
ATOM     36  C   UNL A   1      37.022  34.240  31.442  1.00  0.00     0.010 A 
ATOM     37  C   UNL A   1      35.680  32.471  32.407  1.00  0.00     0.010 A 
ATOM     38  C   UNL A   1      36.939  33.030  32.151  1.00  0.00    -0.014 A 
BRANCH  38  39
ATOM     39  C   UNL A   1      38.160  32.340  32.641  1.00  0.00     0.031 A 
ATOM     40  C   UNL A   1      38.785  31.238  31.829  1.00  0.00     0.074 A 
ATOM     41  C   UNL A   1      38.658  32.652  33.853  1.00  0.00     0.049 A 
ATOM     42  N   UNL A   1      39.813  30.485  32.120  1.00  0.00    -0.248 NA
ATOM     43  C   UNL A   1      38.158  30.920  30.535  1.00  0.00     0.031 C 
ATOM     44  C   UNL A   1      38.096  33.653  34.763  1.00  0.00     0.029 A 
ATOM     45  N   UNL A   1      39.734  32.145  34.539  1.00  0.00    -0.354 N 
ATOM     46  C   UNL A   1      39.938  29.588  31.066  1.00  0.00     0.074 A 
ATOM     47  C   UNL A   1      38.861  29.866  30.144  1.00  0.00     0.031 C 
ATOM     48  C   UNL A   1      38.837  33.693  35.882  1.00  0.00     0.029 A 
ATOM     49  C   UNL A   1      39.905  32.702  35.785  1.00  0.00     0.049 A 
ATOM     50  H   UNL A   1      40.327  31.450  34.174  1.00  0.00     0.167 HD
ATOM     51  C   UNL A   1      40.885  28.641  30.870  1.00  0.00     0.034 A 
ATOM     52  C   UNL A   1      40.815  32.443  36.746  1.00  0.00     0.034 A 
ATOM     53  C   UNL A   1      41.984  28.405  31.765  1.00  0.00     0.049 A 
ATOM     54  C   UNL A   1      41.880  31.413  36.484  1.00  0.00     0.074 A 
ATOM     55  C   UNL A   1      43.043  27.528  31.609  1.00  0.00     0.029 A 
ATOM     56  N   UNL A   1      42.168  29.042  32.982  1.00  0.00    -0.354 N 
ATOM     57  N   UNL A   1      42.066  30.675  35.417  1.00  0.00    -0.248 NA
ATOM     58  C   UNL A   1      42.880  31.201  37.542  1.00  0.00     0.031 C 
ATOM     59  C   UNL A   1      43.854  27.618  32.742  1.00  0.00     0.029 A 
ATOM     60  C   UNL A   1      43.318  28.572  33.592  1.00  0.00     0.049 A 
ATOM     61  H   UNL A   1      41.570  29.728  33.357  1.00  0.00     0.167 HD
ATOM     62  C   UNL A   1      43.219  29.936  35.658  1.00  0.00     0.074 A 
ATOM     63  C   UNL A   1      43.699  30.328  36.967  1.00  0.00     0.031 C 
ATOM     64  C   UNL A   1      43.815  29.007  34.872  1.00  0.00     0.034 A 
BRANCH  51  65
ATOM     65  C   UNL A   1      40.820  27.825  29.605  1.00  0.00     0.023 A 
ATOM     66  C   UNL A   1      39.846  26.813  29.482  1.00  0.00     0.012 A 
ATOM     67  C   UNL A   1      41.648  28.124  28.505  1.00  0.00     0.148 A 
ATOM     68  C   UNL A   1      39.712  26.096  28.295  1.00  0.00     0.002 A 
ATOM     69  C   UNL A   1      41.477  27.435  27.309  1.00  0.00     0.091 A 
ATOM     70  F   UNL A   1      42.582  29.075  28.648  1.00  0.00    -0.205 F 
ATOM     71  C   UNL A   1      40.518  26.416  27.206  1.00  0.00     0.022 A 
BRANCH  69  72
ATOM     72  S   UNL A   1      42.404  27.829  25.821  1.00  0.00     0.127 S 
ATOM     73  O   UNL A   1      41.967  29.200  25.557  1.00  0.00    -0.237 OA
ATOM     74  O   UNL A   1      43.787  27.708  26.280  1.00  0.00    -0.237 OA
ATOM     75  O   UNL A   1      42.004  26.847  24.824  1.00  0.00    -0.744 OA
ENDBRANCH  69  72
ENDBRANCH  51  65
BRANCH  52  76
ATOM     76  C   UNL A   1      40.794  33.235  38.008  1.00  0.00     0.023 A 
ATOM     77  C   UNL A   1      40.021  32.781  39.094  1.00  0.00     0.012 A 
ATOM     78  C   UNL A   1      41.588  34.388  38.164  1.00  0.00     0.148 A 
ATOM     79  C   UNL A   1      40.023  33.471  40.306  1.00  0.00     0.002 A 
ATOM     80  C   UNL A   1      41.630  35.037  39.392  1.00  0.00     0.091 A 
ATOM     81  F   UNL A   1      42.308  34.809  37.115  1.00  0.00    -0.205 F 
ATOM     82  C   UNL A   1      40.837  34.590  40.459  1.00  0.00     0.022 A 
BRANCH  80  83
ATOM     83  S   UNL A   1      42.758  36.397  39.726  1.00  0.00     0.127 S 
ATOM     84  O   UNL A   1      44.059  35.764  39.525  1.00  0.00    -0.237 OA
ATOM     85  O   UNL A   1      42.375  37.363  38.695  1.00  0.00    -0.237 OA
ATOM     86  O   UNL A   1      42.468  36.826  41.087  1.00  0.00    -0.744 OA
ENDBRANCH  80  83
ENDBRANCH  52  76
BRANCH  64  87
ATOM     87  C   UNL A   1      45.071  28.348  35.377  1.00  0.00     0.023 A 
ATOM     88  C   UNL A   1      46.318  28.968  35.165  1.00  0.00     0.012 A 
ATOM     89  C   UNL A   1      45.001  27.186  36.172  1.00  0.00     0.148 A 
ATOM     90  C   UNL A   1      47.478  28.433  35.723  1.00  0.00     0.002 A 
ATOM     91  C   UNL A   1      46.153  26.687  36.765  1.00  0.00     0.091 A 
ATOM     92  F   UNL A   1      43.806  26.603  36.348  1.00  0.00    -0.205 F 
ATOM     93  C   UNL A   1      47.394  27.303  36.534  1.00  0.00     0.022 A 
BRANCH  91  94
ATOM     94  S   UNL A   1      46.129  25.303  37.912  1.00  0.00     0.127 S 
ATOM     95  O   UNL A   1      47.542  25.190  38.270  1.00  0.00    -0.237 OA
ATOM     96  O   UNL A   1      45.267  25.803  38.982  1.00  0.00    -0.237 OA
ATOM     97  O   UNL A   1      45.584  24.175  37.170  1.00  0.00    -0.744 OA
ENDBRANCH  91  94
ENDBRANCH  64  87
ENDBRANCH  38  39
ENDBRANCH  30  33
ENDBRANCH  28  29
ENDBRANCH  27  28
ENDBRANCH  26  27
ENDBRANCH   1  26
TORSDOF 19
ENDMDL
