MODEL 1
REMARK VINA RESULT:     -11.2      0.000      0.000
REMARK SMILES Cc1ccc(C(N)=O)c(NCc2ccc(C(=O)NCCCCCCNC(=O)c3ccc(-c4c5nc(c(-c6cccc(S(=O)(=O)[O-])c6F)c6ccc([nH]6)c(-c6cccc(S(=O)(=O)[O-])c6F)c6nc(c(-c7cccc(S(=O)(=O)[O-])c7F)c7ccc4[nH]7)C=C6)C=C5)cc3)o2)n1
REMARK SMILES IDX 21 1 20 2 19 3 18 4 16 5 17 6 15 8 12 9 13 10 91 11 14 12
REMARK SMILES IDX 11 13 10 14 9 16 1 17 2 18 3 19 92 20 4 21 5 22 6 23 7 24
REMARK SMILES IDX 8 25 22 28 23 29 24 30 25 31 26 32 27 34 28 35 29 36 90 37
REMARK SMILES IDX 30 38 89 39 31 40 32 41 33 42 83 43 34 44 88 45 82 46 84 47
REMARK SMILES IDX 35 48 87 49 81 50 80 51 36 53 68 54 48 55 67 56 49 57 52 58
REMARK SMILES IDX 66 59 85 60 50 61 51 62 65 64 86 65 53 66 37 67 38 68 46 69
REMARK SMILES IDX 39 70 41 71 47 72 40 73 42 74 43 75 44 76 45 77 69 78 70 79
REMARK SMILES IDX 78 80 71 81 73 82 79 83 72 84 74 85 75 86 76 87 77 88 54 89
REMARK SMILES IDX 55 90 63 91 56 92 58 93 64 94 57 95 59 96 60 97 61 98 62 99
REMARK H PARENT 18 7 10 15 7 26 7 27 25 33 84 52 52 63
REMARK Flexibility Score: inf
ROOT
ATOM      1  C   UNL A   1      30.566  28.746  24.308  1.00  0.00     0.002 C 
ENDROOT
BRANCH   1   2
ATOM      2  C   UNL A   1      31.188  28.779  22.905  1.00  0.00     0.021 C 
BRANCH   2   3
ATOM      3  C   UNL A   1      30.838  27.549  22.067  1.00  0.00     0.116 C 
BRANCH   3   4
ATOM      4  N   UNL A   1      32.038  26.836  21.685  1.00  0.00    -0.349 N 
ATOM      5  C   UNL A   1      32.562  25.637  22.104  1.00  0.00     0.286 C 
ATOM      6  O   UNL A   1      33.601  25.288  21.537  1.00  0.00    -0.266 OA
ATOM      7  H   UNL A   1      32.576  27.294  20.999  1.00  0.00     0.163 HD
BRANCH   5   8
ATOM      8  C   UNL A   1      31.916  24.833  23.126  1.00  0.00     0.191 A 
ATOM      9  C   UNL A   1      31.819  23.982  25.171  1.00  0.00     0.124 A 
ATOM     10  C   UNL A   1      30.744  23.464  24.487  1.00  0.00     0.048 A 
ATOM     11  O   UNL A   1      32.536  24.801  24.356  1.00  0.00    -0.454 OA
ATOM     12  C   UNL A   1      30.767  24.063  23.207  1.00  0.00     0.056 A 
BRANCH   9  13
ATOM     13  C   UNL A   1      32.295  23.845  26.577  1.00  0.00     0.190 C 
BRANCH  13  14
ATOM     14  N   UNL A   1      32.808  22.517  26.872  1.00  0.00    -0.362 N 
ATOM     15  H   UNL A   1      32.348  21.957  27.538  1.00  0.00     0.162 HD
BRANCH  14  16
ATOM     16  C   UNL A   1      33.933  22.031  26.233  1.00  0.00     0.139 A 
ATOM     17  C   UNL A   1      37.277  23.401  25.507  1.00  0.00     0.067 C 
ATOM     18  C   UNL A   1      36.135  22.432  25.543  1.00  0.00     0.040 A 
ATOM     19  C   UNL A   1      36.244  21.174  24.974  1.00  0.00     0.024 A 
ATOM     20  N   UNL A   1      35.001  22.860  26.149  1.00  0.00    -0.236 NA
ATOM     21  C   UNL A   1      35.148  20.323  25.041  1.00  0.00     0.019 A 
ATOM     22  C   UNL A   1      33.970  20.752  25.666  1.00  0.00     0.081 A 
BRANCH  22  23
ATOM     23  C   UNL A   1      32.828  19.802  25.668  1.00  0.00     0.252 C 
ATOM     24  N   UNL A   1      32.909  18.707  26.481  1.00  0.00    -0.365 N 
ATOM     25  O   UNL A   1      31.828  20.007  24.990  1.00  0.00    -0.269 OA
ATOM     26  H   UNL A   1      33.717  18.552  27.021  1.00  0.00     0.159 HD
ATOM     27  H   UNL A   1      32.157  18.072  26.528  1.00  0.00     0.159 HD
ENDBRANCH  22  23
ENDBRANCH  14  16
ENDBRANCH  13  14
ENDBRANCH   9  13
ENDBRANCH   5   8
ENDBRANCH   3   4
ENDBRANCH   2   3
ENDBRANCH   1   2
BRANCH   1  28
ATOM     28  C   UNL A   1      31.481  28.186  25.405  1.00  0.00     0.002 C 
BRANCH  28  29
ATOM     29  C   UNL A   1      32.928  27.940  24.971  1.00  0.00     0.021 C 
BRANCH  29  30
ATOM     30  C   UNL A   1      33.866  29.107  25.254  1.00  0.00     0.116 C 
BRANCH  30  31
ATOM     31  N   UNL A   1      33.131  30.302  25.641  1.00  0.00    -0.352 N 
ATOM     32  C   UNL A   1      33.284  31.078  26.766  1.00  0.00     0.251 C 
ATOM     33  H   UNL A   1      32.429  30.595  25.014  1.00  0.00     0.163 HD
ATOM     34  O   UNL A   1      32.449  31.920  27.061  1.00  0.00    -0.269 OA
BRANCH  32  35
ATOM     35  C   UNL A   1      34.473  30.867  27.617  1.00  0.00     0.039 A 
ATOM     36  C   UNL A   1      34.626  29.655  28.294  1.00  0.00     0.014 A 
ATOM     37  C   UNL A   1      35.445  31.866  27.717  1.00  0.00     0.014 A 
ATOM     38  C   UNL A   1      35.790  29.421  29.029  1.00  0.00     0.010 A 
ATOM     39  C   UNL A   1      36.633  31.601  28.385  1.00  0.00     0.010 A 
ATOM     40  C   UNL A   1      36.815  30.380  29.055  1.00  0.00    -0.014 A 
BRANCH  40  41
ATOM     41  C   UNL A   1      38.090  30.154  29.782  1.00  0.00     0.031 A 
ATOM     42  C   UNL A   1      39.108  29.205  29.212  1.00  0.00     0.074 A 
ATOM     43  C   UNL A   1      38.274  30.699  31.000  1.00  0.00     0.049 A 
ATOM     44  N   UNL A   1      40.203  28.744  29.756  1.00  0.00    -0.248 NA
ATOM     45  C   UNL A   1      38.839  28.677  27.863  1.00  0.00     0.031 C 
ATOM     46  C   UNL A   1      37.334  31.589  31.684  1.00  0.00     0.029 A 
ATOM     47  N   UNL A   1      39.302  30.549  31.899  1.00  0.00    -0.354 N 
ATOM     48  C   UNL A   1      40.726  27.836  28.843  1.00  0.00     0.074 A 
ATOM     49  C   UNL A   1      39.814  27.791  27.721  1.00  0.00     0.031 C 
ATOM     50  C   UNL A   1      37.821  31.897  32.896  1.00  0.00     0.029 A 
ATOM     51  C   UNL A   1      39.087  31.195  33.095  1.00  0.00     0.049 A 
ATOM     52  H   UNL A   1      40.115  30.029  31.707  1.00  0.00     0.167 HD
ATOM     53  C   UNL A   1      41.872  27.123  28.920  1.00  0.00     0.034 A 
ATOM     54  C   UNL A   1      39.813  31.203  34.229  1.00  0.00     0.034 A 
ATOM     55  C   UNL A   1      42.797  27.207  30.017  1.00  0.00     0.049 A 
ATOM     56  C   UNL A   1      41.101  30.424  34.278  1.00  0.00     0.074 A 
ATOM     57  C   UNL A   1      44.025  26.588  30.156  1.00  0.00     0.029 A 
ATOM     58  N   UNL A   1      42.590  27.952  31.168  1.00  0.00    -0.354 N 
ATOM     59  N   UNL A   1      41.645  29.673  33.352  1.00  0.00    -0.248 NA
ATOM     60  C   UNL A   1      41.891  30.519  35.513  1.00  0.00     0.031 C 
ATOM     61  C   UNL A   1      44.550  26.936  31.404  1.00  0.00     0.029 A 
ATOM     62  C   UNL A   1      43.666  27.805  32.024  1.00  0.00     0.049 A 
ATOM     63  H   UNL A   1      41.796  28.504  31.349  1.00  0.00     0.167 HD
ATOM     64  C   UNL A   1      42.863  29.249  33.871  1.00  0.00     0.074 A 
ATOM     65  C   UNL A   1      42.979  29.831  35.193  1.00  0.00     0.031 C 
ATOM     66  C   UNL A   1      43.798  28.445  33.307  1.00  0.00     0.034 A 
BRANCH  53  67
ATOM     67  C   UNL A   1      42.215  26.216  27.766  1.00  0.00     0.023 A 
ATOM     68  C   UNL A   1      43.017  26.698  26.712  1.00  0.00     0.012 A 
ATOM     69  C   UNL A   1      41.790  24.874  27.752  1.00  0.00     0.148 A 
ATOM     70  C   UNL A   1      43.358  25.870  25.642  1.00  0.00     0.002 A 
ATOM     71  C   UNL A   1      42.175  24.041  26.709  1.00  0.00     0.091 A 
ATOM     72  F   UNL A   1      41.011  24.438  28.753  1.00  0.00    -0.205 F 
ATOM     73  C   UNL A   1      42.947  24.541  25.647  1.00  0.00     0.022 A 
BRANCH  71  74
ATOM     74  S   UNL A   1      41.768  22.291  26.663  1.00  0.00     0.127 S 
ATOM     75  O   UNL A   1      42.213  21.921  25.321  1.00  0.00    -0.237 OA
ATOM     76  O   UNL A   1      42.591  21.757  27.748  1.00  0.00    -0.237 OA
ATOM     77  O   UNL A   1      40.333  22.206  26.890  1.00  0.00    -0.744 OA
ENDBRANCH  71  74
ENDBRANCH  53  67
BRANCH  54  78
ATOM     78  C   UNL A   1      39.368  32.017  35.396  1.00  0.00     0.023 A 
ATOM     79  C   UNL A   1      38.511  31.442  36.354  1.00  0.00     0.012 A 
ATOM     80  C   UNL A   1      39.801  33.345  35.574  1.00  0.00     0.148 A 
ATOM     81  C   UNL A   1      38.064  32.183  37.448  1.00  0.00     0.002 A 
ATOM     82  C   UNL A   1      39.398  34.061  36.695  1.00  0.00     0.091 A 
ATOM     83  F   UNL A   1      40.611  33.878  34.647  1.00  0.00    -0.205 F 
ATOM     84  C   UNL A   1      38.514  33.488  37.623  1.00  0.00     0.022 A 
BRANCH  82  85
ATOM     85  S   UNL A   1      40.028  35.701  37.071  1.00  0.00     0.127 S 
ATOM     86  O   UNL A   1      39.643  36.451  35.878  1.00  0.00    -0.237 OA
ATOM     87  O   UNL A   1      39.280  36.040  38.281  1.00  0.00    -0.237 OA
ATOM     88  O   UNL A   1      41.460  35.535  37.278  1.00  0.00    -0.744 OA
ENDBRANCH  82  85
ENDBRANCH  54  78
BRANCH  66  89
ATOM     89  C   UNL A   1      45.071  28.197  34.071  1.00  0.00     0.023 A 
ATOM     90  C   UNL A   1      46.180  29.047  33.898  1.00  0.00     0.012 A 
ATOM     91  C   UNL A   1      45.124  27.176  35.041  1.00  0.00     0.148 A 
ATOM     92  C   UNL A   1      47.333  28.869  34.664  1.00  0.00     0.002 A 
ATOM     93  C   UNL A   1      46.254  27.039  35.836  1.00  0.00     0.091 A 
ATOM     94  F   UNL A   1      44.062  26.368  35.175  1.00  0.00    -0.205 F 
ATOM     95  C   UNL A   1      47.364  27.876  35.641  1.00  0.00     0.022 A 
BRANCH  93  96
ATOM     96  S   UNL A   1      46.344  25.858  37.187  1.00  0.00     0.127 S 
ATOM     97  O   UNL A   1      47.650  26.167  37.766  1.00  0.00    -0.237 OA
ATOM     98  O   UNL A   1      45.202  26.248  38.014  1.00  0.00    -0.237 OA
ATOM     99  O   UNL A   1      46.230  24.539  36.579  1.00  0.00    -0.744 OA
ENDBRANCH  93  96
ENDBRANCH  66  89
ENDBRANCH  40  41
ENDBRANCH  32  35
ENDBRANCH  30  31
ENDBRANCH  29  30
ENDBRANCH  28  29
ENDBRANCH   1  28
TORSDOF 20
ENDMDL
MODEL 2
REMARK VINA RESULT:     -11.2      1.261      2.008
REMARK SMILES Cc1ccc(C(N)=O)c(NCc2ccc(C(=O)NCCCCCCNC(=O)c3ccc(-c4c5nc(c(-c6cccc(S(=O)(=O)[O-])c6F)c6ccc([nH]6)c(-c6cccc(S(=O)(=O)[O-])c6F)c6nc(c(-c7cccc(S(=O)(=O)[O-])c7F)c7ccc4[nH]7)C=C6)C=C5)cc3)o2)n1
REMARK SMILES IDX 21 1 20 2 19 3 18 4 16 5 17 6 15 8 12 9 13 10 91 11 14 12
REMARK SMILES IDX 11 13 10 14 9 16 1 17 2 18 3 19 92 20 4 21 5 22 6 23 7 24
REMARK SMILES IDX 8 25 22 28 23 29 24 30 25 31 26 32 27 34 28 35 29 36 90 37
REMARK SMILES IDX 30 38 89 39 31 40 32 41 33 42 83 43 34 44 88 45 82 46 84 47
REMARK SMILES IDX 35 48 87 49 81 50 80 51 36 53 68 54 48 55 67 56 49 57 52 58
REMARK SMILES IDX 66 59 85 60 50 61 51 62 65 64 86 65 53 66 37 67 38 68 46 69
REMARK SMILES IDX 39 70 41 71 47 72 40 73 42 74 43 75 44 76 45 77 69 78 70 79
REMARK SMILES IDX 78 80 71 81 73 82 79 83 72 84 74 85 75 86 76 87 77 88 54 89
REMARK SMILES IDX 55 90 63 91 56 92 58 93 64 94 57 95 59 96 60 97 61 98 62 99
REMARK H PARENT 18 7 10 15 7 26 7 27 25 33 84 52 52 63
REMARK Flexibility Score: inf
ROOT
ATOM      1  C   UNL A   1      31.081  25.843  25.813  1.00  0.00     0.002 C 
ENDROOT
BRANCH   1   2
ATOM      2  C   UNL A   1      30.449  25.976  24.420  1.00  0.00     0.021 C 
BRANCH   2   3
ATOM      3  C   UNL A   1      30.829  24.832  23.481  1.00  0.00     0.116 C 
BRANCH   3   4
ATOM      4  N   UNL A   1      31.775  25.287  22.484  1.00  0.00    -0.349 N 
ATOM      5  C   UNL A   1      33.149  25.271  22.453  1.00  0.00     0.286 C 
ATOM      6  O   UNL A   1      33.658  25.707  21.416  1.00  0.00    -0.266 OA
ATOM      7  H   UNL A   1      31.358  25.678  21.683  1.00  0.00     0.163 HD
BRANCH   5   8
ATOM      8  C   UNL A   1      33.936  24.752  23.557  1.00  0.00     0.191 A 
ATOM      9  C   UNL A   1      34.956  23.096  24.622  1.00  0.00     0.124 A 
ATOM     10  C   UNL A   1      35.092  24.208  25.419  1.00  0.00     0.048 A 
ATOM     11  O   UNL A   1      34.252  23.412  23.501  1.00  0.00    -0.454 OA
ATOM     12  C   UNL A   1      34.504  25.278  24.706  1.00  0.00     0.056 A 
BRANCH   9  13
ATOM     13  C   UNL A   1      35.443  21.692  24.737  1.00  0.00     0.190 C 
BRANCH  13  14
ATOM     14  N   UNL A   1      34.464  20.803  25.341  1.00  0.00    -0.362 N 
ATOM     15  H   UNL A   1      34.190  20.948  26.275  1.00  0.00     0.162 HD
BRANCH  14  16
ATOM     16  C   UNL A   1      33.915  19.757  24.625  1.00  0.00     0.139 A 
ATOM     17  C   UNL A   1      34.780  16.201  24.185  1.00  0.00     0.067 C 
ATOM     18  C   UNL A   1      34.040  17.495  24.031  1.00  0.00     0.040 A 
ATOM     19  C   UNL A   1      32.913  17.585  23.231  1.00  0.00     0.024 A 
ATOM     20  N   UNL A   1      34.541  18.558  24.704  1.00  0.00    -0.236 NA
ATOM     21  C   UNL A   1      32.274  18.815  23.130  1.00  0.00     0.019 A 
ATOM     22  C   UNL A   1      32.780  19.923  23.822  1.00  0.00     0.081 A 
BRANCH  22  23
ATOM     23  C   UNL A   1      32.066  21.211  23.638  1.00  0.00     0.252 C 
ATOM     24  N   UNL A   1      31.903  21.676  22.364  1.00  0.00    -0.365 N 
ATOM     25  O   UNL A   1      31.604  21.826  24.593  1.00  0.00    -0.269 OA
ATOM     26  H   UNL A   1      32.279  21.175  21.605  1.00  0.00     0.159 HD
ATOM     27  H   UNL A   1      31.409  22.514  22.204  1.00  0.00     0.159 HD
ENDBRANCH  22  23
ENDBRANCH  14  16
ENDBRANCH  13  14
ENDBRANCH   9  13
ENDBRANCH   5   8
ENDBRANCH   3   4
ENDBRANCH   2   3
ENDBRANCH   1   2
BRANCH   1  28
ATOM     28  C   UNL A   1      31.891  27.063  26.271  1.00  0.00     0.002 C 
BRANCH  28  29
ATOM     29  C   UNL A   1      32.119  28.125  25.192  1.00  0.00     0.021 C 
BRANCH  29  30
ATOM     30  C   UNL A   1      33.223  29.121  25.527  1.00  0.00     0.116 C 
BRANCH  30  31
ATOM     31  N   UNL A   1      32.685  30.452  25.773  1.00  0.00    -0.352 N 
ATOM     32  C   UNL A   1      33.000  31.332  26.782  1.00  0.00     0.251 C 
ATOM     33  H   UNL A   1      32.006  30.764  25.132  1.00  0.00     0.163 HD
ATOM     34  O   UNL A   1      32.309  32.319  26.986  1.00  0.00    -0.269 OA
BRANCH  32  35
ATOM     35  C   UNL A   1      34.183  31.055  27.622  1.00  0.00     0.039 A 
ATOM     36  C   UNL A   1      34.425  29.751  28.060  1.00  0.00     0.014 A 
ATOM     37  C   UNL A   1      35.064  32.090  27.948  1.00  0.00     0.014 A 
ATOM     38  C   UNL A   1      35.588  29.473  28.780  1.00  0.00     0.010 A 
ATOM     39  C   UNL A   1      36.255  31.796  28.598  1.00  0.00     0.010 A 
ATOM     40  C   UNL A   1      36.526  30.487  29.028  1.00  0.00    -0.014 A 
BRANCH  40  41
ATOM     41  C   UNL A   1      37.799  30.227  29.747  1.00  0.00     0.031 A 
ATOM     42  C   UNL A   1      38.798  29.270  29.158  1.00  0.00     0.074 A 
ATOM     43  C   UNL A   1      37.998  30.748  30.973  1.00  0.00     0.049 A 
ATOM     44  N   UNL A   1      39.887  28.780  29.690  1.00  0.00    -0.248 NA
ATOM     45  C   UNL A   1      38.516  28.768  27.801  1.00  0.00     0.031 C 
ATOM     46  C   UNL A   1      37.076  31.643  31.675  1.00  0.00     0.029 A 
ATOM     47  N   UNL A   1      39.025  30.565  31.866  1.00  0.00    -0.354 N 
ATOM     48  C   UNL A   1      40.391  27.879  28.760  1.00  0.00     0.074 A 
ATOM     49  C   UNL A   1      39.475  27.868  27.641  1.00  0.00     0.031 C 
ATOM     50  C   UNL A   1      37.573  31.923  32.890  1.00  0.00     0.029 A 
ATOM     51  C   UNL A   1      38.826  31.196  33.072  1.00  0.00     0.049 A 
ATOM     52  H   UNL A   1      39.829  30.034  31.662  1.00  0.00     0.167 HD
ATOM     53  C   UNL A   1      41.525  27.144  28.821  1.00  0.00     0.034 A 
ATOM     54  C   UNL A   1      39.556  31.172  34.204  1.00  0.00     0.034 A 
ATOM     55  C   UNL A   1      42.454  27.194  29.916  1.00  0.00     0.049 A 
ATOM     56  C   UNL A   1      40.830  30.370  34.235  1.00  0.00     0.074 A 
ATOM     57  C   UNL A   1      43.673  26.552  30.040  1.00  0.00     0.029 A 
ATOM     58  N   UNL A   1      42.265  27.924  31.080  1.00  0.00    -0.354 N 
ATOM     59  N   UNL A   1      41.358  29.625  33.295  1.00  0.00    -0.248 NA
ATOM     60  C   UNL A   1      41.627  30.431  35.469  1.00  0.00     0.031 C 
ATOM     61  C   UNL A   1      44.208  26.870  31.291  1.00  0.00     0.029 A 
ATOM     62  C   UNL A   1      43.341  27.744  31.929  1.00  0.00     0.049 A 
ATOM     63  H   UNL A   1      41.481  28.486  31.273  1.00  0.00     0.167 HD
ATOM     64  C   UNL A   1      42.570  29.171  33.803  1.00  0.00     0.074 A 
ATOM     65  C   UNL A   1      42.701  29.729  35.133  1.00  0.00     0.031 C 
ATOM     66  C   UNL A   1      43.489  28.361  33.222  1.00  0.00     0.034 A 
BRANCH  53  67
ATOM     67  C   UNL A   1      41.848  26.251  27.651  1.00  0.00     0.023 A 
ATOM     68  C   UNL A   1      42.516  26.781  26.529  1.00  0.00     0.012 A 
ATOM     69  C   UNL A   1      41.538  24.877  27.685  1.00  0.00     0.148 A 
ATOM     70  C   UNL A   1      42.838  25.968  25.443  1.00  0.00     0.002 A 
ATOM     71  C   UNL A   1      41.906  24.063  26.621  1.00  0.00     0.091 A 
ATOM     72  F   UNL A   1      40.884  24.395  28.751  1.00  0.00    -0.205 F 
ATOM     73  C   UNL A   1      42.543  24.609  25.494  1.00  0.00     0.022 A 
BRANCH  71  74
ATOM     74  S   UNL A   1      41.648  22.285  26.626  1.00  0.00     0.127 S 
ATOM     75  O   UNL A   1      42.278  21.893  25.366  1.00  0.00    -0.237 OA
ATOM     76  O   UNL A   1      42.374  21.873  27.826  1.00  0.00    -0.237 OA
ATOM     77  O   UNL A   1      40.206  22.089  26.690  1.00  0.00    -0.744 OA
ENDBRANCH  71  74
ENDBRANCH  53  67
BRANCH  54  78
ATOM     78  C   UNL A   1      39.129  31.974  35.386  1.00  0.00     0.023 A 
ATOM     79  C   UNL A   1      38.232  31.413  36.315  1.00  0.00     0.012 A 
ATOM     80  C   UNL A   1      39.619  33.276  35.606  1.00  0.00     0.148 A 
ATOM     81  C   UNL A   1      37.801  32.145  37.422  1.00  0.00     0.002 A 
ATOM     82  C   UNL A   1      39.230  33.980  36.740  1.00  0.00     0.091 A 
ATOM     83  F   UNL A   1      40.467  33.796  34.706  1.00  0.00    -0.205 F 
ATOM     84  C   UNL A   1      38.307  33.424  37.639  1.00  0.00     0.022 A 
BRANCH  82  85
ATOM     85  S   UNL A   1      39.928  35.579  37.169  1.00  0.00     0.127 S 
ATOM     86  O   UNL A   1      39.214  35.896  38.403  1.00  0.00    -0.237 OA
ATOM     87  O   UNL A   1      41.344  35.252  37.342  1.00  0.00    -0.237 OA
ATOM     88  O   UNL A   1      39.648  36.449  36.034  1.00  0.00    -0.744 OA
ENDBRANCH  82  85
ENDBRANCH  54  78
BRANCH  66  89
ATOM     89  C   UNL A   1      44.760  28.078  33.977  1.00  0.00     0.023 A 
ATOM     90  C   UNL A   1      45.862  28.947  33.863  1.00  0.00     0.012 A 
ATOM     91  C   UNL A   1      44.817  26.999  34.882  1.00  0.00     0.148 A 
ATOM     92  C   UNL A   1      47.012  28.733  34.624  1.00  0.00     0.002 A 
ATOM     93  C   UNL A   1      45.944  26.823  35.674  1.00  0.00     0.091 A 
ATOM     94  F   UNL A   1      43.763  26.174  34.960  1.00  0.00    -0.205 F 
ATOM     95  C   UNL A   1      47.047  27.681  35.538  1.00  0.00     0.022 A 
BRANCH  93  96
ATOM     96  S   UNL A   1      46.038  25.563  36.950  1.00  0.00     0.127 S 
ATOM     97  O   UNL A   1      45.854  24.338  36.173  1.00  0.00    -0.237 OA
ATOM     98  O   UNL A   1      47.390  25.756  37.476  1.00  0.00    -0.237 OA
ATOM     99  O   UNL A   1      44.972  25.864  37.896  1.00  0.00    -0.744 OA
ENDBRANCH  93  96
ENDBRANCH  66  89
ENDBRANCH  40  41
ENDBRANCH  32  35
ENDBRANCH  30  31
ENDBRANCH  29  30
ENDBRANCH  28  29
ENDBRANCH   1  28
TORSDOF 20
ENDMDL
MODEL 3
REMARK VINA RESULT:     -11.1      1.538      7.565
REMARK SMILES Cc1ccc(C(N)=O)c(NCc2ccc(C(=O)NCCCCCCNC(=O)c3ccc(-c4c5nc(c(-c6cccc(S(=O)(=O)[O-])c6F)c6ccc([nH]6)c(-c6cccc(S(=O)(=O)[O-])c6F)c6nc(c(-c7cccc(S(=O)(=O)[O-])c7F)c7ccc4[nH]7)C=C6)C=C5)cc3)o2)n1
REMARK SMILES IDX 21 1 20 2 19 3 18 4 16 5 17 6 15 8 12 9 13 10 91 11 14 12
REMARK SMILES IDX 11 13 10 14 9 16 1 17 2 18 3 19 92 20 4 21 5 22 6 23 7 24
REMARK SMILES IDX 8 25 22 28 23 29 24 30 25 31 26 32 27 34 28 35 29 36 90 37
REMARK SMILES IDX 30 38 89 39 31 40 32 41 33 42 83 43 34 44 88 45 82 46 84 47
REMARK SMILES IDX 35 48 87 49 81 50 80 51 36 53 68 54 48 55 67 56 49 57 52 58
REMARK SMILES IDX 66 59 85 60 50 61 51 62 65 64 86 65 53 66 37 67 38 68 46 69
REMARK SMILES IDX 39 70 41 71 47 72 40 73 42 74 43 75 44 76 45 77 69 78 70 79
REMARK SMILES IDX 78 80 71 81 73 82 79 83 72 84 74 85 75 86 76 87 77 88 54 89
REMARK SMILES IDX 55 90 63 91 56 92 58 93 64 94 57 95 59 96 60 97 61 98 62 99
REMARK H PARENT 18 7 10 15 7 26 7 27 25 33 84 52 52 63
REMARK Flexibility Score: inf
ROOT
ATOM      1  C   UNL A   1      32.535  29.095  23.145  1.00  0.00     0.002 C 
ENDROOT
BRANCH   1   2
ATOM      2  C   UNL A   1      31.031  29.041  22.838  1.00  0.00     0.021 C 
BRANCH   2   3
ATOM      3  C   UNL A   1      30.590  27.699  22.255  1.00  0.00     0.116 C 
BRANCH   3   4
ATOM      4  N   UNL A   1      31.710  27.019  21.639  1.00  0.00    -0.349 N 
ATOM      5  C   UNL A   1      32.296  25.804  21.899  1.00  0.00     0.286 C 
ATOM      6  O   UNL A   1      33.227  25.496  21.148  1.00  0.00    -0.266 OA
ATOM      7  H   UNL A   1      32.127  27.519  20.901  1.00  0.00     0.163 HD
BRANCH   5   8
ATOM      8  C   UNL A   1      31.830  24.939  22.967  1.00  0.00     0.191 A 
ATOM      9  C   UNL A   1      32.053  24.010  24.968  1.00  0.00     0.124 A 
ATOM     10  C   UNL A   1      30.909  23.477  24.422  1.00  0.00     0.048 A 
ATOM     11  O   UNL A   1      32.620  24.885  24.094  1.00  0.00    -0.454 OA
ATOM     12  C   UNL A   1      30.729  24.124  23.177  1.00  0.00     0.056 A 
BRANCH   9  13
ATOM     13  C   UNL A   1      32.730  23.839  26.285  1.00  0.00     0.190 C 
BRANCH  13  14
ATOM     14  N   UNL A   1      33.069  22.455  26.570  1.00  0.00    -0.362 N 
ATOM     15  H   UNL A   1      32.479  21.920  27.149  1.00  0.00     0.162 HD
BRANCH  14  16
ATOM     16  C   UNL A   1      34.209  21.879  26.042  1.00  0.00     0.139 A 
ATOM     17  C   UNL A   1      37.681  23.017  25.555  1.00  0.00     0.067 C 
ATOM     18  C   UNL A   1      36.481  22.120  25.526  1.00  0.00     0.040 A 
ATOM     19  C   UNL A   1      36.556  20.838  25.007  1.00  0.00     0.024 A 
ATOM     20  N   UNL A   1      35.331  22.638  26.022  1.00  0.00    -0.236 NA
ATOM     21  C   UNL A   1      35.406  20.059  25.008  1.00  0.00     0.019 A 
ATOM     22  C   UNL A   1      34.211  20.580  25.520  1.00  0.00     0.081 A 
BRANCH  22  23
ATOM     23  C   UNL A   1      33.015  19.703  25.456  1.00  0.00     0.252 C 
ATOM     24  N   UNL A   1      33.150  18.406  25.866  1.00  0.00    -0.365 N 
ATOM     25  O   UNL A   1      31.930  20.130  25.079  1.00  0.00    -0.269 OA
ATOM     26  H   UNL A   1      34.026  18.073  26.166  1.00  0.00     0.159 HD
ATOM     27  H   UNL A   1      32.369  17.805  25.863  1.00  0.00     0.159 HD
ENDBRANCH  22  23
ENDBRANCH  14  16
ENDBRANCH  13  14
ENDBRANCH   9  13
ENDBRANCH   5   8
ENDBRANCH   3   4
ENDBRANCH   2   3
ENDBRANCH   1   2
BRANCH   1  28
ATOM     28  C   UNL A   1      32.883  29.263  24.630  1.00  0.00     0.002 C 
BRANCH  28  29
ATOM     29  C   UNL A   1      31.755  29.833  25.494  1.00  0.00     0.021 C 
BRANCH  29  30
ATOM     30  C   UNL A   1      32.219  30.366  26.844  1.00  0.00     0.116 C 
BRANCH  30  31
ATOM     31  N   UNL A   1      32.293  31.821  26.848  1.00  0.00    -0.352 N 
ATOM     32  C   UNL A   1      33.210  32.632  27.476  1.00  0.00     0.251 C 
ATOM     33  H   UNL A   1      31.595  32.286  26.333  1.00  0.00     0.163 HD
ATOM     34  O   UNL A   1      33.015  33.835  27.570  1.00  0.00    -0.269 OA
BRANCH  32  35
ATOM     35  C   UNL A   1      34.428  32.019  28.044  1.00  0.00     0.039 A 
ATOM     36  C   UNL A   1      35.540  32.822  28.310  1.00  0.00     0.014 A 
ATOM     37  C   UNL A   1      34.451  30.653  28.336  1.00  0.00     0.014 A 
ATOM     38  C   UNL A   1      36.660  32.261  28.927  1.00  0.00     0.010 A 
ATOM     39  C   UNL A   1      35.534  30.116  29.017  1.00  0.00     0.010 A 
ATOM     40  C   UNL A   1      36.653  30.911  29.312  1.00  0.00    -0.014 A 
BRANCH  40  41
ATOM     41  C   UNL A   1      37.802  30.284  30.015  1.00  0.00     0.031 A 
ATOM     42  C   UNL A   1      38.115  30.691  31.428  1.00  0.00     0.074 A 
ATOM     43  C   UNL A   1      38.627  29.455  29.347  1.00  0.00     0.049 A 
ATOM     44  N   UNL A   1      39.154  30.394  32.163  1.00  0.00    -0.248 NA
ATOM     45  C   UNL A   1      37.145  31.580  32.093  1.00  0.00     0.031 C 
ATOM     46  C   UNL A   1      38.462  29.032  27.955  1.00  0.00     0.029 A 
ATOM     47  N   UNL A   1      39.796  28.851  29.740  1.00  0.00    -0.354 N 
ATOM     48  C   UNL A   1      38.991  31.096  33.352  1.00  0.00     0.074 A 
ATOM     49  C   UNL A   1      37.767  31.855  33.230  1.00  0.00     0.031 C 
ATOM     50  C   UNL A   1      39.494  28.248  27.608  1.00  0.00     0.029 A 
ATOM     51  C   UNL A   1      40.416  28.144  28.735  1.00  0.00     0.049 A 
ATOM     52  H   UNL A   1      40.156  28.916  30.653  1.00  0.00     0.167 HD
ATOM     53  C   UNL A   1      39.777  31.090  34.452  1.00  0.00     0.034 A 
ATOM     54  C   UNL A   1      41.603  27.506  28.716  1.00  0.00     0.034 A 
ATOM     55  C   UNL A   1      40.968  30.297  34.583  1.00  0.00     0.049 A 
ATOM     56  C   UNL A   1      42.444  27.491  29.965  1.00  0.00     0.074 A 
ATOM     57  C   UNL A   1      41.791  30.158  35.686  1.00  0.00     0.029 A 
ATOM     58  N   UNL A   1      41.511  29.515  33.575  1.00  0.00    -0.354 N 
ATOM     59  N   UNL A   1      42.207  28.055  31.124  1.00  0.00    -0.248 NA
ATOM     60  C   UNL A   1      43.697  26.724  29.916  1.00  0.00     0.031 C 
ATOM     61  C   UNL A   1      42.848  29.312  35.336  1.00  0.00     0.029 A 
ATOM     62  C   UNL A   1      42.660  28.893  34.028  1.00  0.00     0.049 A 
ATOM     63  H   UNL A   1      41.134  29.416  32.672  1.00  0.00     0.167 HD
ATOM     64  C   UNL A   1      43.254  27.671  31.956  1.00  0.00     0.074 A 
ATOM     65  C   UNL A   1      44.123  26.820  31.168  1.00  0.00     0.031 C 
ATOM     66  C   UNL A   1      43.477  27.996  33.253  1.00  0.00     0.034 A 
BRANCH  53  67
ATOM     67  C   UNL A   1      39.351  31.939  35.623  1.00  0.00     0.023 A 
ATOM     68  C   UNL A   1      39.726  33.296  35.677  1.00  0.00     0.012 A 
ATOM     69  C   UNL A   1      38.536  31.407  36.641  1.00  0.00     0.148 A 
ATOM     70  C   UNL A   1      39.329  34.102  36.744  1.00  0.00     0.002 A 
ATOM     71  C   UNL A   1      38.102  32.227  37.675  1.00  0.00     0.091 A 
ATOM     72  F   UNL A   1      38.206  30.108  36.584  1.00  0.00    -0.205 F 
ATOM     73  C   UNL A   1      38.509  33.571  37.735  1.00  0.00     0.022 A 
BRANCH  71  74
ATOM     74  S   UNL A   1      36.975  31.662  38.955  1.00  0.00     0.127 S 
ATOM     75  O   UNL A   1      36.733  30.280  38.544  1.00  0.00    -0.237 OA
ATOM     76  O   UNL A   1      37.787  31.807  40.163  1.00  0.00    -0.237 OA
ATOM     77  O   UNL A   1      35.819  32.544  38.889  1.00  0.00    -0.744 OA
ENDBRANCH  71  74
ENDBRANCH  53  67
BRANCH  54  78
ATOM     78  C   UNL A   1      42.043  26.784  27.489  1.00  0.00     0.023 A 
ATOM     79  C   UNL A   1      42.569  27.516  26.407  1.00  0.00     0.012 A 
ATOM     80  C   UNL A   1      41.964  25.381  27.394  1.00  0.00     0.148 A 
ATOM     81  C   UNL A   1      42.975  26.869  25.239  1.00  0.00     0.002 A 
ATOM     82  C   UNL A   1      42.421  24.737  26.250  1.00  0.00     0.091 A 
ATOM     83  F   UNL A   1      41.453  24.702  28.432  1.00  0.00    -0.205 F 
ATOM     84  C   UNL A   1      42.909  25.481  25.164  1.00  0.00     0.022 A 
BRANCH  82  85
ATOM     85  S   UNL A   1      42.496  22.947  26.115  1.00  0.00     0.127 S 
ATOM     86  O   UNL A   1      43.483  22.611  27.137  1.00  0.00    -0.237 OA
ATOM     87  O   UNL A   1      41.121  22.564  26.435  1.00  0.00    -0.237 OA
ATOM     88  O   UNL A   1      42.891  22.672  24.740  1.00  0.00    -0.744 OA
ENDBRANCH  82  85
ENDBRANCH  54  78
BRANCH  66  89
ATOM     89  C   UNL A   1      44.665  27.380  33.942  1.00  0.00     0.023 A 
ATOM     90  C   UNL A   1      45.896  28.064  33.982  1.00  0.00     0.012 A 
ATOM     91  C   UNL A   1      44.523  26.165  34.641  1.00  0.00     0.148 A 
ATOM     92  C   UNL A   1      46.976  27.534  34.689  1.00  0.00     0.002 A 
ATOM     93  C   UNL A   1      45.586  25.670  35.386  1.00  0.00     0.091 A 
ATOM     94  F   UNL A   1      43.348  25.523  34.573  1.00  0.00    -0.205 F 
ATOM     95  C   UNL A   1      46.816  26.346  35.401  1.00  0.00     0.022 A 
BRANCH  93  96
ATOM     96  S   UNL A   1      45.441  24.207  36.417  1.00  0.00     0.127 S 
ATOM     97  O   UNL A   1      44.544  23.369  35.621  1.00  0.00    -0.237 OA
ATOM     98  O   UNL A   1      46.824  23.734  36.478  1.00  0.00    -0.237 OA
ATOM     99  O   UNL A   1      44.899  24.662  37.691  1.00  0.00    -0.744 OA
ENDBRANCH  93  96
ENDBRANCH  66  89
ENDBRANCH  40  41
ENDBRANCH  32  35
ENDBRANCH  30  31
ENDBRANCH  29  30
ENDBRANCH  28  29
ENDBRANCH   1  28
TORSDOF 20
ENDMDL
