MODEL 1
REMARK VINA RESULT:     -13.3      0.000      0.000
REMARK SMILES Cc1c(CC(=O)NCCCCCCNC(=O)c2ccc(-c3c4nc(c(-c5cccc(S(=O)(=O)[O-])c5F)c5ccc([nH]5)c(-c5cccc(S(=O)(=O)[O-])c5F)c5nc(c(-c6cccc(S(=O)(=O)[O-])c6F)c6ccc3[nH]6)C=C5)C=C4)cc2)cc(-c2ccc(S(C)(=O)=O)cc2)n1-c1cccc(F)c1
REMARK SMILES IDX 10 1 9 2 8 3 7 4 5 5 6 6 4 8 3 9 1 10 2 11 92 12 80 13 81 14
REMARK SMILES IDX 93 15 94 16 99 17 95 18 97 19 96 20 98 21 82 22 83 23 91 24
REMARK SMILES IDX 84 25 90 26 85 27 86 28 87 29 88 30 89 31 11 32 12 33 13 34
REMARK SMILES IDX 14 35 15 36 16 38 17 39 18 40 79 41 19 42 78 43 20 44 21 45
REMARK SMILES IDX 22 46 72 47 23 48 77 49 71 50 73 51 24 52 76 53 70 54 69 55
REMARK SMILES IDX 25 57 57 58 37 59 56 60 38 61 41 62 55 63 74 64 39 65 40 66
REMARK SMILES IDX 54 68 75 69 42 70 26 71 27 72 35 73 28 74 30 75 36 76 29 77
REMARK SMILES IDX 31 78 32 79 33 80 34 81 58 82 59 83 67 84 60 85 62 86 68 87
REMARK SMILES IDX 61 88 63 89 64 90 65 91 66 92 43 93 44 94 52 95 45 96 47 97
REMARK SMILES IDX 53 98 46 99 48 100 49 101 50 102 51 103
REMARK H PARENT 7 7 14 37 73 56 41 67
REMARK Flexibility Score: inf
ROOT
ATOM      1  C   UNL A   1      36.364  22.053  24.568  1.00  0.00     0.002 C 
ENDROOT
BRANCH   1   2
ATOM      2  C   UNL A   1      35.695  21.005  25.466  1.00  0.00     0.021 C 
BRANCH   2   3
ATOM      3  C   UNL A   1      34.734  20.068  24.736  1.00  0.00     0.116 C 
BRANCH   3   4
ATOM      4  N   UNL A   1      33.377  20.196  25.238  1.00  0.00    -0.356 N 
ATOM      5  C   UNL A   1      32.414  21.101  24.891  1.00  0.00     0.224 C 
ATOM      6  O   UNL A   1      31.333  21.062  25.486  1.00  0.00    -0.275 OA
ATOM      7  H   UNL A   1      33.115  19.539  25.922  1.00  0.00     0.163 HD
BRANCH   5   8
ATOM      8  C   UNL A   1      32.649  22.082  23.754  1.00  0.00     0.137 C 
BRANCH   8   9
ATOM      9  C   UNL A   1      32.305  23.493  24.103  1.00  0.00    -0.017 A 
ATOM     10  C   UNL A   1      33.710  23.875  26.244  1.00  0.00     0.065 C 
ATOM     11  C   UNL A   1      32.790  24.279  25.141  1.00  0.00     0.024 A 
ATOM     12  N   UNL A   1      32.217  25.547  25.040  1.00  0.00    -0.313 N 
ATOM     13  C   UNL A   1      31.362  24.275  23.404  1.00  0.00     0.033 A 
ATOM     14  C   UNL A   1      31.339  25.533  23.964  1.00  0.00     0.053 A 
BRANCH  12  15
ATOM     15  C   UNL A   1      32.472  26.659  25.893  1.00  0.00     0.049 A 
ATOM     16  C   UNL A   1      31.499  27.081  26.812  1.00  0.00     0.027 A 
ATOM     17  C   UNL A   1      33.671  27.366  25.769  1.00  0.00     0.065 A 
ATOM     18  C   UNL A   1      31.725  28.210  27.602  1.00  0.00     0.005 A 
ATOM     19  C   UNL A   1      33.874  28.495  26.556  1.00  0.00     0.125 A 
ATOM     20  C   UNL A   1      32.915  28.922  27.469  1.00  0.00     0.039 A 
ATOM     21  F   UNL A   1      35.012  29.189  26.425  1.00  0.00    -0.207 F 
ENDBRANCH  12  15
BRANCH  14  22
ATOM     22  C   UNL A   1      30.558  26.661  23.481  1.00  0.00    -0.001 A 
ATOM     23  C   UNL A   1      31.152  27.721  22.783  1.00  0.00     0.011 A 
ATOM     24  C   UNL A   1      29.180  26.656  23.732  1.00  0.00     0.011 A 
ATOM     25  C   UNL A   1      30.376  28.807  22.403  1.00  0.00     0.021 A 
ATOM     26  C   UNL A   1      28.401  27.729  23.350  1.00  0.00     0.021 A 
ATOM     27  C   UNL A   1      29.012  28.803  22.720  1.00  0.00     0.067 A 
BRANCH  27  28
ATOM     28  S   UNL A   1      28.031  30.226  22.381  1.00  0.00     0.175 S 
ATOM     29  C   UNL A   1      29.081  31.522  23.024  1.00  0.00     0.163 C 
ATOM     30  O   UNL A   1      27.896  30.232  20.948  1.00  0.00    -0.224 OA
ATOM     31  O   UNL A   1      26.861  30.154  23.242  1.00  0.00    -0.224 OA
ENDBRANCH  27  28
ENDBRANCH  14  22
ENDBRANCH   8   9
ENDBRANCH   5   8
ENDBRANCH   3   4
ENDBRANCH   2   3
ENDBRANCH   1   2
BRANCH   1  32
ATOM     32  C   UNL A   1      37.776  22.488  24.984  1.00  0.00     0.002 C 
BRANCH  32  33
ATOM     33  C   UNL A   1      38.644  21.445  25.714  1.00  0.00     0.021 C 
BRANCH  33  34
ATOM     34  C   UNL A   1      39.753  21.959  26.660  1.00  0.00     0.116 C 
BRANCH  34  35
ATOM     35  N   UNL A   1      40.922  22.473  25.987  1.00  0.00    -0.352 N 
ATOM     36  C   UNL A   1      41.677  23.592  26.305  1.00  0.00     0.251 C 
ATOM     37  H   UNL A   1      41.223  21.962  25.201  1.00  0.00     0.163 HD
ATOM     38  O   UNL A   1      42.640  23.835  25.578  1.00  0.00    -0.269 OA
BRANCH  36  39
ATOM     39  C   UNL A   1      41.280  24.555  27.404  1.00  0.00     0.039 A 
ATOM     40  C   UNL A   1      39.987  25.051  27.394  1.00  0.00     0.014 A 
ATOM     41  C   UNL A   1      42.179  25.182  28.287  1.00  0.00     0.014 A 
ATOM     42  C   UNL A   1      39.607  26.112  28.272  1.00  0.00     0.010 A 
ATOM     43  C   UNL A   1      41.802  26.324  29.120  1.00  0.00     0.010 A 
ATOM     44  C   UNL A   1      40.503  26.861  29.126  1.00  0.00    -0.014 A 
BRANCH  44  45
ATOM     45  C   UNL A   1      40.012  28.376  29.471  1.00  0.00     0.031 A 
ATOM     46  C   UNL A   1      41.280  29.128  29.295  1.00  0.00     0.074 A 
ATOM     47  C   UNL A   1      39.002  29.162  30.043  1.00  0.00     0.049 A 
ATOM     48  N   UNL A   1      42.350  28.703  29.916  1.00  0.00    -0.248 NA
ATOM     49  C   UNL A   1      41.557  30.055  28.201  1.00  0.00     0.031 C 
ATOM     50  C   UNL A   1      37.870  28.717  30.859  1.00  0.00     0.029 A 
ATOM     51  N   UNL A   1      38.697  30.568  30.020  1.00  0.00    -0.354 N 
ATOM     52  C   UNL A   1      43.313  29.621  29.649  1.00  0.00     0.074 A 
ATOM     53  C   UNL A   1      42.879  30.189  28.376  1.00  0.00     0.031 C 
ATOM     54  C   UNL A   1      36.909  29.678  31.006  1.00  0.00     0.029 A 
ATOM     55  C   UNL A   1      37.350  30.939  30.427  1.00  0.00     0.049 A 
ATOM     56  H   UNL A   1      39.361  31.240  29.745  1.00  0.00     0.167 HD
ATOM     57  C   UNL A   1      43.776  30.260  30.765  1.00  0.00     0.034 A 
ATOM     58  C   UNL A   1      36.683  32.168  30.469  1.00  0.00     0.034 A 
ATOM     59  C   UNL A   1      43.322  31.619  30.850  1.00  0.00     0.049 A 
ATOM     60  C   UNL A   1      37.755  33.095  30.848  1.00  0.00     0.074 A 
ATOM     61  C   UNL A   1      43.133  32.615  29.910  1.00  0.00     0.029 A 
ATOM     62  N   UNL A   1      42.547  31.948  31.939  1.00  0.00    -0.354 N 
ATOM     63  N   UNL A   1      38.178  33.158  32.077  1.00  0.00    -0.248 NA
ATOM     64  C   UNL A   1      38.315  34.075  29.931  1.00  0.00     0.031 C 
ATOM     65  C   UNL A   1      41.895  33.200  30.246  1.00  0.00     0.029 A 
ATOM     66  C   UNL A   1      41.577  32.851  31.549  1.00  0.00     0.049 A 
ATOM     67  H   UNL A   1      42.665  31.596  32.851  1.00  0.00     0.167 HD
ATOM     68  C   UNL A   1      39.394  33.743  31.933  1.00  0.00     0.074 A 
ATOM     69  C   UNL A   1      39.297  34.527  30.715  1.00  0.00     0.031 C 
ATOM     70  C   UNL A   1      40.448  33.048  32.421  1.00  0.00     0.034 A 
BRANCH  57  71
ATOM     71  C   UNL A   1      44.021  29.353  31.960  1.00  0.00     0.023 A 
ATOM     72  C   UNL A   1      45.269  28.716  32.030  1.00  0.00     0.012 A 
ATOM     73  C   UNL A   1      43.022  28.991  32.910  1.00  0.00     0.148 A 
ATOM     74  C   UNL A   1      45.502  27.709  32.971  1.00  0.00     0.002 A 
ATOM     75  C   UNL A   1      43.223  27.915  33.769  1.00  0.00     0.091 A 
ATOM     76  F   UNL A   1      41.890  29.710  32.976  1.00  0.00    -0.205 F 
ATOM     77  C   UNL A   1      44.471  27.280  33.810  1.00  0.00     0.022 A 
BRANCH  75  78
ATOM     78  S   UNL A   1      41.872  27.157  34.700  1.00  0.00     0.127 S 
ATOM     79  O   UNL A   1      42.297  25.757  34.798  1.00  0.00    -0.237 OA
ATOM     80  O   UNL A   1      41.895  27.880  35.966  1.00  0.00    -0.237 OA
ATOM     81  O   UNL A   1      40.663  27.338  33.903  1.00  0.00    -0.744 OA
ENDBRANCH  75  78
ENDBRANCH  57  71
BRANCH  58  82
ATOM     82  C   UNL A   1      35.326  32.934  30.697  1.00  0.00     0.023 A 
ATOM     83  C   UNL A   1      34.849  33.092  32.045  1.00  0.00     0.012 A 
ATOM     84  C   UNL A   1      34.805  33.887  29.782  1.00  0.00     0.148 A 
ATOM     85  C   UNL A   1      34.052  34.168  32.486  1.00  0.00     0.002 A 
ATOM     86  C   UNL A   1      33.962  34.947  30.223  1.00  0.00     0.091 A 
ATOM     87  F   UNL A   1      35.211  33.826  28.508  1.00  0.00    -0.205 F 
ATOM     88  C   UNL A   1      33.619  35.106  31.574  1.00  0.00     0.022 A 
BRANCH  86  89
ATOM     89  S   UNL A   1      33.314  36.253  29.148  1.00  0.00     0.127 S 
ATOM     90  O   UNL A   1      32.254  35.561  28.411  1.00  0.00    -0.237 OA
ATOM     91  O   UNL A   1      32.829  37.234  30.119  1.00  0.00    -0.237 OA
ATOM     92  O   UNL A   1      34.439  36.679  28.329  1.00  0.00    -0.744 OA
ENDBRANCH  86  89
ENDBRANCH  58  82
BRANCH  70  93
ATOM     93  C   UNL A   1      40.278  32.343  33.752  1.00  0.00     0.023 A 
ATOM     94  C   UNL A   1      39.611  31.113  33.949  1.00  0.00     0.012 A 
ATOM     95  C   UNL A   1      40.832  32.973  34.876  1.00  0.00     0.148 A 
ATOM     96  C   UNL A   1      39.480  30.553  35.227  1.00  0.00     0.002 A 
ATOM     97  C   UNL A   1      40.744  32.395  36.136  1.00  0.00     0.091 A 
ATOM     98  F   UNL A   1      41.440  34.156  34.691  1.00  0.00    -0.205 F 
ATOM     99  C   UNL A   1      40.061  31.187  36.321  1.00  0.00     0.022 A 
BRANCH  97 100
ATOM    100  S   UNL A   1      41.525  33.181  37.545  1.00  0.00     0.127 S 
ATOM    101  O   UNL A   1      40.842  34.474  37.586  1.00  0.00    -0.237 OA
ATOM    102  O   UNL A   1      41.206  32.286  38.653  1.00  0.00    -0.237 OA
ATOM    103  O   UNL A   1      42.946  33.238  37.213  1.00  0.00    -0.744 OA
ENDBRANCH  97 100
ENDBRANCH  70  93
ENDBRANCH  44  45
ENDBRANCH  36  39
ENDBRANCH  34  35
ENDBRANCH  33  34
ENDBRANCH  32  33
ENDBRANCH   1  32
TORSDOF 20
ENDMDL
MODEL 2
REMARK VINA RESULT:     -13.1      3.804      9.624
REMARK SMILES Cc1c(CC(=O)NCCCCCCNC(=O)c2ccc(-c3c4nc(c(-c5cccc(S(=O)(=O)[O-])c5F)c5ccc([nH]5)c(-c5cccc(S(=O)(=O)[O-])c5F)c5nc(c(-c6cccc(S(=O)(=O)[O-])c6F)c6ccc3[nH]6)C=C5)C=C4)cc2)cc(-c2ccc(S(C)(=O)=O)cc2)n1-c1cccc(F)c1
REMARK SMILES IDX 10 1 9 2 8 3 7 4 5 5 6 6 4 8 3 9 1 10 2 11 92 12 80 13 81 14
REMARK SMILES IDX 93 15 94 16 99 17 95 18 97 19 96 20 98 21 82 22 83 23 91 24
REMARK SMILES IDX 84 25 90 26 85 27 86 28 87 29 88 30 89 31 11 32 12 33 13 34
REMARK SMILES IDX 14 35 15 36 16 38 17 39 18 40 79 41 19 42 78 43 20 44 21 45
REMARK SMILES IDX 22 46 72 47 23 48 77 49 71 50 73 51 24 52 76 53 70 54 69 55
REMARK SMILES IDX 25 57 57 58 37 59 56 60 38 61 41 62 55 63 74 64 39 65 40 66
REMARK SMILES IDX 54 68 75 69 42 70 26 71 27 72 35 73 28 74 30 75 36 76 29 77
REMARK SMILES IDX 31 78 32 79 33 80 34 81 58 82 59 83 67 84 60 85 62 86 68 87
REMARK SMILES IDX 61 88 63 89 64 90 65 91 66 92 43 93 44 94 52 95 45 96 47 97
REMARK SMILES IDX 53 98 46 99 48 100 49 101 50 102 51 103
REMARK H PARENT 7 7 14 37 73 56 41 67
REMARK Flexibility Score: inf
ROOT
ATOM      1  C   UNL A   1      31.461  30.323  25.886  1.00  0.00     0.002 C 
ENDROOT
BRANCH   1   2
ATOM      2  C   UNL A   1      31.636  29.659  24.514  1.00  0.00     0.021 C 
BRANCH   2   3
ATOM      3  C   UNL A   1      30.330  29.415  23.759  1.00  0.00     0.116 C 
BRANCH   3   4
ATOM      4  N   UNL A   1      30.537  28.580  22.588  1.00  0.00    -0.356 N 
ATOM      5  C   UNL A   1      30.679  27.223  22.514  1.00  0.00     0.224 C 
ATOM      6  O   UNL A   1      30.899  26.718  21.410  1.00  0.00    -0.275 OA
ATOM      7  H   UNL A   1      30.580  29.059  21.729  1.00  0.00     0.163 HD
BRANCH   5   8
ATOM      8  C   UNL A   1      30.498  26.359  23.751  1.00  0.00     0.137 C 
BRANCH   8   9
ATOM      9  C   UNL A   1      31.516  25.273  23.873  1.00  0.00    -0.017 A 
ATOM     10  C   UNL A   1      33.729  26.616  23.943  1.00  0.00     0.065 C 
ATOM     11  C   UNL A   1      32.896  25.380  24.002  1.00  0.00     0.024 A 
ATOM     12  N   UNL A   1      33.429  24.098  24.133  1.00  0.00    -0.313 N 
ATOM     13  C   UNL A   1      31.214  23.896  23.851  1.00  0.00     0.033 A 
ATOM     14  C   UNL A   1      32.381  23.190  24.041  1.00  0.00     0.053 A 
BRANCH  12  15
ATOM     15  C   UNL A   1      34.802  23.769  24.317  1.00  0.00     0.049 A 
ATOM     16  C   UNL A   1      35.493  23.049  23.330  1.00  0.00     0.027 A 
ATOM     17  C   UNL A   1      35.442  24.112  25.511  1.00  0.00     0.065 A 
ATOM     18  C   UNL A   1      36.822  22.672  23.541  1.00  0.00     0.005 A 
ATOM     19  C   UNL A   1      36.762  23.718  25.708  1.00  0.00     0.125 A 
ATOM     20  C   UNL A   1      37.456  23.004  24.736  1.00  0.00     0.039 A 
ATOM     21  F   UNL A   1      37.373  24.026  26.859  1.00  0.00    -0.207 F 
ENDBRANCH  12  15
BRANCH  14  22
ATOM     22  C   UNL A   1      32.487  21.745  24.164  1.00  0.00    -0.001 A 
ATOM     23  C   UNL A   1      32.818  21.133  25.380  1.00  0.00     0.011 A 
ATOM     24  C   UNL A   1      32.241  20.973  23.021  1.00  0.00     0.011 A 
ATOM     25  C   UNL A   1      32.974  19.755  25.430  1.00  0.00     0.021 A 
ATOM     26  C   UNL A   1      32.387  19.602  23.066  1.00  0.00     0.021 A 
ATOM     27  C   UNL A   1      32.782  19.013  24.259  1.00  0.00     0.067 A 
BRANCH  27  28
ATOM     28  S   UNL A   1      33.112  17.283  24.255  1.00  0.00     0.175 S 
ATOM     29  C   UNL A   1      34.846  17.269  24.688  1.00  0.00     0.163 C 
ATOM     30  O   UNL A   1      32.243  16.753  25.273  1.00  0.00    -0.224 OA
ATOM     31  O   UNL A   1      33.010  16.832  22.875  1.00  0.00    -0.224 OA
ENDBRANCH  27  28
ENDBRANCH  14  22
ENDBRANCH   8   9
ENDBRANCH   5   8
ENDBRANCH   3   4
ENDBRANCH   2   3
ENDBRANCH   1   2
BRANCH   1  32
ATOM     32  C   UNL A   1      31.817  29.456  27.101  1.00  0.00     0.002 C 
BRANCH  32  33
ATOM     33  C   UNL A   1      33.314  29.276  27.418  1.00  0.00     0.021 C 
BRANCH  33  34
ATOM     34  C   UNL A   1      34.244  30.497  27.246  1.00  0.00     0.116 C 
BRANCH  34  35
ATOM     35  N   UNL A   1      33.919  31.621  28.093  1.00  0.00    -0.352 N 
ATOM     36  C   UNL A   1      34.641  32.131  29.162  1.00  0.00     0.251 C 
ATOM     37  H   UNL A   1      33.076  32.084  27.885  1.00  0.00     0.163 HD
ATOM     38  O   UNL A   1      34.159  33.105  29.741  1.00  0.00    -0.269 OA
BRANCH  36  39
ATOM     39  C   UNL A   1      35.891  31.462  29.693  1.00  0.00     0.039 A 
ATOM     40  C   UNL A   1      37.062  31.606  28.967  1.00  0.00     0.014 A 
ATOM     41  C   UNL A   1      35.913  30.502  30.722  1.00  0.00     0.014 A 
ATOM     42  C   UNL A   1      38.221  30.840  29.296  1.00  0.00     0.010 A 
ATOM     43  C   UNL A   1      37.079  29.661  30.995  1.00  0.00     0.010 A 
ATOM     44  C   UNL A   1      38.278  29.773  30.270  1.00  0.00    -0.014 A 
BRANCH  44  45
ATOM     45  C   UNL A   1      39.422  28.648  29.987  1.00  0.00     0.031 A 
ATOM     46  C   UNL A   1      40.207  28.724  31.245  1.00  0.00     0.074 A 
ATOM     47  C   UNL A   1      40.050  27.855  29.016  1.00  0.00     0.049 A 
ATOM     48  N   UNL A   1      40.625  29.896  31.650  1.00  0.00    -0.248 NA
ATOM     49  C   UNL A   1      40.230  27.695  32.281  1.00  0.00     0.031 C 
ATOM     50  C   UNL A   1      39.936  27.959  27.560  1.00  0.00     0.029 A 
ATOM     51  N   UNL A   1      40.933  26.720  29.071  1.00  0.00    -0.354 N 
ATOM     52  C   UNL A   1      41.378  29.652  32.752  1.00  0.00     0.074 A 
ATOM     53  C   UNL A   1      40.824  28.399  33.255  1.00  0.00     0.031 C 
ATOM     54  C   UNL A   1      40.424  26.862  26.907  1.00  0.00     0.029 A 
ATOM     55  C   UNL A   1      41.064  25.949  27.844  1.00  0.00     0.049 A 
ATOM     56  H   UNL A   1      41.421  26.480  29.891  1.00  0.00     0.167 HD
ATOM     57  C   UNL A   1      42.686  30.019  32.606  1.00  0.00     0.034 A 
ATOM     58  C   UNL A   1      41.759  24.774  27.538  1.00  0.00     0.034 A 
ATOM     59  C   UNL A   1      43.563  28.890  32.471  1.00  0.00     0.049 A 
ATOM     60  C   UNL A   1      42.969  24.903  28.357  1.00  0.00     0.074 A 
ATOM     61  C   UNL A   1      43.598  27.642  33.063  1.00  0.00     0.029 A 
ATOM     62  N   UNL A   1      44.275  28.793  31.296  1.00  0.00    -0.354 N 
ATOM     63  N   UNL A   1      43.935  25.698  27.997  1.00  0.00    -0.248 NA
ATOM     64  C   UNL A   1      43.227  24.077  29.526  1.00  0.00     0.031 C 
ATOM     65  C   UNL A   1      43.865  26.747  32.006  1.00  0.00     0.029 A 
ATOM     66  C   UNL A   1      44.372  27.463  30.933  1.00  0.00     0.049 A 
ATOM     67  H   UNL A   1      44.653  29.550  30.793  1.00  0.00     0.167 HD
ATOM     68  C   UNL A   1      44.609  25.877  29.162  1.00  0.00     0.074 A 
ATOM     69  C   UNL A   1      44.341  24.684  29.944  1.00  0.00     0.031 C 
ATOM     70  C   UNL A   1      44.745  27.159  29.576  1.00  0.00     0.034 A 
BRANCH  57  71
ATOM     71  C   UNL A   1      42.897  31.364  31.929  1.00  0.00     0.023 A 
ATOM     72  C   UNL A   1      43.290  31.343  30.582  1.00  0.00     0.012 A 
ATOM     73  C   UNL A   1      42.876  32.615  32.609  1.00  0.00     0.148 A 
ATOM     74  C   UNL A   1      43.709  32.515  29.946  1.00  0.00     0.002 A 
ATOM     75  C   UNL A   1      43.397  33.755  32.004  1.00  0.00     0.091 A 
ATOM     76  F   UNL A   1      42.335  32.686  33.835  1.00  0.00    -0.205 F 
ATOM     77  C   UNL A   1      43.802  33.709  30.664  1.00  0.00     0.022 A 
BRANCH  75  78
ATOM     78  S   UNL A   1      43.769  35.259  32.935  1.00  0.00     0.127 S 
ATOM     79  O   UNL A   1      44.702  34.777  33.960  1.00  0.00    -0.237 OA
ATOM     80  O   UNL A   1      44.376  36.127  31.935  1.00  0.00    -0.237 OA
ATOM     81  O   UNL A   1      42.504  35.733  33.485  1.00  0.00    -0.744 OA
ENDBRANCH  75  78
ENDBRANCH  57  71
BRANCH  58  82
ATOM     82  C   UNL A   1      42.048  23.638  26.487  1.00  0.00     0.023 A 
ATOM     83  C   UNL A   1      43.187  23.785  25.619  1.00  0.00     0.012 A 
ATOM     84  C   UNL A   1      41.608  22.298  26.645  1.00  0.00     0.148 A 
ATOM     85  C   UNL A   1      43.915  22.708  25.075  1.00  0.00     0.002 A 
ATOM     86  C   UNL A   1      42.320  21.214  26.056  1.00  0.00     0.091 A 
ATOM     87  F   UNL A   1      40.565  22.066  27.451  1.00  0.00    -0.205 F 
ATOM     88  C   UNL A   1      43.489  21.418  25.306  1.00  0.00     0.022 A 
BRANCH  86  89
ATOM     89  S   UNL A   1      41.884  19.468  26.266  1.00  0.00     0.127 S 
ATOM     90  O   UNL A   1      42.832  18.795  25.374  1.00  0.00    -0.237 OA
ATOM     91  O   UNL A   1      42.147  19.258  27.689  1.00  0.00    -0.237 OA
ATOM     92  O   UNL A   1      40.491  19.362  25.858  1.00  0.00    -0.744 OA
ENDBRANCH  86  89
ENDBRANCH  58  82
BRANCH  70  93
ATOM     93  C   UNL A   1      45.064  28.211  28.534  1.00  0.00     0.023 A 
ATOM     94  C   UNL A   1      44.111  28.956  27.802  1.00  0.00     0.012 A 
ATOM     95  C   UNL A   1      46.421  28.459  28.281  1.00  0.00     0.148 A 
ATOM     96  C   UNL A   1      44.505  29.890  26.835  1.00  0.00     0.002 A 
ATOM     97  C   UNL A   1      46.813  29.420  27.356  1.00  0.00     0.091 A 
ATOM     98  F   UNL A   1      47.325  27.731  28.956  1.00  0.00    -0.205 F 
ATOM     99  C   UNL A   1      45.859  30.134  26.622  1.00  0.00     0.022 A 
BRANCH  97 100
ATOM    100  S   UNL A   1      48.552  29.773  27.105  1.00  0.00     0.127 S 
ATOM    101  O   UNL A   1      48.862  28.949  25.937  1.00  0.00    -0.237 OA
ATOM    102  O   UNL A   1      48.574  31.211  26.860  1.00  0.00    -0.237 OA
ATOM    103  O   UNL A   1      49.208  29.368  28.344  1.00  0.00    -0.744 OA
ENDBRANCH  97 100
ENDBRANCH  70  93
ENDBRANCH  44  45
ENDBRANCH  36  39
ENDBRANCH  34  35
ENDBRANCH  33  34
ENDBRANCH  32  33
ENDBRANCH   1  32
TORSDOF 20
ENDMDL
MODEL 3
REMARK VINA RESULT:     -12.8      1.697      2.119
REMARK SMILES Cc1c(CC(=O)NCCCCCCNC(=O)c2ccc(-c3c4nc(c(-c5cccc(S(=O)(=O)[O-])c5F)c5ccc([nH]5)c(-c5cccc(S(=O)(=O)[O-])c5F)c5nc(c(-c6cccc(S(=O)(=O)[O-])c6F)c6ccc3[nH]6)C=C5)C=C4)cc2)cc(-c2ccc(S(C)(=O)=O)cc2)n1-c1cccc(F)c1
REMARK SMILES IDX 10 1 9 2 8 3 7 4 5 5 6 6 4 8 3 9 1 10 2 11 92 12 80 13 81 14
REMARK SMILES IDX 93 15 94 16 99 17 95 18 97 19 96 20 98 21 82 22 83 23 91 24
REMARK SMILES IDX 84 25 90 26 85 27 86 28 87 29 88 30 89 31 11 32 12 33 13 34
REMARK SMILES IDX 14 35 15 36 16 38 17 39 18 40 79 41 19 42 78 43 20 44 21 45
REMARK SMILES IDX 22 46 72 47 23 48 77 49 71 50 73 51 24 52 76 53 70 54 69 55
REMARK SMILES IDX 25 57 57 58 37 59 56 60 38 61 41 62 55 63 74 64 39 65 40 66
REMARK SMILES IDX 54 68 75 69 42 70 26 71 27 72 35 73 28 74 30 75 36 76 29 77
REMARK SMILES IDX 31 78 32 79 33 80 34 81 58 82 59 83 67 84 60 85 62 86 68 87
REMARK SMILES IDX 61 88 63 89 64 90 65 91 66 92 43 93 44 94 52 95 45 96 47 97
REMARK SMILES IDX 53 98 46 99 48 100 49 101 50 102 51 103
REMARK H PARENT 7 7 14 37 73 56 41 67
REMARK Flexibility Score: inf
ROOT
ATOM      1  C   UNL A   1      35.030  21.717  23.817  1.00  0.00     0.002 C 
ENDROOT
BRANCH   1   2
ATOM      2  C   UNL A   1      34.717  20.751  24.967  1.00  0.00     0.021 C 
BRANCH   2   3
ATOM      3  C   UNL A   1      33.527  19.827  24.709  1.00  0.00     0.116 C 
BRANCH   3   4
ATOM      4  N   UNL A   1      32.332  20.289  25.394  1.00  0.00    -0.356 N 
ATOM      5  C   UNL A   1      31.577  21.401  25.150  1.00  0.00     0.224 C 
ATOM      6  O   UNL A   1      30.620  21.634  25.894  1.00  0.00    -0.275 OA
ATOM      7  H   UNL A   1      32.024  19.722  26.137  1.00  0.00     0.163 HD
BRANCH   5   8
ATOM      8  C   UNL A   1      31.870  22.285  23.949  1.00  0.00     0.137 C 
BRANCH   8   9
ATOM      9  C   UNL A   1      31.723  23.744  24.232  1.00  0.00    -0.017 A 
ATOM     10  C   UNL A   1      33.130  24.017  26.388  1.00  0.00     0.065 C 
ATOM     11  C   UNL A   1      32.297  24.498  25.249  1.00  0.00     0.024 A 
ATOM     12  N   UNL A   1      31.910  25.828  25.085  1.00  0.00    -0.313 N 
ATOM     13  C   UNL A   1      30.912  24.621  23.482  1.00  0.00     0.033 A 
ATOM     14  C   UNL A   1      31.058  25.892  23.989  1.00  0.00     0.053 A 
BRANCH  12  15
ATOM     15  C   UNL A   1      32.305  26.929  25.898  1.00  0.00     0.049 A 
ATOM     16  C   UNL A   1      31.388  27.516  26.783  1.00  0.00     0.027 A 
ATOM     17  C   UNL A   1      33.591  27.460  25.767  1.00  0.00     0.065 A 
ATOM     18  C   UNL A   1      31.758  28.636  27.533  1.00  0.00     0.005 A 
ATOM     19  C   UNL A   1      33.938  28.582  26.513  1.00  0.00     0.125 A 
ATOM     20  C   UNL A   1      33.036  29.173  27.393  1.00  0.00     0.039 A 
ATOM     21  F   UNL A   1      35.162  29.109  26.374  1.00  0.00    -0.207 F 
ENDBRANCH  12  15
BRANCH  14  22
ATOM     22  C   UNL A   1      30.453  27.097  23.444  1.00  0.00    -0.001 A 
ATOM     23  C   UNL A   1      31.217  28.071  22.789  1.00  0.00     0.011 A 
ATOM     24  C   UNL A   1      29.069  27.256  23.590  1.00  0.00     0.011 A 
ATOM     25  C   UNL A   1      30.605  29.235  22.346  1.00  0.00     0.021 A 
ATOM     26  C   UNL A   1      28.452  28.407  23.145  1.00  0.00     0.021 A 
ATOM     27  C   UNL A   1      29.231  29.395  22.559  1.00  0.00     0.067 A 
BRANCH  27  28
ATOM     28  S   UNL A   1      28.451  30.918  22.140  1.00  0.00     0.175 S 
ATOM     29  C   UNL A   1      27.355  31.131  23.536  1.00  0.00     0.163 C 
ATOM     30  O   UNL A   1      29.532  31.868  22.086  1.00  0.00    -0.224 OA
ATOM     31  O   UNL A   1      27.618  30.666  20.974  1.00  0.00    -0.224 OA
ENDBRANCH  27  28
ENDBRANCH  14  22
ENDBRANCH   8   9
ENDBRANCH   5   8
ENDBRANCH   3   4
ENDBRANCH   2   3
ENDBRANCH   1   2
BRANCH   1  32
ATOM     32  C   UNL A   1      36.373  22.455  23.909  1.00  0.00     0.002 C 
BRANCH  32  33
ATOM     33  C   UNL A   1      36.399  23.763  24.723  1.00  0.00     0.021 C 
BRANCH  33  34
ATOM     34  C   UNL A   1      37.068  23.737  26.116  1.00  0.00     0.116 C 
BRANCH  34  35
ATOM     35  N   UNL A   1      38.077  22.717  26.277  1.00  0.00    -0.352 N 
ATOM     36  C   UNL A   1      39.371  22.853  26.757  1.00  0.00     0.251 C 
ATOM     37  H   UNL A   1      37.811  21.807  26.012  1.00  0.00     0.163 HD
ATOM     38  O   UNL A   1      40.054  21.830  26.803  1.00  0.00    -0.269 OA
BRANCH  36  39
ATOM     39  C   UNL A   1      39.978  24.200  27.087  1.00  0.00     0.039 A 
ATOM     40  C   UNL A   1      39.825  24.682  28.377  1.00  0.00     0.014 A 
ATOM     41  C   UNL A   1      40.468  25.115  26.137  1.00  0.00     0.014 A 
ATOM     42  C   UNL A   1      40.190  26.023  28.701  1.00  0.00     0.010 A 
ATOM     43  C   UNL A   1      40.759  26.512  26.461  1.00  0.00     0.010 A 
ATOM     44  C   UNL A   1      40.602  27.037  27.754  1.00  0.00    -0.014 A 
BRANCH  44  45
ATOM     45  C   UNL A   1      40.300  28.569  28.218  1.00  0.00     0.031 A 
ATOM     46  C   UNL A   1      41.680  29.091  28.379  1.00  0.00     0.074 A 
ATOM     47  C   UNL A   1      39.334  29.461  28.706  1.00  0.00     0.049 A 
ATOM     48  N   UNL A   1      42.523  28.412  29.114  1.00  0.00    -0.248 NA
ATOM     49  C   UNL A   1      42.315  30.065  27.495  1.00  0.00     0.031 C 
ATOM     50  C   UNL A   1      38.006  29.146  29.235  1.00  0.00     0.029 A 
ATOM     51  N   UNL A   1      39.268  30.893  28.829  1.00  0.00    -0.354 N 
ATOM     52  C   UNL A   1      43.653  29.161  29.156  1.00  0.00     0.074 A 
ATOM     53  C   UNL A   1      43.579  29.934  27.920  1.00  0.00     0.031 C 
ATOM     54  C   UNL A   1      37.200  30.244  29.343  1.00  0.00     0.029 A 
ATOM     55  C   UNL A   1      37.944  31.459  29.037  1.00  0.00     0.049 A 
ATOM     56  H   UNL A   1      40.072  31.457  28.774  1.00  0.00     0.167 HD
ATOM     57  C   UNL A   1      43.980  29.579  30.415  1.00  0.00     0.034 A 
ATOM     58  C   UNL A   1      37.486  32.777  29.133  1.00  0.00     0.034 A 
ATOM     59  C   UNL A   1      43.740  30.981  30.609  1.00  0.00     0.049 A 
ATOM     60  C   UNL A   1      38.594  33.445  29.824  1.00  0.00     0.074 A 
ATOM     61  C   UNL A   1      43.905  32.091  29.802  1.00  0.00     0.029 A 
ATOM     62  N   UNL A   1      42.826  31.327  31.579  1.00  0.00    -0.354 N 
ATOM     63  N   UNL A   1      38.766  33.295  31.105  1.00  0.00    -0.248 NA
ATOM     64  C   UNL A   1      39.475  34.400  29.171  1.00  0.00     0.031 C 
ATOM     65  C   UNL A   1      42.733  32.853  29.991  1.00  0.00     0.029 A 
ATOM     66  C   UNL A   1      42.109  32.429  31.154  1.00  0.00     0.049 A 
ATOM     67  H   UNL A   1      42.701  30.862  32.438  1.00  0.00     0.167 HD
ATOM     68  C   UNL A   1      40.064  33.660  31.265  1.00  0.00     0.074 A 
ATOM     69  C   UNL A   1      40.340  34.576  30.173  1.00  0.00     0.031 C 
ATOM     70  C   UNL A   1      40.875  32.734  31.830  1.00  0.00     0.034 A 
BRANCH  57  71
ATOM     71  C   UNL A   1      43.832  28.519  31.495  1.00  0.00     0.023 A 
ATOM     72  C   UNL A   1      42.656  28.548  32.258  1.00  0.00     0.012 A 
ATOM     73  C   UNL A   1      44.866  27.615  31.877  1.00  0.00     0.148 A 
ATOM     74  C   UNL A   1      42.530  27.753  33.401  1.00  0.00     0.002 A 
ATOM     75  C   UNL A   1      44.779  26.910  33.074  1.00  0.00     0.091 A 
ATOM     76  F   UNL A   1      45.918  27.441  31.063  1.00  0.00    -0.205 F 
ATOM     77  C   UNL A   1      43.602  26.968  33.831  1.00  0.00     0.022 A 
BRANCH  75  78
ATOM     78  S   UNL A   1      46.202  26.074  33.808  1.00  0.00     0.127 S 
ATOM     79  O   UNL A   1      47.020  27.195  34.284  1.00  0.00    -0.237 OA
ATOM     80  O   UNL A   1      45.606  25.275  34.871  1.00  0.00    -0.237 OA
ATOM     81  O   UNL A   1      46.836  25.311  32.738  1.00  0.00    -0.744 OA
ENDBRANCH  75  78
ENDBRANCH  57  71
BRANCH  58  82
ATOM     82  C   UNL A   1      36.251  33.750  29.222  1.00  0.00     0.023 A 
ATOM     83  C   UNL A   1      35.362  33.829  28.093  1.00  0.00     0.012 A 
ATOM     84  C   UNL A   1      35.669  34.162  30.449  1.00  0.00     0.148 A 
ATOM     85  C   UNL A   1      33.991  34.143  28.182  1.00  0.00     0.002 A 
ATOM     86  C   UNL A   1      34.292  34.523  30.527  1.00  0.00     0.091 A 
ATOM     87  F   UNL A   1      36.419  34.103  31.556  1.00  0.00    -0.205 F 
ATOM     88  C   UNL A   1      33.451  34.477  29.405  1.00  0.00     0.022 A 
BRANCH  86  89
ATOM     89  S   UNL A   1      33.441  34.984  32.058  1.00  0.00     0.127 S 
ATOM     90  O   UNL A   1      34.297  36.048  32.589  1.00  0.00    -0.237 OA
ATOM     91  O   UNL A   1      32.147  35.448  31.559  1.00  0.00    -0.237 OA
ATOM     92  O   UNL A   1      33.409  33.775  32.867  1.00  0.00    -0.744 OA
ENDBRANCH  86  89
ENDBRANCH  58  82
BRANCH  70  93
ATOM     93  C   UNL A   1      40.332  31.933  32.995  1.00  0.00     0.023 A 
ATOM     94  C   UNL A   1      39.632  30.709  32.894  1.00  0.00     0.012 A 
ATOM     95  C   UNL A   1      40.546  32.458  34.278  1.00  0.00     0.148 A 
ATOM     96  C   UNL A   1      39.142  30.054  34.032  1.00  0.00     0.002 A 
ATOM     97  C   UNL A   1      40.102  31.786  35.410  1.00  0.00     0.091 A 
ATOM     98  F   UNL A   1      41.185  33.635  34.371  1.00  0.00    -0.205 F 
ATOM     99  C   UNL A   1      39.391  30.585  35.294  1.00  0.00     0.022 A 
BRANCH  97 100
ATOM    100  S   UNL A   1      40.454  32.439  37.042  1.00  0.00     0.127 S 
ATOM    101  O   UNL A   1      40.764  33.837  36.747  1.00  0.00    -0.237 OA
ATOM    102  O   UNL A   1      39.205  32.230  37.767  1.00  0.00    -0.237 OA
ATOM    103  O   UNL A   1      41.573  31.644  37.539  1.00  0.00    -0.744 OA
ENDBRANCH  97 100
ENDBRANCH  70  93
ENDBRANCH  44  45
ENDBRANCH  36  39
ENDBRANCH  34  35
ENDBRANCH  33  34
ENDBRANCH  32  33
ENDBRANCH   1  32
TORSDOF 20
ENDMDL
