MODEL 1
REMARK VINA RESULT:     -12.0      0.000      0.000
REMARK SMILES Cc1ccc([C@H](CC2CCCC2)C(=O)NCCCCCCNC(=O)c2ccc(-c3c4nc(c(-c5cccc(S(=O)(=O)[O-])c5F)c5ccc([nH]5)c(-c5cccc(S(=O)(=O)[O-])c5F)c5nc(c(-c6cccc(S(=O)(=O)[O-])c6F)c6ccc3[nH]6)C=C5)C=C4)cc2)cc1
REMARK SMILES IDX 19 1 18 2 17 3 16 4 15 5 13 6 14 7 6 9 5 10 1 11 2 12 3 13
REMARK SMILES IDX 89 14 4 15 88 16 7 17 8 18 9 19 12 20 10 21 11 22 20 23
REMARK SMILES IDX 21 24 22 25 23 26 24 28 25 29 26 30 87 31 27 32 86 33 28 34
REMARK SMILES IDX 29 35 30 36 80 37 31 38 85 39 79 40 81 41 32 42 84 43 78 44
REMARK SMILES IDX 77 45 33 47 65 48 45 49 64 50 46 51 49 52 63 53 82 54 47 55
REMARK SMILES IDX 48 56 62 58 83 59 50 60 34 61 35 62 43 63 36 64 38 65 44 66
REMARK SMILES IDX 37 67 39 68 40 69 41 70 42 71 66 72 67 73 75 74 68 75 70 76
REMARK SMILES IDX 76 77 69 78 71 79 72 80 73 81 74 82 51 83 52 84 60 85 53 86
REMARK SMILES IDX 55 87 61 88 54 89 56 90 57 91 58 92 59 93
REMARK H PARENT 15 8 22 27 81 46 49 57
REMARK Flexibility Score: inf
ROOT
ATOM      1  C   UNL A   1      36.306  21.246  24.689  1.00  0.00     0.002 C 
ENDROOT
BRANCH   1   2
ATOM      2  C   UNL A   1      35.489  22.504  25.036  1.00  0.00     0.002 C 
BRANCH   2   3
ATOM      3  C   UNL A   1      34.480  23.012  23.998  1.00  0.00     0.021 C 
BRANCH   3   4
ATOM      4  C   UNL A   1      33.016  22.768  24.333  1.00  0.00     0.116 C 
BRANCH   4   5
ATOM      5  N   UNL A   1      32.680  23.005  25.722  1.00  0.00    -0.356 N 
ATOM      6  C   UNL A   1      31.980  24.029  26.288  1.00  0.00     0.227 C 
ATOM      7  O   UNL A   1      31.568  23.851  27.441  1.00  0.00    -0.274 OA
ATOM      8  H   UNL A   1      33.007  22.324  26.353  1.00  0.00     0.163 HD
BRANCH   6   9
ATOM      9  C   UNL A   1      31.718  25.366  25.579  1.00  0.00     0.109 C 
BRANCH   9  10
ATOM     10  C   UNL A   1      32.301  26.624  26.238  1.00  0.00    -0.036 A 
ATOM     11  C   UNL A   1      33.899  30.461  27.469  1.00  0.00     0.044 C 
ATOM     12  C   UNL A   1      33.372  29.112  27.086  1.00  0.00    -0.051 A 
ATOM     13  C   UNL A   1      34.134  28.245  26.304  1.00  0.00     0.004 A 
ATOM     14  C   UNL A   1      32.124  28.679  27.539  1.00  0.00     0.004 A 
ATOM     15  C   UNL A   1      33.604  27.023  25.881  1.00  0.00     0.005 A 
ATOM     16  C   UNL A   1      31.613  27.436  27.144  1.00  0.00     0.005 A 
ENDBRANCH   9  10
BRANCH   9  17
ATOM     17  C   UNL A   1      30.236  25.580  25.165  1.00  0.00     0.022 C 
BRANCH  17  18
ATOM     18  C   UNL A   1      30.032  26.284  23.818  1.00  0.00    -0.010 C 
ATOM     19  C   UNL A   1      29.912  27.804  23.888  1.00  0.00     0.003 C 
ATOM     20  C   UNL A   1      31.265  26.114  22.924  1.00  0.00     0.003 C 
ATOM     21  C   UNL A   1      30.218  28.261  22.462  1.00  0.00     0.000 C 
ATOM     22  C   UNL A   1      31.118  27.187  21.855  1.00  0.00     0.000 C 
ENDBRANCH  17  18
ENDBRANCH   9  17
ENDBRANCH   6   9
ENDBRANCH   4   5
ENDBRANCH   3   4
ENDBRANCH   2   3
ENDBRANCH   1   2
BRANCH   1  23
ATOM     23  C   UNL A   1      37.804  21.251  25.003  1.00  0.00     0.021 C 
BRANCH  23  24
ATOM     24  C   UNL A   1      38.260  22.308  25.995  1.00  0.00     0.116 C 
BRANCH  24  25
ATOM     25  N   UNL A   1      39.668  22.233  26.327  1.00  0.00    -0.352 N 
ATOM     26  C   UNL A   1      40.569  23.263  26.542  1.00  0.00     0.251 C 
ATOM     27  H   UNL A   1      40.036  21.323  26.411  1.00  0.00     0.163 HD
ATOM     28  O   UNL A   1      41.768  23.003  26.597  1.00  0.00    -0.269 OA
BRANCH  26  29
ATOM     29  C   UNL A   1      40.065  24.628  26.837  1.00  0.00     0.039 A 
ATOM     30  C   UNL A   1      40.706  25.698  26.202  1.00  0.00     0.014 A 
ATOM     31  C   UNL A   1      39.179  24.868  27.884  1.00  0.00     0.014 A 
ATOM     32  C   UNL A   1      40.689  26.960  26.790  1.00  0.00     0.010 A 
ATOM     33  C   UNL A   1      39.213  26.093  28.510  1.00  0.00     0.010 A 
ATOM     34  C   UNL A   1      40.040  27.104  28.010  1.00  0.00    -0.014 A 
BRANCH  34  35
ATOM     35  C   UNL A   1      40.226  28.225  28.911  1.00  0.00     0.031 A 
ATOM     36  C   UNL A   1      39.375  29.418  28.809  1.00  0.00     0.074 A 
ATOM     37  C   UNL A   1      41.038  28.028  29.975  1.00  0.00     0.049 A 
ATOM     38  N   UNL A   1      39.601  30.515  29.446  1.00  0.00    -0.248 NA
ATOM     39  C   UNL A   1      38.212  29.483  27.928  1.00  0.00     0.031 C 
ATOM     40  C   UNL A   1      41.047  28.753  31.238  1.00  0.00     0.029 A 
ATOM     41  N   UNL A   1      42.178  27.217  30.037  1.00  0.00    -0.354 N 
ATOM     42  C   UNL A   1      38.460  31.276  29.338  1.00  0.00     0.074 A 
ATOM     43  C   UNL A   1      37.717  30.681  28.257  1.00  0.00     0.031 C 
ATOM     44  C   UNL A   1      42.240  28.572  31.828  1.00  0.00     0.029 A 
ATOM     45  C   UNL A   1      43.090  27.897  30.862  1.00  0.00     0.049 A 
ATOM     46  H   UNL A   1      42.314  26.349  29.593  1.00  0.00     0.167 HD
ATOM     47  C   UNL A   1      38.206  32.202  30.304  1.00  0.00     0.034 A 
ATOM     48  C   UNL A   1      44.304  28.351  30.427  1.00  0.00     0.034 A 
ATOM     49  C   UNL A   1      39.400  32.428  31.134  1.00  0.00     0.049 A 
ATOM     50  C   UNL A   1      44.458  29.857  30.567  1.00  0.00     0.074 A 
ATOM     51  C   UNL A   1      39.756  32.044  32.415  1.00  0.00     0.029 A 
ATOM     52  N   UNL A   1      40.562  32.914  30.536  1.00  0.00    -0.354 N 
ATOM     53  N   UNL A   1      43.505  30.661  30.952  1.00  0.00    -0.248 NA
ATOM     54  C   UNL A   1      45.688  30.580  30.251  1.00  0.00     0.031 C 
ATOM     55  C   UNL A   1      41.171  32.168  32.529  1.00  0.00     0.029 A 
ATOM     56  C   UNL A   1      41.668  32.679  31.339  1.00  0.00     0.049 A 
ATOM     57  H   UNL A   1      40.593  33.365  29.662  1.00  0.00     0.167 HD
ATOM     58  C   UNL A   1      43.895  31.962  30.779  1.00  0.00     0.074 A 
ATOM     59  C   UNL A   1      45.303  31.856  30.434  1.00  0.00     0.031 C 
ATOM     60  C   UNL A   1      43.010  33.006  30.855  1.00  0.00     0.034 A 
BRANCH  47  61
ATOM     61  C   UNL A   1      36.832  32.755  30.665  1.00  0.00     0.023 A 
ATOM     62  C   UNL A   1      36.335  32.446  31.952  1.00  0.00     0.012 A 
ATOM     63  C   UNL A   1      35.934  33.447  29.812  1.00  0.00     0.148 A 
ATOM     64  C   UNL A   1      35.036  32.779  32.360  1.00  0.00     0.002 A 
ATOM     65  C   UNL A   1      34.660  33.836  30.239  1.00  0.00     0.091 A 
ATOM     66  F   UNL A   1      36.248  33.667  28.534  1.00  0.00    -0.205 F 
ATOM     67  C   UNL A   1      34.200  33.487  31.509  1.00  0.00     0.022 A 
BRANCH  65  68
ATOM     68  S   UNL A   1      33.541  34.796  29.198  1.00  0.00     0.127 S 
ATOM     69  O   UNL A   1      34.433  35.816  28.647  1.00  0.00    -0.237 OA
ATOM     70  O   UNL A   1      33.084  33.800  28.228  1.00  0.00    -0.237 OA
ATOM     71  O   UNL A   1      32.493  35.301  30.077  1.00  0.00    -0.744 OA
ENDBRANCH  65  68
ENDBRANCH  47  61
BRANCH  48  72
ATOM     72  C   UNL A   1      44.894  27.512  29.340  1.00  0.00     0.023 A 
ATOM     73  C   UNL A   1      45.248  26.185  29.682  1.00  0.00     0.012 A 
ATOM     74  C   UNL A   1      44.713  27.836  27.983  1.00  0.00     0.148 A 
ATOM     75  C   UNL A   1      45.268  25.175  28.717  1.00  0.00     0.002 A 
ATOM     76  C   UNL A   1      44.740  26.822  27.025  1.00  0.00     0.091 A 
ATOM     77  F   UNL A   1      44.435  29.105  27.657  1.00  0.00    -0.205 F 
ATOM     78  C   UNL A   1      44.974  25.488  27.396  1.00  0.00     0.022 A 
BRANCH  76  79
ATOM     79  S   UNL A   1      44.340  27.154  25.303  1.00  0.00     0.127 S 
ATOM     80  O   UNL A   1      45.603  27.694  24.807  1.00  0.00    -0.237 OA
ATOM     81  O   UNL A   1      43.998  25.827  24.793  1.00  0.00    -0.237 OA
ATOM     82  O   UNL A   1      43.216  28.077  25.357  1.00  0.00    -0.744 OA
ENDBRANCH  76  79
ENDBRANCH  48  72
BRANCH  60  83
ATOM     83  C   UNL A   1      43.320  34.433  30.440  1.00  0.00     0.023 A 
ATOM     84  C   UNL A   1      43.755  35.409  31.360  1.00  0.00     0.012 A 
ATOM     85  C   UNL A   1      43.328  34.805  29.071  1.00  0.00     0.148 A 
ATOM     86  C   UNL A   1      44.104  36.704  30.961  1.00  0.00     0.002 A 
ATOM     87  C   UNL A   1      43.784  36.058  28.667  1.00  0.00     0.091 A 
ATOM     88  F   UNL A   1      42.874  33.948  28.145  1.00  0.00    -0.205 F 
ATOM     89  C   UNL A   1      44.138  37.024  29.611  1.00  0.00     0.022 A 
BRANCH  87  90
ATOM     90  S   UNL A   1      44.087  36.413  26.930  1.00  0.00     0.127 S 
ATOM     91  O   UNL A   1      42.734  36.623  26.420  1.00  0.00    -0.237 OA
ATOM     92  O   UNL A   1      44.908  37.624  26.989  1.00  0.00    -0.237 OA
ATOM     93  O   UNL A   1      44.792  35.242  26.428  1.00  0.00    -0.744 OA
ENDBRANCH  87  90
ENDBRANCH  60  83
ENDBRANCH  34  35
ENDBRANCH  26  29
ENDBRANCH  24  25
ENDBRANCH  23  24
ENDBRANCH   1  23
TORSDOF 19
ENDMDL
MODEL 2
REMARK VINA RESULT:     -11.9      4.018      9.436
REMARK SMILES Cc1ccc([C@H](CC2CCCC2)C(=O)NCCCCCCNC(=O)c2ccc(-c3c4nc(c(-c5cccc(S(=O)(=O)[O-])c5F)c5ccc([nH]5)c(-c5cccc(S(=O)(=O)[O-])c5F)c5nc(c(-c6cccc(S(=O)(=O)[O-])c6F)c6ccc3[nH]6)C=C5)C=C4)cc2)cc1
REMARK SMILES IDX 19 1 18 2 17 3 16 4 15 5 13 6 14 7 6 9 5 10 1 11 2 12 3 13
REMARK SMILES IDX 89 14 4 15 88 16 7 17 8 18 9 19 12 20 10 21 11 22 20 23
REMARK SMILES IDX 21 24 22 25 23 26 24 28 25 29 26 30 87 31 27 32 86 33 28 34
REMARK SMILES IDX 29 35 30 36 80 37 31 38 85 39 79 40 81 41 32 42 84 43 78 44
REMARK SMILES IDX 77 45 33 47 65 48 45 49 64 50 46 51 49 52 63 53 82 54 47 55
REMARK SMILES IDX 48 56 62 58 83 59 50 60 34 61 35 62 43 63 36 64 38 65 44 66
REMARK SMILES IDX 37 67 39 68 40 69 41 70 42 71 66 72 67 73 75 74 68 75 70 76
REMARK SMILES IDX 76 77 69 78 71 79 72 80 73 81 74 82 51 83 52 84 60 85 53 86
REMARK SMILES IDX 55 87 61 88 54 89 56 90 57 91 58 92 59 93
REMARK H PARENT 15 8 22 27 81 46 49 57
REMARK Flexibility Score: inf
ROOT
ATOM      1  C   UNL A   1      31.623  29.283  26.745  1.00  0.00     0.002 C 
ENDROOT
BRANCH   1   2
ATOM      2  C   UNL A   1      31.991  28.490  25.479  1.00  0.00     0.002 C 
BRANCH   2   3
ATOM      3  C   UNL A   1      31.543  29.053  24.123  1.00  0.00     0.021 C 
BRANCH   3   4
ATOM      4  C   UNL A   1      31.174  28.017  23.072  1.00  0.00     0.116 C 
BRANCH   4   5
ATOM      5  N   UNL A   1      32.286  27.591  22.248  1.00  0.00    -0.356 N 
ATOM      6  C   UNL A   1      32.901  26.376  22.171  1.00  0.00     0.227 C 
ATOM      7  O   UNL A   1      33.618  26.177  21.182  1.00  0.00    -0.274 OA
ATOM      8  H   UNL A   1      32.654  28.284  21.652  1.00  0.00     0.163 HD
BRANCH   6   9
ATOM      9  C   UNL A   1      32.763  25.290  23.248  1.00  0.00     0.109 C 
BRANCH   9  10
ATOM     10  C   UNL A   1      34.059  24.617  23.721  1.00  0.00    -0.036 A 
ATOM     11  C   UNL A   1      37.320  22.403  25.525  1.00  0.00     0.044 C 
ATOM     12  C   UNL A   1      36.229  23.205  24.884  1.00  0.00    -0.051 A 
ATOM     13  C   UNL A   1      35.647  24.281  25.554  1.00  0.00     0.004 A 
ATOM     14  C   UNL A   1      35.803  22.918  23.586  1.00  0.00     0.004 A 
ATOM     15  C   UNL A   1      34.575  24.971  24.983  1.00  0.00     0.005 A 
ATOM     16  C   UNL A   1      34.753  23.639  23.003  1.00  0.00     0.005 A 
ENDBRANCH   9  10
BRANCH   9  17
ATOM     17  C   UNL A   1      31.659  24.241  22.949  1.00  0.00     0.022 C 
BRANCH  17  18
ATOM     18  C   UNL A   1      30.794  23.843  24.151  1.00  0.00    -0.010 C 
ATOM     19  C   UNL A   1      31.349  22.705  25.004  1.00  0.00     0.003 C 
ATOM     20  C   UNL A   1      30.726  24.985  25.171  1.00  0.00     0.003 C 
ATOM     21  C   UNL A   1      30.610  22.851  26.334  1.00  0.00     0.000 C 
ATOM     22  C   UNL A   1      30.240  24.328  26.454  1.00  0.00     0.000 C 
ENDBRANCH  17  18
ENDBRANCH   9  17
ENDBRANCH   6   9
ENDBRANCH   4   5
ENDBRANCH   3   4
ENDBRANCH   2   3
ENDBRANCH   1   2
BRANCH   1  23
ATOM     23  C   UNL A   1      32.485  30.492  27.115  1.00  0.00     0.021 C 
BRANCH  23  24
ATOM     24  C   UNL A   1      33.974  30.217  27.245  1.00  0.00     0.116 C 
BRANCH  24  25
ATOM     25  N   UNL A   1      34.718  31.296  27.861  1.00  0.00    -0.352 N 
ATOM     26  C   UNL A   1      35.892  31.237  28.595  1.00  0.00     0.251 C 
ATOM     27  H   UNL A   1      34.337  32.197  27.741  1.00  0.00     0.163 HD
ATOM     28  O   UNL A   1      36.252  32.232  29.220  1.00  0.00    -0.269 OA
BRANCH  26  29
ATOM     29  C   UNL A   1      36.755  30.034  28.503  1.00  0.00     0.039 A 
ATOM     30  C   UNL A   1      36.993  29.325  29.687  1.00  0.00     0.014 A 
ATOM     31  C   UNL A   1      37.506  29.760  27.364  1.00  0.00     0.014 A 
ATOM     32  C   UNL A   1      38.152  28.565  29.815  1.00  0.00     0.010 A 
ATOM     33  C   UNL A   1      38.689  29.068  27.503  1.00  0.00     0.010 A 
ATOM     34  C   UNL A   1      39.047  28.554  28.752  1.00  0.00    -0.014 A 
BRANCH  34  35
ATOM     35  C   UNL A   1      40.429  28.122  28.848  1.00  0.00     0.031 A 
ATOM     36  C   UNL A   1      40.784  26.706  28.688  1.00  0.00     0.074 A 
ATOM     37  C   UNL A   1      41.374  29.090  28.851  1.00  0.00     0.049 A 
ATOM     38  N   UNL A   1      41.954  26.230  28.942  1.00  0.00    -0.248 NA
ATOM     39  C   UNL A   1      39.820  25.693  28.271  1.00  0.00     0.031 C 
ATOM     40  C   UNL A   1      42.775  28.972  28.476  1.00  0.00     0.029 A 
ATOM     41  N   UNL A   1      41.272  30.377  29.397  1.00  0.00    -0.354 N 
ATOM     42  C   UNL A   1      41.992  24.966  28.401  1.00  0.00     0.074 A 
ATOM     43  C   UNL A   1      40.613  24.622  28.164  1.00  0.00     0.031 C 
ATOM     44  C   UNL A   1      43.454  29.993  29.023  1.00  0.00     0.029 A 
ATOM     45  C   UNL A   1      42.540  30.671  29.927  1.00  0.00     0.049 A 
ATOM     46  H   UNL A   1      40.476  30.955  29.408  1.00  0.00     0.167 HD
ATOM     47  C   UNL A   1      43.201  24.446  28.051  1.00  0.00     0.034 A 
ATOM     48  C   UNL A   1      42.766  30.894  31.256  1.00  0.00     0.034 A 
ATOM     49  C   UNL A   1      44.295  25.244  28.627  1.00  0.00     0.049 A 
ATOM     50  C   UNL A   1      43.750  29.907  31.864  1.00  0.00     0.074 A 
ATOM     51  C   UNL A   1      45.189  26.158  28.097  1.00  0.00     0.029 A 
ATOM     52  N   UNL A   1      44.396  25.359  30.013  1.00  0.00    -0.354 N 
ATOM     53  N   UNL A   1      44.250  28.881  31.230  1.00  0.00    -0.248 NA
ATOM     54  C   UNL A   1      44.223  29.977  33.245  1.00  0.00     0.031 C 
ATOM     55  C   UNL A   1      45.718  26.924  29.176  1.00  0.00     0.029 A 
ATOM     56  C   UNL A   1      45.191  26.440  30.364  1.00  0.00     0.049 A 
ATOM     57  H   UNL A   1      43.962  24.753  30.656  1.00  0.00     0.167 HD
ATOM     58  C   UNL A   1      44.935  28.081  32.104  1.00  0.00     0.074 A 
ATOM     59  C   UNL A   1      44.973  28.864  33.329  1.00  0.00     0.031 C 
ATOM     60  C   UNL A   1      45.341  26.815  31.771  1.00  0.00     0.034 A 
BRANCH  47  61
ATOM     61  C   UNL A   1      43.432  23.357  27.011  1.00  0.00     0.023 A 
ATOM     62  C   UNL A   1      44.176  23.713  25.862  1.00  0.00     0.012 A 
ATOM     63  C   UNL A   1      42.882  22.048  27.001  1.00  0.00     0.148 A 
ATOM     64  C   UNL A   1      44.347  22.848  24.774  1.00  0.00     0.002 A 
ATOM     65  C   UNL A   1      43.105  21.160  25.943  1.00  0.00     0.091 A 
ATOM     66  F   UNL A   1      42.051  21.657  27.968  1.00  0.00    -0.205 F 
ATOM     67  C   UNL A   1      43.823  21.564  24.818  1.00  0.00     0.022 A 
BRANCH  65  68
ATOM     68  S   UNL A   1      42.489  19.464  25.957  1.00  0.00     0.127 S 
ATOM     69  O   UNL A   1      41.071  19.649  25.650  1.00  0.00    -0.237 OA
ATOM     70  O   UNL A   1      43.267  18.839  24.887  1.00  0.00    -0.237 OA
ATOM     71  O   UNL A   1      42.769  18.936  27.288  1.00  0.00    -0.744 OA
ENDBRANCH  65  68
ENDBRANCH  47  61
BRANCH  48  72
ATOM     72  C   UNL A   1      41.597  31.502  31.961  1.00  0.00     0.023 A 
ATOM     73  C   UNL A   1      41.204  32.796  31.540  1.00  0.00     0.012 A 
ATOM     74  C   UNL A   1      40.674  30.713  32.670  1.00  0.00     0.148 A 
ATOM     75  C   UNL A   1      39.884  33.228  31.683  1.00  0.00     0.002 A 
ATOM     76  C   UNL A   1      39.359  31.154  32.813  1.00  0.00     0.091 A 
ATOM     77  F   UNL A   1      41.066  29.513  33.118  1.00  0.00    -0.205 F 
ATOM     78  C   UNL A   1      38.953  32.389  32.283  1.00  0.00     0.022 A 
BRANCH  76  79
ATOM     79  S   UNL A   1      38.098  30.107  33.555  1.00  0.00     0.127 S 
ATOM     80  O   UNL A   1      38.264  30.407  34.974  1.00  0.00    -0.237 OA
ATOM     81  O   UNL A   1      36.865  30.622  32.959  1.00  0.00    -0.237 OA
ATOM     82  O   UNL A   1      38.444  28.758  33.132  1.00  0.00    -0.744 OA
ENDBRANCH  76  79
ENDBRANCH  48  72
BRANCH  60  83
ATOM     83  C   UNL A   1      45.885  25.795  32.755  1.00  0.00     0.023 A 
ATOM     84  C   UNL A   1      47.266  25.583  32.936  1.00  0.00     0.012 A 
ATOM     85  C   UNL A   1      45.017  25.115  33.648  1.00  0.00     0.148 A 
ATOM     86  C   UNL A   1      47.762  24.690  33.892  1.00  0.00     0.002 A 
ATOM     87  C   UNL A   1      45.519  24.316  34.673  1.00  0.00     0.091 A 
ATOM     88  F   UNL A   1      43.688  25.226  33.500  1.00  0.00    -0.205 F 
ATOM     89  C   UNL A   1      46.890  24.071  34.776  1.00  0.00     0.022 A 
BRANCH  87  90
ATOM     90  S   UNL A   1      44.444  23.713  35.983  1.00  0.00     0.127 S 
ATOM     91  O   UNL A   1      43.514  22.860  35.248  1.00  0.00    -0.237 OA
ATOM     92  O   UNL A   1      45.374  22.989  36.853  1.00  0.00    -0.237 OA
ATOM     93  O   UNL A   1      43.881  24.913  36.586  1.00  0.00    -0.744 OA
ENDBRANCH  87  90
ENDBRANCH  60  83
ENDBRANCH  34  35
ENDBRANCH  26  29
ENDBRANCH  24  25
ENDBRANCH  23  24
ENDBRANCH   1  23
TORSDOF 19
ENDMDL
MODEL 3
REMARK VINA RESULT:     -11.7      1.104      2.414
REMARK SMILES Cc1ccc([C@H](CC2CCCC2)C(=O)NCCCCCCNC(=O)c2ccc(-c3c4nc(c(-c5cccc(S(=O)(=O)[O-])c5F)c5ccc([nH]5)c(-c5cccc(S(=O)(=O)[O-])c5F)c5nc(c(-c6cccc(S(=O)(=O)[O-])c6F)c6ccc3[nH]6)C=C5)C=C4)cc2)cc1
REMARK SMILES IDX 19 1 18 2 17 3 16 4 15 5 13 6 14 7 6 9 5 10 1 11 2 12 3 13
REMARK SMILES IDX 89 14 4 15 88 16 7 17 8 18 9 19 12 20 10 21 11 22 20 23
REMARK SMILES IDX 21 24 22 25 23 26 24 28 25 29 26 30 87 31 27 32 86 33 28 34
REMARK SMILES IDX 29 35 30 36 80 37 31 38 85 39 79 40 81 41 32 42 84 43 78 44
REMARK SMILES IDX 77 45 33 47 65 48 45 49 64 50 46 51 49 52 63 53 82 54 47 55
REMARK SMILES IDX 48 56 62 58 83 59 50 60 34 61 35 62 43 63 36 64 38 65 44 66
REMARK SMILES IDX 37 67 39 68 40 69 41 70 42 71 66 72 67 73 75 74 68 75 70 76
REMARK SMILES IDX 76 77 69 78 71 79 72 80 73 81 74 82 51 83 52 84 60 85 53 86
REMARK SMILES IDX 55 87 61 88 54 89 56 90 57 91 58 92 59 93
REMARK H PARENT 15 8 22 27 81 46 49 57
REMARK Flexibility Score: inf
ROOT
ATOM      1  C   UNL A   1      36.462  22.408  23.977  1.00  0.00     0.002 C 
ENDROOT
BRANCH   1   2
ATOM      2  C   UNL A   1      35.172  22.533  24.808  1.00  0.00     0.002 C 
BRANCH   2   3
ATOM      3  C   UNL A   1      33.830  22.442  24.068  1.00  0.00     0.021 C 
BRANCH   3   4
ATOM      4  C   UNL A   1      33.025  23.731  24.011  1.00  0.00     0.116 C 
BRANCH   4   5
ATOM      5  N   UNL A   1      33.266  24.526  22.825  1.00  0.00    -0.356 N 
ATOM      6  C   UNL A   1      33.273  25.880  22.667  1.00  0.00     0.227 C 
ATOM      7  O   UNL A   1      33.801  26.318  21.638  1.00  0.00    -0.274 OA
ATOM      8  H   UNL A   1      33.453  24.010  22.007  1.00  0.00     0.163 HD
BRANCH   6   9
ATOM      9  C   UNL A   1      32.642  26.851  23.677  1.00  0.00     0.109 C 
BRANCH   9  10
ATOM     10  C   UNL A   1      31.263  27.423  23.317  1.00  0.00    -0.036 A 
ATOM     11  C   UNL A   1      27.298  29.143  22.981  1.00  0.00     0.044 C 
ATOM     12  C   UNL A   1      28.661  28.523  23.049  1.00  0.00    -0.051 A 
ATOM     13  C   UNL A   1      28.835  27.241  23.571  1.00  0.00     0.004 A 
ATOM     14  C   UNL A   1      29.777  29.199  22.554  1.00  0.00     0.004 A 
ATOM     15  C   UNL A   1      30.118  26.703  23.708  1.00  0.00     0.005 A 
ATOM     16  C   UNL A   1      31.057  28.639  22.658  1.00  0.00     0.005 A 
ENDBRANCH   9  10
BRANCH   9  17
ATOM     17  C   UNL A   1      33.605  27.965  24.167  1.00  0.00     0.022 C 
BRANCH  17  18
ATOM     18  C   UNL A   1      33.367  28.447  25.603  1.00  0.00    -0.010 C 
ATOM     19  C   UNL A   1      34.624  28.612  26.453  1.00  0.00     0.003 C 
ATOM     20  C   UNL A   1      32.802  29.872  25.610  1.00  0.00     0.003 C 
ATOM     21  C   UNL A   1      34.180  29.535  27.587  1.00  0.00     0.000 C 
ATOM     22  C   UNL A   1      33.029  30.370  27.030  1.00  0.00     0.000 C 
ENDBRANCH  17  18
ENDBRANCH   9  17
ENDBRANCH   6   9
ENDBRANCH   4   5
ENDBRANCH   3   4
ENDBRANCH   2   3
ENDBRANCH   1   2
BRANCH   1  23
ATOM     23  C   UNL A   1      37.788  22.776  24.645  1.00  0.00     0.021 C 
BRANCH  23  24
ATOM     24  C   UNL A   1      37.972  22.255  26.061  1.00  0.00     0.116 C 
BRANCH  24  25
ATOM     25  N   UNL A   1      39.358  22.117  26.460  1.00  0.00    -0.352 N 
ATOM     26  C   UNL A   1      40.296  23.106  26.707  1.00  0.00     0.251 C 
ATOM     27  H   UNL A   1      39.677  21.192  26.572  1.00  0.00     0.163 HD
ATOM     28  O   UNL A   1      41.478  22.788  26.822  1.00  0.00    -0.269 OA
BRANCH  26  29
ATOM     29  C   UNL A   1      39.847  24.496  26.964  1.00  0.00     0.039 A 
ATOM     30  C   UNL A   1      40.551  25.525  26.327  1.00  0.00     0.014 A 
ATOM     31  C   UNL A   1      38.945  24.795  27.982  1.00  0.00     0.014 A 
ATOM     32  C   UNL A   1      40.575  26.797  26.892  1.00  0.00     0.010 A 
ATOM     33  C   UNL A   1      39.017  26.030  28.586  1.00  0.00     0.010 A 
ATOM     34  C   UNL A   1      39.901  26.993  28.090  1.00  0.00    -0.014 A 
BRANCH  34  35
ATOM     35  C   UNL A   1      40.114  28.123  28.976  1.00  0.00     0.031 A 
ATOM     36  C   UNL A   1      39.295  29.336  28.852  1.00  0.00     0.074 A 
ATOM     37  C   UNL A   1      40.915  27.920  30.046  1.00  0.00     0.049 A 
ATOM     38  N   UNL A   1      39.547  30.435  29.474  1.00  0.00    -0.248 NA
ATOM     39  C   UNL A   1      38.138  29.419  27.965  1.00  0.00     0.031 C 
ATOM     40  C   UNL A   1      40.939  28.662  31.298  1.00  0.00     0.029 A 
ATOM     41  N   UNL A   1      42.033  27.080  30.125  1.00  0.00    -0.354 N 
ATOM     42  C   UNL A   1      38.428  31.225  29.350  1.00  0.00     0.074 A 
ATOM     43  C   UNL A   1      37.673  30.634  28.275  1.00  0.00     0.031 C 
ATOM     44  C   UNL A   1      42.124  28.459  31.896  1.00  0.00     0.029 A 
ATOM     45  C   UNL A   1      42.960  27.747  30.944  1.00  0.00     0.049 A 
ATOM     46  H   UNL A   1      42.148  26.202  29.694  1.00  0.00     0.167 HD
ATOM     47  C   UNL A   1      38.194  32.172  30.300  1.00  0.00     0.034 A 
ATOM     48  C   UNL A   1      44.187  28.162  30.508  1.00  0.00     0.034 A 
ATOM     49  C   UNL A   1      39.391  32.378  31.132  1.00  0.00     0.049 A 
ATOM     50  C   UNL A   1      44.381  29.665  30.626  1.00  0.00     0.074 A 
ATOM     51  C   UNL A   1      39.731  32.004  32.421  1.00  0.00     0.029 A 
ATOM     52  N   UNL A   1      40.567  32.824  30.533  1.00  0.00    -0.354 N 
ATOM     53  N   UNL A   1      43.448  30.501  30.995  1.00  0.00    -0.248 NA
ATOM     54  C   UNL A   1      45.631  30.351  30.304  1.00  0.00     0.031 C 
ATOM     55  C   UNL A   1      41.149  32.092  32.539  1.00  0.00     0.029 A 
ATOM     56  C   UNL A   1      41.664  32.572  31.344  1.00  0.00     0.049 A 
ATOM     57  H   UNL A   1      40.614  33.261  29.652  1.00  0.00     0.167 HD
ATOM     58  C   UNL A   1      43.873  31.788  30.804  1.00  0.00     0.074 A 
ATOM     59  C   UNL A   1      45.279  31.639  30.467  1.00  0.00     0.031 C 
ATOM     60  C   UNL A   1      43.016  32.856  30.861  1.00  0.00     0.034 A 
BRANCH  47  61
ATOM     61  C   UNL A   1      36.834  32.766  30.647  1.00  0.00     0.023 A 
ATOM     62  C   UNL A   1      36.350  32.539  31.957  1.00  0.00     0.012 A 
ATOM     63  C   UNL A   1      35.935  33.424  29.768  1.00  0.00     0.148 A 
ATOM     64  C   UNL A   1      35.062  32.915  32.361  1.00  0.00     0.002 A 
ATOM     65  C   UNL A   1      34.673  33.857  30.189  1.00  0.00     0.091 A 
ATOM     66  F   UNL A   1      36.235  33.565  28.476  1.00  0.00    -0.205 F 
ATOM     67  C   UNL A   1      34.226  33.587  31.482  1.00  0.00     0.022 A 
BRANCH  65  68
ATOM     68  S   UNL A   1      33.555  34.774  29.109  1.00  0.00     0.127 S 
ATOM     69  O   UNL A   1      33.144  33.749  28.150  1.00  0.00    -0.237 OA
ATOM     70  O   UNL A   1      32.503  35.197  30.035  1.00  0.00    -0.237 OA
ATOM     71  O   UNL A   1      34.334  35.870  28.546  1.00  0.00    -0.744 OA
ENDBRANCH  65  68
ENDBRANCH  47  61
BRANCH  48  72
ATOM     72  C   UNL A   1      44.759  27.292  29.435  1.00  0.00     0.023 A 
ATOM     73  C   UNL A   1      45.030  25.947  29.785  1.00  0.00     0.012 A 
ATOM     74  C   UNL A   1      44.633  27.625  28.075  1.00  0.00     0.148 A 
ATOM     75  C   UNL A   1      45.020  24.938  28.820  1.00  0.00     0.002 A 
ATOM     76  C   UNL A   1      44.630  26.612  27.117  1.00  0.00     0.091 A 
ATOM     77  F   UNL A   1      44.434  28.908  27.743  1.00  0.00    -0.205 F 
ATOM     78  C   UNL A   1      44.779  25.267  27.492  1.00  0.00     0.022 A 
BRANCH  76  79
ATOM     79  S   UNL A   1      44.296  26.965  25.385  1.00  0.00     0.127 S 
ATOM     80  O   UNL A   1      45.637  27.238  24.877  1.00  0.00    -0.237 OA
ATOM     81  O   UNL A   1      43.704  25.714  24.912  1.00  0.00    -0.237 OA
ATOM     82  O   UNL A   1      43.370  28.087  25.410  1.00  0.00    -0.744 OA
ENDBRANCH  76  79
ENDBRANCH  48  72
BRANCH  60  83
ATOM     83  C   UNL A   1      43.366  34.268  30.427  1.00  0.00     0.023 A 
ATOM     84  C   UNL A   1      43.751  35.266  31.344  1.00  0.00     0.012 A 
ATOM     85  C   UNL A   1      43.463  34.601  29.051  1.00  0.00     0.148 A 
ATOM     86  C   UNL A   1      44.137  36.547  30.932  1.00  0.00     0.002 A 
ATOM     87  C   UNL A   1      43.957  35.838  28.642  1.00  0.00     0.091 A 
ATOM     88  F   UNL A   1      43.061  33.721  28.122  1.00  0.00    -0.205 F 
ATOM     89  C   UNL A   1      44.260  36.827  29.578  1.00  0.00     0.022 A 
BRANCH  87  90
ATOM     90  S   UNL A   1      44.372  36.140  26.917  1.00  0.00     0.127 S 
ATOM     91  O   UNL A   1      44.898  37.501  26.963  1.00  0.00    -0.237 OA
ATOM     92  O   UNL A   1      45.375  35.109  26.644  1.00  0.00    -0.237 OA
ATOM     93  O   UNL A   1      43.120  35.955  26.195  1.00  0.00    -0.744 OA
ENDBRANCH  87  90
ENDBRANCH  60  83
ENDBRANCH  34  35
ENDBRANCH  26  29
ENDBRANCH  24  25
ENDBRANCH  23  24
ENDBRANCH   1  23
TORSDOF 19
ENDMDL
