MODEL 1
REMARK VINA RESULT:     -11.9      0.000      0.000
REMARK SMILES CC(=O)Nc1ccc(/C=N/c2ccccc2C(=O)NCCCCCCNC(=O)c2ccc(-c3c4nc(c(-c5cccc(S(=O)(=O)[O-])c5F)c5ccc([nH]5)c(-c5cccc(S(=O)(=O)[O-])c5F)c5nc(c(-c6cccc(S(=O)(=O)[O-])c6F)c6ccc3[nH]6)C=C5)C=C4)cc2)cc1
REMARK SMILES IDX 22 1 21 2 20 3 19 4 17 5 18 6 16 8 11 9 12 10 13 11 15 12
REMARK SMILES IDX 14 13 10 14 9 15 8 16 5 17 6 18 93 19 7 20 92 21 4 22 1 23
REMARK SMILES IDX 2 24 3 25 23 27 24 28 25 29 26 30 27 31 28 33 29 34 30 35
REMARK SMILES IDX 91 36 31 37 90 38 32 39 33 40 34 41 84 42 35 43 89 44 83 45
REMARK SMILES IDX 85 46 36 47 88 48 82 49 81 50 37 52 69 53 49 54 68 55 50 56
REMARK SMILES IDX 53 57 67 58 86 59 51 60 52 61 66 63 87 64 54 65 38 66 39 67
REMARK SMILES IDX 47 68 40 69 42 70 48 71 41 72 43 73 44 74 45 75 46 76 70 77
REMARK SMILES IDX 71 78 79 79 72 80 74 81 80 82 73 83 75 84 76 85 77 86 78 87
REMARK SMILES IDX 55 88 56 89 64 90 57 91 59 92 65 93 58 94 60 95 61 96 62 97
REMARK SMILES IDX 63 98
REMARK H PARENT 19 7 4 26 26 32 85 51 53 62
REMARK Flexibility Score: inf
ROOT
ATOM      1  C   UNL A   1      33.356  25.279  26.157  1.00  0.00     0.002 C 
ENDROOT
BRANCH   1   2
ATOM      2  C   UNL A   1      34.561  24.409  25.783  1.00  0.00     0.021 C 
BRANCH   2   3
ATOM      3  C   UNL A   1      34.523  22.924  26.133  1.00  0.00     0.116 C 
BRANCH   3   4
ATOM      4  N   UNL A   1      35.705  22.163  25.800  1.00  0.00    -0.352 N 
ATOM      5  C   UNL A   1      35.806  20.991  25.084  1.00  0.00     0.253 C 
ATOM      6  O   UNL A   1      36.940  20.594  24.800  1.00  0.00    -0.269 OA
ATOM      7  H   UNL A   1      36.555  22.533  26.130  1.00  0.00     0.163 HD
BRANCH   5   8
ATOM      8  C   UNL A   1      34.645  20.123  24.718  1.00  0.00     0.065 A 
ATOM      9  C   UNL A   1      33.372  20.541  24.280  1.00  0.00     0.076 A 
ATOM     10  C   UNL A   1      32.400  19.563  24.000  1.00  0.00     0.029 A 
ATOM     11  C   UNL A   1      32.678  18.200  24.098  1.00  0.00     0.002 A 
ATOM     12  C   UNL A   1      34.920  18.737  24.782  1.00  0.00     0.016 A 
ATOM     13  C   UNL A   1      33.945  17.784  24.480  1.00  0.00     0.001 A 
BRANCH   9  14
ATOM     14  N   UNL A   1      32.933  21.871  24.177  1.00  0.00    -0.255 NA
ATOM     15  C   UNL A   1      32.697  22.359  23.003  1.00  0.00     0.119 C 
BRANCH  15  16
ATOM     16  C   UNL A   1      32.357  23.790  22.851  1.00  0.00    -0.007 A 
ATOM     17  C   UNL A   1      31.452  26.390  22.273  1.00  0.00     0.041 A 
ATOM     18  C   UNL A   1      32.707  25.955  21.825  1.00  0.00     0.027 A 
ATOM     19  C   UNL A   1      30.674  25.513  23.036  1.00  0.00     0.027 A 
ATOM     20  C   UNL A   1      33.159  24.658  22.107  1.00  0.00     0.012 A 
ATOM     21  C   UNL A   1      31.125  24.222  23.335  1.00  0.00     0.012 A 
BRANCH  17  22
ATOM     22  N   UNL A   1      30.988  27.629  21.791  1.00  0.00    -0.326 N 
ATOM     23  C   UNL A   1      30.718  28.946  23.893  1.00  0.00     0.114 C 
ATOM     24  C   UNL A   1      30.475  28.721  22.430  1.00  0.00     0.221 C 
ATOM     25  O   UNL A   1      29.835  29.554  21.787  1.00  0.00    -0.275 OA
ATOM     26  H   UNL A   1      31.045  27.725  20.813  1.00  0.00     0.169 HD
ENDBRANCH  17  22
ENDBRANCH  15  16
ENDBRANCH   9  14
ENDBRANCH   5   8
ENDBRANCH   3   4
ENDBRANCH   2   3
ENDBRANCH   1   2
BRANCH   1  27
ATOM     27  C   UNL A   1      33.217  26.659  25.510  1.00  0.00     0.002 C 
BRANCH  27  28
ATOM     28  C   UNL A   1      33.881  27.844  26.207  1.00  0.00     0.021 C 
BRANCH  28  29
ATOM     29  C   UNL A   1      33.162  28.492  27.382  1.00  0.00     0.116 C 
BRANCH  29  30
ATOM     30  N   UNL A   1      33.337  29.932  27.430  1.00  0.00    -0.352 N 
ATOM     31  C   UNL A   1      34.401  30.727  27.798  1.00  0.00     0.251 C 
ATOM     32  H   UNL A   1      32.543  30.440  27.144  1.00  0.00     0.163 HD
ATOM     33  O   UNL A   1      34.223  31.946  27.810  1.00  0.00    -0.269 OA
BRANCH  31  34
ATOM     34  C   UNL A   1      35.736  30.184  28.185  1.00  0.00     0.039 A 
ATOM     35  C   UNL A   1      35.871  29.611  29.459  1.00  0.00     0.014 A 
ATOM     36  C   UNL A   1      36.872  30.282  27.380  1.00  0.00     0.014 A 
ATOM     37  C   UNL A   1      37.099  29.094  29.897  1.00  0.00     0.010 A 
ATOM     38  C   UNL A   1      38.085  29.715  27.790  1.00  0.00     0.010 A 
ATOM     39  C   UNL A   1      38.219  29.129  29.059  1.00  0.00    -0.014 A 
BRANCH  39  40
ATOM     40  C   UNL A   1      39.548  28.632  29.516  1.00  0.00     0.031 A 
ATOM     41  C   UNL A   1      40.287  29.366  30.607  1.00  0.00     0.074 A 
ATOM     42  C   UNL A   1      40.128  27.567  28.925  1.00  0.00     0.049 A 
ATOM     43  N   UNL A   1      41.480  29.144  31.095  1.00  0.00    -0.248 NA
ATOM     44  C   UNL A   1      39.595  30.514  31.216  1.00  0.00     0.031 C 
ATOM     45  C   UNL A   1      39.542  26.772  27.846  1.00  0.00     0.029 A 
ATOM     46  N   UNL A   1      41.357  26.985  29.136  1.00  0.00    -0.354 N 
ATOM     47  C   UNL A   1      41.699  30.144  32.035  1.00  0.00     0.074 A 
ATOM     48  C   UNL A   1      40.525  30.990  32.031  1.00  0.00     0.031 C 
ATOM     49  C   UNL A   1      40.414  25.818  27.479  1.00  0.00     0.029 A 
ATOM     50  C   UNL A   1      41.632  25.946  28.276  1.00  0.00     0.049 A 
ATOM     51  H   UNL A   1      41.981  27.285  29.836  1.00  0.00     0.167 HD
ATOM     52  C   UNL A   1      42.768  30.335  32.844  1.00  0.00     0.034 A 
ATOM     53  C   UNL A   1      42.742  25.192  28.136  1.00  0.00     0.034 A 
ATOM     54  C   UNL A   1      43.922  29.477  32.881  1.00  0.00     0.049 A 
ATOM     55  C   UNL A   1      43.920  25.427  29.048  1.00  0.00     0.074 A 
ATOM     56  C   UNL A   1      45.017  29.546  33.724  1.00  0.00     0.029 A 
ATOM     57  N   UNL A   1      44.138  28.403  32.033  1.00  0.00    -0.354 N 
ATOM     58  N   UNL A   1      44.052  26.293  30.024  1.00  0.00    -0.248 NA
ATOM     59  C   UNL A   1      45.094  24.560  28.858  1.00  0.00     0.031 C 
ATOM     60  C   UNL A   1      45.915  28.539  33.359  1.00  0.00     0.029 A 
ATOM     61  C   UNL A   1      45.359  27.815  32.317  1.00  0.00     0.049 A 
ATOM     62  H   UNL A   1      43.515  28.103  31.332  1.00  0.00     0.167 HD
ATOM     63  C   UNL A   1      45.297  26.042  30.592  1.00  0.00     0.074 A 
ATOM     64  C   UNL A   1      45.877  24.936  29.860  1.00  0.00     0.031 C 
ATOM     65  C   UNL A   1      45.907  26.677  31.623  1.00  0.00     0.034 A 
BRANCH  52  66
ATOM     66  C   UNL A   1      42.734  31.513  33.785  1.00  0.00     0.023 A 
ATOM     67  C   UNL A   1      43.095  32.794  33.319  1.00  0.00     0.012 A 
ATOM     68  C   UNL A   1      42.291  31.361  35.114  1.00  0.00     0.148 A 
ATOM     69  C   UNL A   1      43.053  33.897  34.172  1.00  0.00     0.002 A 
ATOM     70  C   UNL A   1      42.206  32.472  35.943  1.00  0.00     0.091 A 
ATOM     71  F   UNL A   1      41.970  30.131  35.543  1.00  0.00    -0.205 F 
ATOM     72  C   UNL A   1      42.599  33.738  35.478  1.00  0.00     0.022 A 
BRANCH  70  73
ATOM     73  S   UNL A   1      41.556  32.385  37.615  1.00  0.00     0.127 S 
ATOM     74  O   UNL A   1      40.169  31.988  37.372  1.00  0.00    -0.237 OA
ATOM     75  O   UNL A   1      42.392  31.342  38.214  1.00  0.00    -0.237 OA
ATOM     76  O   UNL A   1      41.735  33.710  38.186  1.00  0.00    -0.744 OA
ENDBRANCH  70  73
ENDBRANCH  52  66
BRANCH  53  77
ATOM     77  C   UNL A   1      42.785  24.100  27.119  1.00  0.00     0.023 A 
ATOM     78  C   UNL A   1      43.455  24.317  25.899  1.00  0.00     0.012 A 
ATOM     79  C   UNL A   1      42.166  22.857  27.350  1.00  0.00     0.148 A 
ATOM     80  C   UNL A   1      43.476  23.329  24.912  1.00  0.00     0.002 A 
ATOM     81  C   UNL A   1      42.238  21.857  26.386  1.00  0.00     0.091 A 
ATOM     82  F   UNL A   1      41.522  22.674  28.512  1.00  0.00    -0.205 F 
ATOM     83  C   UNL A   1      42.876  22.098  25.158  1.00  0.00     0.022 A 
BRANCH  81  84
ATOM     84  S   UNL A   1      41.601  20.201  26.663  1.00  0.00     0.127 S 
ATOM     85  O   UNL A   1      41.920  19.541  25.399  1.00  0.00    -0.237 OA
ATOM     86  O   UNL A   1      42.400  19.760  27.807  1.00  0.00    -0.237 OA
ATOM     87  O   UNL A   1      40.183  20.365  26.948  1.00  0.00    -0.744 OA
ENDBRANCH  81  84
ENDBRANCH  53  77
BRANCH  65  88
ATOM     88  C   UNL A   1      47.255  26.171  32.074  1.00  0.00     0.023 A 
ATOM     89  C   UNL A   1      48.432  26.675  31.488  1.00  0.00     0.012 A 
ATOM     90  C   UNL A   1      47.352  25.258  33.144  1.00  0.00     0.148 A 
ATOM     91  C   UNL A   1      49.684  26.258  31.941  1.00  0.00     0.002 A 
ATOM     92  C   UNL A   1      48.603  24.887  33.624  1.00  0.00     0.091 A 
ATOM     93  F   UNL A   1      46.221  24.776  33.678  1.00  0.00    -0.205 F 
ATOM     94  C   UNL A   1      49.770  25.376  33.015  1.00  0.00     0.022 A 
BRANCH  92  95
ATOM     95  S   UNL A   1      48.811  23.838  35.067  1.00  0.00     0.127 S 
ATOM     96  O   UNL A   1      48.582  22.508  34.504  1.00  0.00    -0.237 OA
ATOM     97  O   UNL A   1      50.198  24.107  35.447  1.00  0.00    -0.237 OA
ATOM     98  O   UNL A   1      47.819  24.282  36.037  1.00  0.00    -0.744 OA
ENDBRANCH  92  95
ENDBRANCH  65  88
ENDBRANCH  39  40
ENDBRANCH  31  34
ENDBRANCH  29  30
ENDBRANCH  28  29
ENDBRANCH  27  28
ENDBRANCH   1  27
TORSDOF 19
ENDMDL
MODEL 2
REMARK VINA RESULT:     -11.9      2.532      3.554
REMARK SMILES CC(=O)Nc1ccc(/C=N/c2ccccc2C(=O)NCCCCCCNC(=O)c2ccc(-c3c4nc(c(-c5cccc(S(=O)(=O)[O-])c5F)c5ccc([nH]5)c(-c5cccc(S(=O)(=O)[O-])c5F)c5nc(c(-c6cccc(S(=O)(=O)[O-])c6F)c6ccc3[nH]6)C=C5)C=C4)cc2)cc1
REMARK SMILES IDX 22 1 21 2 20 3 19 4 17 5 18 6 16 8 11 9 12 10 13 11 15 12
REMARK SMILES IDX 14 13 10 14 9 15 8 16 5 17 6 18 93 19 7 20 92 21 4 22 1 23
REMARK SMILES IDX 2 24 3 25 23 27 24 28 25 29 26 30 27 31 28 33 29 34 30 35
REMARK SMILES IDX 91 36 31 37 90 38 32 39 33 40 34 41 84 42 35 43 89 44 83 45
REMARK SMILES IDX 85 46 36 47 88 48 82 49 81 50 37 52 69 53 49 54 68 55 50 56
REMARK SMILES IDX 53 57 67 58 86 59 51 60 52 61 66 63 87 64 54 65 38 66 39 67
REMARK SMILES IDX 47 68 40 69 42 70 48 71 41 72 43 73 44 74 45 75 46 76 70 77
REMARK SMILES IDX 71 78 79 79 72 80 74 81 80 82 73 83 75 84 76 85 77 86 78 87
REMARK SMILES IDX 55 88 56 89 64 90 57 91 59 92 65 93 58 94 60 95 61 96 62 97
REMARK SMILES IDX 63 98
REMARK H PARENT 19 7 4 26 26 32 85 51 53 62
REMARK Flexibility Score: inf
ROOT
ATOM      1  C   UNL A   1      32.020  28.063  25.841  1.00  0.00     0.002 C 
ENDROOT
BRANCH   1   2
ATOM      2  C   UNL A   1      33.403  27.464  25.565  1.00  0.00     0.021 C 
BRANCH   2   3
ATOM      3  C   UNL A   1      33.607  25.969  25.791  1.00  0.00     0.116 C 
BRANCH   3   4
ATOM      4  N   UNL A   1      32.647  25.322  26.656  1.00  0.00    -0.352 N 
ATOM      5  C   UNL A   1      31.975  24.135  26.468  1.00  0.00     0.253 C 
ATOM      6  O   UNL A   1      31.306  23.705  27.412  1.00  0.00    -0.269 OA
ATOM      7  H   UNL A   1      32.446  25.796  27.495  1.00  0.00     0.163 HD
BRANCH   5   8
ATOM      8  C   UNL A   1      31.923  23.391  25.173  1.00  0.00     0.065 A 
ATOM      9  C   UNL A   1      31.372  23.838  23.953  1.00  0.00     0.076 A 
ATOM     10  C   UNL A   1      31.404  22.975  22.842  1.00  0.00     0.029 A 
ATOM     11  C   UNL A   1      32.006  21.718  22.904  1.00  0.00     0.002 A 
ATOM     12  C   UNL A   1      32.557  22.127  25.209  1.00  0.00     0.016 A 
ATOM     13  C   UNL A   1      32.594  21.296  24.087  1.00  0.00     0.001 A 
BRANCH   9  14
ATOM     14  N   UNL A   1      30.698  25.053  23.752  1.00  0.00    -0.255 NA
ATOM     15  C   UNL A   1      31.171  25.891  22.889  1.00  0.00     0.119 C 
BRANCH  15  16
ATOM     16  C   UNL A   1      30.557  27.229  22.745  1.00  0.00    -0.007 A 
ATOM     17  C   UNL A   1      29.613  29.878  22.796  1.00  0.00     0.041 A 
ATOM     18  C   UNL A   1      28.808  28.824  23.253  1.00  0.00     0.027 A 
ATOM     19  C   UNL A   1      30.882  29.579  22.290  1.00  0.00     0.027 A 
ATOM     20  C   UNL A   1      29.277  27.504  23.233  1.00  0.00     0.012 A 
ATOM     21  C   UNL A   1      31.352  28.261  22.253  1.00  0.00     0.012 A 
BRANCH  17  22
ATOM     22  N   UNL A   1      29.150  31.188  23.023  1.00  0.00    -0.326 N 
ATOM     23  C   UNL A   1      28.102  31.766  20.835  1.00  0.00     0.114 C 
ATOM     24  C   UNL A   1      28.654  32.139  22.178  1.00  0.00     0.221 C 
ATOM     25  O   UNL A   1      28.622  33.316  22.542  1.00  0.00    -0.275 OA
ATOM     26  H   UNL A   1      29.193  31.471  23.965  1.00  0.00     0.169 HD
ENDBRANCH  17  22
ENDBRANCH  15  16
ENDBRANCH   9  14
ENDBRANCH   5   8
ENDBRANCH   3   4
ENDBRANCH   2   3
ENDBRANCH   1   2
BRANCH   1  27
ATOM     27  C   UNL A   1      31.785  28.788  27.168  1.00  0.00     0.002 C 
BRANCH  27  28
ATOM     28  C   UNL A   1      31.632  30.307  27.133  1.00  0.00     0.021 C 
BRANCH  28  29
ATOM     29  C   UNL A   1      32.668  31.124  26.373  1.00  0.00     0.116 C 
BRANCH  29  30
ATOM     30  N   UNL A   1      32.746  32.502  26.824  1.00  0.00    -0.352 N 
ATOM     31  C   UNL A   1      33.622  33.156  27.663  1.00  0.00     0.251 C 
ATOM     32  H   UNL A   1      32.037  33.081  26.460  1.00  0.00     0.163 HD
ATOM     33  O   UNL A   1      33.383  34.336  27.926  1.00  0.00    -0.269 OA
BRANCH  31  34
ATOM     34  C   UNL A   1      34.823  32.506  28.263  1.00  0.00     0.039 A 
ATOM     35  C   UNL A   1      34.665  31.240  28.850  1.00  0.00     0.014 A 
ATOM     36  C   UNL A   1      36.075  33.119  28.340  1.00  0.00     0.014 A 
ATOM     37  C   UNL A   1      35.746  30.576  29.447  1.00  0.00     0.010 A 
ATOM     38  C   UNL A   1      37.170  32.434  28.883  1.00  0.00     0.010 A 
ATOM     39  C   UNL A   1      37.016  31.162  29.458  1.00  0.00    -0.014 A 
BRANCH  39  40
ATOM     40  C   UNL A   1      38.172  30.501  30.128  1.00  0.00     0.031 A 
ATOM     41  C   UNL A   1      38.526  30.871  31.547  1.00  0.00     0.074 A 
ATOM     42  C   UNL A   1      38.944  29.618  29.462  1.00  0.00     0.049 A 
ATOM     43  N   UNL A   1      39.531  30.471  32.282  1.00  0.00    -0.248 NA
ATOM     44  C   UNL A   1      37.638  31.834  32.220  1.00  0.00     0.031 C 
ATOM     45  C   UNL A   1      38.735  29.180  28.082  1.00  0.00     0.029 A 
ATOM     46  N   UNL A   1      40.080  28.948  29.854  1.00  0.00    -0.354 N 
ATOM     47  C   UNL A   1      39.422  31.161  33.484  1.00  0.00     0.074 A 
ATOM     48  C   UNL A   1      38.267  32.024  33.370  1.00  0.00     0.031 C 
ATOM     49  C   UNL A   1      39.716  28.328  27.738  1.00  0.00     0.029 A 
ATOM     50  C   UNL A   1      40.639  28.177  28.861  1.00  0.00     0.049 A 
ATOM     51  H   UNL A   1      40.458  29.014  30.761  1.00  0.00     0.167 HD
ATOM     52  C   UNL A   1      40.198  31.074  34.591  1.00  0.00     0.034 A 
ATOM     53  C   UNL A   1      41.772  27.444  28.849  1.00  0.00     0.034 A 
ATOM     54  C   UNL A   1      41.324  30.190  34.725  1.00  0.00     0.049 A 
ATOM     55  C   UNL A   1      42.620  27.367  30.094  1.00  0.00     0.074 A 
ATOM     56  C   UNL A   1      42.120  29.975  35.837  1.00  0.00     0.029 A 
ATOM     57  N   UNL A   1      41.825  29.385  33.715  1.00  0.00    -0.354 N 
ATOM     58  N   UNL A   1      42.422  27.921  31.266  1.00  0.00    -0.248 NA
ATOM     59  C   UNL A   1      43.833  26.536  30.025  1.00  0.00     0.031 C 
ATOM     60  C   UNL A   1      43.127  29.072  35.487  1.00  0.00     0.029 A 
ATOM     61  C   UNL A   1      42.933  28.689  34.170  1.00  0.00     0.049 A 
ATOM     62  H   UNL A   1      41.449  29.319  32.807  1.00  0.00     0.167 HD
ATOM     63  C   UNL A   1      43.454  27.469  32.082  1.00  0.00     0.074 A 
ATOM     64  C   UNL A   1      44.270  26.586  31.276  1.00  0.00     0.031 C 
ATOM     65  C   UNL A   1      43.707  27.766  33.380  1.00  0.00     0.034 A 
BRANCH  52  66
ATOM     66  C   UNL A   1      39.839  31.945  35.768  1.00  0.00     0.023 A 
ATOM     67  C   UNL A   1      40.476  33.192  35.938  1.00  0.00     0.012 A 
ATOM     68  C   UNL A   1      38.833  31.554  36.673  1.00  0.00     0.148 A 
ATOM     69  C   UNL A   1      40.144  34.017  37.013  1.00  0.00     0.002 A 
ATOM     70  C   UNL A   1      38.473  32.403  37.713  1.00  0.00     0.091 A 
ATOM     71  F   UNL A   1      38.252  30.357  36.505  1.00  0.00    -0.205 F 
ATOM     72  C   UNL A   1      39.137  33.627  37.892  1.00  0.00     0.022 A 
BRANCH  70  73
ATOM     73  S   UNL A   1      37.134  32.029  38.849  1.00  0.00     0.127 S 
ATOM     74  O   UNL A   1      37.694  32.479  40.123  1.00  0.00    -0.237 OA
ATOM     75  O   UNL A   1      36.049  32.865  38.331  1.00  0.00    -0.237 OA
ATOM     76  O   UNL A   1      36.902  30.597  38.741  1.00  0.00    -0.744 OA
ENDBRANCH  70  73
ENDBRANCH  52  66
BRANCH  53  77
ATOM     77  C   UNL A   1      42.158  26.677  27.628  1.00  0.00     0.023 A 
ATOM     78  C   UNL A   1      42.793  27.344  26.562  1.00  0.00     0.012 A 
ATOM     79  C   UNL A   1      41.897  25.298  27.515  1.00  0.00     0.148 A 
ATOM     80  C   UNL A   1      43.128  26.662  25.392  1.00  0.00     0.002 A 
ATOM     81  C   UNL A   1      42.283  24.612  26.369  1.00  0.00     0.091 A 
ATOM     82  F   UNL A   1      41.280  24.682  28.534  1.00  0.00    -0.205 F 
ATOM     83  C   UNL A   1      42.881  25.295  25.298  1.00  0.00     0.022 A 
BRANCH  81  84
ATOM     84  S   UNL A   1      42.117  22.830  26.208  1.00  0.00     0.127 S 
ATOM     85  O   UNL A   1      42.763  22.584  24.921  1.00  0.00    -0.237 OA
ATOM     86  O   UNL A   1      42.863  22.353  27.374  1.00  0.00    -0.237 OA
ATOM     87  O   UNL A   1      40.687  22.560  26.258  1.00  0.00    -0.744 OA
ENDBRANCH  81  84
ENDBRANCH  53  77
BRANCH  65  88
ATOM     88  C   UNL A   1      44.884  27.097  34.048  1.00  0.00     0.023 A 
ATOM     89  C   UNL A   1      46.138  27.736  34.076  1.00  0.00     0.012 A 
ATOM     90  C   UNL A   1      44.717  25.873  34.726  1.00  0.00     0.148 A 
ATOM     91  C   UNL A   1      47.216  27.153  34.744  1.00  0.00     0.002 A 
ATOM     92  C   UNL A   1      45.780  25.324  35.433  1.00  0.00     0.091 A 
ATOM     93  F   UNL A   1      43.519  25.271  34.675  1.00  0.00    -0.205 F 
ATOM     94  C   UNL A   1      47.034  25.956  35.432  1.00  0.00     0.022 A 
BRANCH  92  95
ATOM     95  S   UNL A   1      45.613  23.840  36.433  1.00  0.00     0.127 S 
ATOM     96  O   UNL A   1      44.932  24.357  37.620  1.00  0.00    -0.237 OA
ATOM     97  O   UNL A   1      44.786  22.985  35.581  1.00  0.00    -0.237 OA
ATOM     98  O   UNL A   1      46.966  23.348  36.657  1.00  0.00    -0.744 OA
ENDBRANCH  92  95
ENDBRANCH  65  88
ENDBRANCH  39  40
ENDBRANCH  31  34
ENDBRANCH  29  30
ENDBRANCH  28  29
ENDBRANCH  27  28
ENDBRANCH   1  27
TORSDOF 19
ENDMDL
MODEL 3
REMARK VINA RESULT:     -11.8      2.267      7.957
REMARK SMILES CC(=O)Nc1ccc(/C=N/c2ccccc2C(=O)NCCCCCCNC(=O)c2ccc(-c3c4nc(c(-c5cccc(S(=O)(=O)[O-])c5F)c5ccc([nH]5)c(-c5cccc(S(=O)(=O)[O-])c5F)c5nc(c(-c6cccc(S(=O)(=O)[O-])c6F)c6ccc3[nH]6)C=C5)C=C4)cc2)cc1
REMARK SMILES IDX 22 1 21 2 20 3 19 4 17 5 18 6 16 8 11 9 12 10 13 11 15 12
REMARK SMILES IDX 14 13 10 14 9 15 8 16 5 17 6 18 93 19 7 20 92 21 4 22 1 23
REMARK SMILES IDX 2 24 3 25 23 27 24 28 25 29 26 30 27 31 28 33 29 34 30 35
REMARK SMILES IDX 91 36 31 37 90 38 32 39 33 40 34 41 84 42 35 43 89 44 83 45
REMARK SMILES IDX 85 46 36 47 88 48 82 49 81 50 37 52 69 53 49 54 68 55 50 56
REMARK SMILES IDX 53 57 67 58 86 59 51 60 52 61 66 63 87 64 54 65 38 66 39 67
REMARK SMILES IDX 47 68 40 69 42 70 48 71 41 72 43 73 44 74 45 75 46 76 70 77
REMARK SMILES IDX 71 78 79 79 72 80 74 81 80 82 73 83 75 84 76 85 77 86 78 87
REMARK SMILES IDX 55 88 56 89 64 90 57 91 59 92 65 93 58 94 60 95 61 96 62 97
REMARK SMILES IDX 63 98
REMARK H PARENT 19 7 4 26 26 32 85 51 53 62
REMARK Flexibility Score: inf
ROOT
ATOM      1  C   UNL A   1      33.646  26.914  26.094  1.00  0.00     0.002 C 
ENDROOT
BRANCH   1   2
ATOM      2  C   UNL A   1      33.595  25.390  25.931  1.00  0.00     0.021 C 
BRANCH   2   3
ATOM      3  C   UNL A   1      34.904  24.609  25.980  1.00  0.00     0.116 C 
BRANCH   3   4
ATOM      4  N   UNL A   1      35.449  24.204  24.704  1.00  0.00    -0.352 N 
ATOM      5  C   UNL A   1      35.089  23.140  23.908  1.00  0.00     0.253 C 
ATOM      6  O   UNL A   1      35.599  23.071  22.786  1.00  0.00    -0.269 OA
ATOM      7  H   UNL A   1      36.179  24.766  24.358  1.00  0.00     0.163 HD
BRANCH   5   8
ATOM      8  C   UNL A   1      34.203  22.019  24.348  1.00  0.00     0.065 A 
ATOM      9  C   UNL A   1      32.801  22.047  24.498  1.00  0.00     0.076 A 
ATOM     10  C   UNL A   1      32.147  20.884  24.944  1.00  0.00     0.029 A 
ATOM     11  C   UNL A   1      32.840  19.699  25.192  1.00  0.00     0.002 A 
ATOM     12  C   UNL A   1      34.886  20.801  24.573  1.00  0.00     0.016 A 
ATOM     13  C   UNL A   1      34.212  19.653  24.996  1.00  0.00     0.001 A 
BRANCH   9  14
ATOM     14  N   UNL A   1      31.978  23.172  24.330  1.00  0.00    -0.255 NA
ATOM     15  C   UNL A   1      32.094  23.871  23.249  1.00  0.00     0.119 C 
BRANCH  15  16
ATOM     16  C   UNL A   1      31.334  25.130  23.098  1.00  0.00    -0.007 A 
ATOM     17  C   UNL A   1      30.218  27.709  22.963  1.00  0.00     0.041 A 
ATOM     18  C   UNL A   1      29.828  26.815  23.969  1.00  0.00     0.027 A 
ATOM     19  C   UNL A   1      31.152  27.281  22.013  1.00  0.00     0.027 A 
ATOM     20  C   UNL A   1      30.385  25.531  24.042  1.00  0.00     0.012 A 
ATOM     21  C   UNL A   1      31.702  25.995  22.070  1.00  0.00     0.012 A 
BRANCH  17  22
ATOM     22  N   UNL A   1      29.761  29.037  23.066  1.00  0.00    -0.326 N 
ATOM     23  C   UNL A   1      27.285  28.741  23.123  1.00  0.00     0.114 C 
ATOM     24  C   UNL A   1      28.514  29.583  22.957  1.00  0.00     0.221 C 
ATOM     25  O   UNL A   1      28.398  30.793  22.757  1.00  0.00    -0.275 OA
ATOM     26  H   UNL A   1      30.472  29.692  23.252  1.00  0.00     0.169 HD
ENDBRANCH  17  22
ENDBRANCH  15  16
ENDBRANCH   9  14
ENDBRANCH   5   8
ENDBRANCH   3   4
ENDBRANCH   2   3
ENDBRANCH   1   2
BRANCH   1  27
ATOM     27  C   UNL A   1      33.691  27.786  24.837  1.00  0.00     0.002 C 
BRANCH  27  28
ATOM     28  C   UNL A   1      32.990  29.141  24.884  1.00  0.00     0.021 C 
BRANCH  28  29
ATOM     29  C   UNL A   1      32.166  29.490  26.117  1.00  0.00     0.116 C 
BRANCH  29  30
ATOM     30  N   UNL A   1      32.003  30.921  26.303  1.00  0.00    -0.352 N 
ATOM     31  C   UNL A   1      32.741  31.858  26.992  1.00  0.00     0.251 C 
ATOM     32  H   UNL A   1      31.212  31.294  25.850  1.00  0.00     0.163 HD
ATOM     33  O   UNL A   1      32.303  33.008  27.036  1.00  0.00    -0.269 OA
BRANCH  31  34
ATOM     34  C   UNL A   1      34.025  31.543  27.684  1.00  0.00     0.039 A 
ATOM     35  C   UNL A   1      34.250  30.218  28.088  1.00  0.00     0.014 A 
ATOM     36  C   UNL A   1      34.979  32.506  28.017  1.00  0.00     0.014 A 
ATOM     37  C   UNL A   1      35.427  29.851  28.756  1.00  0.00     0.010 A 
ATOM     38  C   UNL A   1      36.182  32.134  28.631  1.00  0.00     0.010 A 
ATOM     39  C   UNL A   1      36.414  30.806  29.024  1.00  0.00    -0.014 A 
BRANCH  39  40
ATOM     40  C   UNL A   1      37.652  30.455  29.776  1.00  0.00     0.031 A 
ATOM     41  C   UNL A   1      38.644  29.491  29.175  1.00  0.00     0.074 A 
ATOM     42  C   UNL A   1      37.869  30.941  31.016  1.00  0.00     0.049 A 
ATOM     43  N   UNL A   1      39.741  29.000  29.693  1.00  0.00    -0.248 NA
ATOM     44  C   UNL A   1      38.353  29.004  27.816  1.00  0.00     0.031 C 
ATOM     45  C   UNL A   1      36.987  31.864  31.731  1.00  0.00     0.029 A 
ATOM     46  N   UNL A   1      38.891  30.703  31.905  1.00  0.00    -0.354 N 
ATOM     47  C   UNL A   1      40.246  28.118  28.745  1.00  0.00     0.074 A 
ATOM     48  C   UNL A   1      39.324  28.122  27.631  1.00  0.00     0.031 C 
ATOM     49  C   UNL A   1      37.498  32.103  32.951  1.00  0.00     0.029 A 
ATOM     50  C   UNL A   1      38.728  31.331  33.118  1.00  0.00     0.049 A 
ATOM     51  H   UNL A   1      39.668  30.136  31.692  1.00  0.00     0.167 HD
ATOM     52  C   UNL A   1      41.384  27.383  28.785  1.00  0.00     0.034 A 
ATOM     53  C   UNL A   1      39.474  31.282  34.241  1.00  0.00     0.034 A 
ATOM     54  C   UNL A   1      42.325  27.402  29.872  1.00  0.00     0.049 A 
ATOM     55  C   UNL A   1      40.734  30.454  34.260  1.00  0.00     0.074 A 
ATOM     56  C   UNL A   1      43.544  26.753  29.965  1.00  0.00     0.029 A 
ATOM     57  N   UNL A   1      42.150  28.094  31.060  1.00  0.00    -0.354 N 
ATOM     58  N   UNL A   1      41.266  29.734  33.302  1.00  0.00    -0.248 NA
ATOM     59  C   UNL A   1      41.515  30.455  35.508  1.00  0.00     0.031 C 
ATOM     60  C   UNL A   1      44.087  27.019  31.225  1.00  0.00     0.029 A 
ATOM     61  C   UNL A   1      43.228  27.870  31.900  1.00  0.00     0.049 A 
ATOM     62  H   UNL A   1      41.374  28.661  31.274  1.00  0.00     0.167 HD
ATOM     63  C   UNL A   1      42.462  29.239  33.814  1.00  0.00     0.074 A 
ATOM     64  C   UNL A   1      42.584  29.750  35.162  1.00  0.00     0.031 C 
ATOM     65  C   UNL A   1      43.372  28.428  33.220  1.00  0.00     0.034 A 
BRANCH  52  66
ATOM     66  C   UNL A   1      41.694  26.506  27.598  1.00  0.00     0.023 A 
ATOM     67  C   UNL A   1      42.304  27.061  26.455  1.00  0.00     0.012 A 
ATOM     68  C   UNL A   1      41.432  25.122  27.639  1.00  0.00     0.148 A 
ATOM     69  C   UNL A   1      42.612  26.259  25.355  1.00  0.00     0.002 A 
ATOM     70  C   UNL A   1      41.787  24.322  26.560  1.00  0.00     0.091 A 
ATOM     71  F   UNL A   1      40.835  24.616  28.728  1.00  0.00    -0.205 F 
ATOM     72  C   UNL A   1      42.364  24.891  25.412  1.00  0.00     0.022 A 
BRANCH  70  73
ATOM     73  S   UNL A   1      41.583  22.538  26.569  1.00  0.00     0.127 S 
ATOM     74  O   UNL A   1      42.233  22.160  25.313  1.00  0.00    -0.237 OA
ATOM     75  O   UNL A   1      42.318  22.151  27.775  1.00  0.00    -0.237 OA
ATOM     76  O   UNL A   1      40.150  22.296  26.627  1.00  0.00    -0.744 OA
ENDBRANCH  70  73
ENDBRANCH  52  66
BRANCH  53  77
ATOM     77  C   UNL A   1      39.081  32.080  35.440  1.00  0.00     0.023 A 
ATOM     78  C   UNL A   1      38.170  31.535  36.366  1.00  0.00     0.012 A 
ATOM     79  C   UNL A   1      39.599  33.370  35.665  1.00  0.00     0.148 A 
ATOM     80  C   UNL A   1      37.752  32.275  37.474  1.00  0.00     0.002 A 
ATOM     81  C   UNL A   1      39.222  34.080  36.800  1.00  0.00     0.091 A 
ATOM     82  F   UNL A   1      40.454  33.877  34.766  1.00  0.00    -0.205 F 
ATOM     83  C   UNL A   1      38.284  33.542  37.696  1.00  0.00     0.022 A 
BRANCH  81  84
ATOM     84  S   UNL A   1      39.945  35.666  37.231  1.00  0.00     0.127 S 
ATOM     85  O   UNL A   1      41.353  35.316  37.405  1.00  0.00    -0.237 OA
ATOM     86  O   UNL A   1      39.651  36.464  36.040  1.00  0.00    -0.237 OA
ATOM     87  O   UNL A   1      39.251  36.104  38.434  1.00  0.00    -0.744 OA
ENDBRANCH  81  84
ENDBRANCH  53  77
BRANCH  65  88
ATOM     88  C   UNL A   1      44.619  28.073  33.993  1.00  0.00     0.023 A 
ATOM     89  C   UNL A   1      45.768  28.881  33.893  1.00  0.00     0.012 A 
ATOM     90  C   UNL A   1      44.616  26.985  34.889  1.00  0.00     0.148 A 
ATOM     91  C   UNL A   1      46.904  28.596  34.650  1.00  0.00     0.002 A 
ATOM     92  C   UNL A   1      45.733  26.737  35.679  1.00  0.00     0.091 A 
ATOM     93  F   UNL A   1      43.519  26.217  34.959  1.00  0.00    -0.205 F 
ATOM     94  C   UNL A   1      46.883  27.534  35.551  1.00  0.00     0.022 A 
BRANCH  92  95
ATOM     95  S   UNL A   1      45.761  25.457  36.939  1.00  0.00     0.127 S 
ATOM     96  O   UNL A   1      47.072  25.671  37.552  1.00  0.00    -0.237 OA
ATOM     97  O   UNL A   1      44.626  25.830  37.784  1.00  0.00    -0.237 OA
ATOM     98  O   UNL A   1      45.603  24.192  36.234  1.00  0.00    -0.744 OA
ENDBRANCH  92  95
ENDBRANCH  65  88
ENDBRANCH  39  40
ENDBRANCH  31  34
ENDBRANCH  29  30
ENDBRANCH  28  29
ENDBRANCH  27  28
ENDBRANCH   1  27
TORSDOF 19
ENDMDL
