MODEL 1
REMARK VINA RESULT:     -11.9      0.000      0.000
REMARK SMILES C[C@H]1[C@H](C(=O)NCCCCCCNC(=O)c2ccc(-c3c4nc(c(-c5cccc(S(=O)(=O)[O-])c5F)c5ccc([nH]5)c(-c5cccc(S(=O)(=O)[O-])c5F)c5nc(c(-c6cccc(S(=O)(=O)[O-])c6F)c6ccc3[nH]6)C=C5)C=C4)cc2)CC[N@@H+]1CC(=O)N1CCCC1
REMARK SMILES IDX 10 1 9 2 8 3 7 4 6 5 4 6 5 7 3 9 1 10 2 11 81 12 79 13 80 14
REMARK SMILES IDX 82 16 83 17 84 18 85 19 86 20 89 21 87 22 88 23 11 24 12 25
REMARK SMILES IDX 13 26 14 27 15 29 16 30 17 31 78 32 18 33 77 34 19 35 20 36
REMARK SMILES IDX 21 37 71 38 22 39 76 40 70 41 72 42 23 43 75 44 69 45 68 46
REMARK SMILES IDX 24 48 56 49 36 50 55 51 37 52 40 53 54 54 73 55 38 56 39 57
REMARK SMILES IDX 53 59 74 60 41 61 25 62 26 63 34 64 27 65 29 66 35 67 28 68
REMARK SMILES IDX 30 69 31 70 32 71 33 72 57 73 58 74 66 75 59 76 61 77 67 78
REMARK SMILES IDX 60 79 62 80 63 81 64 82 65 83 42 84 43 85 51 86 44 87 46 88
REMARK SMILES IDX 52 89 45 90 47 91 48 92 49 93 50 94
REMARK H PARENT 6 8 81 15 13 28 72 47 40 58
REMARK Flexibility Score: inf
ROOT
ATOM      1  C   UNL A   1      31.712  30.830  26.136  1.00  0.00     0.002 C 
ENDROOT
BRANCH   1   2
ATOM      2  C   UNL A   1      32.429  29.723  26.909  1.00  0.00     0.002 C 
BRANCH   2   3
ATOM      3  C   UNL A   1      32.232  28.304  26.362  1.00  0.00     0.021 C 
BRANCH   3   4
ATOM      4  C   UNL A   1      31.416  27.217  27.102  1.00  0.00     0.116 C 
BRANCH   4   5
ATOM      5  N   UNL A   1      31.173  25.953  26.397  1.00  0.00    -0.356 N 
ATOM      6  C   UNL A   1      31.867  24.815  26.114  1.00  0.00     0.229 C 
ATOM      7  O   UNL A   1      31.161  23.911  25.627  1.00  0.00    -0.275 OA
ATOM      8  H   UNL A   1      30.261  25.918  26.027  1.00  0.00     0.163 HD
BRANCH   6   9
ATOM      9  C   UNL A   1      33.384  24.516  26.215  1.00  0.00     0.142 C 
ATOM     10  C   UNL A   1      34.575  22.567  27.529  1.00  0.00     0.076 C 
ATOM     11  C   UNL A   1      33.689  23.019  26.363  1.00  0.00     0.194 C 
ATOM     12  N   UNL A   1      34.418  22.610  25.170  1.00  0.00    -0.324 N 
ATOM     13  C   UNL A   1      34.310  25.013  25.132  1.00  0.00     0.081 C 
ATOM     14  C   UNL A   1      34.756  23.775  24.360  1.00  0.00     0.263 C 
ATOM     15  H   UNL A   1      35.313  22.217  25.463  1.00  0.00     0.348 HD
BRANCH  12  16
ATOM     16  C   UNL A   1      33.868  21.432  24.473  1.00  0.00     0.364 C 
BRANCH  16  17
ATOM     17  C   UNL A   1      34.635  20.141  24.778  1.00  0.00     0.277 C 
ATOM     18  O   UNL A   1      35.828  20.245  25.054  1.00  0.00    -0.268 OA
ATOM     19  N   UNL A   1      33.962  18.927  24.679  1.00  0.00    -0.338 N 
ATOM     20  C   UNL A   1      32.579  18.704  25.044  1.00  0.00     0.119 C 
ATOM     21  C   UNL A   1      34.518  17.673  24.204  1.00  0.00     0.119 C 
ATOM     22  C   UNL A   1      32.465  17.192  25.279  1.00  0.00     0.023 C 
ATOM     23  C   UNL A   1      33.855  16.616  25.044  1.00  0.00     0.023 C 
ENDBRANCH  16  17
ENDBRANCH  12  16
ENDBRANCH   6   9
ENDBRANCH   4   5
ENDBRANCH   3   4
ENDBRANCH   2   3
ENDBRANCH   1   2
BRANCH   1  24
ATOM     24  C   UNL A   1      31.490  32.146  26.896  1.00  0.00     0.021 C 
BRANCH  24  25
ATOM     25  C   UNL A   1      32.748  32.787  27.483  1.00  0.00     0.116 C 
BRANCH  25  26
ATOM     26  N   UNL A   1      32.580  34.226  27.649  1.00  0.00    -0.352 N 
ATOM     27  C   UNL A   1      33.095  35.017  28.646  1.00  0.00     0.251 C 
ATOM     28  H   UNL A   1      32.035  34.683  26.970  1.00  0.00     0.163 HD
ATOM     29  O   UNL A   1      32.646  36.143  28.863  1.00  0.00    -0.269 OA
BRANCH  27  30
ATOM     30  C   UNL A   1      34.212  34.490  29.450  1.00  0.00     0.039 A 
ATOM     31  C   UNL A   1      33.957  33.825  30.649  1.00  0.00     0.014 A 
ATOM     32  C   UNL A   1      35.514  34.611  28.956  1.00  0.00     0.014 A 
ATOM     33  C   UNL A   1      35.019  33.237  31.339  1.00  0.00     0.010 A 
ATOM     34  C   UNL A   1      36.555  33.957  29.604  1.00  0.00     0.010 A 
ATOM     35  C   UNL A   1      36.322  33.278  30.809  1.00  0.00    -0.014 A 
BRANCH  35  36
ATOM     36  C   UNL A   1      37.458  32.633  31.512  1.00  0.00     0.031 A 
ATOM     37  C   UNL A   1      38.191  31.494  30.856  1.00  0.00     0.074 A 
ATOM     38  C   UNL A   1      37.780  33.021  32.761  1.00  0.00     0.049 A 
ATOM     39  N   UNL A   1      39.188  30.783  31.313  1.00  0.00    -0.248 NA
ATOM     40  C   UNL A   1      37.723  31.078  29.522  1.00  0.00     0.031 C 
ATOM     41  C   UNL A   1      37.086  34.055  33.531  1.00  0.00     0.029 A 
ATOM     42  N   UNL A   1      38.759  32.576  33.613  1.00  0.00    -0.354 N 
ATOM     43  C   UNL A   1      39.441  29.820  30.344  1.00  0.00     0.074 A 
ATOM     44  C   UNL A   1      38.465  30.006  29.294  1.00  0.00     0.031 C 
ATOM     45  C   UNL A   1      37.670  34.175  34.735  1.00  0.00     0.029 A 
ATOM     46  C   UNL A   1      38.757  33.208  34.835  1.00  0.00     0.049 A 
ATOM     47  H   UNL A   1      39.403  31.871  33.372  1.00  0.00     0.167 HD
ATOM     48  C   UNL A   1      40.420  28.884  30.313  1.00  0.00     0.034 A 
ATOM     49  C   UNL A   1      39.542  33.022  35.914  1.00  0.00     0.034 A 
ATOM     50  C   UNL A   1      41.407  28.729  31.346  1.00  0.00     0.049 A 
ATOM     51  C   UNL A   1      40.644  31.999  35.843  1.00  0.00     0.074 A 
ATOM     52  C   UNL A   1      42.494  27.875  31.375  1.00  0.00     0.029 A 
ATOM     53  N   UNL A   1      41.418  29.436  32.538  1.00  0.00    -0.354 N 
ATOM     54  N   UNL A   1      40.972  31.207  34.849  1.00  0.00    -0.248 NA
ATOM     55  C   UNL A   1      41.506  31.866  37.025  1.00  0.00     0.031 C 
ATOM     56  C   UNL A   1      43.142  28.040  32.603  1.00  0.00     0.029 A 
ATOM     57  C   UNL A   1      42.484  29.028  33.320  1.00  0.00     0.049 A 
ATOM     58  H   UNL A   1      40.765  30.127  32.791  1.00  0.00     0.167 HD
ATOM     59  C   UNL A   1      42.096  30.508  35.272  1.00  0.00     0.074 A 
ATOM     60  C   UNL A   1      42.408  30.989  36.603  1.00  0.00     0.031 C 
ATOM     61  C   UNL A   1      42.803  29.549  34.625  1.00  0.00     0.034 A 
BRANCH  48  62
ATOM     62  C   UNL A   1      40.491  27.988  29.104  1.00  0.00     0.023 A 
ATOM     63  C   UNL A   1      39.590  26.909  28.978  1.00  0.00     0.012 A 
ATOM     64  C   UNL A   1      41.418  28.234  28.073  1.00  0.00     0.148 A 
ATOM     65  C   UNL A   1      39.640  26.065  27.870  1.00  0.00     0.002 A 
ATOM     66  C   UNL A   1      41.428  27.419  26.947  1.00  0.00     0.091 A 
ATOM     67  F   UNL A   1      42.280  29.250  28.217  1.00  0.00    -0.205 F 
ATOM     68  C   UNL A   1      40.551  26.326  26.851  1.00  0.00     0.022 A 
BRANCH  66  69
ATOM     69  S   UNL A   1      42.505  27.718  25.541  1.00  0.00     0.127 S 
ATOM     70  O   UNL A   1      42.237  26.546  24.708  1.00  0.00    -0.237 OA
ATOM     71  O   UNL A   1      41.976  28.976  25.012  1.00  0.00    -0.237 OA
ATOM     72  O   UNL A   1      43.856  27.805  26.080  1.00  0.00    -0.744 OA
ENDBRANCH  66  69
ENDBRANCH  48  62
BRANCH  49  73
ATOM     73  C   UNL A   1      39.355  33.866  37.130  1.00  0.00     0.023 A 
ATOM     74  C   UNL A   1      39.798  35.203  37.122  1.00  0.00     0.012 A 
ATOM     75  C   UNL A   1      38.724  33.360  38.282  1.00  0.00     0.148 A 
ATOM     76  C   UNL A   1      39.647  36.010  38.251  1.00  0.00     0.002 A 
ATOM     77  C   UNL A   1      38.525  34.186  39.383  1.00  0.00     0.091 A 
ATOM     78  F   UNL A   1      38.317  32.083  38.273  1.00  0.00    -0.205 F 
ATOM     79  C   UNL A   1      39.003  35.505  39.377  1.00  0.00     0.022 A 
BRANCH  77  80
ATOM     80  S   UNL A   1      37.595  33.663  40.827  1.00  0.00     0.127 S 
ATOM     81  O   UNL A   1      38.520  32.724  41.456  1.00  0.00    -0.237 OA
ATOM     82  O   UNL A   1      37.417  34.927  41.544  1.00  0.00    -0.237 OA
ATOM     83  O   UNL A   1      36.360  33.084  40.314  1.00  0.00    -0.744 OA
ENDBRANCH  77  80
ENDBRANCH  49  73
BRANCH  61  84
ATOM     84  C   UNL A   1      44.005  28.974  35.327  1.00  0.00     0.023 A 
ATOM     85  C   UNL A   1      45.268  29.577  35.169  1.00  0.00     0.012 A 
ATOM     86  C   UNL A   1      43.863  27.882  36.205  1.00  0.00     0.148 A 
ATOM     87  C   UNL A   1      46.380  29.077  35.846  1.00  0.00     0.002 A 
ATOM     88  C   UNL A   1      44.964  27.425  36.918  1.00  0.00     0.091 A 
ATOM     89  F   UNL A   1      42.655  27.313  36.329  1.00  0.00    -0.205 F 
ATOM     90  C   UNL A   1      46.225  28.011  36.729  1.00  0.00     0.022 A 
BRANCH  88  91
ATOM     91  S   UNL A   1      44.841  26.124  38.151  1.00  0.00     0.127 S 
ATOM     92  O   UNL A   1      46.128  26.241  38.837  1.00  0.00    -0.237 OA
ATOM     93  O   UNL A   1      43.687  26.557  38.941  1.00  0.00    -0.237 OA
ATOM     94  O   UNL A   1      44.639  24.885  37.413  1.00  0.00    -0.744 OA
ENDBRANCH  88  91
ENDBRANCH  61  84
ENDBRANCH  35  36
ENDBRANCH  27  30
ENDBRANCH  25  26
ENDBRANCH  24  25
ENDBRANCH   1  24
TORSDOF 18
ENDMDL
MODEL 2
REMARK VINA RESULT:     -11.9      1.637      2.930
REMARK SMILES C[C@H]1[C@H](C(=O)NCCCCCCNC(=O)c2ccc(-c3c4nc(c(-c5cccc(S(=O)(=O)[O-])c5F)c5ccc([nH]5)c(-c5cccc(S(=O)(=O)[O-])c5F)c5nc(c(-c6cccc(S(=O)(=O)[O-])c6F)c6ccc3[nH]6)C=C5)C=C4)cc2)CC[N@@H+]1CC(=O)N1CCCC1
REMARK SMILES IDX 10 1 9 2 8 3 7 4 6 5 4 6 5 7 3 9 1 10 2 11 81 12 79 13 80 14
REMARK SMILES IDX 82 16 83 17 84 18 85 19 86 20 89 21 87 22 88 23 11 24 12 25
REMARK SMILES IDX 13 26 14 27 15 29 16 30 17 31 78 32 18 33 77 34 19 35 20 36
REMARK SMILES IDX 21 37 71 38 22 39 76 40 70 41 72 42 23 43 75 44 69 45 68 46
REMARK SMILES IDX 24 48 56 49 36 50 55 51 37 52 40 53 54 54 73 55 38 56 39 57
REMARK SMILES IDX 53 59 74 60 41 61 25 62 26 63 34 64 27 65 29 66 35 67 28 68
REMARK SMILES IDX 30 69 31 70 32 71 33 72 57 73 58 74 66 75 59 76 61 77 67 78
REMARK SMILES IDX 60 79 62 80 63 81 64 82 65 83 42 84 43 85 51 86 44 87 46 88
REMARK SMILES IDX 52 89 45 90 47 91 48 92 49 93 50 94
REMARK H PARENT 6 8 81 15 13 28 72 47 40 58
REMARK Flexibility Score: inf
ROOT
ATOM      1  C   UNL A   1      31.767  30.739  26.552  1.00  0.00     0.002 C 
ENDROOT
BRANCH   1   2
ATOM      2  C   UNL A   1      33.172  30.154  26.691  1.00  0.00     0.002 C 
BRANCH   2   3
ATOM      3  C   UNL A   1      33.250  28.623  26.701  1.00  0.00     0.021 C 
BRANCH   3   4
ATOM      4  C   UNL A   1      32.290  27.732  27.526  1.00  0.00     0.116 C 
BRANCH   4   5
ATOM      5  N   UNL A   1      31.290  26.949  26.790  1.00  0.00    -0.356 N 
ATOM      6  C   UNL A   1      31.197  25.703  26.245  1.00  0.00     0.229 C 
ATOM      7  O   UNL A   1      30.047  25.412  25.865  1.00  0.00    -0.275 OA
ATOM      8  H   UNL A   1      30.462  27.463  26.652  1.00  0.00     0.163 HD
BRANCH   6   9
ATOM      9  C   UNL A   1      32.299  24.656  25.945  1.00  0.00     0.142 C 
ATOM     10  C   UNL A   1      32.047  22.326  24.741  1.00  0.00     0.076 C 
ATOM     11  C   UNL A   1      32.032  23.857  24.663  1.00  0.00     0.194 C 
ATOM     12  N   UNL A   1      33.094  24.186  23.723  1.00  0.00    -0.324 N 
ATOM     13  C   UNL A   1      33.738  25.102  25.852  1.00  0.00     0.081 C 
ATOM     14  C   UNL A   1      34.115  24.995  24.378  1.00  0.00     0.263 C 
ATOM     15  H   UNL A   1      33.565  23.320  23.459  1.00  0.00     0.348 HD
BRANCH  12  16
ATOM     16  C   UNL A   1      32.637  24.615  22.387  1.00  0.00     0.364 C 
BRANCH  16  17
ATOM     17  C   UNL A   1      32.831  26.114  22.139  1.00  0.00     0.277 C 
ATOM     18  O   UNL A   1      33.809  26.456  21.477  1.00  0.00    -0.268 OA
ATOM     19  N   UNL A   1      31.927  27.006  22.710  1.00  0.00    -0.338 N 
ATOM     20  C   UNL A   1      30.508  26.774  22.867  1.00  0.00     0.119 C 
ATOM     21  C   UNL A   1      32.237  28.322  23.240  1.00  0.00     0.119 C 
ATOM     22  C   UNL A   1      29.887  28.169  23.015  1.00  0.00     0.023 C 
ATOM     23  C   UNL A   1      31.036  29.163  22.909  1.00  0.00     0.023 C 
ENDBRANCH  16  17
ENDBRANCH  12  16
ENDBRANCH   6   9
ENDBRANCH   4   5
ENDBRANCH   3   4
ENDBRANCH   2   3
ENDBRANCH   1   2
BRANCH   1  24
ATOM     24  C   UNL A   1      31.630  32.239  26.852  1.00  0.00     0.021 C 
BRANCH  24  25
ATOM     25  C   UNL A   1      32.878  32.912  27.424  1.00  0.00     0.116 C 
BRANCH  25  26
ATOM     26  N   UNL A   1      32.642  34.326  27.689  1.00  0.00    -0.352 N 
ATOM     27  C   UNL A   1      33.097  35.065  28.753  1.00  0.00     0.251 C 
ATOM     28  H   UNL A   1      32.091  34.808  27.030  1.00  0.00     0.163 HD
ATOM     29  O   UNL A   1      32.593  36.151  29.039  1.00  0.00    -0.269 OA
BRANCH  27  30
ATOM     30  C   UNL A   1      34.218  34.529  29.545  1.00  0.00     0.039 A 
ATOM     31  C   UNL A   1      33.978  33.937  30.786  1.00  0.00     0.014 A 
ATOM     32  C   UNL A   1      35.506  34.567  29.004  1.00  0.00     0.014 A 
ATOM     33  C   UNL A   1      35.038  33.337  31.469  1.00  0.00     0.010 A 
ATOM     34  C   UNL A   1      36.540  33.900  29.649  1.00  0.00     0.010 A 
ATOM     35  C   UNL A   1      36.321  33.294  30.895  1.00  0.00    -0.014 A 
BRANCH  35  36
ATOM     36  C   UNL A   1      37.453  32.635  31.591  1.00  0.00     0.031 A 
ATOM     37  C   UNL A   1      38.171  31.490  30.930  1.00  0.00     0.074 A 
ATOM     38  C   UNL A   1      37.784  33.017  32.841  1.00  0.00     0.049 A 
ATOM     39  N   UNL A   1      39.163  30.767  31.382  1.00  0.00    -0.248 NA
ATOM     40  C   UNL A   1      37.694  31.082  29.597  1.00  0.00     0.031 C 
ATOM     41  C   UNL A   1      37.104  34.056  33.616  1.00  0.00     0.029 A 
ATOM     42  N   UNL A   1      38.761  32.558  33.688  1.00  0.00    -0.354 N 
ATOM     43  C   UNL A   1      39.401  29.803  30.409  1.00  0.00     0.074 A 
ATOM     44  C   UNL A   1      38.423  30.003  29.364  1.00  0.00     0.031 C 
ATOM     45  C   UNL A   1      37.693  34.166  34.818  1.00  0.00     0.029 A 
ATOM     46  C   UNL A   1      38.771  33.187  34.911  1.00  0.00     0.049 A 
ATOM     47  H   UNL A   1      39.396  31.847  33.442  1.00  0.00     0.167 HD
ATOM     48  C   UNL A   1      40.370  28.858  30.372  1.00  0.00     0.034 A 
ATOM     49  C   UNL A   1      39.557  32.990  35.987  1.00  0.00     0.034 A 
ATOM     50  C   UNL A   1      41.359  28.689  31.401  1.00  0.00     0.049 A 
ATOM     51  C   UNL A   1      40.648  31.955  35.909  1.00  0.00     0.074 A 
ATOM     52  C   UNL A   1      42.437  27.823  31.424  1.00  0.00     0.029 A 
ATOM     53  N   UNL A   1      41.382  29.393  32.595  1.00  0.00    -0.354 N 
ATOM     54  N   UNL A   1      40.963  31.162  34.912  1.00  0.00    -0.248 NA
ATOM     55  C   UNL A   1      41.513  31.810  37.088  1.00  0.00     0.031 C 
ATOM     56  C   UNL A   1      43.092  27.978  32.650  1.00  0.00     0.029 A 
ATOM     57  C   UNL A   1      42.447  28.971  33.372  1.00  0.00     0.049 A 
ATOM     58  H   UNL A   1      40.738  30.091  32.852  1.00  0.00     0.167 HD
ATOM     59  C   UNL A   1      42.082  30.451  35.330  1.00  0.00     0.074 A 
ATOM     60  C   UNL A   1      42.403  30.925  36.661  1.00  0.00     0.031 C 
ATOM     61  C   UNL A   1      42.776  29.486  34.677  1.00  0.00     0.034 A 
BRANCH  48  62
ATOM     62  C   UNL A   1      40.427  27.963  29.160  1.00  0.00     0.023 A 
ATOM     63  C   UNL A   1      39.519  26.890  29.039  1.00  0.00     0.012 A 
ATOM     64  C   UNL A   1      41.347  28.207  28.123  1.00  0.00     0.148 A 
ATOM     65  C   UNL A   1      39.557  26.048  27.929  1.00  0.00     0.002 A 
ATOM     66  C   UNL A   1      41.344  27.395  26.995  1.00  0.00     0.091 A 
ATOM     67  F   UNL A   1      42.215  29.219  28.262  1.00  0.00    -0.205 F 
ATOM     68  C   UNL A   1      40.461  26.307  26.903  1.00  0.00     0.022 A 
BRANCH  66  69
ATOM     69  S   UNL A   1      42.412  27.692  25.582  1.00  0.00     0.127 S 
ATOM     70  O   UNL A   1      41.876  28.952  25.066  1.00  0.00    -0.237 OA
ATOM     71  O   UNL A   1      43.728  27.802  26.211  1.00  0.00    -0.237 OA
ATOM     72  O   UNL A   1      42.250  26.541  24.705  1.00  0.00    -0.744 OA
ENDBRANCH  66  69
ENDBRANCH  48  62
BRANCH  49  73
ATOM     73  C   UNL A   1      39.384  33.833  37.206  1.00  0.00     0.023 A 
ATOM     74  C   UNL A   1      39.869  35.155  37.211  1.00  0.00     0.012 A 
ATOM     75  C   UNL A   1      38.724  33.341  38.348  1.00  0.00     0.148 A 
ATOM     76  C   UNL A   1      39.732  35.960  38.342  1.00  0.00     0.002 A 
ATOM     77  C   UNL A   1      38.540  34.166  39.452  1.00  0.00     0.091 A 
ATOM     78  F   UNL A   1      38.276  32.078  38.327  1.00  0.00    -0.205 F 
ATOM     79  C   UNL A   1      39.060  35.470  39.458  1.00  0.00     0.022 A 
BRANCH  77  80
ATOM     80  S   UNL A   1      37.576  33.666  40.882  1.00  0.00     0.127 S 
ATOM     81  O   UNL A   1      37.404  34.934  41.586  1.00  0.00    -0.237 OA
ATOM     82  O   UNL A   1      36.363  33.138  40.257  1.00  0.00    -0.237 OA
ATOM     83  O   UNL A   1      38.381  32.666  41.571  1.00  0.00    -0.744 OA
ENDBRANCH  77  80
ENDBRANCH  49  73
BRANCH  61  84
ATOM     84  C   UNL A   1      43.974  28.896  35.374  1.00  0.00     0.023 A 
ATOM     85  C   UNL A   1      45.245  29.478  35.202  1.00  0.00     0.012 A 
ATOM     86  C   UNL A   1      43.822  27.811  36.259  1.00  0.00     0.148 A 
ATOM     87  C   UNL A   1      46.355  28.964  35.873  1.00  0.00     0.002 A 
ATOM     88  C   UNL A   1      44.921  27.341  36.966  1.00  0.00     0.091 A 
ATOM     89  F   UNL A   1      42.606  27.263  36.396  1.00  0.00    -0.205 F 
ATOM     90  C   UNL A   1      46.190  27.906  36.764  1.00  0.00     0.022 A 
BRANCH  88  91
ATOM     91  S   UNL A   1      44.788  26.050  38.208  1.00  0.00     0.127 S 
ATOM     92  O   UNL A   1      46.188  25.839  38.571  1.00  0.00    -0.237 OA
ATOM     93  O   UNL A   1      43.981  26.700  39.242  1.00  0.00    -0.237 OA
ATOM     94  O   UNL A   1      44.137  24.924  37.552  1.00  0.00    -0.744 OA
ENDBRANCH  88  91
ENDBRANCH  61  84
ENDBRANCH  35  36
ENDBRANCH  27  30
ENDBRANCH  25  26
ENDBRANCH  24  25
ENDBRANCH   1  24
TORSDOF 18
ENDMDL
MODEL 3
REMARK VINA RESULT:     -11.9      2.479      8.013
REMARK SMILES C[C@H]1[C@H](C(=O)NCCCCCCNC(=O)c2ccc(-c3c4nc(c(-c5cccc(S(=O)(=O)[O-])c5F)c5ccc([nH]5)c(-c5cccc(S(=O)(=O)[O-])c5F)c5nc(c(-c6cccc(S(=O)(=O)[O-])c6F)c6ccc3[nH]6)C=C5)C=C4)cc2)CC[N@@H+]1CC(=O)N1CCCC1
REMARK SMILES IDX 10 1 9 2 8 3 7 4 6 5 4 6 5 7 3 9 1 10 2 11 81 12 79 13 80 14
REMARK SMILES IDX 82 16 83 17 84 18 85 19 86 20 89 21 87 22 88 23 11 24 12 25
REMARK SMILES IDX 13 26 14 27 15 29 16 30 17 31 78 32 18 33 77 34 19 35 20 36
REMARK SMILES IDX 21 37 71 38 22 39 76 40 70 41 72 42 23 43 75 44 69 45 68 46
REMARK SMILES IDX 24 48 56 49 36 50 55 51 37 52 40 53 54 54 73 55 38 56 39 57
REMARK SMILES IDX 53 59 74 60 41 61 25 62 26 63 34 64 27 65 29 66 35 67 28 68
REMARK SMILES IDX 30 69 31 70 32 71 33 72 57 73 58 74 66 75 59 76 61 77 67 78
REMARK SMILES IDX 60 79 62 80 63 81 64 82 65 83 42 84 43 85 51 86 44 87 46 88
REMARK SMILES IDX 52 89 45 90 47 91 48 92 49 93 50 94
REMARK H PARENT 6 8 81 15 13 28 72 47 40 58
REMARK Flexibility Score: inf
ROOT
ATOM      1  C   UNL A   1      30.950  28.799  24.269  1.00  0.00     0.002 C 
ENDROOT
BRANCH   1   2
ATOM      2  C   UNL A   1      30.389  27.611  23.488  1.00  0.00     0.002 C 
BRANCH   2   3
ATOM      3  C   UNL A   1      31.247  26.341  23.514  1.00  0.00     0.021 C 
BRANCH   3   4
ATOM      4  C   UNL A   1      30.651  24.919  23.652  1.00  0.00     0.116 C 
BRANCH   4   5
ATOM      5  N   UNL A   1      30.280  24.466  24.998  1.00  0.00    -0.356 N 
ATOM      6  C   UNL A   1      30.909  24.227  26.183  1.00  0.00     0.229 C 
ATOM      7  O   UNL A   1      30.125  24.021  27.129  1.00  0.00    -0.275 OA
ATOM      8  H   UNL A   1      29.314  24.284  25.062  1.00  0.00     0.163 HD
BRANCH   6   9
ATOM      9  C   UNL A   1      32.418  24.083  26.505  1.00  0.00     0.142 C 
ATOM     10  C   UNL A   1      33.633  22.111  27.762  1.00  0.00     0.076 C 
ATOM     11  C   UNL A   1      32.888  22.623  26.523  1.00  0.00     0.194 C 
ATOM     12  N   UNL A   1      33.839  22.463  25.432  1.00  0.00    -0.324 N 
ATOM     13  C   UNL A   1      33.428  24.823  25.663  1.00  0.00     0.081 C 
ATOM     14  C   UNL A   1      34.145  23.759  24.836  1.00  0.00     0.263 C 
ATOM     15  H   UNL A   1      34.722  22.133  25.824  1.00  0.00     0.348 HD
BRANCH  12  16
ATOM     16  C   UNL A   1      33.561  21.341  24.517  1.00  0.00     0.364 C 
BRANCH  16  17
ATOM     17  C   UNL A   1      34.447  20.118  24.778  1.00  0.00     0.277 C 
ATOM     18  O   UNL A   1      35.638  20.322  25.000  1.00  0.00    -0.268 OA
ATOM     19  N   UNL A   1      33.874  18.853  24.703  1.00  0.00    -0.338 N 
ATOM     20  C   UNL A   1      32.533  18.513  25.130  1.00  0.00     0.119 C 
ATOM     21  C   UNL A   1      34.510  17.650  24.197  1.00  0.00     0.119 C 
ATOM     22  C   UNL A   1      32.557  16.996  25.361  1.00  0.00     0.023 C 
ATOM     23  C   UNL A   1      33.978  16.540  25.059  1.00  0.00     0.023 C 
ENDBRANCH  16  17
ENDBRANCH  12  16
ENDBRANCH   6   9
ENDBRANCH   4   5
ENDBRANCH   3   4
ENDBRANCH   2   3
ENDBRANCH   1   2
BRANCH   1  24
ATOM     24  C   UNL A   1      32.482  28.912  24.312  1.00  0.00     0.021 C 
BRANCH  24  25
ATOM     25  C   UNL A   1      33.073  29.320  25.662  1.00  0.00     0.116 C 
BRANCH  25  26
ATOM     26  N   UNL A   1      32.726  30.696  25.998  1.00  0.00    -0.352 N 
ATOM     27  C   UNL A   1      33.246  31.467  27.008  1.00  0.00     0.251 C 
ATOM     28  H   UNL A   1      32.039  31.121  25.436  1.00  0.00     0.163 HD
ATOM     29  O   UNL A   1      32.673  32.487  27.391  1.00  0.00    -0.269 OA
BRANCH  27  30
ATOM     30  C   UNL A   1      34.519  31.048  27.620  1.00  0.00     0.039 A 
ATOM     31  C   UNL A   1      35.519  31.989  27.867  1.00  0.00     0.014 A 
ATOM     32  C   UNL A   1      34.677  29.713  28.003  1.00  0.00     0.014 A 
ATOM     33  C   UNL A   1      36.672  31.592  28.548  1.00  0.00     0.010 A 
ATOM     34  C   UNL A   1      35.789  29.342  28.748  1.00  0.00     0.010 A 
ATOM     35  C   UNL A   1      36.805  30.272  29.014  1.00  0.00    -0.014 A 
BRANCH  35  36
ATOM     36  C   UNL A   1      38.009  29.839  29.765  1.00  0.00     0.031 A 
ATOM     37  C   UNL A   1      38.253  30.369  31.152  1.00  0.00     0.074 A 
ATOM     38  C   UNL A   1      38.912  29.033  29.174  1.00  0.00     0.049 A 
ATOM     39  N   UNL A   1      39.255  30.135  31.959  1.00  0.00    -0.248 NA
ATOM     40  C   UNL A   1      37.257  31.310  31.693  1.00  0.00     0.031 C 
ATOM     41  C   UNL A   1      38.825  28.525  27.803  1.00  0.00     0.029 A 
ATOM     42  N   UNL A   1      40.093  28.517  29.643  1.00  0.00    -0.354 N 
ATOM     43  C   UNL A   1      39.027  30.923  33.081  1.00  0.00     0.074 A 
ATOM     44  C   UNL A   1      37.819  31.676  32.834  1.00  0.00     0.031 C 
ATOM     45  C   UNL A   1      39.898  27.759  27.548  1.00  0.00     0.029 A 
ATOM     46  C   UNL A   1      40.764  27.746  28.722  1.00  0.00     0.049 A 
ATOM     47  H   UNL A   1      40.429  28.681  30.554  1.00  0.00     0.167 HD
ATOM     48  C   UNL A   1      39.741  30.988  34.230  1.00  0.00     0.034 A 
ATOM     49  C   UNL A   1      41.946  27.106  28.815  1.00  0.00     0.034 A 
ATOM     50  C   UNL A   1      40.922  30.209  34.480  1.00  0.00     0.049 A 
ATOM     51  C   UNL A   1      42.704  27.168  30.114  1.00  0.00     0.074 A 
ATOM     52  C   UNL A   1      41.672  30.132  35.639  1.00  0.00     0.029 A 
ATOM     53  N   UNL A   1      41.533  29.383  33.550  1.00  0.00    -0.354 N 
ATOM     54  N   UNL A   1      42.388  27.789  31.225  1.00  0.00    -0.248 NA
ATOM     55  C   UNL A   1      43.963  26.413  30.185  1.00  0.00     0.031 C 
ATOM     56  C   UNL A   1      42.758  29.286  35.398  1.00  0.00     0.029 A 
ATOM     57  C   UNL A   1      42.662  28.803  34.102  1.00  0.00     0.049 A 
ATOM     58  H   UNL A   1      41.212  29.231  32.633  1.00  0.00     0.167 HD
ATOM     59  C   UNL A   1      43.389  27.473  32.137  1.00  0.00     0.074 A 
ATOM     60  C   UNL A   1      44.308  26.585  31.454  1.00  0.00     0.031 C 
ATOM     61  C   UNL A   1      43.541  27.887  33.419  1.00  0.00     0.034 A 
BRANCH  48  62
ATOM     62  C   UNL A   1      39.235  31.905  35.315  1.00  0.00     0.023 A 
ATOM     63  C   UNL A   1      38.253  31.445  36.218  1.00  0.00     0.012 A 
ATOM     64  C   UNL A   1      39.759  33.203  35.469  1.00  0.00     0.148 A 
ATOM     65  C   UNL A   1      37.768  32.277  37.226  1.00  0.00     0.002 A 
ATOM     66  C   UNL A   1      39.308  34.008  36.508  1.00  0.00     0.091 A 
ATOM     67  F   UNL A   1      40.677  33.631  34.591  1.00  0.00    -0.205 F 
ATOM     68  C   UNL A   1      38.303  33.553  37.377  1.00  0.00     0.022 A 
BRANCH  66  69
ATOM     69  S   UNL A   1      39.990  35.636  36.841  1.00  0.00     0.127 S 
ATOM     70  O   UNL A   1      39.308  35.994  38.085  1.00  0.00    -0.237 OA
ATOM     71  O   UNL A   1      41.416  35.346  36.990  1.00  0.00    -0.237 OA
ATOM     72  O   UNL A   1      39.652  36.458  35.687  1.00  0.00    -0.744 OA
ENDBRANCH  66  69
ENDBRANCH  48  62
BRANCH  49  73
ATOM     73  C   UNL A   1      42.453  26.300  27.666  1.00  0.00     0.023 A 
ATOM     74  C   UNL A   1      43.347  26.886  26.748  1.00  0.00     0.012 A 
ATOM     75  C   UNL A   1      42.075  24.955  27.492  1.00  0.00     0.148 A 
ATOM     76  C   UNL A   1      43.827  26.157  25.658  1.00  0.00     0.002 A 
ATOM     77  C   UNL A   1      42.600  24.219  26.437  1.00  0.00     0.091 A 
ATOM     78  F   UNL A   1      41.218  24.419  28.372  1.00  0.00    -0.205 F 
ATOM     79  C   UNL A   1      43.461  24.823  25.508  1.00  0.00     0.022 A 
BRANCH  77  80
ATOM     80  S   UNL A   1      42.288  22.462  26.236  1.00  0.00     0.127 S 
ATOM     81  O   UNL A   1      40.833  22.427  26.126  1.00  0.00    -0.237 OA
ATOM     82  O   UNL A   1      43.007  22.169  24.995  1.00  0.00    -0.237 OA
ATOM     83  O   UNL A   1      42.848  21.822  27.419  1.00  0.00    -0.744 OA
ENDBRANCH  77  80
ENDBRANCH  49  73
BRANCH  61  84
ATOM     84  C   UNL A   1      44.725  27.361  34.186  1.00  0.00     0.023 A 
ATOM     85  C   UNL A   1      45.921  28.103  34.231  1.00  0.00     0.012 A 
ATOM     86  C   UNL A   1      44.622  26.166  34.925  1.00  0.00     0.148 A 
ATOM     87  C   UNL A   1      47.011  27.645  34.971  1.00  0.00     0.002 A 
ATOM     88  C   UNL A   1      45.692  25.745  35.704  1.00  0.00     0.091 A 
ATOM     89  F   UNL A   1      43.480  25.467  34.856  1.00  0.00    -0.205 F 
ATOM     90  C   UNL A   1      46.892  26.474  35.717  1.00  0.00     0.022 A 
BRANCH  88  91
ATOM     91  S   UNL A   1      45.597  24.306  36.776  1.00  0.00     0.127 S 
ATOM     92  O   UNL A   1      46.935  24.285  37.366  1.00  0.00    -0.237 OA
ATOM     93  O   UNL A   1      44.527  24.681  37.700  1.00  0.00    -0.237 OA
ATOM     94  O   UNL A   1      45.281  23.178  35.910  1.00  0.00    -0.744 OA
ENDBRANCH  88  91
ENDBRANCH  61  84
ENDBRANCH  35  36
ENDBRANCH  27  30
ENDBRANCH  25  26
ENDBRANCH  24  25
ENDBRANCH   1  24
TORSDOF 18
ENDMDL
