MODEL 1
REMARK VINA RESULT:     -13.4      0.000      0.000
REMARK SMILES Cc1ccc(-c2cc(Cl)cc3c2O[C@@H](C(F)(F)F)C(C(=O)NCCCCCCNC(=O)c2ccc(-c4c5nc(c(-c6cccc(S(=O)(=O)[O-])c6F)c6ccc([nH]6)c(-c6cccc(S(=O)(=O)[O-])c6F)c6nc(c(-c7cccc(S(=O)(=O)[O-])c7F)c7ccc4[nH]7)C=C6)C=C5)cc2)=C3)cc1
REMARK SMILES IDX 26 1 25 2 24 3 23 4 22 5 20 6 21 7 19 9 6 10 7 11 12 12 8 13
REMARK SMILES IDX 11 14 13 15 9 16 10 17 95 18 14 19 5 20 1 21 2 22 3 23 97 24
REMARK SMILES IDX 4 25 96 26 15 27 16 28 17 29 18 30 27 31 28 32 29 33 30 34
REMARK SMILES IDX 31 36 32 37 33 38 94 39 34 40 93 41 35 42 36 43 37 44 87 45
REMARK SMILES IDX 38 46 92 47 86 48 88 49 39 50 91 51 85 52 84 53 40 55 72 56
REMARK SMILES IDX 52 57 71 58 53 59 56 60 70 61 89 62 54 63 55 64 69 66 90 67
REMARK SMILES IDX 57 68 41 69 42 70 50 71 43 72 45 73 51 74 44 75 46 76 47 77
REMARK SMILES IDX 48 78 49 79 73 80 74 81 82 82 75 83 77 84 83 85 76 86 78 87
REMARK SMILES IDX 79 88 80 89 81 90 58 91 59 92 67 93 60 94 62 95 68 96 61 97
REMARK SMILES IDX 63 98 64 99 65 100 66 101
REMARK H PARENT 22 8 29 35 88 54 56 65
REMARK Flexibility Score: inf
ROOT
ATOM      1  C   UNL A   1      37.189  21.693  24.635  1.00  0.00     0.002 C 
ENDROOT
BRANCH   1   2
ATOM      2  C   UNL A   1      37.068  23.212  24.518  1.00  0.00     0.002 C 
BRANCH   2   3
ATOM      3  C   UNL A   1      36.099  23.961  25.427  1.00  0.00     0.021 C 
BRANCH   3   4
ATOM      4  C   UNL A   1      34.688  23.440  25.690  1.00  0.00     0.116 C 
BRANCH   4   5
ATOM      5  N   UNL A   1      33.704  24.293  26.323  1.00  0.00    -0.352 N 
ATOM      6  C   UNL A   1      32.341  24.370  26.176  1.00  0.00     0.251 C 
ATOM      7  O   UNL A   1      31.719  24.922  27.092  1.00  0.00    -0.270 OA
ATOM      8  H   UNL A   1      34.079  24.929  26.974  1.00  0.00     0.163 HD
BRANCH   6   9
ATOM      9  C   UNL A   1      31.556  23.888  24.939  1.00  0.00     0.067 C 
ATOM     10  C   UNL A   1      31.636  27.740  23.969  1.00  0.00     0.026 A 
ATOM     11  C   UNL A   1      30.499  28.400  23.458  1.00  0.00     0.033 A 
ATOM     12  C   UNL A   1      31.551  26.350  23.995  1.00  0.00     0.135 A 
ATOM     13  C   UNL A   1      29.274  27.728  23.368  1.00  0.00     0.042 A 
ATOM     14  C   UNL A   1      30.293  25.748  24.252  1.00  0.00     0.019 A 
ATOM     15  O   UNL A   1      32.660  25.537  23.665  1.00  0.00    -0.475 OA
ATOM     16  Cl  UNL A   1      27.882  28.574  22.811  1.00  0.00    -0.084 Cl
ATOM     17  C   UNL A   1      29.145  26.429  23.863  1.00  0.00     0.032 A 
ATOM     18  C   UNL A   1      30.288  24.382  24.892  1.00  0.00     0.025 C 
ATOM     19  C   UNL A   1      32.190  24.150  23.588  1.00  0.00     0.314 C 
BRANCH  10  20
ATOM     20  C   UNL A   1      32.260  28.447  25.128  1.00  0.00    -0.015 A 
ATOM     21  C   UNL A   1      34.179  31.089  27.991  1.00  0.00     0.044 C 
ATOM     22  C   UNL A   1      33.487  30.150  27.045  1.00  0.00    -0.051 A 
ATOM     23  C   UNL A   1      34.061  28.919  26.690  1.00  0.00     0.004 A 
ATOM     24  C   UNL A   1      32.259  30.498  26.493  1.00  0.00     0.004 A 
ATOM     25  C   UNL A   1      33.457  28.074  25.737  1.00  0.00     0.009 A 
ATOM     26  C   UNL A   1      31.656  29.655  25.560  1.00  0.00     0.009 A 
ENDBRANCH  10  20
BRANCH  19  27
ATOM     27  C   UNL A   1      33.005  22.971  23.020  1.00  0.00     0.429 C 
ATOM     28  F   UNL A   1      34.255  23.403  22.689  1.00  0.00    -0.167 F 
ATOM     29  F   UNL A   1      33.162  21.966  23.902  1.00  0.00    -0.167 F 
ATOM     30  F   UNL A   1      32.494  22.462  21.876  1.00  0.00    -0.167 F 
ENDBRANCH  19  27
ENDBRANCH   6   9
ENDBRANCH   4   5
ENDBRANCH   3   4
ENDBRANCH   2   3
ENDBRANCH   1   2
BRANCH   1  31
ATOM     31  C   UNL A   1      38.429  21.115  25.313  1.00  0.00     0.021 C 
BRANCH  31  32
ATOM     32  C   UNL A   1      39.116  22.009  26.337  1.00  0.00     0.116 C 
BRANCH  32  33
ATOM     33  N   UNL A   1      40.535  22.192  26.097  1.00  0.00    -0.352 N 
ATOM     34  C   UNL A   1      41.298  23.351  26.086  1.00  0.00     0.251 C 
ATOM     35  H   UNL A   1      41.036  21.364  25.912  1.00  0.00     0.163 HD
ATOM     36  O   UNL A   1      42.437  23.296  25.670  1.00  0.00    -0.269 OA
BRANCH  34  37
ATOM     37  C   UNL A   1      40.748  24.615  26.657  1.00  0.00     0.039 A 
ATOM     38  C   UNL A   1      41.087  25.826  26.032  1.00  0.00     0.014 A 
ATOM     39  C   UNL A   1      40.022  24.636  27.844  1.00  0.00     0.014 A 
ATOM     40  C   UNL A   1      40.889  27.038  26.700  1.00  0.00     0.010 A 
ATOM     41  C   UNL A   1      39.879  25.822  28.536  1.00  0.00     0.010 A 
ATOM     42  C   UNL A   1      40.368  27.013  27.991  1.00  0.00    -0.014 A 
BRANCH  42  43
ATOM     43  C   UNL A   1      40.414  28.131  28.922  1.00  0.00     0.031 A 
ATOM     44  C   UNL A   1      39.450  29.243  28.867  1.00  0.00     0.074 A 
ATOM     45  C   UNL A   1      41.245  28.024  29.981  1.00  0.00     0.049 A 
ATOM     46  N   UNL A   1      39.666  30.404  29.388  1.00  0.00    -0.248 NA
ATOM     47  C   UNL A   1      38.153  29.121  28.217  1.00  0.00     0.031 C 
ATOM     48  C   UNL A   1      41.185  28.768  31.232  1.00  0.00     0.029 A 
ATOM     49  N   UNL A   1      42.455  27.326  30.051  1.00  0.00    -0.354 N 
ATOM     50  C   UNL A   1      38.464  31.076  29.396  1.00  0.00     0.074 A 
ATOM     51  C   UNL A   1      37.575  30.268  28.588  1.00  0.00     0.031 C 
ATOM     52  C   UNL A   1      42.392  28.721  31.814  1.00  0.00     0.029 A 
ATOM     53  C   UNL A   1      43.299  28.087  30.873  1.00  0.00     0.049 A 
ATOM     54  H   UNL A   1      42.670  26.472  29.611  1.00  0.00     0.167 HD
ATOM     55  C   UNL A   1      38.288  32.151  30.219  1.00  0.00     0.034 A 
ATOM     56  C   UNL A   1      44.507  28.577  30.474  1.00  0.00     0.034 A 
ATOM     57  C   UNL A   1      39.487  32.418  31.023  1.00  0.00     0.049 A 
ATOM     58  C   UNL A   1      44.612  30.084  30.605  1.00  0.00     0.074 A 
ATOM     59  C   UNL A   1      39.841  32.070  32.317  1.00  0.00     0.029 A 
ATOM     60  N   UNL A   1      40.641  32.899  30.418  1.00  0.00    -0.354 N 
ATOM     61  N   UNL A   1      43.625  30.862  30.952  1.00  0.00    -0.248 NA
ATOM     62  C   UNL A   1      45.828  30.841  30.320  1.00  0.00     0.031 C 
ATOM     63  C   UNL A   1      41.234  32.288  32.470  1.00  0.00     0.029 A 
ATOM     64  C   UNL A   1      41.727  32.784  31.275  1.00  0.00     0.049 A 
ATOM     65  H   UNL A   1      40.684  33.271  29.508  1.00  0.00     0.167 HD
ATOM     66  C   UNL A   1      43.983  32.175  30.787  1.00  0.00     0.074 A 
ATOM     67  C   UNL A   1      45.404  32.106  30.487  1.00  0.00     0.031 C 
ATOM     68  C   UNL A   1      43.060  33.187  30.841  1.00  0.00     0.034 A 
BRANCH  55  69
ATOM     69  C   UNL A   1      36.920  32.713  30.562  1.00  0.00     0.023 A 
ATOM     70  C   UNL A   1      36.234  32.163  31.668  1.00  0.00     0.012 A 
ATOM     71  C   UNL A   1      36.228  33.701  29.829  1.00  0.00     0.148 A 
ATOM     72  C   UNL A   1      34.899  32.467  31.951  1.00  0.00     0.002 A 
ATOM     73  C   UNL A   1      34.869  33.943  30.056  1.00  0.00     0.091 A 
ATOM     74  F   UNL A   1      36.896  34.462  28.953  1.00  0.00    -0.205 F 
ATOM     75  C   UNL A   1      34.200  33.322  31.115  1.00  0.00     0.022 A 
BRANCH  73  76
ATOM     76  S   UNL A   1      33.875  34.931  28.925  1.00  0.00     0.127 S 
ATOM     77  O   UNL A   1      32.604  34.202  28.905  1.00  0.00    -0.237 OA
ATOM     78  O   UNL A   1      33.819  36.226  29.597  1.00  0.00    -0.237 OA
ATOM     79  O   UNL A   1      34.587  34.901  27.653  1.00  0.00    -0.744 OA
ENDBRANCH  73  76
ENDBRANCH  55  69
BRANCH  56  80
ATOM     80  C   UNL A   1      45.182  27.743  29.439  1.00  0.00     0.023 A 
ATOM     81  C   UNL A   1      45.475  26.404  29.793  1.00  0.00     0.012 A 
ATOM     82  C   UNL A   1      45.170  28.097  28.079  1.00  0.00     0.148 A 
ATOM     83  C   UNL A   1      45.628  25.419  28.816  1.00  0.00     0.002 A 
ATOM     84  C   UNL A   1      45.322  27.106  27.109  1.00  0.00     0.091 A 
ATOM     85  F   UNL A   1      44.930  29.373  27.750  1.00  0.00    -0.205 F 
ATOM     86  C   UNL A   1      45.518  25.765  27.475  1.00  0.00     0.022 A 
BRANCH  84  87
ATOM     87  S   UNL A   1      45.129  27.474  25.359  1.00  0.00     0.127 S 
ATOM     88  O   UNL A   1      45.400  26.173  24.755  1.00  0.00    -0.237 OA
ATOM     89  O   UNL A   1      43.737  27.911  25.279  1.00  0.00    -0.237 OA
ATOM     90  O   UNL A   1      46.099  28.526  25.097  1.00  0.00    -0.744 OA
ENDBRANCH  84  87
ENDBRANCH  56  80
BRANCH  68  91
ATOM     91  C   UNL A   1      43.303  34.643  30.472  1.00  0.00     0.023 A 
ATOM     92  C   UNL A   1      43.669  35.616  31.421  1.00  0.00     0.012 A 
ATOM     93  C   UNL A   1      43.306  35.055  29.112  1.00  0.00     0.148 A 
ATOM     94  C   UNL A   1      43.973  36.933  31.056  1.00  0.00     0.002 A 
ATOM     95  C   UNL A   1      43.718  36.336  28.745  1.00  0.00     0.091 A 
ATOM     96  F   UNL A   1      42.889  34.214  28.154  1.00  0.00    -0.205 F 
ATOM     97  C   UNL A   1      44.023  37.289  29.717  1.00  0.00     0.022 A 
BRANCH  95  98
ATOM     98  S   UNL A   1      44.019  36.742  27.018  1.00  0.00     0.127 S 
ATOM     99  O   UNL A   1      42.703  36.533  26.418  1.00  0.00    -0.237 OA
ATOM    100  O   UNL A   1      44.439  38.143  27.087  1.00  0.00    -0.237 OA
ATOM    101  O   UNL A   1      45.073  35.826  26.603  1.00  0.00    -0.744 OA
ENDBRANCH  95  98
ENDBRANCH  68  91
ENDBRANCH  42  43
ENDBRANCH  34  37
ENDBRANCH  32  33
ENDBRANCH  31  32
ENDBRANCH   1  31
TORSDOF 18
ENDMDL
MODEL 2
REMARK VINA RESULT:     -13.3      1.728      2.135
REMARK SMILES Cc1ccc(-c2cc(Cl)cc3c2O[C@@H](C(F)(F)F)C(C(=O)NCCCCCCNC(=O)c2ccc(-c4c5nc(c(-c6cccc(S(=O)(=O)[O-])c6F)c6ccc([nH]6)c(-c6cccc(S(=O)(=O)[O-])c6F)c6nc(c(-c7cccc(S(=O)(=O)[O-])c7F)c7ccc4[nH]7)C=C6)C=C5)cc2)=C3)cc1
REMARK SMILES IDX 26 1 25 2 24 3 23 4 22 5 20 6 21 7 19 9 6 10 7 11 12 12 8 13
REMARK SMILES IDX 11 14 13 15 9 16 10 17 95 18 14 19 5 20 1 21 2 22 3 23 97 24
REMARK SMILES IDX 4 25 96 26 15 27 16 28 17 29 18 30 27 31 28 32 29 33 30 34
REMARK SMILES IDX 31 36 32 37 33 38 94 39 34 40 93 41 35 42 36 43 37 44 87 45
REMARK SMILES IDX 38 46 92 47 86 48 88 49 39 50 91 51 85 52 84 53 40 55 72 56
REMARK SMILES IDX 52 57 71 58 53 59 56 60 70 61 89 62 54 63 55 64 69 66 90 67
REMARK SMILES IDX 57 68 41 69 42 70 50 71 43 72 45 73 51 74 44 75 46 76 47 77
REMARK SMILES IDX 48 78 49 79 73 80 74 81 82 82 75 83 77 84 83 85 76 86 78 87
REMARK SMILES IDX 79 88 80 89 81 90 58 91 59 92 67 93 60 94 62 95 68 96 61 97
REMARK SMILES IDX 63 98 64 99 65 100 66 101
REMARK H PARENT 22 8 29 35 88 54 56 65
REMARK Flexibility Score: inf
ROOT
ATOM      1  C   UNL A   1      36.658  21.533  24.785  1.00  0.00     0.002 C 
ENDROOT
BRANCH   1   2
ATOM      2  C   UNL A   1      35.576  21.417  25.857  1.00  0.00     0.002 C 
BRANCH   2   3
ATOM      3  C   UNL A   1      34.941  22.683  26.425  1.00  0.00     0.021 C 
BRANCH   3   4
ATOM      4  C   UNL A   1      33.437  22.932  26.330  1.00  0.00     0.116 C 
BRANCH   4   5
ATOM      5  N   UNL A   1      32.911  24.271  26.488  1.00  0.00    -0.352 N 
ATOM      6  C   UNL A   1      31.847  24.904  25.893  1.00  0.00     0.251 C 
ATOM      7  O   UNL A   1      31.407  25.903  26.473  1.00  0.00    -0.270 OA
ATOM      8  H   UNL A   1      33.402  24.825  27.136  1.00  0.00     0.163 HD
BRANCH   6   9
ATOM      9  C   UNL A   1      31.222  24.502  24.542  1.00  0.00     0.067 C 
ATOM     10  C   UNL A   1      31.743  28.346  23.689  1.00  0.00     0.026 A 
ATOM     11  C   UNL A   1      30.749  29.102  23.030  1.00  0.00     0.033 A 
ATOM     12  C   UNL A   1      31.548  26.968  23.668  1.00  0.00     0.135 A 
ATOM     13  C   UNL A   1      29.504  28.531  22.743  1.00  0.00     0.042 A 
ATOM     14  C   UNL A   1      30.223  26.466  23.720  1.00  0.00     0.019 A 
ATOM     15  O   UNL A   1      32.628  26.073  23.486  1.00  0.00    -0.475 OA
ATOM     16  Cl  UNL A   1      28.281  29.493  22.006  1.00  0.00    -0.084 Cl
ATOM     17  C   UNL A   1      29.203  27.241  23.182  1.00  0.00     0.032 A 
ATOM     18  C   UNL A   1      30.017  25.096  24.319  1.00  0.00     0.025 C 
ATOM     19  C   UNL A   1      32.069  24.729  23.307  1.00  0.00     0.314 C 
BRANCH  10  20
ATOM     20  C   UNL A   1      32.239  28.987  24.944  1.00  0.00    -0.015 A 
ATOM     21  C   UNL A   1      33.731  31.496  28.159  1.00  0.00     0.044 C 
ATOM     22  C   UNL A   1      33.189  30.596  27.087  1.00  0.00    -0.051 A 
ATOM     23  C   UNL A   1      33.918  29.486  26.629  1.00  0.00     0.004 A 
ATOM     24  C   UNL A   1      31.947  30.858  26.519  1.00  0.00     0.004 A 
ATOM     25  C   UNL A   1      33.451  28.689  25.564  1.00  0.00     0.009 A 
ATOM     26  C   UNL A   1      31.481  30.061  25.475  1.00  0.00     0.009 A 
ENDBRANCH  10  20
BRANCH  19  27
ATOM     27  C   UNL A   1      32.867  23.496  22.837  1.00  0.00     0.429 C 
ATOM     28  F   UNL A   1      34.168  23.626  23.222  1.00  0.00    -0.167 F 
ATOM     29  F   UNL A   1      32.416  22.343  23.370  1.00  0.00    -0.167 F 
ATOM     30  F   UNL A   1      32.908  23.359  21.493  1.00  0.00    -0.167 F 
ENDBRANCH  19  27
ENDBRANCH   6   9
ENDBRANCH   4   5
ENDBRANCH   3   4
ENDBRANCH   2   3
ENDBRANCH   1   2
BRANCH   1  31
ATOM     31  C   UNL A   1      38.113  21.647  25.233  1.00  0.00     0.021 C 
BRANCH  31  32
ATOM     32  C   UNL A   1      38.453  22.833  26.126  1.00  0.00     0.116 C 
BRANCH  32  33
ATOM     33  N   UNL A   1      39.724  22.704  26.813  1.00  0.00    -0.352 N 
ATOM     34  C   UNL A   1      40.548  23.678  27.361  1.00  0.00     0.251 C 
ATOM     35  H   UNL A   1      40.056  21.781  26.906  1.00  0.00     0.163 HD
ATOM     36  O   UNL A   1      41.664  23.364  27.720  1.00  0.00    -0.269 OA
BRANCH  34  37
ATOM     37  C   UNL A   1      40.030  25.060  27.579  1.00  0.00     0.039 A 
ATOM     38  C   UNL A   1      40.464  26.074  26.710  1.00  0.00     0.014 A 
ATOM     39  C   UNL A   1      39.240  25.390  28.677  1.00  0.00     0.014 A 
ATOM     40  C   UNL A   1      40.289  27.417  27.058  1.00  0.00     0.010 A 
ATOM     41  C   UNL A   1      39.117  26.711  29.057  1.00  0.00     0.010 A 
ATOM     42  C   UNL A   1      39.695  27.719  28.281  1.00  0.00    -0.014 A 
BRANCH  42  43
ATOM     43  C   UNL A   1      39.744  29.024  28.923  1.00  0.00     0.031 A 
ATOM     44  C   UNL A   1      38.736  30.067  28.666  1.00  0.00     0.074 A 
ATOM     45  C   UNL A   1      40.630  29.190  29.928  1.00  0.00     0.049 A 
ATOM     46  N   UNL A   1      38.933  31.324  28.890  1.00  0.00    -0.248 NA
ATOM     47  C   UNL A   1      37.415  29.763  28.138  1.00  0.00     0.031 C 
ATOM     48  C   UNL A   1      40.603  30.205  30.973  1.00  0.00     0.029 A 
ATOM     49  N   UNL A   1      41.868  28.559  30.089  1.00  0.00    -0.354 N 
ATOM     50  C   UNL A   1      37.708  31.947  28.810  1.00  0.00     0.074 A 
ATOM     51  C   UNL A   1      36.811  30.949  28.265  1.00  0.00     0.031 C 
ATOM     52  C   UNL A   1      41.839  30.326  31.480  1.00  0.00     0.029 A 
ATOM     53  C   UNL A   1      42.722  29.514  30.662  1.00  0.00     0.049 A 
ATOM     54  H   UNL A   1      42.094  27.632  29.847  1.00  0.00     0.167 HD
ATOM     55  C   UNL A   1      37.531  33.180  29.370  1.00  0.00     0.034 A 
ATOM     56  C   UNL A   1      43.888  29.928  30.092  1.00  0.00     0.034 A 
ATOM     57  C   UNL A   1      38.757  33.659  30.019  1.00  0.00     0.049 A 
ATOM     58  C   UNL A   1      43.942  31.426  29.863  1.00  0.00     0.074 A 
ATOM     59  C   UNL A   1      39.188  33.633  31.337  1.00  0.00     0.029 A 
ATOM     60  N   UNL A   1      39.860  34.015  29.255  1.00  0.00    -0.354 N 
ATOM     61  N   UNL A   1      42.943  32.237  30.076  1.00  0.00    -0.248 NA
ATOM     62  C   UNL A   1      45.112  32.127  29.340  1.00  0.00     0.031 C 
ATOM     63  C   UNL A   1      40.578  33.917  31.355  1.00  0.00     0.029 A 
ATOM     64  C   UNL A   1      40.991  34.132  30.052  1.00  0.00     0.049 A 
ATOM     65  H   UNL A   1      39.844  34.165  28.282  1.00  0.00     0.167 HD
ATOM     66  C   UNL A   1      43.242  33.484  29.590  1.00  0.00     0.074 A 
ATOM     67  C   UNL A   1      44.648  33.384  29.233  1.00  0.00     0.031 C 
ATOM     68  C   UNL A   1      42.285  34.456  29.460  1.00  0.00     0.034 A 
BRANCH  55  69
ATOM     69  C   UNL A   1      36.161  33.770  29.650  1.00  0.00     0.023 A 
ATOM     70  C   UNL A   1      35.488  34.419  28.591  1.00  0.00     0.012 A 
ATOM     71  C   UNL A   1      35.514  33.794  30.904  1.00  0.00     0.148 A 
ATOM     72  C   UNL A   1      34.320  35.162  28.785  1.00  0.00     0.002 A 
ATOM     73  C   UNL A   1      34.395  34.605  31.120  1.00  0.00     0.091 A 
ATOM     74  F   UNL A   1      35.935  32.978  31.879  1.00  0.00    -0.205 F 
ATOM     75  C   UNL A   1      33.799  35.295  30.062  1.00  0.00     0.022 A 
BRANCH  73  76
ATOM     76  S   UNL A   1      33.757  34.928  32.773  1.00  0.00     0.127 S 
ATOM     77  O   UNL A   1      32.624  35.818  32.504  1.00  0.00    -0.237 OA
ATOM     78  O   UNL A   1      33.383  33.596  33.238  1.00  0.00    -0.237 OA
ATOM     79  O   UNL A   1      34.849  35.574  33.492  1.00  0.00    -0.744 OA
ENDBRANCH  73  76
ENDBRANCH  55  69
BRANCH  56  80
ATOM     80  C   UNL A   1      44.543  28.893  29.242  1.00  0.00     0.023 A 
ATOM     81  C   UNL A   1      45.042  27.746  29.906  1.00  0.00     0.012 A 
ATOM     82  C   UNL A   1      44.333  28.834  27.853  1.00  0.00     0.148 A 
ATOM     83  C   UNL A   1      45.207  26.537  29.228  1.00  0.00     0.002 A 
ATOM     84  C   UNL A   1      44.500  27.621  27.184  1.00  0.00     0.091 A 
ATOM     85  F   UNL A   1      43.898  29.932  27.222  1.00  0.00    -0.205 F 
ATOM     86  C   UNL A   1      44.904  26.467  27.874  1.00  0.00     0.022 A 
BRANCH  84  87
ATOM     87  S   UNL A   1      44.067  27.445  25.447  1.00  0.00     0.127 S 
ATOM     88  O   UNL A   1      42.924  28.347  25.338  1.00  0.00    -0.237 OA
ATOM     89  O   UNL A   1      45.278  27.903  24.771  1.00  0.00    -0.237 OA
ATOM     90  O   UNL A   1      43.792  26.026  25.280  1.00  0.00    -0.744 OA
ENDBRANCH  84  87
ENDBRANCH  56  80
BRANCH  68  91
ATOM     91  C   UNL A   1      42.452  35.791  28.750  1.00  0.00     0.023 A 
ATOM     92  C   UNL A   1      41.810  36.091  27.534  1.00  0.00     0.012 A 
ATOM     93  C   UNL A   1      43.161  36.857  29.368  1.00  0.00     0.148 A 
ATOM     94  C   UNL A   1      41.904  37.353  26.934  1.00  0.00     0.002 A 
ATOM     95  C   UNL A   1      43.156  38.141  28.824  1.00  0.00     0.091 A 
ATOM     96  F   UNL A   1      43.868  36.634  30.486  1.00  0.00    -0.205 F 
ATOM     97  C   UNL A   1      42.555  38.387  27.590  1.00  0.00     0.022 A 
BRANCH  95  98
ATOM     98  S   UNL A   1      43.784  39.538  29.768  1.00  0.00     0.127 S 
ATOM     99  O   UNL A   1      43.024  40.655  29.209  1.00  0.00    -0.237 OA
ATOM    100  O   UNL A   1      43.421  39.185  31.143  1.00  0.00    -0.237 OA
ATOM    101  O   UNL A   1      45.219  39.539  29.515  1.00  0.00    -0.744 OA
ENDBRANCH  95  98
ENDBRANCH  68  91
ENDBRANCH  42  43
ENDBRANCH  34  37
ENDBRANCH  32  33
ENDBRANCH  31  32
ENDBRANCH   1  31
TORSDOF 18
ENDMDL
MODEL 3
REMARK VINA RESULT:     -13.0      1.241      1.633
REMARK SMILES Cc1ccc(-c2cc(Cl)cc3c2O[C@@H](C(F)(F)F)C(C(=O)NCCCCCCNC(=O)c2ccc(-c4c5nc(c(-c6cccc(S(=O)(=O)[O-])c6F)c6ccc([nH]6)c(-c6cccc(S(=O)(=O)[O-])c6F)c6nc(c(-c7cccc(S(=O)(=O)[O-])c7F)c7ccc4[nH]7)C=C6)C=C5)cc2)=C3)cc1
REMARK SMILES IDX 26 1 25 2 24 3 23 4 22 5 20 6 21 7 19 9 6 10 7 11 12 12 8 13
REMARK SMILES IDX 11 14 13 15 9 16 10 17 95 18 14 19 5 20 1 21 2 22 3 23 97 24
REMARK SMILES IDX 4 25 96 26 15 27 16 28 17 29 18 30 27 31 28 32 29 33 30 34
REMARK SMILES IDX 31 36 32 37 33 38 94 39 34 40 93 41 35 42 36 43 37 44 87 45
REMARK SMILES IDX 38 46 92 47 86 48 88 49 39 50 91 51 85 52 84 53 40 55 72 56
REMARK SMILES IDX 52 57 71 58 53 59 56 60 70 61 89 62 54 63 55 64 69 66 90 67
REMARK SMILES IDX 57 68 41 69 42 70 50 71 43 72 45 73 51 74 44 75 46 76 47 77
REMARK SMILES IDX 48 78 49 79 73 80 74 81 82 82 75 83 77 84 83 85 76 86 78 87
REMARK SMILES IDX 79 88 80 89 81 90 58 91 59 92 67 93 60 94 62 95 68 96 61 97
REMARK SMILES IDX 63 98 64 99 65 100 66 101
REMARK H PARENT 22 8 29 35 88 54 56 65
REMARK Flexibility Score: inf
ROOT
ATOM      1  C   UNL A   1      36.138  21.296  24.924  1.00  0.00     0.002 C 
ENDROOT
BRANCH   1   2
ATOM      2  C   UNL A   1      35.368  21.310  26.244  1.00  0.00     0.002 C 
BRANCH   2   3
ATOM      3  C   UNL A   1      34.617  22.568  26.663  1.00  0.00     0.021 C 
BRANCH   3   4
ATOM      4  C   UNL A   1      33.296  22.964  26.007  1.00  0.00     0.116 C 
BRANCH   4   5
ATOM      5  N   UNL A   1      32.703  24.255  26.285  1.00  0.00    -0.352 N 
ATOM      6  C   UNL A   1      31.623  24.897  25.730  1.00  0.00     0.251 C 
ATOM      7  O   UNL A   1      31.125  25.811  26.397  1.00  0.00    -0.270 OA
ATOM      8  H   UNL A   1      33.153  24.762  26.999  1.00  0.00     0.163 HD
BRANCH   6   9
ATOM      9  C   UNL A   1      31.047  24.608  24.329  1.00  0.00     0.067 C 
ATOM     10  C   UNL A   1      32.108  28.372  23.629  1.00  0.00     0.026 A 
ATOM     11  C   UNL A   1      31.266  29.262  22.930  1.00  0.00     0.033 A 
ATOM     12  C   UNL A   1      31.743  27.031  23.554  1.00  0.00     0.135 A 
ATOM     13  C   UNL A   1      29.982  28.863  22.544  1.00  0.00     0.042 A 
ATOM     14  C   UNL A   1      30.364  26.701  23.503  1.00  0.00     0.019 A 
ATOM     15  O   UNL A   1      32.711  26.009  23.416  1.00  0.00    -0.475 OA
ATOM     16  Cl  UNL A   1      28.944  29.989  21.758  1.00  0.00    -0.084 Cl
ATOM     17  C   UNL A   1      29.490  27.612  22.923  1.00  0.00     0.032 A 
ATOM     18  C   UNL A   1      29.946  25.357  24.045  1.00  0.00     0.025 C 
ATOM     19  C   UNL A   1      32.000  24.752  23.160  1.00  0.00     0.314 C 
BRANCH  10  20
ATOM     20  C   UNL A   1      32.594  28.916  24.933  1.00  0.00    -0.015 A 
ATOM     21  C   UNL A   1      34.043  31.179  28.345  1.00  0.00     0.044 C 
ATOM     22  C   UNL A   1      33.516  30.360  27.202  1.00  0.00    -0.051 A 
ATOM     23  C   UNL A   1      34.264  29.305  26.655  1.00  0.00     0.004 A 
ATOM     24  C   UNL A   1      32.268  30.646  26.656  1.00  0.00     0.004 A 
ATOM     25  C   UNL A   1      33.811  28.590  25.528  1.00  0.00     0.009 A 
ATOM     26  C   UNL A   1      31.816  29.929  25.549  1.00  0.00     0.009 A 
ENDBRANCH  10  20
BRANCH  19  27
ATOM     27  C   UNL A   1      32.666  23.437  22.706  1.00  0.00     0.429 C 
ATOM     28  F   UNL A   1      31.959  22.379  23.195  1.00  0.00    -0.167 F 
ATOM     29  F   UNL A   1      32.699  23.298  21.367  1.00  0.00    -0.167 F 
ATOM     30  F   UNL A   1      33.920  23.274  23.185  1.00  0.00    -0.167 F 
ENDBRANCH  19  27
ENDBRANCH   6   9
ENDBRANCH   4   5
ENDBRANCH   3   4
ENDBRANCH   2   3
ENDBRANCH   1   2
BRANCH   1  31
ATOM     31  C   UNL A   1      37.664  21.323  24.974  1.00  0.00     0.021 C 
BRANCH  31  32
ATOM     32  C   UNL A   1      38.293  22.514  25.685  1.00  0.00     0.116 C 
BRANCH  32  33
ATOM     33  N   UNL A   1      39.702  22.338  25.987  1.00  0.00    -0.352 N 
ATOM     34  C   UNL A   1      40.669  23.277  26.319  1.00  0.00     0.251 C 
ATOM     35  H   UNL A   1      40.022  21.407  25.952  1.00  0.00     0.163 HD
ATOM     36  O   UNL A   1      41.833  22.931  26.343  1.00  0.00    -0.269 OA
BRANCH  34  37
ATOM     37  C   UNL A   1      40.268  24.656  26.721  1.00  0.00     0.039 A 
ATOM     38  C   UNL A   1      41.016  25.734  26.223  1.00  0.00     0.014 A 
ATOM     39  C   UNL A   1      39.267  24.892  27.658  1.00  0.00     0.014 A 
ATOM     40  C   UNL A   1      40.907  26.995  26.816  1.00  0.00     0.010 A 
ATOM     41  C   UNL A   1      39.197  26.117  28.289  1.00  0.00     0.010 A 
ATOM     42  C   UNL A   1      40.059  27.149  27.910  1.00  0.00    -0.014 A 
BRANCH  42  43
ATOM     43  C   UNL A   1      40.087  28.282  28.823  1.00  0.00     0.031 A 
ATOM     44  C   UNL A   1      39.183  29.435  28.676  1.00  0.00     0.074 A 
ATOM     45  C   UNL A   1      40.829  28.159  29.945  1.00  0.00     0.049 A 
ATOM     46  N   UNL A   1      39.413  30.596  29.193  1.00  0.00    -0.248 NA
ATOM     47  C   UNL A   1      37.935  29.360  27.930  1.00  0.00     0.031 C 
ATOM     48  C   UNL A   1      40.709  28.930  31.175  1.00  0.00     0.029 A 
ATOM     49  N   UNL A   1      41.996  27.408  30.119  1.00  0.00    -0.354 N 
ATOM     50  C   UNL A   1      38.247  31.322  29.097  1.00  0.00     0.074 A 
ATOM     51  C   UNL A   1      37.384  30.539  28.237  1.00  0.00     0.031 C 
ATOM     52  C   UNL A   1      41.865  28.840  31.849  1.00  0.00     0.029 A 
ATOM     53  C   UNL A   1      42.810  28.146  30.991  1.00  0.00     0.049 A 
ATOM     54  H   UNL A   1      42.204  26.537  29.711  1.00  0.00     0.167 HD
ATOM     55  C   UNL A   1      38.059  32.420  29.887  1.00  0.00     0.034 A 
ATOM     56  C   UNL A   1      44.066  28.574  30.678  1.00  0.00     0.034 A 
ATOM     57  C   UNL A   1      39.204  32.649  30.776  1.00  0.00     0.049 A 
ATOM     58  C   UNL A   1      44.232  30.076  30.793  1.00  0.00     0.074 A 
ATOM     59  C   UNL A   1      39.442  32.311  32.099  1.00  0.00     0.029 A 
ATOM     60  N   UNL A   1      40.422  33.064  30.254  1.00  0.00    -0.354 N 
ATOM     61  N   UNL A   1      43.258  30.905  31.049  1.00  0.00    -0.248 NA
ATOM     62  C   UNL A   1      45.500  30.772  30.589  1.00  0.00     0.031 C 
ATOM     63  C   UNL A   1      40.828  32.468  32.355  1.00  0.00     0.029 A 
ATOM     64  C   UNL A   1      41.433  32.917  31.194  1.00  0.00     0.049 A 
ATOM     65  H   UNL A   1      40.552  33.416  29.344  1.00  0.00     0.167 HD
ATOM     66  C   UNL A   1      43.689  32.197  30.891  1.00  0.00     0.074 A 
ATOM     67  C   UNL A   1      45.123  32.057  30.702  1.00  0.00     0.031 C 
ATOM     68  C   UNL A   1      42.813  33.250  30.857  1.00  0.00     0.034 A 
BRANCH  55  69
ATOM     69  C   UNL A   1      36.697  33.050  30.114  1.00  0.00     0.023 A 
ATOM     70  C   UNL A   1      36.143  33.827  29.072  1.00  0.00     0.012 A 
ATOM     71  C   UNL A   1      35.949  32.989  31.309  1.00  0.00     0.148 A 
ATOM     72  C   UNL A   1      34.995  34.607  29.245  1.00  0.00     0.002 A 
ATOM     73  C   UNL A   1      34.851  33.832  31.513  1.00  0.00     0.091 A 
ATOM     74  F   UNL A   1      36.252  32.066  32.231  1.00  0.00    -0.205 F 
ATOM     75  C   UNL A   1      34.375  34.647  30.483  1.00  0.00     0.022 A 
BRANCH  73  76
ATOM     76  S   UNL A   1      34.091  34.032  33.134  1.00  0.00     0.127 S 
ATOM     77  O   UNL A   1      35.239  33.899  34.036  1.00  0.00    -0.237 OA
ATOM     78  O   UNL A   1      33.532  35.378  33.061  1.00  0.00    -0.237 OA
ATOM     79  O   UNL A   1      33.128  32.943  33.249  1.00  0.00    -0.744 OA
ENDBRANCH  73  76
ENDBRANCH  55  69
BRANCH  56  80
ATOM     80  C   UNL A   1      44.778  27.689  29.712  1.00  0.00     0.023 A 
ATOM     81  C   UNL A   1      44.976  26.344  30.107  1.00  0.00     0.012 A 
ATOM     82  C   UNL A   1      44.890  28.019  28.350  1.00  0.00     0.148 A 
ATOM     83  C   UNL A   1      45.156  25.335  29.160  1.00  0.00     0.002 A 
ATOM     84  C   UNL A   1      45.069  27.003  27.410  1.00  0.00     0.091 A 
ATOM     85  F   UNL A   1      44.740  29.298  27.985  1.00  0.00    -0.205 F 
ATOM     86  C   UNL A   1      45.169  25.661  27.809  1.00  0.00     0.022 A 
BRANCH  84  87
ATOM     87  S   UNL A   1      45.033  27.348  25.645  1.00  0.00     0.127 S 
ATOM     88  O   UNL A   1      46.227  28.172  25.484  1.00  0.00    -0.237 OA
ATOM     89  O   UNL A   1      45.123  26.013  25.059  1.00  0.00    -0.237 OA
ATOM     90  O   UNL A   1      43.754  28.009  25.427  1.00  0.00    -0.744 OA
ENDBRANCH  84  87
ENDBRANCH  56  80
BRANCH  68  91
ATOM     91  C   UNL A   1      43.151  34.686  30.484  1.00  0.00     0.023 A 
ATOM     92  C   UNL A   1      43.601  35.630  31.427  1.00  0.00     0.012 A 
ATOM     93  C   UNL A   1      43.160  35.099  29.124  1.00  0.00     0.148 A 
ATOM     94  C   UNL A   1      43.990  36.923  31.057  1.00  0.00     0.002 A 
ATOM     95  C   UNL A   1      43.654  36.348  28.750  1.00  0.00     0.091 A 
ATOM     96  F   UNL A   1      42.669  34.290  28.173  1.00  0.00    -0.205 F 
ATOM     97  C   UNL A   1      44.042  37.276  29.716  1.00  0.00     0.022 A 
BRANCH  95  98
ATOM     98  S   UNL A   1      43.954  36.734  27.018  1.00  0.00     0.127 S 
ATOM     99  O   UNL A   1      44.785  37.932  27.108  1.00  0.00    -0.237 OA
ATOM    100  O   UNL A   1      44.658  35.541  26.542  1.00  0.00    -0.237 OA
ATOM    101  O   UNL A   1      42.626  36.907  26.445  1.00  0.00    -0.744 OA
ENDBRANCH  95  98
ENDBRANCH  68  91
ENDBRANCH  42  43
ENDBRANCH  34  37
ENDBRANCH  32  33
ENDBRANCH  31  32
ENDBRANCH   1  31
TORSDOF 18
ENDMDL
