MODEL 1
REMARK VINA RESULT:     -12.4      0.000      0.000
REMARK SMILES CC1(C)S[C@@H]2c3ccccc3C(=O)N2[C@H]1C(=O)N[C@H](Cc1c[nH]c2ccccc12)C(=O)NCCCCCCNC(=O)c1ccc(-c2c3nc(c(-c4cccc(S(=O)(=O)[O-])c4F)c4ccc([nH]4)c(-c4cccc(S(=O)(=O)[O-])c4F)c4nc(c(-c5cccc(S(=O)(=O)[O-])c5F)c5ccc2[nH]5)C=C4)C=C3)cc1
REMARK SMILES IDX 36 1 35 2 34 3 33 4 32 5 30 6 31 7 19 9 18 10 16 11 17 12
REMARK SMILES IDX 15 14 1 15 2 16 3 17 4 18 5 19 14 20 6 21 12 22 7 23 11 24
REMARK SMILES IDX 13 25 8 26 10 27 9 28 20 29 21 30 22 31 29 32 23 33 24 34
REMARK SMILES IDX 28 35 25 37 27 38 26 39 37 40 38 41 39 42 40 43 41 45 42 46
REMARK SMILES IDX 43 47 104 48 44 49 103 50 45 51 46 52 47 53 97 54 48 55
REMARK SMILES IDX 102 56 96 57 98 58 49 59 101 60 95 61 94 62 50 64 82 65
REMARK SMILES IDX 62 66 81 67 63 68 66 69 80 70 99 71 64 72 65 73 79 75 100 76
REMARK SMILES IDX 67 77 51 78 52 79 60 80 53 81 55 82 61 83 54 84 56 85 57 86
REMARK SMILES IDX 58 87 59 88 83 89 84 90 92 91 85 92 87 93 93 94 86 95 88 96
REMARK SMILES IDX 89 97 90 98 91 99 68 100 69 101 77 102 70 103 72 104 78 105
REMARK SMILES IDX 71 106 73 107 74 108 75 109 76 110
REMARK H PARENT 32 8 18 13 23 36 39 44 98 63 66 74
REMARK Flexibility Score: inf
ROOT
ATOM      1  C   UNL A   1      38.835  23.104  26.595  1.00  0.00     0.002 C 
ENDROOT
BRANCH   1   2
ATOM      2  C   UNL A   1      37.722  23.723  25.759  1.00  0.00     0.002 C 
BRANCH   2   3
ATOM      3  C   UNL A   1      36.286  23.274  26.029  1.00  0.00     0.021 C 
BRANCH   3   4
ATOM      4  C   UNL A   1      35.164  24.129  25.438  1.00  0.00     0.116 C 
BRANCH   4   5
ATOM      5  N   UNL A   1      33.966  24.216  26.242  1.00  0.00    -0.354 N 
ATOM      6  C   UNL A   1      32.674  23.879  26.049  1.00  0.00     0.242 C 
ATOM      7  O   UNL A   1      31.929  24.030  27.027  1.00  0.00    -0.273 OA
ATOM      8  H   UNL A   1      34.129  24.611  27.129  1.00  0.00     0.163 HD
BRANCH   6   9
ATOM      9  C   UNL A   1      32.147  23.206  24.773  1.00  0.00     0.175 C 
BRANCH   9  10
ATOM     10  N   UNL A   1      31.134  24.167  24.243  1.00  0.00    -0.342 N 
ATOM     11  C   UNL A   1      31.060  25.528  24.164  1.00  0.00     0.244 C 
ATOM     12  O   UNL A   1      29.913  25.987  24.270  1.00  0.00    -0.273 OA
ATOM     13  H   UNL A   1      30.342  23.718  23.867  1.00  0.00     0.164 HD
BRANCH  11  14
ATOM     14  C   UNL A   1      32.224  26.491  23.782  1.00  0.00     0.191 C 
ATOM     15  C   UNL A   1      31.739  26.242  21.258  1.00  0.00     0.026 C 
ATOM     16  C   UNL A   1      32.301  27.126  22.376  1.00  0.00     0.042 C 
ATOM     17  C   UNL A   1      33.757  27.461  22.001  1.00  0.00     0.026 C 
ATOM     18  S   UNL A   1      31.451  28.794  22.574  1.00  0.00    -0.123 SA
ATOM     19  C   UNL A   1      31.248  28.633  24.356  1.00  0.00     0.176 C 
ATOM     20  N   UNL A   1      32.175  27.611  24.711  1.00  0.00    -0.309 N 
ATOM     21  C   UNL A   1      31.611  29.758  25.247  1.00  0.00    -0.002 A 
ATOM     22  C   UNL A   1      33.094  28.012  25.656  1.00  0.00     0.256 C 
ATOM     23  C   UNL A   1      30.940  30.948  25.474  1.00  0.00     0.007 A 
ATOM     24  C   UNL A   1      32.690  29.380  26.049  1.00  0.00     0.046 A 
ATOM     25  O   UNL A   1      34.069  27.424  26.063  1.00  0.00    -0.269 OA
ATOM     26  C   UNL A   1      31.404  31.774  26.500  1.00  0.00     0.000 A 
ATOM     27  C   UNL A   1      33.182  30.193  27.050  1.00  0.00     0.014 A 
ATOM     28  C   UNL A   1      32.522  31.407  27.273  1.00  0.00     0.001 A 
ENDBRANCH  11  14
ENDBRANCH   9  10
BRANCH   9  29
ATOM     29  C   UNL A   1      31.600  21.786  24.912  1.00  0.00     0.072 C 
BRANCH  29  30
ATOM     30  C   UNL A   1      32.499  20.578  25.050  1.00  0.00    -0.020 A 
ATOM     31  C   UNL A   1      33.568  20.596  25.938  1.00  0.00     0.087 A 
ATOM     32  C   UNL A   1      32.621  19.338  24.321  1.00  0.00     0.003 A 
ATOM     33  N   UNL A   1      34.321  19.474  25.752  1.00  0.00    -0.361 N 
ATOM     34  C   UNL A   1      33.885  18.819  24.629  1.00  0.00     0.046 A 
ATOM     35  C   UNL A   1      31.891  18.660  23.320  1.00  0.00     0.010 A 
ATOM     36  H   UNL A   1      35.059  19.180  26.332  1.00  0.00     0.166 HD
ATOM     37  C   UNL A   1      34.526  17.837  23.865  1.00  0.00     0.026 A 
ATOM     38  C   UNL A   1      32.526  17.694  22.523  1.00  0.00     0.001 A 
ATOM     39  C   UNL A   1      33.845  17.328  22.761  1.00  0.00     0.002 A 
ENDBRANCH  29  30
ENDBRANCH   9  29
ENDBRANCH   6   9
ENDBRANCH   4   5
ENDBRANCH   3   4
ENDBRANCH   2   3
ENDBRANCH   1   2
BRANCH   1  40
ATOM     40  C   UNL A   1      39.335  21.777  26.062  1.00  0.00     0.021 C 
BRANCH  40  41
ATOM     41  C   UNL A   1      40.045  20.955  27.118  1.00  0.00     0.116 C 
BRANCH  41  42
ATOM     42  N   UNL A   1      40.659  19.750  26.570  1.00  0.00    -0.352 N 
ATOM     43  C   UNL A   1      41.914  19.638  26.016  1.00  0.00     0.251 C 
ATOM     44  H   UNL A   1      40.117  18.928  26.599  1.00  0.00     0.163 HD
ATOM     45  O   UNL A   1      42.274  18.622  25.436  1.00  0.00    -0.269 OA
BRANCH  43  46
ATOM     46  C   UNL A   1      42.791  20.820  26.123  1.00  0.00     0.039 A 
ATOM     47  C   UNL A   1      43.171  21.243  27.398  1.00  0.00     0.014 A 
ATOM     48  C   UNL A   1      43.018  21.616  25.001  1.00  0.00     0.014 A 
ATOM     49  C   UNL A   1      43.565  22.559  27.573  1.00  0.00     0.010 A 
ATOM     50  C   UNL A   1      43.547  22.898  25.176  1.00  0.00     0.010 A 
ATOM     51  C   UNL A   1      43.756  23.408  26.467  1.00  0.00    -0.014 A 
BRANCH  51  52
ATOM     52  C   UNL A   1      44.153  24.822  26.709  1.00  0.00     0.031 A 
ATOM     53  C   UNL A   1      43.184  25.827  27.281  1.00  0.00     0.074 A 
ATOM     54  C   UNL A   1      45.430  25.182  26.472  1.00  0.00     0.049 A 
ATOM     55  N   UNL A   1      43.398  27.081  27.589  1.00  0.00    -0.248 NA
ATOM     56  C   UNL A   1      41.803  25.383  27.539  1.00  0.00     0.031 C 
ATOM     57  C   UNL A   1      46.460  24.306  25.906  1.00  0.00     0.029 A 
ATOM     58  N   UNL A   1      46.091  26.362  26.697  1.00  0.00    -0.354 N 
ATOM     59  C   UNL A   1      42.178  27.586  28.024  1.00  0.00     0.074 A 
ATOM     60  C   UNL A   1      41.221  26.507  27.941  1.00  0.00     0.031 C 
ATOM     61  C   UNL A   1      47.632  24.954  25.888  1.00  0.00     0.029 A 
ATOM     62  C   UNL A   1      47.425  26.317  26.363  1.00  0.00     0.049 A 
ATOM     63  H   UNL A   1      45.654  27.165  27.062  1.00  0.00     0.167 HD
ATOM     64  C   UNL A   1      41.886  28.829  28.472  1.00  0.00     0.034 A 
ATOM     65  C   UNL A   1      48.379  27.264  26.410  1.00  0.00     0.034 A 
ATOM     66  C   UNL A   1      42.851  29.885  28.615  1.00  0.00     0.049 A 
ATOM     67  C   UNL A   1      48.028  28.632  26.909  1.00  0.00     0.074 A 
ATOM     68  C   UNL A   1      42.655  31.158  29.122  1.00  0.00     0.029 A 
ATOM     69  N   UNL A   1      44.185  29.795  28.254  1.00  0.00    -0.354 N 
ATOM     70  N   UNL A   1      46.887  29.058  27.392  1.00  0.00    -0.248 NA
ATOM     71  C   UNL A   1      49.088  29.649  26.876  1.00  0.00     0.031 C 
ATOM     72  C   UNL A   1      43.867  31.847  29.046  1.00  0.00     0.029 A 
ATOM     73  C   UNL A   1      44.821  30.996  28.512  1.00  0.00     0.049 A 
ATOM     74  H   UNL A   1      44.616  28.997  27.871  1.00  0.00     0.167 HD
ATOM     75  C   UNL A   1      47.091  30.389  27.729  1.00  0.00     0.074 A 
ATOM     76  C   UNL A   1      48.472  30.696  27.414  1.00  0.00     0.031 C 
ATOM     77  C   UNL A   1      46.206  31.277  28.235  1.00  0.00     0.034 A 
BRANCH  64  78
ATOM     78  C   UNL A   1      40.473  29.129  28.894  1.00  0.00     0.023 A 
ATOM     79  C   UNL A   1      39.502  29.408  27.913  1.00  0.00     0.012 A 
ATOM     80  C   UNL A   1      40.084  29.005  30.243  1.00  0.00     0.148 A 
ATOM     81  C   UNL A   1      38.164  29.566  28.268  1.00  0.00     0.002 A 
ATOM     82  C   UNL A   1      38.744  29.137  30.585  1.00  0.00     0.091 A 
ATOM     83  F   UNL A   1      41.029  28.743  31.157  1.00  0.00    -0.205 F 
ATOM     84  C   UNL A   1      37.783  29.419  29.601  1.00  0.00     0.022 A 
BRANCH  82  85
ATOM     85  S   UNL A   1      38.139  28.918  32.264  1.00  0.00     0.127 S 
ATOM     86  O   UNL A   1      38.488  27.520  32.519  1.00  0.00    -0.237 OA
ATOM     87  O   UNL A   1      38.939  29.892  33.007  1.00  0.00    -0.237 OA
ATOM     88  O   UNL A   1      36.712  29.198  32.219  1.00  0.00    -0.744 OA
ENDBRANCH  82  85
ENDBRANCH  64  78
BRANCH  65  89
ATOM     89  C   UNL A   1      49.762  26.919  25.987  1.00  0.00     0.023 A 
ATOM     90  C   UNL A   1      50.583  26.172  26.851  1.00  0.00     0.012 A 
ATOM     91  C   UNL A   1      50.227  27.247  24.698  1.00  0.00     0.148 A 
ATOM     92  C   UNL A   1      51.850  25.758  26.438  1.00  0.00     0.002 A 
ATOM     93  C   UNL A   1      51.472  26.796  24.279  1.00  0.00     0.091 A 
ATOM     94  F   UNL A   1      49.418  27.953  23.895  1.00  0.00    -0.205 F 
ATOM     95  C   UNL A   1      52.288  26.059  25.151  1.00  0.00     0.022 A 
BRANCH  93  96
ATOM     96  S   UNL A   1      52.081  27.048  22.609  1.00  0.00     0.127 S 
ATOM     97  O   UNL A   1      52.445  28.462  22.635  1.00  0.00    -0.237 OA
ATOM     98  O   UNL A   1      53.211  26.120  22.563  1.00  0.00    -0.237 OA
ATOM     99  O   UNL A   1      50.976  26.703  21.725  1.00  0.00    -0.744 OA
ENDBRANCH  93  96
ENDBRANCH  65  89
BRANCH  77 100
ATOM    100  C   UNL A   1      46.670  32.680  28.498  1.00  0.00     0.023 A 
ATOM    101  C   UNL A   1      47.251  32.989  29.743  1.00  0.00     0.012 A 
ATOM    102  C   UNL A   1      46.692  33.632  27.461  1.00  0.00     0.148 A 
ATOM    103  C   UNL A   1      47.858  34.226  29.948  1.00  0.00     0.002 A 
ATOM    104  C   UNL A   1      47.327  34.850  27.662  1.00  0.00     0.091 A 
ATOM    105  F   UNL A   1      46.131  33.307  26.286  1.00  0.00    -0.205 F 
ATOM    106  C   UNL A   1      47.910  35.149  28.906  1.00  0.00     0.022 A 
BRANCH 104 107
ATOM    107  S   UNL A   1      47.508  36.077  26.363  1.00  0.00     0.127 S 
ATOM    108  O   UNL A   1      48.134  35.292  25.299  1.00  0.00    -0.237 OA
ATOM    109  O   UNL A   1      46.120  36.459  26.106  1.00  0.00    -0.237 OA
ATOM    110  O   UNL A   1      48.343  37.135  26.917  1.00  0.00    -0.744 OA
ENDBRANCH 104 107
ENDBRANCH  77 100
ENDBRANCH  51  52
ENDBRANCH  43  46
ENDBRANCH  41  42
ENDBRANCH  40  41
ENDBRANCH   1  40
TORSDOF 20
ENDMDL
MODEL 2
REMARK VINA RESULT:     -12.2      5.530     11.812
REMARK SMILES CC1(C)S[C@@H]2c3ccccc3C(=O)N2[C@H]1C(=O)N[C@H](Cc1c[nH]c2ccccc12)C(=O)NCCCCCCNC(=O)c1ccc(-c2c3nc(c(-c4cccc(S(=O)(=O)[O-])c4F)c4ccc([nH]4)c(-c4cccc(S(=O)(=O)[O-])c4F)c4nc(c(-c5cccc(S(=O)(=O)[O-])c5F)c5ccc2[nH]5)C=C4)C=C3)cc1
REMARK SMILES IDX 36 1 35 2 34 3 33 4 32 5 30 6 31 7 19 9 18 10 16 11 17 12
REMARK SMILES IDX 15 14 1 15 2 16 3 17 4 18 5 19 14 20 6 21 12 22 7 23 11 24
REMARK SMILES IDX 13 25 8 26 10 27 9 28 20 29 21 30 22 31 29 32 23 33 24 34
REMARK SMILES IDX 28 35 25 37 27 38 26 39 37 40 38 41 39 42 40 43 41 45 42 46
REMARK SMILES IDX 43 47 104 48 44 49 103 50 45 51 46 52 47 53 97 54 48 55
REMARK SMILES IDX 102 56 96 57 98 58 49 59 101 60 95 61 94 62 50 64 82 65
REMARK SMILES IDX 62 66 81 67 63 68 66 69 80 70 99 71 64 72 65 73 79 75 100 76
REMARK SMILES IDX 67 77 51 78 52 79 60 80 53 81 55 82 61 83 54 84 56 85 57 86
REMARK SMILES IDX 58 87 59 88 83 89 84 90 92 91 85 92 87 93 93 94 86 95 88 96
REMARK SMILES IDX 89 97 90 98 91 99 68 100 69 101 77 102 70 103 72 104 78 105
REMARK SMILES IDX 71 106 73 107 74 108 75 109 76 110
REMARK H PARENT 32 8 18 13 23 36 39 44 98 63 66 74
REMARK Flexibility Score: inf
ROOT
ATOM      1  C   UNL A   1      34.366  29.634  27.152  1.00  0.00     0.002 C 
ENDROOT
BRANCH   1   2
ATOM      2  C   UNL A   1      33.517  29.141  25.988  1.00  0.00     0.002 C 
BRANCH   2   3
ATOM      3  C   UNL A   1      34.004  27.917  25.211  1.00  0.00     0.021 C 
BRANCH   3   4
ATOM      4  C   UNL A   1      33.895  27.970  23.686  1.00  0.00     0.116 C 
BRANCH   4   5
ATOM      5  N   UNL A   1      33.476  26.739  23.055  1.00  0.00    -0.354 N 
ATOM      6  C   UNL A   1      32.477  25.859  23.271  1.00  0.00     0.242 C 
ATOM      7  O   UNL A   1      32.384  24.940  22.447  1.00  0.00    -0.273 OA
ATOM      8  H   UNL A   1      34.051  26.484  22.297  1.00  0.00     0.163 HD
BRANCH   6   9
ATOM      9  C   UNL A   1      31.409  26.030  24.362  1.00  0.00     0.175 C 
BRANCH   9  10
ATOM     10  N   UNL A   1      31.846  25.107  25.451  1.00  0.00    -0.342 N 
ATOM     11  C   UNL A   1      32.300  23.820  25.486  1.00  0.00     0.244 C 
ATOM     12  O   UNL A   1      31.973  23.188  26.501  1.00  0.00    -0.273 OA
ATOM     13  H   UNL A   1      31.795  25.520  26.344  1.00  0.00     0.164 HD
BRANCH  11  14
ATOM     14  C   UNL A   1      33.307  23.173  24.488  1.00  0.00     0.191 C 
ATOM     15  C   UNL A   1      35.311  24.408  25.548  1.00  0.00     0.026 C 
ATOM     16  C   UNL A   1      34.824  23.179  24.774  1.00  0.00     0.042 C 
ATOM     17  C   UNL A   1      35.633  23.118  23.464  1.00  0.00     0.026 C 
ATOM     18  S   UNL A   1      35.143  21.528  25.621  1.00  0.00    -0.123 SA
ATOM     19  C   UNL A   1      33.460  20.929  25.387  1.00  0.00     0.176 C 
ATOM     20  N   UNL A   1      32.941  21.770  24.361  1.00  0.00    -0.309 N 
ATOM     21  C   UNL A   1      33.225  19.562  24.870  1.00  0.00    -0.002 A 
ATOM     22  C   UNL A   1      32.490  21.074  23.262  1.00  0.00     0.256 C 
ATOM     23  C   UNL A   1      33.362  18.345  25.517  1.00  0.00     0.007 A 
ATOM     24  C   UNL A   1      32.616  19.642  23.617  1.00  0.00     0.046 A 
ATOM     25  O   UNL A   1      32.116  21.500  22.194  1.00  0.00    -0.269 OA
ATOM     26  C   UNL A   1      32.909  17.200  24.858  1.00  0.00     0.000 A 
ATOM     27  C   UNL A   1      32.186  18.522  22.935  1.00  0.00     0.014 A 
ATOM     28  C   UNL A   1      32.337  17.286  23.573  1.00  0.00     0.001 A 
ENDBRANCH  11  14
ENDBRANCH   9  10
BRANCH   9  29
ATOM     29  C   UNL A   1      29.954  25.811  23.949  1.00  0.00     0.072 C 
BRANCH  29  30
ATOM     30  C   UNL A   1      28.992  26.956  23.723  1.00  0.00    -0.020 A 
ATOM     31  C   UNL A   1      27.626  26.771  23.900  1.00  0.00     0.087 A 
ATOM     32  C   UNL A   1      29.137  28.288  23.184  1.00  0.00     0.003 A 
ATOM     33  N   UNL A   1      26.966  27.885  23.470  1.00  0.00    -0.361 N 
ATOM     34  C   UNL A   1      27.850  28.715  22.831  1.00  0.00     0.046 A 
ATOM     35  C   UNL A   1      30.204  29.131  22.807  1.00  0.00     0.010 A 
ATOM     36  H   UNL A   1      26.007  28.065  23.599  1.00  0.00     0.166 HD
ATOM     37  C   UNL A   1      27.601  29.782  21.959  1.00  0.00     0.026 A 
ATOM     38  C   UNL A   1      29.979  30.187  21.908  1.00  0.00     0.001 A 
ATOM     39  C   UNL A   1      28.700  30.472  21.450  1.00  0.00     0.002 A 
ENDBRANCH  29  30
ENDBRANCH   9  29
ENDBRANCH   6   9
ENDBRANCH   4   5
ENDBRANCH   3   4
ENDBRANCH   2   3
ENDBRANCH   1   2
BRANCH   1  40
ATOM     40  C   UNL A   1      34.413  31.142  27.281  1.00  0.00     0.021 C 
BRANCH  40  41
ATOM     41  C   UNL A   1      33.233  31.699  28.050  1.00  0.00     0.116 C 
BRANCH  41  42
ATOM     42  N   UNL A   1      32.969  33.099  27.733  1.00  0.00    -0.352 N 
ATOM     43  C   UNL A   1      33.484  34.205  28.371  1.00  0.00     0.251 C 
ATOM     44  H   UNL A   1      32.357  33.271  26.980  1.00  0.00     0.163 HD
ATOM     45  O   UNL A   1      33.074  35.333  28.135  1.00  0.00    -0.269 OA
BRANCH  43  46
ATOM     46  C   UNL A   1      34.528  33.957  29.383  1.00  0.00     0.039 A 
ATOM     47  C   UNL A   1      35.853  34.235  29.043  1.00  0.00     0.014 A 
ATOM     48  C   UNL A   1      34.214  33.241  30.538  1.00  0.00     0.014 A 
ATOM     49  C   UNL A   1      36.867  33.596  29.736  1.00  0.00     0.010 A 
ATOM     50  C   UNL A   1      35.253  32.713  31.311  1.00  0.00     0.010 A 
ATOM     51  C   UNL A   1      36.584  32.822  30.877  1.00  0.00    -0.014 A 
BRANCH  51  52
ATOM     52  C   UNL A   1      37.706  32.133  31.572  1.00  0.00     0.031 A 
ATOM     53  C   UNL A   1      38.489  31.031  30.902  1.00  0.00     0.074 A 
ATOM     54  C   UNL A   1      38.063  32.559  32.799  1.00  0.00     0.049 A 
ATOM     55  N   UNL A   1      39.521  30.369  31.363  1.00  0.00    -0.248 NA
ATOM     56  C   UNL A   1      38.073  30.609  29.553  1.00  0.00     0.031 C 
ATOM     57  C   UNL A   1      37.375  33.607  33.559  1.00  0.00     0.029 A 
ATOM     58  N   UNL A   1      39.101  32.189  33.616  1.00  0.00    -0.354 N 
ATOM     59  C   UNL A   1      39.840  29.427  30.392  1.00  0.00     0.074 A 
ATOM     60  C   UNL A   1      38.895  29.596  29.312  1.00  0.00     0.031 C 
ATOM     61  C   UNL A   1      38.043  33.840  34.696  1.00  0.00     0.029 A 
ATOM     62  C   UNL A   1      39.158  32.906  34.789  1.00  0.00     0.049 A 
ATOM     63  H   UNL A   1      39.742  31.479  33.386  1.00  0.00     0.167 HD
ATOM     64  C   UNL A   1      40.843  28.518  30.391  1.00  0.00     0.034 A 
ATOM     65  C   UNL A   1      39.998  32.817  35.837  1.00  0.00     0.034 A 
ATOM     66  C   UNL A   1      41.822  28.391  31.435  1.00  0.00     0.049 A 
ATOM     67  C   UNL A   1      41.098  31.800  35.809  1.00  0.00     0.074 A 
ATOM     68  C   UNL A   1      42.912  27.540  31.486  1.00  0.00     0.029 A 
ATOM     69  N   UNL A   1      41.833  29.130  32.607  1.00  0.00    -0.354 N 
ATOM     70  N   UNL A   1      41.427  30.980  34.843  1.00  0.00    -0.248 NA
ATOM     71  C   UNL A   1      41.944  31.697  37.006  1.00  0.00     0.031 C 
ATOM     72  C   UNL A   1      43.570  27.747  32.700  1.00  0.00     0.029 A 
ATOM     73  C   UNL A   1      42.902  28.742  33.394  1.00  0.00     0.049 A 
ATOM     74  H   UNL A   1      41.179  29.826  32.843  1.00  0.00     0.167 HD
ATOM     75  C   UNL A   1      42.523  30.267  35.309  1.00  0.00     0.074 A 
ATOM     76  C   UNL A   1      42.816  30.765  36.638  1.00  0.00     0.031 C 
ATOM     77  C   UNL A   1      43.210  29.276  34.695  1.00  0.00     0.034 A 
BRANCH  64  78
ATOM     78  C   UNL A   1      40.982  27.602  29.205  1.00  0.00     0.023 A 
ATOM     79  C   UNL A   1      40.187  26.442  29.129  1.00  0.00     0.012 A 
ATOM     80  C   UNL A   1      41.799  27.958  28.113  1.00  0.00     0.148 A 
ATOM     81  C   UNL A   1      40.208  25.644  27.986  1.00  0.00     0.002 A 
ATOM     82  C   UNL A   1      41.793  27.173  26.967  1.00  0.00     0.091 A 
ATOM     83  F   UNL A   1      42.549  29.065  28.213  1.00  0.00    -0.205 F 
ATOM     84  C   UNL A   1      41.000  26.016  26.902  1.00  0.00     0.022 A 
BRANCH  82  85
ATOM     85  S   UNL A   1      42.738  27.588  25.495  1.00  0.00     0.127 S 
ATOM     86  O   UNL A   1      42.515  26.406  24.662  1.00  0.00    -0.237 OA
ATOM     87  O   UNL A   1      42.064  28.799  25.029  1.00  0.00    -0.237 OA
ATOM     88  O   UNL A   1      44.112  27.779  25.937  1.00  0.00    -0.744 OA
ENDBRANCH  82  85
ENDBRANCH  64  78
BRANCH  65  89
ATOM     89  C   UNL A   1      39.823  33.747  36.983  1.00  0.00     0.023 A 
ATOM     90  C   UNL A   1      40.210  35.093  36.847  1.00  0.00     0.012 A 
ATOM     91  C   UNL A   1      39.189  33.323  38.168  1.00  0.00     0.148 A 
ATOM     92  C   UNL A   1      39.970  36.003  37.877  1.00  0.00     0.002 A 
ATOM     93  C   UNL A   1      38.916  34.243  39.172  1.00  0.00     0.091 A 
ATOM     94  F   UNL A   1      38.825  32.037  38.264  1.00  0.00    -0.205 F 
ATOM     95  C   UNL A   1      39.315  35.582  39.032  1.00  0.00     0.022 A 
BRANCH  93  96
ATOM     96  S   UNL A   1      37.989  33.819  40.650  1.00  0.00     0.127 S 
ATOM     97  O   UNL A   1      37.860  35.119  41.303  1.00  0.00    -0.237 OA
ATOM     98  O   UNL A   1      36.751  33.288  40.080  1.00  0.00    -0.237 OA
ATOM     99  O   UNL A   1      38.800  32.840  41.361  1.00  0.00    -0.744 OA
ENDBRANCH  93  96
ENDBRANCH  65  89
BRANCH  77 100
ATOM    100  C   UNL A   1      44.358  28.642  35.425  1.00  0.00     0.023 A 
ATOM    101  C   UNL A   1      45.640  29.212  35.313  1.00  0.00     0.012 A 
ATOM    102  C   UNL A   1      44.132  27.603  36.349  1.00  0.00     0.148 A 
ATOM    103  C   UNL A   1      46.682  28.761  36.121  1.00  0.00     0.002 A 
ATOM    104  C   UNL A   1      45.167  27.182  37.172  1.00  0.00     0.091 A 
ATOM    105  F   UNL A   1      42.898  27.082  36.431  1.00  0.00    -0.205 F 
ATOM    106  C   UNL A   1      46.443  27.760  37.060  1.00  0.00     0.022 A 
BRANCH 104 107
ATOM    107  S   UNL A   1      44.943  25.948  38.459  1.00  0.00     0.127 S 
ATOM    108  O   UNL A   1      46.277  25.894  39.054  1.00  0.00    -0.237 OA
ATOM    109  O   UNL A   1      43.921  26.567  39.302  1.00  0.00    -0.237 OA
ATOM    110  O   UNL A   1      44.523  24.728  37.782  1.00  0.00    -0.744 OA
ENDBRANCH 104 107
ENDBRANCH  77 100
ENDBRANCH  51  52
ENDBRANCH  43  46
ENDBRANCH  41  42
ENDBRANCH  40  41
ENDBRANCH   1  40
TORSDOF 20
ENDMDL
MODEL 3
REMARK VINA RESULT:     -12.1      1.921      7.391
REMARK SMILES CC1(C)S[C@@H]2c3ccccc3C(=O)N2[C@H]1C(=O)N[C@H](Cc1c[nH]c2ccccc12)C(=O)NCCCCCCNC(=O)c1ccc(-c2c3nc(c(-c4cccc(S(=O)(=O)[O-])c4F)c4ccc([nH]4)c(-c4cccc(S(=O)(=O)[O-])c4F)c4nc(c(-c5cccc(S(=O)(=O)[O-])c5F)c5ccc2[nH]5)C=C4)C=C3)cc1
REMARK SMILES IDX 36 1 35 2 34 3 33 4 32 5 30 6 31 7 19 9 18 10 16 11 17 12
REMARK SMILES IDX 15 14 1 15 2 16 3 17 4 18 5 19 14 20 6 21 12 22 7 23 11 24
REMARK SMILES IDX 13 25 8 26 10 27 9 28 20 29 21 30 22 31 29 32 23 33 24 34
REMARK SMILES IDX 28 35 25 37 27 38 26 39 37 40 38 41 39 42 40 43 41 45 42 46
REMARK SMILES IDX 43 47 104 48 44 49 103 50 45 51 46 52 47 53 97 54 48 55
REMARK SMILES IDX 102 56 96 57 98 58 49 59 101 60 95 61 94 62 50 64 82 65
REMARK SMILES IDX 62 66 81 67 63 68 66 69 80 70 99 71 64 72 65 73 79 75 100 76
REMARK SMILES IDX 67 77 51 78 52 79 60 80 53 81 55 82 61 83 54 84 56 85 57 86
REMARK SMILES IDX 58 87 59 88 83 89 84 90 92 91 85 92 87 93 93 94 86 95 88 96
REMARK SMILES IDX 89 97 90 98 91 99 68 100 69 101 77 102 70 103 72 104 78 105
REMARK SMILES IDX 71 106 73 107 74 108 75 109 76 110
REMARK H PARENT 32 8 18 13 23 36 39 44 98 63 66 74
REMARK Flexibility Score: inf
ROOT
ATOM      1  C   UNL A   1      36.947  21.814  24.062  1.00  0.00     0.002 C 
ENDROOT
BRANCH   1   2
ATOM      2  C   UNL A   1      36.992  23.036  24.970  1.00  0.00     0.002 C 
BRANCH   2   3
ATOM      3  C   UNL A   1      35.779  23.317  25.857  1.00  0.00     0.021 C 
BRANCH   3   4
ATOM      4  C   UNL A   1      34.647  24.146  25.247  1.00  0.00     0.116 C 
BRANCH   4   5
ATOM      5  N   UNL A   1      34.458  23.980  23.823  1.00  0.00    -0.354 N 
ATOM      6  C   UNL A   1      33.500  23.418  23.058  1.00  0.00     0.242 C 
ATOM      7  O   UNL A   1      33.647  23.546  21.835  1.00  0.00    -0.273 OA
ATOM      8  H   UNL A   1      35.195  24.361  23.293  1.00  0.00     0.163 HD
BRANCH   6   9
ATOM      9  C   UNL A   1      32.219  22.785  23.620  1.00  0.00     0.175 C 
BRANCH   9  10
ATOM     10  N   UNL A   1      31.197  23.869  23.515  1.00  0.00    -0.342 N 
ATOM     11  C   UNL A   1      31.192  25.205  23.795  1.00  0.00     0.244 C 
ATOM     12  O   UNL A   1      30.102  25.642  24.192  1.00  0.00    -0.273 OA
ATOM     13  H   UNL A   1      30.334  23.547  23.167  1.00  0.00     0.164 HD
BRANCH  11  14
ATOM     14  C   UNL A   1      32.342  26.212  23.489  1.00  0.00     0.191 C 
ATOM     15  C   UNL A   1      31.942  26.056  20.943  1.00  0.00     0.026 C 
ATOM     16  C   UNL A   1      32.446  26.906  22.114  1.00  0.00     0.042 C 
ATOM     17  C   UNL A   1      33.903  27.293  21.799  1.00  0.00     0.026 C 
ATOM     18  S   UNL A   1      31.547  28.544  22.352  1.00  0.00    -0.123 SA
ATOM     19  C   UNL A   1      31.294  28.303  24.119  1.00  0.00     0.176 C 
ATOM     20  N   UNL A   1      32.235  27.290  24.462  1.00  0.00    -0.309 N 
ATOM     21  C   UNL A   1      31.599  29.398  25.067  1.00  0.00    -0.002 A 
ATOM     22  C   UNL A   1      33.114  27.674  25.451  1.00  0.00     0.256 C 
ATOM     23  C   UNL A   1      30.891  30.561  25.320  1.00  0.00     0.007 A 
ATOM     24  C   UNL A   1      32.663  29.015  25.886  1.00  0.00     0.046 A 
ATOM     25  O   UNL A   1      34.091  27.095  25.864  1.00  0.00    -0.269 OA
ATOM     26  C   UNL A   1      31.301  31.355  26.394  1.00  0.00     0.000 A 
ATOM     27  C   UNL A   1      33.102  29.797  26.935  1.00  0.00     0.014 A 
ATOM     28  C   UNL A   1      32.404  30.983  27.186  1.00  0.00     0.001 A 
ENDBRANCH  11  14
ENDBRANCH   9  10
BRANCH   9  29
ATOM     29  C   UNL A   1      32.300  22.181  25.021  1.00  0.00     0.072 C 
BRANCH  29  30
ATOM     30  C   UNL A   1      32.454  20.695  25.259  1.00  0.00    -0.020 A 
ATOM     31  C   UNL A   1      32.849  20.220  26.504  1.00  0.00     0.087 A 
ATOM     32  C   UNL A   1      32.423  19.539  24.394  1.00  0.00     0.003 A 
ATOM     33  N   UNL A   1      33.084  18.879  26.415  1.00  0.00    -0.361 N 
ATOM     34  C   UNL A   1      33.045  18.500  25.098  1.00  0.00     0.046 A 
ATOM     35  C   UNL A   1      32.087  19.273  23.049  1.00  0.00     0.010 A 
ATOM     36  H   UNL A   1      33.252  18.278  27.176  1.00  0.00     0.166 HD
ATOM     37  C   UNL A   1      33.535  17.338  24.491  1.00  0.00     0.026 A 
ATOM     38  C   UNL A   1      32.595  18.128  22.413  1.00  0.00     0.001 A 
ATOM     39  C   UNL A   1      33.354  17.201  23.115  1.00  0.00     0.002 A 
ENDBRANCH  29  30
ENDBRANCH   9  29
ENDBRANCH   6   9
ENDBRANCH   4   5
ENDBRANCH   3   4
ENDBRANCH   2   3
ENDBRANCH   1   2
BRANCH   1  40
ATOM     40  C   UNL A   1      37.446  20.543  24.718  1.00  0.00     0.021 C 
BRANCH  40  41
ATOM     41  C   UNL A   1      38.303  20.814  25.938  1.00  0.00     0.116 C 
BRANCH  41  42
ATOM     42  N   UNL A   1      39.545  20.048  25.929  1.00  0.00    -0.352 N 
ATOM     43  C   UNL A   1      40.792  20.486  26.317  1.00  0.00     0.251 C 
ATOM     44  H   UNL A   1      39.486  19.118  25.613  1.00  0.00     0.163 HD
ATOM     45  O   UNL A   1      41.799  19.820  26.119  1.00  0.00    -0.269 OA
BRANCH  43  46
ATOM     46  C   UNL A   1      40.857  21.817  26.950  1.00  0.00     0.039 A 
ATOM     47  C   UNL A   1      40.399  22.915  26.221  1.00  0.00     0.014 A 
ATOM     48  C   UNL A   1      41.577  21.985  28.133  1.00  0.00     0.014 A 
ATOM     49  C   UNL A   1      40.863  24.177  26.554  1.00  0.00     0.010 A 
ATOM     50  C   UNL A   1      41.926  23.278  28.535  1.00  0.00     0.010 A 
ATOM     51  C   UNL A   1      41.637  24.378  27.712  1.00  0.00    -0.014 A 
BRANCH  51  52
ATOM     52  C   UNL A   1      42.136  25.748  28.012  1.00  0.00     0.031 A 
ATOM     53  C   UNL A   1      43.499  26.208  27.555  1.00  0.00     0.074 A 
ATOM     54  C   UNL A   1      41.315  26.609  28.645  1.00  0.00     0.049 A 
ATOM     55  N   UNL A   1      44.052  27.385  27.701  1.00  0.00    -0.248 NA
ATOM     56  C   UNL A   1      44.355  25.237  26.852  1.00  0.00     0.031 C 
ATOM     57  C   UNL A   1      39.978  26.280  29.150  1.00  0.00     0.029 A 
ATOM     58  N   UNL A   1      41.464  27.937  28.953  1.00  0.00    -0.354 N 
ATOM     59  C   UNL A   1      45.328  27.283  27.160  1.00  0.00     0.074 A 
ATOM     60  C   UNL A   1      45.475  25.928  26.681  1.00  0.00     0.031 C 
ATOM     61  C   UNL A   1      39.407  27.386  29.644  1.00  0.00     0.029 A 
ATOM     62  C   UNL A   1      40.362  28.485  29.568  1.00  0.00     0.049 A 
ATOM     63  H   UNL A   1      42.281  28.449  28.754  1.00  0.00     0.167 HD
ATOM     64  C   UNL A   1      46.282  28.236  27.053  1.00  0.00     0.034 A 
ATOM     65  C   UNL A   1      40.141  29.725  30.039  1.00  0.00     0.034 A 
ATOM     66  C   UNL A   1      46.114  29.601  27.471  1.00  0.00     0.049 A 
ATOM     67  C   UNL A   1      41.216  30.761  29.909  1.00  0.00     0.074 A 
ATOM     68  C   UNL A   1      47.007  30.650  27.341  1.00  0.00     0.029 A 
ATOM     69  N   UNL A   1      44.986  30.105  28.098  1.00  0.00    -0.354 N 
ATOM     70  N   UNL A   1      42.381  30.658  29.318  1.00  0.00    -0.248 NA
ATOM     71  C   UNL A   1      40.950  32.079  30.500  1.00  0.00     0.031 C 
ATOM     72  C   UNL A   1      46.428  31.786  27.911  1.00  0.00     0.029 A 
ATOM     73  C   UNL A   1      45.167  31.448  28.375  1.00  0.00     0.049 A 
ATOM     74  H   UNL A   1      44.178  29.587  28.313  1.00  0.00     0.167 HD
ATOM     75  C   UNL A   1      42.986  31.900  29.459  1.00  0.00     0.074 A 
ATOM     76  C   UNL A   1      42.052  32.746  30.173  1.00  0.00     0.031 C 
ATOM     77  C   UNL A   1      44.214  32.292  29.047  1.00  0.00     0.034 A 
BRANCH  64  78
ATOM     78  C   UNL A   1      47.596  27.871  26.415  1.00  0.00     0.023 A 
ATOM     79  C   UNL A   1      48.664  27.442  27.227  1.00  0.00     0.012 A 
ATOM     80  C   UNL A   1      47.727  27.828  25.013  1.00  0.00     0.148 A 
ATOM     81  C   UNL A   1      49.847  26.982  26.653  1.00  0.00     0.002 A 
ATOM     82  C   UNL A   1      48.899  27.341  24.448  1.00  0.00     0.091 A 
ATOM     83  F   UNL A   1      46.696  28.245  24.263  1.00  0.00    -0.205 F 
ATOM     84  C   UNL A   1      49.960  26.920  25.265  1.00  0.00     0.022 A 
BRANCH  82  85
ATOM     85  S   UNL A   1      49.131  27.172  22.674  1.00  0.00     0.127 S 
ATOM     86  O   UNL A   1      48.531  28.412  22.181  1.00  0.00    -0.237 OA
ATOM     87  O   UNL A   1      50.588  27.112  22.559  1.00  0.00    -0.237 OA
ATOM     88  O   UNL A   1      48.432  25.955  22.288  1.00  0.00    -0.744 OA
ENDBRANCH  82  85
ENDBRANCH  64  78
BRANCH  65  89
ATOM     89  C   UNL A   1      38.825  30.040  30.657  1.00  0.00     0.023 A 
ATOM     90  C   UNL A   1      38.537  29.567  31.949  1.00  0.00     0.012 A 
ATOM     91  C   UNL A   1      37.904  30.883  30.004  1.00  0.00     0.148 A 
ATOM     92  C   UNL A   1      37.348  29.927  32.584  1.00  0.00     0.002 A 
ATOM     93  C   UNL A   1      36.741  31.271  30.658  1.00  0.00     0.091 A 
ATOM     94  F   UNL A   1      38.210  31.324  28.776  1.00  0.00    -0.205 F 
ATOM     95  C   UNL A   1      36.458  30.786  31.944  1.00  0.00     0.022 A 
BRANCH  93  96
ATOM     96  S   UNL A   1      35.584  32.451  29.958  1.00  0.00     0.127 S 
ATOM     97  O   UNL A   1      34.488  32.400  30.922  1.00  0.00    -0.237 OA
ATOM     98  O   UNL A   1      36.369  33.685  29.981  1.00  0.00    -0.237 OA
ATOM     99  O   UNL A   1      35.268  31.957  28.625  1.00  0.00    -0.744 OA
ENDBRANCH  93  96
ENDBRANCH  65  89
BRANCH  77 100
ATOM    100  C   UNL A   1      44.652  33.697  29.341  1.00  0.00     0.023 A 
ATOM    101  C   UNL A   1      45.281  33.977  30.569  1.00  0.00     0.012 A 
ATOM    102  C   UNL A   1      44.599  34.686  28.340  1.00  0.00     0.148 A 
ATOM    103  C   UNL A   1      45.863  35.223  30.792  1.00  0.00     0.002 A 
ATOM    104  C   UNL A   1      45.209  35.914  28.558  1.00  0.00     0.091 A 
ATOM    105  F   UNL A   1      43.993  34.388  27.181  1.00  0.00    -0.205 F 
ATOM    106  C   UNL A   1      45.841  36.185  29.784  1.00  0.00     0.022 A 
BRANCH 104 107
ATOM    107  S   UNL A   1      45.296  37.192  27.298  1.00  0.00     0.127 S 
ATOM    108  O   UNL A   1      43.880  37.474  27.064  1.00  0.00    -0.237 OA
ATOM    109  O   UNL A   1      46.026  38.254  27.989  1.00  0.00    -0.237 OA
ATOM    110  O   UNL A   1      45.998  36.600  26.168  1.00  0.00    -0.744 OA
ENDBRANCH 104 107
ENDBRANCH  77 100
ENDBRANCH  51  52
ENDBRANCH  43  46
ENDBRANCH  41  42
ENDBRANCH  40  41
ENDBRANCH   1  40
TORSDOF 20
ENDMDL
