MODEL 1
REMARK VINA RESULT:     -11.2      0.000      0.000
REMARK SMILES C[C@@H]([NH2+]C1(CO)CCCCC1)[C@@H](C)C(=O)NCCCCCCNC(=O)c1ccc(-c2c3nc(c(-c4cccc(S(=O)(=O)[O-])c4F)c4ccc([nH]4)c(-c4cccc(S(=O)(=O)[O-])c4F)c4nc(c(-c5cccc(S(=O)(=O)[O-])c5F)c5ccc2[nH]5)C=C4)C=C3)cc1
REMARK SMILES IDX 18 1 17 2 16 3 14 4 15 5 12 7 13 8 2 9 1 10 3 11 4 14 7 15
REMARK SMILES IDX 11 16 8 17 10 18 9 19 5 20 6 21 19 23 20 24 21 25 22 26
REMARK SMILES IDX 23 27 24 28 25 30 26 31 27 32 88 33 28 34 87 35 29 36 30 37
REMARK SMILES IDX 31 38 81 39 32 40 86 41 80 42 82 43 33 44 85 45 79 46 78 47
REMARK SMILES IDX 34 49 66 50 46 51 65 52 47 53 50 54 64 55 83 56 48 57 49 58
REMARK SMILES IDX 63 60 84 61 51 62 35 63 36 64 44 65 37 66 39 67 45 68 38 69
REMARK SMILES IDX 40 70 41 71 42 72 43 73 67 74 68 75 76 76 69 77 71 78 77 79
REMARK SMILES IDX 70 80 72 81 73 82 74 83 75 84 52 85 53 86 61 87 54 88 56 89
REMARK SMILES IDX 62 90 55 91 57 92 58 93 59 94 60 95
REMARK H PARENT 16 6 3 12 3 13 6 22 23 29 82 48 50 59
REMARK Flexibility Score: inf
ROOT
ATOM      1  C   UNL A   1      31.992  25.614  24.230  1.00  0.00     0.021 C 
ENDROOT
BRANCH   1   2
ATOM      2  C   UNL A   1      33.263  25.015  24.832  1.00  0.00     0.116 C 
BRANCH   2   3
ATOM      3  N   UNL A   1      34.208  24.551  23.839  1.00  0.00    -0.356 N 
ATOM      4  C   UNL A   1      35.106  23.535  23.828  1.00  0.00     0.228 C 
ATOM      5  O   UNL A   1      35.725  23.373  22.766  1.00  0.00    -0.275 OA
ATOM      6  H   UNL A   1      34.197  25.077  23.008  1.00  0.00     0.163 HD
BRANCH   4   7
ATOM      7  C   UNL A   1      35.368  22.595  25.005  1.00  0.00     0.133 C 
ATOM      8  C   UNL A   1      36.495  23.284  25.797  1.00  0.00     0.024 C 
BRANCH   7   9
ATOM      9  C   UNL A   1      35.548  21.062  24.703  1.00  0.00     0.192 C 
ATOM     10  C   UNL A   1      36.996  20.638  25.058  1.00  0.00     0.076 C 
BRANCH   9  11
ATOM     11  N   UNL A   1      34.685  20.104  25.455  1.00  0.00    -0.337 N 
ATOM     12  H   UNL A   1      34.053  20.674  26.017  1.00  0.00     0.347 HD
ATOM     13  H   UNL A   1      35.380  19.516  25.915  1.00  0.00     0.347 HD
BRANCH  11  14
ATOM     14  C   UNL A   1      33.829  19.083  24.777  1.00  0.00     0.120 C 
ATOM     15  C   UNL A   1      33.071  19.685  23.564  1.00  0.00     0.071 C 
ATOM     16  C   UNL A   1      34.792  18.046  24.127  1.00  0.00     0.071 C 
ATOM     17  C   UNL A   1      32.172  18.655  22.877  1.00  0.00     0.007 C 
ATOM     18  C   UNL A   1      34.032  16.912  23.421  1.00  0.00     0.007 C 
ATOM     19  C   UNL A   1      32.916  17.379  22.476  1.00  0.00     0.001 C 
BRANCH  14  20
ATOM     20  C   UNL A   1      32.879  18.321  25.734  1.00  0.00     0.224 C 
BRANCH  20  21
ATOM     21  O   UNL A   1      32.913  18.864  27.050  1.00  0.00    -0.390 OA
ATOM     22  H   UNL A   1      33.785  19.256  27.216  1.00  0.00     0.210 HD
ENDBRANCH  20  21
ENDBRANCH  14  20
ENDBRANCH  11  14
ENDBRANCH   9  11
ENDBRANCH   7   9
ENDBRANCH   4   7
ENDBRANCH   2   3
ENDBRANCH   1   2
BRANCH   1  23
ATOM     23  C   UNL A   1      31.164  26.534  25.131  1.00  0.00     0.002 C 
BRANCH  23  24
ATOM     24  C   UNL A   1      31.009  27.967  24.628  1.00  0.00     0.002 C 
BRANCH  24  25
ATOM     25  C   UNL A   1      32.304  28.615  24.139  1.00  0.00     0.021 C 
BRANCH  25  26
ATOM     26  C   UNL A   1      33.134  29.268  25.237  1.00  0.00     0.116 C 
BRANCH  26  27
ATOM     27  N   UNL A   1      32.503  30.477  25.743  1.00  0.00    -0.352 N 
ATOM     28  C   UNL A   1      32.875  31.237  26.825  1.00  0.00     0.251 C 
ATOM     29  H   UNL A   1      31.712  30.790  25.247  1.00  0.00     0.163 HD
ATOM     30  O   UNL A   1      32.125  32.102  27.270  1.00  0.00    -0.269 OA
BRANCH  28  31
ATOM     31  C   UNL A   1      34.189  30.988  27.456  1.00  0.00     0.039 A 
ATOM     32  C   UNL A   1      35.087  32.046  27.617  1.00  0.00     0.014 A 
ATOM     33  C   UNL A   1      34.506  29.710  27.926  1.00  0.00     0.014 A 
ATOM     34  C   UNL A   1      36.284  31.832  28.304  1.00  0.00     0.010 A 
ATOM     35  C   UNL A   1      35.660  29.522  28.677  1.00  0.00     0.010 A 
ATOM     36  C   UNL A   1      36.566  30.576  28.865  1.00  0.00    -0.014 A 
BRANCH  36  37
ATOM     37  C   UNL A   1      37.809  30.320  29.638  1.00  0.00     0.031 A 
ATOM     38  C   UNL A   1      38.854  29.395  29.072  1.00  0.00     0.074 A 
ATOM     39  C   UNL A   1      37.949  30.819  30.882  1.00  0.00     0.049 A 
ATOM     40  N   UNL A   1      39.935  28.926  29.637  1.00  0.00    -0.248 NA
ATOM     41  C   UNL A   1      38.636  28.910  27.700  1.00  0.00     0.031 C 
ATOM     42  C   UNL A   1      36.982  31.682  31.563  1.00  0.00     0.029 A 
ATOM     43  N   UNL A   1      38.945  30.641  31.810  1.00  0.00    -0.354 N 
ATOM     44  C   UNL A   1      40.499  28.057  28.711  1.00  0.00     0.074 A 
ATOM     45  C   UNL A   1      39.623  28.038  27.560  1.00  0.00     0.031 C 
ATOM     46  C   UNL A   1      37.430  31.955  32.799  1.00  0.00     0.029 A 
ATOM     47  C   UNL A   1      38.693  31.255  33.015  1.00  0.00     0.049 A 
ATOM     48  H   UNL A   1      39.763  30.124  31.630  1.00  0.00     0.167 HD
ATOM     49  C   UNL A   1      41.655  27.358  28.796  1.00  0.00     0.034 A 
ATOM     50  C   UNL A   1      39.390  31.240  34.169  1.00  0.00     0.034 A 
ATOM     51  C   UNL A   1      42.543  27.413  29.925  1.00  0.00     0.049 A 
ATOM     52  C   UNL A   1      40.680  30.467  34.235  1.00  0.00     0.074 A 
ATOM     53  C   UNL A   1      43.774  26.803  30.080  1.00  0.00     0.029 A 
ATOM     54  N   UNL A   1      42.293  28.115  31.094  1.00  0.00    -0.354 N 
ATOM     55  N   UNL A   1      41.263  29.753  33.302  1.00  0.00    -0.248 NA
ATOM     56  C   UNL A   1      41.428  30.522  35.501  1.00  0.00     0.031 C 
ATOM     57  C   UNL A   1      44.256  27.112  31.356  1.00  0.00     0.029 A 
ATOM     58  C   UNL A   1      43.342  27.948  31.979  1.00  0.00     0.049 A 
ATOM     59  H   UNL A   1      41.487  28.653  31.268  1.00  0.00     0.167 HD
ATOM     60  C   UNL A   1      42.465  29.317  33.848  1.00  0.00     0.074 A 
ATOM     61  C   UNL A   1      42.530  29.851  35.194  1.00  0.00     0.031 C 
ATOM     62  C   UNL A   1      43.423  28.540  33.289  1.00  0.00     0.034 A 
BRANCH  49  63
ATOM     63  C   UNL A   1      42.045  26.503  27.619  1.00  0.00     0.023 A 
ATOM     64  C   UNL A   1      42.805  27.061  26.570  1.00  0.00     0.012 A 
ATOM     65  C   UNL A   1      41.702  25.138  27.570  1.00  0.00     0.148 A 
ATOM     66  C   UNL A   1      43.181  26.288  25.473  1.00  0.00     0.002 A 
ATOM     67  C   UNL A   1      42.122  24.361  26.498  1.00  0.00     0.091 A 
ATOM     68  F   UNL A   1      40.962  24.628  28.566  1.00  0.00    -0.205 F 
ATOM     69  C   UNL A   1      42.848  24.936  25.443  1.00  0.00     0.022 A 
BRANCH  67  70
ATOM     70  S   UNL A   1      41.816  22.593  26.405  1.00  0.00     0.127 S 
ATOM     71  O   UNL A   1      42.484  22.244  25.152  1.00  0.00    -0.237 OA
ATOM     72  O   UNL A   1      42.485  22.102  27.610  1.00  0.00    -0.237 OA
ATOM     73  O   UNL A   1      40.369  22.434  26.406  1.00  0.00    -0.744 OA
ENDBRANCH  67  70
ENDBRANCH  49  63
BRANCH  50  74
ATOM     74  C   UNL A   1      38.911  32.025  35.342  1.00  0.00     0.023 A 
ATOM     75  C   UNL A   1      39.028  33.429  35.327  1.00  0.00     0.012 A 
ATOM     76  C   UNL A   1      38.325  31.398  36.458  1.00  0.00     0.148 A 
ATOM     77  C   UNL A   1      38.603  34.191  36.416  1.00  0.00     0.002 A 
ATOM     78  C   UNL A   1      37.853  32.166  37.517  1.00  0.00     0.091 A 
ATOM     79  F   UNL A   1      38.230  30.061  36.458  1.00  0.00    -0.205 F 
ATOM     80  C   UNL A   1      38.008  33.562  37.506  1.00  0.00     0.022 A 
BRANCH  78  81
ATOM     81  S   UNL A   1      36.960  31.456  38.903  1.00  0.00     0.127 S 
ATOM     82  O   UNL A   1      36.758  30.080  38.455  1.00  0.00    -0.237 OA
ATOM     83  O   UNL A   1      37.921  31.615  39.995  1.00  0.00    -0.237 OA
ATOM     84  O   UNL A   1      35.751  32.255  39.046  1.00  0.00    -0.744 OA
ENDBRANCH  78  81
ENDBRANCH  50  74
BRANCH  62  85
ATOM     85  C   UNL A   1      44.669  28.266  34.090  1.00  0.00     0.023 A 
ATOM     86  C   UNL A   1      45.760  29.154  34.031  1.00  0.00     0.012 A 
ATOM     87  C   UNL A   1      44.707  27.179  34.987  1.00  0.00     0.148 A 
ATOM     88  C   UNL A   1      46.880  28.952  34.837  1.00  0.00     0.002 A 
ATOM     89  C   UNL A   1      45.804  27.014  35.824  1.00  0.00     0.091 A 
ATOM     90  F   UNL A   1      43.664  26.336  35.013  1.00  0.00    -0.205 F 
ATOM     91  C   UNL A   1      46.895  27.893  35.743  1.00  0.00     0.022 A 
BRANCH  89  92
ATOM     92  S   UNL A   1      45.867  25.744  37.092  1.00  0.00     0.127 S 
ATOM     93  O   UNL A   1      45.882  24.522  36.288  1.00  0.00    -0.237 OA
ATOM     94  O   UNL A   1      47.129  26.045  37.767  1.00  0.00    -0.237 OA
ATOM     95  O   UNL A   1      44.679  25.932  37.914  1.00  0.00    -0.744 OA
ENDBRANCH  89  92
ENDBRANCH  62  85
ENDBRANCH  36  37
ENDBRANCH  28  31
ENDBRANCH  26  27
ENDBRANCH  25  26
ENDBRANCH  24  25
ENDBRANCH  23  24
ENDBRANCH   1  23
TORSDOF 21
ENDMDL
MODEL 2
REMARK VINA RESULT:     -10.7      5.302     10.478
REMARK SMILES C[C@@H]([NH2+]C1(CO)CCCCC1)[C@@H](C)C(=O)NCCCCCCNC(=O)c1ccc(-c2c3nc(c(-c4cccc(S(=O)(=O)[O-])c4F)c4ccc([nH]4)c(-c4cccc(S(=O)(=O)[O-])c4F)c4nc(c(-c5cccc(S(=O)(=O)[O-])c5F)c5ccc2[nH]5)C=C4)C=C3)cc1
REMARK SMILES IDX 18 1 17 2 16 3 14 4 15 5 12 7 13 8 2 9 1 10 3 11 4 14 7 15
REMARK SMILES IDX 11 16 8 17 10 18 9 19 5 20 6 21 19 23 20 24 21 25 22 26
REMARK SMILES IDX 23 27 24 28 25 30 26 31 27 32 88 33 28 34 87 35 29 36 30 37
REMARK SMILES IDX 31 38 81 39 32 40 86 41 80 42 82 43 33 44 85 45 79 46 78 47
REMARK SMILES IDX 34 49 66 50 46 51 65 52 47 53 50 54 64 55 83 56 48 57 49 58
REMARK SMILES IDX 63 60 84 61 51 62 35 63 36 64 44 65 37 66 39 67 45 68 38 69
REMARK SMILES IDX 40 70 41 71 42 72 43 73 67 74 68 75 76 76 69 77 71 78 77 79
REMARK SMILES IDX 70 80 72 81 73 82 74 83 75 84 52 85 53 86 61 87 54 88 56 89
REMARK SMILES IDX 62 90 55 91 57 92 58 93 59 94 60 95
REMARK H PARENT 16 6 3 12 3 13 6 22 23 29 82 48 50 59
REMARK Flexibility Score: inf
ROOT
ATOM      1  C   UNL A   1      33.961  24.567  23.646  1.00  0.00     0.021 C 
ENDROOT
BRANCH   1   2
ATOM      2  C   UNL A   1      32.751  25.329  23.105  1.00  0.00     0.116 C 
BRANCH   2   3
ATOM      3  N   UNL A   1      31.605  25.293  23.988  1.00  0.00    -0.356 N 
ATOM      4  C   UNL A   1      31.049  26.216  24.811  1.00  0.00     0.228 C 
ATOM      5  O   UNL A   1      30.007  25.867  25.387  1.00  0.00    -0.275 OA
ATOM      6  H   UNL A   1      31.137  24.427  23.991  1.00  0.00     0.163 HD
BRANCH   4   7
ATOM      7  C   UNL A   1      31.601  27.622  25.038  1.00  0.00     0.133 C 
ATOM      8  C   UNL A   1      31.403  27.869  26.545  1.00  0.00     0.024 C 
BRANCH   7   9
ATOM      9  C   UNL A   1      31.137  28.767  24.064  1.00  0.00     0.192 C 
ATOM     10  C   UNL A   1      32.226  28.990  22.983  1.00  0.00     0.076 C 
BRANCH   9  11
ATOM     11  N   UNL A   1      29.882  28.546  23.286  1.00  0.00    -0.337 N 
ATOM     12  H   UNL A   1      29.345  27.853  23.807  1.00  0.00     0.347 HD
ATOM     13  H   UNL A   1      30.248  28.313  22.363  1.00  0.00     0.347 HD
BRANCH  11  14
ATOM     14  C   UNL A   1      28.928  29.650  22.962  1.00  0.00     0.120 C 
ATOM     15  C   UNL A   1      29.215  30.922  23.803  1.00  0.00     0.071 C 
ATOM     16  C   UNL A   1      29.236  30.100  21.503  1.00  0.00     0.071 C 
ATOM     17  C   UNL A   1      28.229  32.051  23.497  1.00  0.00     0.007 C 
ATOM     18  C   UNL A   1      28.292  31.216  21.029  1.00  0.00     0.007 C 
ATOM     19  C   UNL A   1      28.145  32.390  22.007  1.00  0.00     0.001 C 
BRANCH  14  20
ATOM     20  C   UNL A   1      27.436  29.235  23.031  1.00  0.00     0.224 C 
BRANCH  20  21
ATOM     21  O   UNL A   1      27.290  27.860  23.372  1.00  0.00    -0.390 OA
ATOM     22  H   UNL A   1      27.897  27.640  24.096  1.00  0.00     0.210 HD
ENDBRANCH  20  21
ENDBRANCH  14  20
ENDBRANCH  11  14
ENDBRANCH   9  11
ENDBRANCH   7   9
ENDBRANCH   4   7
ENDBRANCH   2   3
ENDBRANCH   1   2
BRANCH   1  23
ATOM     23  C   UNL A   1      34.296  23.231  22.977  1.00  0.00     0.002 C 
BRANCH  23  24
ATOM     24  C   UNL A   1      34.737  22.122  23.928  1.00  0.00     0.002 C 
BRANCH  24  25
ATOM     25  C   UNL A   1      34.582  22.455  25.412  1.00  0.00     0.021 C 
BRANCH  25  26
ATOM     26  C   UNL A   1      35.898  22.555  26.173  1.00  0.00     0.116 C 
BRANCH  26  27
ATOM     27  N   UNL A   1      36.801  21.466  25.836  1.00  0.00    -0.352 N 
ATOM     28  C   UNL A   1      38.175  21.481  25.814  1.00  0.00     0.251 C 
ATOM     29  H   UNL A   1      36.374  20.612  25.596  1.00  0.00     0.163 HD
ATOM     30  O   UNL A   1      38.802  20.560  25.297  1.00  0.00    -0.269 OA
BRANCH  28  31
ATOM     31  C   UNL A   1      38.887  22.631  26.409  1.00  0.00     0.039 A 
ATOM     32  C   UNL A   1      39.990  22.405  27.235  1.00  0.00     0.014 A 
ATOM     33  C   UNL A   1      38.481  23.934  26.108  1.00  0.00     0.014 A 
ATOM     34  C   UNL A   1      40.725  23.492  27.714  1.00  0.00     0.010 A 
ATOM     35  C   UNL A   1      39.260  25.009  26.521  1.00  0.00     0.010 A 
ATOM     36  C   UNL A   1      40.383  24.801  27.337  1.00  0.00    -0.014 A 
BRANCH  36  37
ATOM     37  C   UNL A   1      41.163  25.981  27.791  1.00  0.00     0.031 A 
ATOM     38  C   UNL A   1      40.475  27.064  28.579  1.00  0.00     0.074 A 
ATOM     39  C   UNL A   1      42.445  26.136  27.406  1.00  0.00     0.049 A 
ATOM     40  N   UNL A   1      40.927  28.233  28.946  1.00  0.00    -0.248 NA
ATOM     41  C   UNL A   1      39.080  26.808  28.977  1.00  0.00     0.031 C 
ATOM     42  C   UNL A   1      43.207  25.184  26.596  1.00  0.00     0.029 A 
ATOM     43  N   UNL A   1      43.323  27.170  27.615  1.00  0.00    -0.354 N 
ATOM     44  C   UNL A   1      39.864  28.869  29.575  1.00  0.00     0.074 A 
ATOM     45  C   UNL A   1      38.733  27.970  29.511  1.00  0.00     0.031 C 
ATOM     46  C   UNL A   1      44.436  25.680  26.374  1.00  0.00     0.029 A 
ATOM     47  C   UNL A   1      44.536  27.000  26.989  1.00  0.00     0.049 A 
ATOM     48  H   UNL A   1      43.105  27.959  28.162  1.00  0.00     0.167 HD
ATOM     49  C   UNL A   1      39.836  30.082  30.178  1.00  0.00     0.034 A 
ATOM     50  C   UNL A   1      45.601  27.823  26.902  1.00  0.00     0.034 A 
ATOM     51  C   UNL A   1      40.974  30.953  30.277  1.00  0.00     0.049 A 
ATOM     52  C   UNL A   1      45.551  29.160  27.593  1.00  0.00     0.074 A 
ATOM     53  C   UNL A   1      41.071  32.168  30.931  1.00  0.00     0.029 A 
ATOM     54  N   UNL A   1      42.210  30.707  29.702  1.00  0.00    -0.354 N 
ATOM     55  N   UNL A   1      44.578  29.691  28.294  1.00  0.00    -0.248 NA
ATOM     56  C   UNL A   1      46.756  30.000  27.510  1.00  0.00     0.031 C 
ATOM     57  C   UNL A   1      42.359  32.671  30.726  1.00  0.00     0.029 A 
ATOM     58  C   UNL A   1      43.076  31.750  29.978  1.00  0.00     0.049 A 
ATOM     59  H   UNL A   1      42.439  29.908  29.174  1.00  0.00     0.167 HD
ATOM     60  C   UNL A   1      45.068  30.899  28.776  1.00  0.00     0.074 A 
ATOM     61  C   UNL A   1      46.428  31.021  28.291  1.00  0.00     0.031 C 
ATOM     62  C   UNL A   1      44.447  31.826  29.544  1.00  0.00     0.034 A 
BRANCH  49  63
ATOM     63  C   UNL A   1      38.541  30.518  30.812  1.00  0.00     0.023 A 
ATOM     64  C   UNL A   1      38.300  30.240  32.174  1.00  0.00     0.012 A 
ATOM     65  C   UNL A   1      37.583  31.244  30.078  1.00  0.00     0.148 A 
ATOM     66  C   UNL A   1      37.111  30.638  32.783  1.00  0.00     0.002 A 
ATOM     67  C   UNL A   1      36.422  31.680  30.704  1.00  0.00     0.091 A 
ATOM     68  F   UNL A   1      37.818  31.482  28.779  1.00  0.00    -0.205 F 
ATOM     69  C   UNL A   1      36.178  31.367  32.051  1.00  0.00     0.022 A 
BRANCH  67  70
ATOM     70  S   UNL A   1      35.196  32.696  29.871  1.00  0.00     0.127 S 
ATOM     71  O   UNL A   1      34.333  33.087  30.984  1.00  0.00    -0.237 OA
ATOM     72  O   UNL A   1      36.015  33.778  29.324  1.00  0.00    -0.237 OA
ATOM     73  O   UNL A   1      34.576  31.839  28.871  1.00  0.00    -0.744 OA
ENDBRANCH  67  70
ENDBRANCH  49  63
BRANCH  50  74
ATOM     74  C   UNL A   1      46.827  27.385  26.177  1.00  0.00     0.023 A 
ATOM     75  C   UNL A   1      46.931  27.620  24.792  1.00  0.00     0.012 A 
ATOM     76  C   UNL A   1      47.895  26.758  26.848  1.00  0.00     0.148 A 
ATOM     77  C   UNL A   1      48.060  27.208  24.082  1.00  0.00     0.002 A 
ATOM     78  C   UNL A   1      49.040  26.399  26.146  1.00  0.00     0.091 A 
ATOM     79  F   UNL A   1      47.773  26.536  28.165  1.00  0.00    -0.205 F 
ATOM     80  C   UNL A   1      49.117  26.607  24.760  1.00  0.00     0.022 A 
BRANCH  78  81
ATOM     81  S   UNL A   1      50.500  25.737  26.955  1.00  0.00     0.127 S 
ATOM     82  O   UNL A   1      50.027  24.430  27.404  1.00  0.00    -0.237 OA
ATOM     83  O   UNL A   1      51.463  25.700  25.853  1.00  0.00    -0.237 OA
ATOM     84  O   UNL A   1      50.831  26.684  28.010  1.00  0.00    -0.744 OA
ENDBRANCH  78  81
ENDBRANCH  50  74
BRANCH  62  85
ATOM     85  C   UNL A   1      45.239  33.030  29.981  1.00  0.00     0.023 A 
ATOM     86  C   UNL A   1      46.006  32.986  31.160  1.00  0.00     0.012 A 
ATOM     87  C   UNL A   1      45.304  34.170  29.153  1.00  0.00     0.148 A 
ATOM     88  C   UNL A   1      46.810  34.067  31.521  1.00  0.00     0.002 A 
ATOM     89  C   UNL A   1      46.147  35.221  29.493  1.00  0.00     0.091 A 
ATOM     90  F   UNL A   1      44.551  34.197  28.044  1.00  0.00    -0.205 F 
ATOM     91  C   UNL A   1      46.892  35.176  30.682  1.00  0.00     0.022 A 
BRANCH  89  92
ATOM     92  S   UNL A   1      46.396  36.641  28.422  1.00  0.00     0.127 S 
ATOM     93  O   UNL A   1      45.577  37.658  29.081  1.00  0.00    -0.237 OA
ATOM     94  O   UNL A   1      47.839  36.858  28.529  1.00  0.00    -0.237 OA
ATOM     95  O   UNL A   1      45.940  36.237  27.098  1.00  0.00    -0.744 OA
ENDBRANCH  89  92
ENDBRANCH  62  85
ENDBRANCH  36  37
ENDBRANCH  28  31
ENDBRANCH  26  27
ENDBRANCH  25  26
ENDBRANCH  24  25
ENDBRANCH  23  24
ENDBRANCH   1  23
TORSDOF 21
ENDMDL
MODEL 3
REMARK VINA RESULT:     -10.6      2.932      8.310
REMARK SMILES C[C@@H]([NH2+]C1(CO)CCCCC1)[C@@H](C)C(=O)NCCCCCCNC(=O)c1ccc(-c2c3nc(c(-c4cccc(S(=O)(=O)[O-])c4F)c4ccc([nH]4)c(-c4cccc(S(=O)(=O)[O-])c4F)c4nc(c(-c5cccc(S(=O)(=O)[O-])c5F)c5ccc2[nH]5)C=C4)C=C3)cc1
REMARK SMILES IDX 18 1 17 2 16 3 14 4 15 5 12 7 13 8 2 9 1 10 3 11 4 14 7 15
REMARK SMILES IDX 11 16 8 17 10 18 9 19 5 20 6 21 19 23 20 24 21 25 22 26
REMARK SMILES IDX 23 27 24 28 25 30 26 31 27 32 88 33 28 34 87 35 29 36 30 37
REMARK SMILES IDX 31 38 81 39 32 40 86 41 80 42 82 43 33 44 85 45 79 46 78 47
REMARK SMILES IDX 34 49 66 50 46 51 65 52 47 53 50 54 64 55 83 56 48 57 49 58
REMARK SMILES IDX 63 60 84 61 51 62 35 63 36 64 44 65 37 66 39 67 45 68 38 69
REMARK SMILES IDX 40 70 41 71 42 72 43 73 67 74 68 75 76 76 69 77 71 78 77 79
REMARK SMILES IDX 70 80 72 81 73 82 74 83 75 84 52 85 53 86 61 87 54 88 56 89
REMARK SMILES IDX 62 90 55 91 57 92 58 93 59 94 60 95
REMARK H PARENT 16 6 3 12 3 13 6 22 23 29 82 48 50 59
REMARK Flexibility Score: inf
ROOT
ATOM      1  C   UNL A   1      30.319  28.858  23.379  1.00  0.00     0.021 C 
ENDROOT
BRANCH   1   2
ATOM      2  C   UNL A   1      30.466  27.702  22.389  1.00  0.00     0.116 C 
BRANCH   2   3
ATOM      3  N   UNL A   1      31.841  27.400  22.054  1.00  0.00    -0.356 N 
ATOM      4  C   UNL A   1      32.595  26.281  22.188  1.00  0.00     0.228 C 
ATOM      5  O   UNL A   1      33.745  26.347  21.726  1.00  0.00    -0.275 OA
ATOM      6  H   UNL A   1      32.324  28.156  21.650  1.00  0.00     0.163 HD
BRANCH   4   7
ATOM      7  C   UNL A   1      32.113  24.981  22.829  1.00  0.00     0.133 C 
ATOM      8  C   UNL A   1      31.762  25.378  24.276  1.00  0.00     0.024 C 
BRANCH   7   9
ATOM      9  C   UNL A   1      32.994  23.691  22.642  1.00  0.00     0.192 C 
ATOM     10  C   UNL A   1      32.980  23.276  21.148  1.00  0.00     0.076 C 
BRANCH   9  11
ATOM     11  N   UNL A   1      34.444  23.788  22.986  1.00  0.00    -0.337 N 
ATOM     12  H   UNL A   1      34.600  24.751  23.281  1.00  0.00     0.347 HD
ATOM     13  H   UNL A   1      34.883  23.443  22.133  1.00  0.00     0.347 HD
BRANCH  11  14
ATOM     14  C   UNL A   1      35.087  22.928  24.026  1.00  0.00     0.120 C 
ATOM     15  C   UNL A   1      34.404  21.538  24.122  1.00  0.00     0.071 C 
ATOM     16  C   UNL A   1      36.520  22.596  23.515  1.00  0.00     0.071 C 
ATOM     17  C   UNL A   1      35.038  20.657  25.201  1.00  0.00     0.007 C 
ATOM     18  C   UNL A   1      37.309  21.739  24.517  1.00  0.00     0.007 C 
ATOM     19  C   UNL A   1      36.553  20.511  25.044  1.00  0.00     0.001 C 
BRANCH  14  20
ATOM     20  C   UNL A   1      35.218  23.607  25.413  1.00  0.00     0.224 C 
BRANCH  20  21
ATOM     21  O   UNL A   1      35.123  25.024  25.314  1.00  0.00    -0.390 OA
ATOM     22  H   UNL A   1      34.472  25.351  25.954  1.00  0.00     0.210 HD
ENDBRANCH  20  21
ENDBRANCH  14  20
ENDBRANCH  11  14
ENDBRANCH   9  11
ENDBRANCH   7   9
ENDBRANCH   4   7
ENDBRANCH   2   3
ENDBRANCH   1   2
BRANCH   1  23
ATOM     23  C   UNL A   1      31.121  28.763  24.679  1.00  0.00     0.002 C 
BRANCH  23  24
ATOM     24  C   UNL A   1      32.506  29.405  24.634  1.00  0.00     0.002 C 
BRANCH  24  25
ATOM     25  C   UNL A   1      33.650  28.480  25.050  1.00  0.00     0.021 C 
BRANCH  25  26
ATOM     26  C   UNL A   1      34.303  28.847  26.377  1.00  0.00     0.116 C 
BRANCH  26  27
ATOM     27  N   UNL A   1      33.968  30.202  26.787  1.00  0.00    -0.352 N 
ATOM     28  C   UNL A   1      34.557  30.960  27.770  1.00  0.00     0.251 C 
ATOM     29  H   UNL A   1      33.226  30.628  26.299  1.00  0.00     0.163 HD
ATOM     30  O   UNL A   1      34.030  31.998  28.159  1.00  0.00    -0.269 OA
BRANCH  28  31
ATOM     31  C   UNL A   1      35.830  30.497  28.362  1.00  0.00     0.039 A 
ATOM     32  C   UNL A   1      35.808  29.745  29.540  1.00  0.00     0.014 A 
ATOM     33  C   UNL A   1      37.040  30.776  27.721  1.00  0.00     0.014 A 
ATOM     34  C   UNL A   1      37.001  29.222  30.044  1.00  0.00     0.010 A 
ATOM     35  C   UNL A   1      38.212  30.188  28.181  1.00  0.00     0.010 A 
ATOM     36  C   UNL A   1      38.208  29.414  29.352  1.00  0.00    -0.014 A 
BRANCH  36  37
ATOM     37  C   UNL A   1      39.491  28.840  29.832  1.00  0.00     0.031 A 
ATOM     38  C   UNL A   1      40.253  29.543  30.925  1.00  0.00     0.074 A 
ATOM     39  C   UNL A   1      40.024  27.764  29.220  1.00  0.00     0.049 A 
ATOM     40  N   UNL A   1      41.449  29.296  31.388  1.00  0.00    -0.248 NA
ATOM     41  C   UNL A   1      39.592  30.697  31.556  1.00  0.00     0.031 C 
ATOM     42  C   UNL A   1      39.409  27.028  28.114  1.00  0.00     0.029 A 
ATOM     43  N   UNL A   1      41.222  27.125  29.419  1.00  0.00    -0.354 N 
ATOM     44  C   UNL A   1      41.703  30.287  32.328  1.00  0.00     0.074 A 
ATOM     45  C   UNL A   1      40.550  31.160  32.346  1.00  0.00     0.031 C 
ATOM     46  C   UNL A   1      40.236  26.042  27.730  1.00  0.00     0.029 A 
ATOM     47  C   UNL A   1      41.455  26.100  28.531  1.00  0.00     0.049 A 
ATOM     48  H   UNL A   1      41.856  27.376  30.129  1.00  0.00     0.167 HD
ATOM     49  C   UNL A   1      42.785  30.444  33.127  1.00  0.00     0.034 A 
ATOM     50  C   UNL A   1      42.534  25.308  28.369  1.00  0.00     0.034 A 
ATOM     51  C   UNL A   1      43.910  29.549  33.136  1.00  0.00     0.049 A 
ATOM     52  C   UNL A   1      43.720  25.492  29.278  1.00  0.00     0.074 A 
ATOM     53  C   UNL A   1      45.022  29.575  33.958  1.00  0.00     0.029 A 
ATOM     54  N   UNL A   1      44.069  28.471  32.280  1.00  0.00    -0.354 N 
ATOM     55  N   UNL A   1      43.889  26.357  30.250  1.00  0.00    -0.248 NA
ATOM     56  C   UNL A   1      44.853  24.572  29.094  1.00  0.00     0.031 C 
ATOM     57  C   UNL A   1      45.868  28.530  33.578  1.00  0.00     0.029 A 
ATOM     58  C   UNL A   1      45.265  27.828  32.547  1.00  0.00     0.049 A 
ATOM     59  H   UNL A   1      43.427  28.203  31.584  1.00  0.00     0.167 HD
ATOM     60  C   UNL A   1      45.119  26.054  30.823  1.00  0.00     0.074 A 
ATOM     61  C   UNL A   1      45.653  24.923  30.093  1.00  0.00     0.031 C 
ATOM     62  C   UNL A   1      45.751  26.663  31.855  1.00  0.00     0.034 A 
BRANCH  49  63
ATOM     63  C   UNL A   1      42.786  31.606  34.085  1.00  0.00     0.023 A 
ATOM     64  C   UNL A   1      43.295  32.854  33.670  1.00  0.00     0.012 A 
ATOM     65  C   UNL A   1      42.240  31.479  35.377  1.00  0.00     0.148 A 
ATOM     66  C   UNL A   1      43.302  33.944  34.539  1.00  0.00     0.002 A 
ATOM     67  C   UNL A   1      42.204  32.583  36.220  1.00  0.00     0.091 A 
ATOM     68  F   UNL A   1      41.778  30.281  35.762  1.00  0.00    -0.205 F 
ATOM     69  C   UNL A   1      42.746  33.812  35.808  1.00  0.00     0.022 A 
BRANCH  67  70
ATOM     70  S   UNL A   1      41.436  32.538  37.843  1.00  0.00     0.127 S 
ATOM     71  O   UNL A   1      41.519  33.940  38.248  1.00  0.00    -0.237 OA
ATOM     72  O   UNL A   1      40.085  32.071  37.530  1.00  0.00    -0.237 OA
ATOM     73  O   UNL A   1      42.230  31.611  38.638  1.00  0.00    -0.744 OA
ENDBRANCH  67  70
ENDBRANCH  49  63
BRANCH  50  74
ATOM     74  C   UNL A   1      42.525  24.232  27.337  1.00  0.00     0.023 A 
ATOM     75  C   UNL A   1      43.198  24.440  26.117  1.00  0.00     0.012 A 
ATOM     76  C   UNL A   1      41.874  23.004  27.561  1.00  0.00     0.148 A 
ATOM     77  C   UNL A   1      43.194  23.458  25.125  1.00  0.00     0.002 A 
ATOM     78  C   UNL A   1      41.920  22.008  26.592  1.00  0.00     0.091 A 
ATOM     79  F   UNL A   1      41.232  22.829  28.725  1.00  0.00    -0.205 F 
ATOM     80  C   UNL A   1      42.565  22.240  25.366  1.00  0.00     0.022 A 
BRANCH  78  81
ATOM     81  S   UNL A   1      41.249  20.365  26.862  1.00  0.00     0.127 S 
ATOM     82  O   UNL A   1      40.983  20.383  28.299  1.00  0.00    -0.237 OA
ATOM     83  O   UNL A   1      40.056  20.384  26.014  1.00  0.00    -0.237 OA
ATOM     84  O   UNL A   1      42.283  19.438  26.424  1.00  0.00    -0.744 OA
ENDBRANCH  78  81
ENDBRANCH  50  74
BRANCH  62  85
ATOM     85  C   UNL A   1      47.063  26.087  32.320  1.00  0.00     0.023 A 
ATOM     86  C   UNL A   1      47.101  25.200  33.412  1.00  0.00     0.012 A 
ATOM     87  C   UNL A   1      48.244  26.347  31.595  1.00  0.00     0.148 A 
ATOM     88  C   UNL A   1      48.300  24.596  33.790  1.00  0.00     0.002 A 
ATOM     89  C   UNL A   1      49.423  25.701  31.945  1.00  0.00     0.091 A 
ATOM     90  F   UNL A   1      48.187  27.208  30.569  1.00  0.00    -0.205 F 
ATOM     91  C   UNL A   1      49.456  24.834  33.049  1.00  0.00     0.022 A 
BRANCH  89  92
ATOM     92  S   UNL A   1      50.934  25.865  30.987  1.00  0.00     0.127 S 
ATOM     93  O   UNL A   1      50.492  25.439  29.660  1.00  0.00    -0.237 OA
ATOM     94  O   UNL A   1      51.220  27.295  31.105  1.00  0.00    -0.237 OA
ATOM     95  O   UNL A   1      51.915  24.996  31.624  1.00  0.00    -0.744 OA
ENDBRANCH  89  92
ENDBRANCH  62  85
ENDBRANCH  36  37
ENDBRANCH  28  31
ENDBRANCH  26  27
ENDBRANCH  25  26
ENDBRANCH  24  25
ENDBRANCH  23  24
ENDBRANCH   1  23
TORSDOF 21
ENDMDL
