MODEL 1
REMARK VINA RESULT:     -11.5      0.000      0.000
REMARK SMILES CSc1ccccc1NC(=O)[C@@H]1CC=CC[C@H]1C(=O)NCCCCCCNC(=O)c1ccc(-c2c3nc(c(-c4cccc(S(=O)(=O)[O-])c4F)c4ccc([nH]4)c(-c4cccc(S(=O)(=O)[O-])c4F)c4nc(c(-c5cccc(S(=O)(=O)[O-])c5F)c5ccc2[nH]5)C=C4)C=C3)cc1
REMARK SMILES IDX 23 1 22 2 21 3 20 4 18 5 19 6 17 8 12 9 13 10 14 11 16 12
REMARK SMILES IDX 15 13 10 14 9 15 11 17 8 18 3 19 4 20 5 21 7 22 6 23 2 24
REMARK SMILES IDX 1 25 24 26 25 27 26 28 27 29 28 30 29 32 30 33 31 34 92 35
REMARK SMILES IDX 32 36 91 37 33 38 34 39 35 40 85 41 36 42 90 43 84 44 86 45
REMARK SMILES IDX 37 46 89 47 83 48 82 49 38 51 70 52 50 53 69 54 51 55 54 56
REMARK SMILES IDX 68 57 87 58 52 59 53 60 67 62 88 63 55 64 39 65 40 66 48 67
REMARK SMILES IDX 41 68 43 69 49 70 42 71 44 72 45 73 46 74 47 75 71 76 72 77
REMARK SMILES IDX 80 78 73 79 75 80 81 81 74 82 76 83 77 84 78 85 79 86 56 87
REMARK SMILES IDX 57 88 65 89 58 90 60 91 66 92 59 93 61 94 62 95 63 96 64 97
REMARK H PARENT 20 7 9 16 27 31 86 50 54 61
REMARK Flexibility Score: inf
ROOT
ATOM      1  C   UNL A   1      34.022  27.267  25.758  1.00  0.00     0.002 C 
ENDROOT
BRANCH   1   2
ATOM      2  C   UNL A   1      33.675  25.786  25.606  1.00  0.00     0.021 C 
BRANCH   2   3
ATOM      3  C   UNL A   1      34.822  24.807  25.880  1.00  0.00     0.116 C 
BRANCH   3   4
ATOM      4  N   UNL A   1      35.302  24.125  24.690  1.00  0.00    -0.356 N 
ATOM      5  C   UNL A   1      35.007  22.916  24.147  1.00  0.00     0.224 C 
ATOM      6  O   UNL A   1      35.408  22.712  22.994  1.00  0.00    -0.275 OA
ATOM      7  H   UNL A   1      35.969  24.638  24.180  1.00  0.00     0.163 HD
BRANCH   5   8
ATOM      8  C   UNL A   1      34.154  21.859  24.838  1.00  0.00     0.095 C 
ATOM      9  C   UNL A   1      32.719  21.673  24.295  1.00  0.00     0.095 C 
ATOM     10  C   UNL A   1      32.155  20.269  24.659  1.00  0.00     0.041 C 
ATOM     11  C   UNL A   1      33.110  19.131  24.512  1.00  0.00    -0.030 C 
ATOM     12  C   UNL A   1      35.070  20.611  24.877  1.00  0.00     0.041 C 
ATOM     13  C   UNL A   1      34.430  19.289  24.627  1.00  0.00    -0.030 C 
BRANCH   9  14
ATOM     14  C   UNL A   1      31.661  22.689  24.820  1.00  0.00     0.228 C 
ATOM     15  N   UNL A   1      30.951  23.450  23.920  1.00  0.00    -0.325 N 
ATOM     16  H   UNL A   1      30.008  23.191  23.808  1.00  0.00     0.169 HD
ATOM     17  O   UNL A   1      31.258  22.650  25.985  1.00  0.00    -0.274 OA
BRANCH  15  18
ATOM     18  C   UNL A   1      31.369  24.548  23.131  1.00  0.00     0.054 A 
ATOM     19  C   UNL A   1      30.678  25.780  23.211  1.00  0.00     0.031 A 
ATOM     20  C   UNL A   1      31.094  26.860  22.409  1.00  0.00     0.017 A 
ATOM     21  C   UNL A   1      32.177  26.729  21.539  1.00  0.00     0.001 A 
ATOM     22  C   UNL A   1      32.522  24.486  22.355  1.00  0.00     0.027 A 
ATOM     23  C   UNL A   1      32.904  25.547  21.528  1.00  0.00     0.002 A 
BRANCH  19  24
ATOM     24  S   UNL A   1      29.383  26.019  24.436  1.00  0.00    -0.127 SA
ATOM     25  C   UNL A   1      30.342  26.324  25.946  1.00  0.00     0.091 C 
ENDBRANCH  19  24
ENDBRANCH  15  18
ENDBRANCH   9  14
ENDBRANCH   5   8
ENDBRANCH   3   4
ENDBRANCH   2   3
ENDBRANCH   1   2
BRANCH   1  26
ATOM     26  C   UNL A   1      33.786  28.137  24.529  1.00  0.00     0.002 C 
BRANCH  26  27
ATOM     27  C   UNL A   1      32.900  29.356  24.770  1.00  0.00     0.021 C 
BRANCH  27  28
ATOM     28  C   UNL A   1      32.608  29.653  26.237  1.00  0.00     0.116 C 
BRANCH  28  29
ATOM     29  N   UNL A   1      32.393  31.071  26.492  1.00  0.00    -0.352 N 
ATOM     30  C   UNL A   1      33.168  31.922  27.242  1.00  0.00     0.251 C 
ATOM     31  H   UNL A   1      31.594  31.468  26.077  1.00  0.00     0.163 HD
ATOM     32  O   UNL A   1      32.792  33.065  27.486  1.00  0.00    -0.269 OA
BRANCH  30  33
ATOM     33  C   UNL A   1      34.453  31.424  27.772  1.00  0.00     0.039 A 
ATOM     34  C   UNL A   1      35.492  32.327  28.001  1.00  0.00     0.014 A 
ATOM     35  C   UNL A   1      34.592  30.075  28.110  1.00  0.00     0.014 A 
ATOM     36  C   UNL A   1      36.658  31.885  28.629  1.00  0.00     0.010 A 
ATOM     37  C   UNL A   1      35.723  29.654  28.799  1.00  0.00     0.010 A 
ATOM     38  C   UNL A   1      36.769  30.552  29.062  1.00  0.00    -0.014 A 
BRANCH  38  39
ATOM     39  C   UNL A   1      37.973  30.081  29.793  1.00  0.00     0.031 A 
ATOM     40  C   UNL A   1      38.265  30.598  31.176  1.00  0.00     0.074 A 
ATOM     41  C   UNL A   1      38.840  29.246  29.185  1.00  0.00     0.049 A 
ATOM     42  N   UNL A   1      39.278  30.333  31.957  1.00  0.00    -0.248 NA
ATOM     43  C   UNL A   1      37.306  31.561  31.744  1.00  0.00     0.031 C 
ATOM     44  C   UNL A   1      38.714  28.745  27.813  1.00  0.00     0.029 A 
ATOM     45  N   UNL A   1      40.011  28.689  29.633  1.00  0.00    -0.354 N 
ATOM     46  C   UNL A   1      39.091  31.107  33.096  1.00  0.00     0.074 A 
ATOM     47  C   UNL A   1      37.896  31.892  32.883  1.00  0.00     0.031 C 
ATOM     48  C   UNL A   1      39.761  27.950  27.536  1.00  0.00     0.029 A 
ATOM     49  C   UNL A   1      40.642  27.900  28.699  1.00  0.00     0.049 A 
ATOM     50  H   UNL A   1      40.367  28.840  30.538  1.00  0.00     0.167 HD
ATOM     51  C   UNL A   1      39.822  31.132  34.236  1.00  0.00     0.034 A 
ATOM     52  C   UNL A   1      41.798  27.211  28.774  1.00  0.00     0.034 A 
ATOM     53  C   UNL A   1      40.986  30.320  34.461  1.00  0.00     0.049 A 
ATOM     54  C   UNL A   1      42.567  27.223  30.069  1.00  0.00     0.074 A 
ATOM     55  C   UNL A   1      41.765  30.227  35.602  1.00  0.00     0.029 A 
ATOM     56  N   UNL A   1      41.538  29.456  33.528  1.00  0.00    -0.354 N 
ATOM     57  N   UNL A   1      42.287  27.843  31.190  1.00  0.00    -0.248 NA
ATOM     58  C   UNL A   1      43.787  26.404  30.125  1.00  0.00     0.031 C 
ATOM     59  C   UNL A   1      42.793  29.310  35.355  1.00  0.00     0.029 A 
ATOM     60  C   UNL A   1      42.643  28.820  34.067  1.00  0.00     0.049 A 
ATOM     61  H   UNL A   1      41.195  29.316  32.616  1.00  0.00     0.167 HD
ATOM     62  C   UNL A   1      43.273  27.459  32.094  1.00  0.00     0.074 A 
ATOM     63  C   UNL A   1      44.141  26.533  31.396  1.00  0.00     0.031 C 
ATOM     64  C   UNL A   1      43.456  27.852  33.379  1.00  0.00     0.034 A 
BRANCH  51  65
ATOM     65  C   UNL A   1      39.332  32.009  35.358  1.00  0.00     0.023 A 
ATOM     66  C   UNL A   1      38.398  31.487  36.279  1.00  0.00     0.012 A 
ATOM     67  C   UNL A   1      39.823  33.315  35.540  1.00  0.00     0.148 A 
ATOM     68  C   UNL A   1      37.936  32.261  37.341  1.00  0.00     0.002 A 
ATOM     69  C   UNL A   1      39.391  34.067  36.628  1.00  0.00     0.091 A 
ATOM     70  F   UNL A   1      40.694  33.802  34.644  1.00  0.00    -0.205 F 
ATOM     71  C   UNL A   1      38.441  33.546  37.521  1.00  0.00     0.022 A 
BRANCH  69  72
ATOM     72  S   UNL A   1      40.031  35.704  36.994  1.00  0.00     0.127 S 
ATOM     73  O   UNL A   1      39.651  36.445  35.793  1.00  0.00    -0.237 OA
ATOM     74  O   UNL A   1      39.280  36.066  38.197  1.00  0.00    -0.237 OA
ATOM     75  O   UNL A   1      41.464  35.540  37.198  1.00  0.00    -0.744 OA
ENDBRANCH  69  72
ENDBRANCH  51  65
BRANCH  52  76
ATOM     76  C   UNL A   1      42.263  26.389  27.620  1.00  0.00     0.023 A 
ATOM     77  C   UNL A   1      43.098  26.972  26.647  1.00  0.00     0.012 A 
ATOM     78  C   UNL A   1      41.889  25.039  27.479  1.00  0.00     0.148 A 
ATOM     79  C   UNL A   1      43.516  26.242  25.534  1.00  0.00     0.002 A 
ATOM     80  C   UNL A   1      42.355  24.299  26.398  1.00  0.00     0.091 A 
ATOM     81  F   UNL A   1      41.082  24.501  28.405  1.00  0.00    -0.205 F 
ATOM     82  C   UNL A   1      43.153  24.904  25.413  1.00  0.00     0.022 A 
BRANCH  80  83
ATOM     83  S   UNL A   1      42.043  22.537  26.243  1.00  0.00     0.127 S 
ATOM     84  O   UNL A   1      40.586  22.498  26.148  1.00  0.00    -0.237 OA
ATOM     85  O   UNL A   1      42.751  22.206  25.006  1.00  0.00    -0.237 OA
ATOM     86  O   UNL A   1      42.623  21.938  27.438  1.00  0.00    -0.744 OA
ENDBRANCH  80  83
ENDBRANCH  52  76
BRANCH  64  87
ATOM     87  C   UNL A   1      44.613  27.253  34.131  1.00  0.00     0.023 A 
ATOM     88  C   UNL A   1      45.885  27.854  34.053  1.00  0.00     0.012 A 
ATOM     89  C   UNL A   1      44.425  26.136  34.969  1.00  0.00     0.148 A 
ATOM     90  C   UNL A   1      46.961  27.332  34.769  1.00  0.00     0.002 A 
ATOM     91  C   UNL A   1      45.491  25.651  35.717  1.00  0.00     0.091 A 
ATOM     92  F   UNL A   1      43.211  25.567  35.015  1.00  0.00    -0.205 F 
ATOM     93  C   UNL A   1      46.761  26.238  35.610  1.00  0.00     0.022 A 
BRANCH  91  94
ATOM     94  S   UNL A   1      45.301  24.308  36.896  1.00  0.00     0.127 S 
ATOM     95  O   UNL A   1      44.229  24.813  37.753  1.00  0.00    -0.237 OA
ATOM     96  O   UNL A   1      44.917  23.189  36.035  1.00  0.00    -0.237 OA
ATOM     97  O   UNL A   1      46.599  24.155  37.540  1.00  0.00    -0.744 OA
ENDBRANCH  91  94
ENDBRANCH  64  87
ENDBRANCH  38  39
ENDBRANCH  30  33
ENDBRANCH  28  29
ENDBRANCH  27  28
ENDBRANCH  26  27
ENDBRANCH   1  26
TORSDOF 19
ENDMDL
MODEL 2
REMARK VINA RESULT:     -11.4      1.927      3.196
REMARK SMILES CSc1ccccc1NC(=O)[C@@H]1CC=CC[C@H]1C(=O)NCCCCCCNC(=O)c1ccc(-c2c3nc(c(-c4cccc(S(=O)(=O)[O-])c4F)c4ccc([nH]4)c(-c4cccc(S(=O)(=O)[O-])c4F)c4nc(c(-c5cccc(S(=O)(=O)[O-])c5F)c5ccc2[nH]5)C=C4)C=C3)cc1
REMARK SMILES IDX 23 1 22 2 21 3 20 4 18 5 19 6 17 8 12 9 13 10 14 11 16 12
REMARK SMILES IDX 15 13 10 14 9 15 11 17 8 18 3 19 4 20 5 21 7 22 6 23 2 24
REMARK SMILES IDX 1 25 24 26 25 27 26 28 27 29 28 30 29 32 30 33 31 34 92 35
REMARK SMILES IDX 32 36 91 37 33 38 34 39 35 40 85 41 36 42 90 43 84 44 86 45
REMARK SMILES IDX 37 46 89 47 83 48 82 49 38 51 70 52 50 53 69 54 51 55 54 56
REMARK SMILES IDX 68 57 87 58 52 59 53 60 67 62 88 63 55 64 39 65 40 66 48 67
REMARK SMILES IDX 41 68 43 69 49 70 42 71 44 72 45 73 46 74 47 75 71 76 72 77
REMARK SMILES IDX 80 78 73 79 75 80 81 81 74 82 76 83 77 84 78 85 79 86 56 87
REMARK SMILES IDX 57 88 65 89 58 90 60 91 66 92 59 93 61 94 62 95 63 96 64 97
REMARK H PARENT 20 7 9 16 27 31 86 50 54 61
REMARK Flexibility Score: inf
ROOT
ATOM      1  C   UNL A   1      31.661  28.936  25.670  1.00  0.00     0.002 C 
ENDROOT
BRANCH   1   2
ATOM      2  C   UNL A   1      32.615  29.095  24.486  1.00  0.00     0.021 C 
BRANCH   2   3
ATOM      3  C   UNL A   1      32.019  28.780  23.110  1.00  0.00     0.116 C 
BRANCH   3   4
ATOM      4  N   UNL A   1      32.859  27.918  22.295  1.00  0.00    -0.356 N 
ATOM      5  C   UNL A   1      32.981  26.569  22.218  1.00  0.00     0.224 C 
ATOM      6  O   UNL A   1      33.618  26.123  21.254  1.00  0.00    -0.275 OA
ATOM      7  H   UNL A   1      33.452  28.408  21.681  1.00  0.00     0.163 HD
BRANCH   5   8
ATOM      8  C   UNL A   1      32.318  25.598  23.186  1.00  0.00     0.095 C 
ATOM      9  C   UNL A   1      32.910  25.539  24.613  1.00  0.00     0.095 C 
ATOM     10  C   UNL A   1      31.875  24.979  25.631  1.00  0.00     0.041 C 
ATOM     11  C   UNL A   1      30.479  25.483  25.476  1.00  0.00    -0.030 C 
ATOM     12  C   UNL A   1      30.808  25.915  23.053  1.00  0.00     0.041 C 
ATOM     13  C   UNL A   1      29.995  25.892  24.301  1.00  0.00    -0.030 C 
BRANCH   9  14
ATOM     14  C   UNL A   1      34.176  24.646  24.782  1.00  0.00     0.228 C 
ATOM     15  N   UNL A   1      34.392  23.608  23.906  1.00  0.00    -0.325 N 
ATOM     16  H   UNL A   1      35.117  23.755  23.256  1.00  0.00     0.169 HD
ATOM     17  O   UNL A   1      35.113  24.994  25.506  1.00  0.00    -0.274 OA
BRANCH  15  18
ATOM     18  C   UNL A   1      33.732  22.360  23.796  1.00  0.00     0.054 A 
ATOM     19  C   UNL A   1      34.058  21.307  24.683  1.00  0.00     0.031 A 
ATOM     20  C   UNL A   1      33.406  20.067  24.553  1.00  0.00     0.017 A 
ATOM     21  C   UNL A   1      32.445  19.864  23.562  1.00  0.00     0.001 A 
ATOM     22  C   UNL A   1      32.680  22.172  22.906  1.00  0.00     0.027 A 
ATOM     23  C   UNL A   1      32.067  20.926  22.752  1.00  0.00     0.002 A 
BRANCH  19  24
ATOM     24  S   UNL A   1      35.177  21.594  26.062  1.00  0.00    -0.127 SA
ATOM     25  C   UNL A   1      34.023  21.936  27.420  1.00  0.00     0.091 C 
ENDBRANCH  19  24
ENDBRANCH  15  18
ENDBRANCH   9  14
ENDBRANCH   5   8
ENDBRANCH   3   4
ENDBRANCH   2   3
ENDBRANCH   1   2
BRANCH   1  26
ATOM     26  C   UNL A   1      32.010  29.739  26.919  1.00  0.00     0.002 C 
BRANCH  26  27
ATOM     27  C   UNL A   1      31.567  31.198  26.885  1.00  0.00     0.021 C 
BRANCH  27  28
ATOM     28  C   UNL A   1      32.674  32.194  26.563  1.00  0.00     0.116 C 
BRANCH  28  29
ATOM     29  N   UNL A   1      32.501  33.469  27.247  1.00  0.00    -0.352 N 
ATOM     30  C   UNL A   1      33.241  33.977  28.288  1.00  0.00     0.251 C 
ATOM     31  H   UNL A   1      31.765  34.036  26.924  1.00  0.00     0.163 HD
ATOM     32  O   UNL A   1      32.898  35.007  28.860  1.00  0.00    -0.269 OA
BRANCH  30  33
ATOM     33  C   UNL A   1      34.445  33.242  28.723  1.00  0.00     0.039 A 
ATOM     34  C   UNL A   1      35.700  33.832  28.561  1.00  0.00     0.014 A 
ATOM     35  C   UNL A   1      34.316  32.003  29.356  1.00  0.00     0.014 A 
ATOM     36  C   UNL A   1      36.826  33.202  29.095  1.00  0.00     0.010 A 
ATOM     37  C   UNL A   1      35.427  31.415  29.948  1.00  0.00     0.010 A 
ATOM     38  C   UNL A   1      36.694  32.005  29.820  1.00  0.00    -0.014 A 
BRANCH  38  39
ATOM     39  C   UNL A   1      37.871  31.358  30.452  1.00  0.00     0.031 A 
ATOM     40  C   UNL A   1      38.263  31.719  31.860  1.00  0.00     0.074 A 
ATOM     41  C   UNL A   1      38.627  30.501  29.737  1.00  0.00     0.049 A 
ATOM     42  N   UNL A   1      39.274  31.291  32.569  1.00  0.00    -0.248 NA
ATOM     43  C   UNL A   1      37.427  32.715  32.551  1.00  0.00     0.031 C 
ATOM     44  C   UNL A   1      38.402  30.138  28.335  1.00  0.00     0.029 A 
ATOM     45  N   UNL A   1      39.754  29.796  30.083  1.00  0.00    -0.354 N 
ATOM     46  C   UNL A   1      39.207  31.974  33.777  1.00  0.00     0.074 A 
ATOM     47  C   UNL A   1      38.088  32.886  33.686  1.00  0.00     0.031 C 
ATOM     48  C   UNL A   1      39.354  29.275  27.944  1.00  0.00     0.029 A 
ATOM     49  C   UNL A   1      40.268  29.037  29.057  1.00  0.00     0.049 A 
ATOM     50  H   UNL A   1      40.156  29.832  30.980  1.00  0.00     0.167 HD
ATOM     51  C   UNL A   1      39.978  31.827  34.880  1.00  0.00     0.034 A 
ATOM     52  C   UNL A   1      41.352  28.236  29.021  1.00  0.00     0.034 A 
ATOM     53  C   UNL A   1      41.063  30.891  34.982  1.00  0.00     0.049 A 
ATOM     54  C   UNL A   1      42.165  28.059  30.276  1.00  0.00     0.074 A 
ATOM     55  C   UNL A   1      41.870  30.623  36.075  1.00  0.00     0.029 A 
ATOM     56  N   UNL A   1      41.492  30.064  33.955  1.00  0.00    -0.354 N 
ATOM     57  N   UNL A   1      41.990  28.602  31.457  1.00  0.00    -0.248 NA
ATOM     58  C   UNL A   1      43.299  27.126  30.206  1.00  0.00     0.031 C 
ATOM     59  C   UNL A   1      42.792  29.637  35.705  1.00  0.00     0.029 A 
ATOM     60  C   UNL A   1      42.547  29.280  34.388  1.00  0.00     0.049 A 
ATOM     61  H   UNL A   1      41.103  30.040  33.051  1.00  0.00     0.167 HD
ATOM     62  C   UNL A   1      42.965  28.046  32.279  1.00  0.00     0.074 A 
ATOM     63  C   UNL A   1      43.710  27.106  31.467  1.00  0.00     0.031 C 
ATOM     64  C   UNL A   1      43.234  28.304  33.583  1.00  0.00     0.034 A 
BRANCH  51  65
ATOM     65  C   UNL A   1      39.619  32.644  36.094  1.00  0.00     0.023 A 
ATOM     66  C   UNL A   1      40.206  33.916  36.264  1.00  0.00     0.012 A 
ATOM     67  C   UNL A   1      38.673  32.189  37.033  1.00  0.00     0.148 A 
ATOM     68  C   UNL A   1      39.883  34.708  37.364  1.00  0.00     0.002 A 
ATOM     69  C   UNL A   1      38.323  33.004  38.105  1.00  0.00     0.091 A 
ATOM     70  F   UNL A   1      38.142  30.970  36.866  1.00  0.00    -0.205 F 
ATOM     71  C   UNL A   1      38.935  34.256  38.277  1.00  0.00     0.022 A 
BRANCH  69  72
ATOM     72  S   UNL A   1      37.060  32.551  39.298  1.00  0.00     0.127 S 
ATOM     73  O   UNL A   1      35.839  32.711  38.509  1.00  0.00    -0.237 OA
ATOM     74  O   UNL A   1      37.410  31.165  39.606  1.00  0.00    -0.237 OA
ATOM     75  O   UNL A   1      37.208  33.477  40.412  1.00  0.00    -0.744 OA
ENDBRANCH  69  72
ENDBRANCH  51  65
BRANCH  52  76
ATOM     76  C   UNL A   1      41.690  27.480  27.781  1.00  0.00     0.023 A 
ATOM     77  C   UNL A   1      42.178  28.176  26.658  1.00  0.00     0.012 A 
ATOM     78  C   UNL A   1      41.535  26.083  27.706  1.00  0.00     0.148 A 
ATOM     79  C   UNL A   1      42.465  27.502  25.470  1.00  0.00     0.002 A 
ATOM     80  C   UNL A   1      41.876  25.409  26.538  1.00  0.00     0.091 A 
ATOM     81  F   UNL A   1      41.055  25.436  28.778  1.00  0.00    -0.205 F 
ATOM     82  C   UNL A   1      42.322  26.119  25.412  1.00  0.00     0.022 A 
BRANCH  80  83
ATOM     83  S   UNL A   1      41.849  23.616  26.430  1.00  0.00     0.127 S 
ATOM     84  O   UNL A   1      40.416  23.341  26.376  1.00  0.00    -0.237 OA
ATOM     85  O   UNL A   1      42.571  23.372  25.181  1.00  0.00    -0.237 OA
ATOM     86  O   UNL A   1      42.547  23.149  27.620  1.00  0.00    -0.744 OA
ENDBRANCH  80  83
ENDBRANCH  52  76
BRANCH  64  87
ATOM     87  C   UNL A   1      44.353  27.531  34.229  1.00  0.00     0.023 A 
ATOM     88  C   UNL A   1      45.649  28.083  34.272  1.00  0.00     0.012 A 
ATOM     89  C   UNL A   1      44.105  26.293  34.853  1.00  0.00     0.148 A 
ATOM     90  C   UNL A   1      46.690  27.396  34.895  1.00  0.00     0.002 A 
ATOM     91  C   UNL A   1      45.137  25.638  35.514  1.00  0.00     0.091 A 
ATOM     92  F   UNL A   1      42.869  25.777  34.784  1.00  0.00    -0.205 F 
ATOM     93  C   UNL A   1      46.432  26.180  35.525  1.00  0.00     0.022 A 
BRANCH  91  94
ATOM     94  S   UNL A   1      44.873  24.117  36.433  1.00  0.00     0.127 S 
ATOM     95  O   UNL A   1      44.211  24.609  37.640  1.00  0.00    -0.237 OA
ATOM     96  O   UNL A   1      44.008  23.354  35.531  1.00  0.00    -0.237 OA
ATOM     97  O   UNL A   1      46.194  23.536  36.633  1.00  0.00    -0.744 OA
ENDBRANCH  91  94
ENDBRANCH  64  87
ENDBRANCH  38  39
ENDBRANCH  30  33
ENDBRANCH  28  29
ENDBRANCH  27  28
ENDBRANCH  26  27
ENDBRANCH   1  26
TORSDOF 19
ENDMDL
MODEL 3
REMARK VINA RESULT:     -11.4      5.225      8.385
REMARK SMILES CSc1ccccc1NC(=O)[C@@H]1CC=CC[C@H]1C(=O)NCCCCCCNC(=O)c1ccc(-c2c3nc(c(-c4cccc(S(=O)(=O)[O-])c4F)c4ccc([nH]4)c(-c4cccc(S(=O)(=O)[O-])c4F)c4nc(c(-c5cccc(S(=O)(=O)[O-])c5F)c5ccc2[nH]5)C=C4)C=C3)cc1
REMARK SMILES IDX 23 1 22 2 21 3 20 4 18 5 19 6 17 8 12 9 13 10 14 11 16 12
REMARK SMILES IDX 15 13 10 14 9 15 11 17 8 18 3 19 4 20 5 21 7 22 6 23 2 24
REMARK SMILES IDX 1 25 24 26 25 27 26 28 27 29 28 30 29 32 30 33 31 34 92 35
REMARK SMILES IDX 32 36 91 37 33 38 34 39 35 40 85 41 36 42 90 43 84 44 86 45
REMARK SMILES IDX 37 46 89 47 83 48 82 49 38 51 70 52 50 53 69 54 51 55 54 56
REMARK SMILES IDX 68 57 87 58 52 59 53 60 67 62 88 63 55 64 39 65 40 66 48 67
REMARK SMILES IDX 41 68 43 69 49 70 42 71 44 72 45 73 46 74 47 75 71 76 72 77
REMARK SMILES IDX 80 78 73 79 75 80 81 81 74 82 76 83 77 84 78 85 79 86 56 87
REMARK SMILES IDX 57 88 65 89 58 90 60 91 66 92 59 93 61 94 62 95 63 96 64 97
REMARK H PARENT 20 7 9 16 27 31 86 50 54 61
REMARK Flexibility Score: inf
ROOT
ATOM      1  C   UNL A   1      37.826  22.535  25.307  1.00  0.00     0.002 C 
ENDROOT
BRANCH   1   2
ATOM      2  C   UNL A   1      36.883  23.478  26.055  1.00  0.00     0.021 C 
BRANCH   2   3
ATOM      3  C   UNL A   1      35.388  23.257  25.798  1.00  0.00     0.116 C 
BRANCH   3   4
ATOM      4  N   UNL A   1      34.623  22.992  27.004  1.00  0.00    -0.356 N 
ATOM      5  C   UNL A   1      33.346  22.578  27.204  1.00  0.00     0.224 C 
ATOM      6  O   UNL A   1      33.053  22.214  28.350  1.00  0.00    -0.275 OA
ATOM      7  H   UNL A   1      35.128  23.140  27.836  1.00  0.00     0.163 HD
BRANCH   5   8
ATOM      8  C   UNL A   1      32.307  22.460  26.096  1.00  0.00     0.095 C 
ATOM      9  C   UNL A   1      31.832  23.785  25.456  1.00  0.00     0.095 C 
ATOM     10  C   UNL A   1      31.240  23.546  24.037  1.00  0.00     0.041 C 
ATOM     11  C   UNL A   1      31.991  22.585  23.177  1.00  0.00    -0.030 C 
ATOM     12  C   UNL A   1      32.892  21.381  25.151  1.00  0.00     0.041 C 
ATOM     13  C   UNL A   1      32.727  21.596  23.687  1.00  0.00    -0.030 C 
BRANCH   9  14
ATOM     14  C   UNL A   1      30.727  24.555  26.239  1.00  0.00     0.228 C 
ATOM     15  N   UNL A   1      30.332  25.798  25.802  1.00  0.00    -0.325 N 
ATOM     16  H   UNL A   1      29.442  25.828  25.381  1.00  0.00     0.169 HD
ATOM     17  O   UNL A   1      30.020  23.986  27.075  1.00  0.00    -0.274 OA
BRANCH  15  18
ATOM     18  C   UNL A   1      31.007  27.040  25.866  1.00  0.00     0.054 A 
ATOM     19  C   UNL A   1      31.183  27.810  24.692  1.00  0.00     0.031 A 
ATOM     20  C   UNL A   1      31.871  29.036  24.766  1.00  0.00     0.017 A 
ATOM     21  C   UNL A   1      32.380  29.499  25.980  1.00  0.00     0.001 A 
ATOM     22  C   UNL A   1      31.409  27.586  27.080  1.00  0.00     0.027 A 
ATOM     23  C   UNL A   1      32.129  28.782  27.141  1.00  0.00     0.002 A 
BRANCH  19  24
ATOM     24  S   UNL A   1      30.401  27.310  23.150  1.00  0.00    -0.127 SA
ATOM     25  C   UNL A   1      28.928  28.369  23.114  1.00  0.00     0.091 C 
ENDBRANCH  19  24
ENDBRANCH  15  18
ENDBRANCH   9  14
ENDBRANCH   5   8
ENDBRANCH   3   4
ENDBRANCH   2   3
ENDBRANCH   1   2
BRANCH   1  26
ATOM     26  C   UNL A   1      37.216  21.222  24.830  1.00  0.00     0.002 C 
BRANCH  26  27
ATOM     27  C   UNL A   1      38.152  20.019  24.904  1.00  0.00     0.021 C 
BRANCH  27  28
ATOM     28  C   UNL A   1      38.890  19.864  26.229  1.00  0.00     0.116 C 
BRANCH  28  29
ATOM     29  N   UNL A   1      40.099  19.061  26.110  1.00  0.00    -0.352 N 
ATOM     30  C   UNL A   1      41.404  19.488  26.148  1.00  0.00     0.251 C 
ATOM     31  H   UNL A   1      39.964  18.094  25.986  1.00  0.00     0.163 HD
ATOM     32  O   UNL A   1      42.326  18.717  25.897  1.00  0.00    -0.269 OA
BRANCH  30  33
ATOM     33  C   UNL A   1      41.675  20.902  26.472  1.00  0.00     0.039 A 
ATOM     34  C   UNL A   1      42.255  21.221  27.701  1.00  0.00     0.014 A 
ATOM     35  C   UNL A   1      41.422  21.897  25.523  1.00  0.00     0.014 A 
ATOM     36  C   UNL A   1      42.638  22.539  27.956  1.00  0.00     0.010 A 
ATOM     37  C   UNL A   1      41.870  23.192  25.751  1.00  0.00     0.010 A 
ATOM     38  C   UNL A   1      42.478  23.529  26.970  1.00  0.00    -0.014 A 
BRANCH  38  39
ATOM     39  C   UNL A   1      42.943  24.920  27.197  1.00  0.00     0.031 A 
ATOM     40  C   UNL A   1      42.034  25.918  27.864  1.00  0.00     0.074 A 
ATOM     41  C   UNL A   1      44.151  25.305  26.738  1.00  0.00     0.049 A 
ATOM     42  N   UNL A   1      42.244  27.182  28.118  1.00  0.00    -0.248 NA
ATOM     43  C   UNL A   1      40.703  25.439  28.274  1.00  0.00     0.031 C 
ATOM     44  C   UNL A   1      45.086  24.455  25.997  1.00  0.00     0.029 A 
ATOM     45  N   UNL A   1      44.791  26.517  26.808  1.00  0.00    -0.354 N 
ATOM     46  C   UNL A   1      41.072  27.653  28.697  1.00  0.00     0.074 A 
ATOM     47  C   UNL A   1      40.135  26.553  28.709  1.00  0.00     0.031 C 
ATOM     48  C   UNL A   1      46.181  25.169  25.688  1.00  0.00     0.029 A 
ATOM     49  C   UNL A   1      46.020  26.530  26.188  1.00  0.00     0.049 A 
ATOM     50  H   UNL A   1      44.407  27.304  27.257  1.00  0.00     0.167 HD
ATOM     51  C   UNL A   1      40.812  28.878  29.214  1.00  0.00     0.034 A 
ATOM     52  C   UNL A   1      46.915  27.528  26.045  1.00  0.00     0.034 A 
ATOM     53  C   UNL A   1      41.761  29.957  29.238  1.00  0.00     0.049 A 
ATOM     54  C   UNL A   1      46.617  28.866  26.668  1.00  0.00     0.074 A 
ATOM     55  C   UNL A   1      41.617  31.219  29.789  1.00  0.00     0.029 A 
ATOM     56  N   UNL A   1      43.033  29.902  28.691  1.00  0.00    -0.354 N 
ATOM     57  N   UNL A   1      45.561  29.244  27.347  1.00  0.00    -0.248 NA
ATOM     58  C   UNL A   1      47.652  29.903  26.541  1.00  0.00     0.031 C 
ATOM     59  C   UNL A   1      42.802  31.929  29.569  1.00  0.00     0.029 A 
ATOM     60  C   UNL A   1      43.689  31.103  28.896  1.00  0.00     0.049 A 
ATOM     61  H   UNL A   1      43.413  29.123  28.224  1.00  0.00     0.167 HD
ATOM     62  C   UNL A   1      45.822  30.546  27.763  1.00  0.00     0.074 A 
ATOM     63  C   UNL A   1      47.146  30.881  27.280  1.00  0.00     0.031 C 
ATOM     64  C   UNL A   1      45.031  31.395  28.464  1.00  0.00     0.034 A 
BRANCH  51  65
ATOM     65  C   UNL A   1      39.472  29.086  29.870  1.00  0.00     0.023 A 
ATOM     66  C   UNL A   1      39.255  28.572  31.166  1.00  0.00     0.012 A 
ATOM     67  C   UNL A   1      38.453  29.827  29.242  1.00  0.00     0.148 A 
ATOM     68  C   UNL A   1      38.036  28.762  31.813  1.00  0.00     0.002 A 
ATOM     69  C   UNL A   1      37.254  30.050  29.911  1.00  0.00     0.091 A 
ATOM     70  F   UNL A   1      38.669  30.290  28.002  1.00  0.00    -0.205 F 
ATOM     71  C   UNL A   1      37.041  29.509  31.190  1.00  0.00     0.022 A 
BRANCH  69  72
ATOM     72  S   UNL A   1      35.934  31.059  29.231  1.00  0.00     0.127 S 
ATOM     73  O   UNL A   1      35.194  30.080  28.435  1.00  0.00    -0.237 OA
ATOM     74  O   UNL A   1      35.241  31.513  30.437  1.00  0.00    -0.237 OA
ATOM     75  O   UNL A   1      36.586  32.116  28.470  1.00  0.00    -0.744 OA
ENDBRANCH  69  72
ENDBRANCH  51  65
BRANCH  52  76
ATOM     76  C   UNL A   1      48.212  27.282  25.351  1.00  0.00     0.023 A 
ATOM     77  C   UNL A   1      49.315  26.814  26.091  1.00  0.00     0.012 A 
ATOM     78  C   UNL A   1      48.361  27.504  23.969  1.00  0.00     0.148 A 
ATOM     79  C   UNL A   1      50.553  26.613  25.478  1.00  0.00     0.002 A 
ATOM     80  C   UNL A   1      49.581  27.248  23.353  1.00  0.00     0.091 A 
ATOM     81  F   UNL A   1      47.306  27.963  23.280  1.00  0.00    -0.205 F 
ATOM     82  C   UNL A   1      50.684  26.821  24.109  1.00  0.00     0.022 A 
BRANCH  80  83
ATOM     83  S   UNL A   1      49.791  27.362  21.572  1.00  0.00     0.127 S 
ATOM     84  O   UNL A   1      51.170  26.911  21.404  1.00  0.00    -0.237 OA
ATOM     85  O   UNL A   1      48.774  26.432  21.081  1.00  0.00    -0.237 OA
ATOM     86  O   UNL A   1      49.528  28.757  21.242  1.00  0.00    -0.744 OA
ENDBRANCH  80  83
ENDBRANCH  52  76
BRANCH  64  87
ATOM     87  C   UNL A   1      45.587  32.755  28.789  1.00  0.00     0.023 A 
ATOM     88  C   UNL A   1      46.311  32.948  29.983  1.00  0.00     0.012 A 
ATOM     89  C   UNL A   1      45.454  33.822  27.879  1.00  0.00     0.148 A 
ATOM     90  C   UNL A   1      46.862  34.193  30.284  1.00  0.00     0.002 A 
ATOM     91  C   UNL A   1      46.047  35.047  28.164  1.00  0.00     0.091 A 
ATOM     92  F   UNL A   1      44.745  33.624  26.758  1.00  0.00    -0.205 F 
ATOM     93  C   UNL A   1      46.740  35.238  29.370  1.00  0.00     0.022 A 
BRANCH  91  94
ATOM     94  S   UNL A   1      46.022  36.417  27.002  1.00  0.00     0.127 S 
ATOM     95  O   UNL A   1      44.594  36.722  26.931  1.00  0.00    -0.237 OA
ATOM     96  O   UNL A   1      46.827  37.426  27.693  1.00  0.00    -0.237 OA
ATOM     97  O   UNL A   1      46.618  35.910  25.773  1.00  0.00    -0.744 OA
ENDBRANCH  91  94
ENDBRANCH  64  87
ENDBRANCH  38  39
ENDBRANCH  30  33
ENDBRANCH  28  29
ENDBRANCH  27  28
ENDBRANCH  26  27
ENDBRANCH   1  26
TORSDOF 19
ENDMDL
