MODEL 1
REMARK VINA RESULT:     -11.2      0.000      0.000
REMARK SMILES CC[C@H](C(=O)NCc1ccc(C(=O)NCCCCCCNC(=O)c2ccc(-c3c4nc(c(-c5cccc(S(=O)(=O)[O-])c5F)c5ccc([nH]5)c(-c5cccc(S(=O)(=O)[O-])c5F)c5nc(c(-c6cccc(S(=O)(=O)[O-])c6F)c6ccc3[nH]6)C=C5)C=C4)cc2)o1)c1ccccc1
REMARK SMILES IDX 17 1 16 2 15 3 14 4 12 5 13 6 11 8 8 9 9 10 87 11 10 12 7 13
REMARK SMILES IDX 6 14 4 15 5 16 3 18 2 19 1 20 88 21 89 22 93 23 90 24 92 25
REMARK SMILES IDX 91 26 18 27 19 28 20 29 21 30 22 31 23 33 24 34 25 35 86 36
REMARK SMILES IDX 26 37 85 38 27 39 28 40 29 41 79 42 30 43 84 44 78 45 80 46
REMARK SMILES IDX 31 47 83 48 77 49 76 50 32 52 64 53 44 54 63 55 45 56 48 57
REMARK SMILES IDX 62 58 81 59 46 60 47 61 61 63 82 64 49 65 33 66 34 67 42 68
REMARK SMILES IDX 35 69 37 70 43 71 36 72 38 73 39 74 40 75 41 76 65 77 66 78
REMARK SMILES IDX 74 79 67 80 69 81 75 82 68 83 70 84 71 85 72 86 73 87 50 88
REMARK SMILES IDX 51 89 59 90 52 91 54 92 60 93 53 94 55 95 56 96 57 97 58 98
REMARK H PARENT 14 7 6 17 21 32 80 51 48 62
REMARK Flexibility Score: inf
ROOT
ATOM      1  C   UNL A   1      33.075  30.106  26.941  1.00  0.00     0.002 C 
ENDROOT
BRANCH   1   2
ATOM      2  C   UNL A   1      33.590  29.138  25.868  1.00  0.00     0.021 C 
BRANCH   2   3
ATOM      3  C   UNL A   1      32.719  29.148  24.614  1.00  0.00     0.116 C 
BRANCH   3   4
ATOM      4  N   UNL A   1      33.540  29.095  23.431  1.00  0.00    -0.349 N 
ATOM      5  C   UNL A   1      33.684  28.112  22.483  1.00  0.00     0.286 C 
ATOM      6  O   UNL A   1      34.516  28.347  21.604  1.00  0.00    -0.266 OA
ATOM      7  H   UNL A   1      34.090  29.896  23.277  1.00  0.00     0.163 HD
BRANCH   5   8
ATOM      8  C   UNL A   1      32.888  26.896  22.514  1.00  0.00     0.191 A 
ATOM      9  C   UNL A   1      32.715  24.695  22.346  1.00  0.00     0.124 A 
ATOM     10  C   UNL A   1      31.435  25.163  22.507  1.00  0.00     0.048 A 
ATOM     11  O   UNL A   1      33.594  25.728  22.362  1.00  0.00    -0.454 OA
ATOM     12  C   UNL A   1      31.549  26.565  22.652  1.00  0.00     0.056 A 
BRANCH   9  13
ATOM     13  C   UNL A   1      33.308  23.363  22.132  1.00  0.00     0.191 C 
BRANCH  13  14
ATOM     14  N   UNL A   1      32.900  22.474  23.204  1.00  0.00    -0.348 N 
ATOM     15  C   UNL A   1      33.296  22.439  24.510  1.00  0.00     0.227 C 
ATOM     16  O   UNL A   1      32.807  21.562  25.230  1.00  0.00    -0.274 OA
ATOM     17  H   UNL A   1      32.237  21.792  22.951  1.00  0.00     0.163 HD
BRANCH  15  18
ATOM     18  C   UNL A   1      34.319  23.442  25.074  1.00  0.00     0.108 C 
BRANCH  18  19
ATOM     19  C   UNL A   1      33.693  24.135  26.316  1.00  0.00     0.015 C 
ATOM     20  C   UNL A   1      32.882  25.374  25.956  1.00  0.00     0.005 C 
ENDBRANCH  18  19
BRANCH  18  21
ATOM     21  C   UNL A   1      35.716  22.845  25.302  1.00  0.00    -0.036 A 
ATOM     22  C   UNL A   1      36.716  23.535  26.013  1.00  0.00     0.004 A 
ATOM     23  C   UNL A   1      36.047  21.582  24.786  1.00  0.00     0.004 A 
ATOM     24  C   UNL A   1      38.035  23.079  26.029  1.00  0.00     0.000 A 
ATOM     25  C   UNL A   1      37.360  21.110  24.826  1.00  0.00     0.000 A 
ATOM     26  C   UNL A   1      38.362  21.877  25.413  1.00  0.00     0.000 A 
ENDBRANCH  18  21
ENDBRANCH  15  18
ENDBRANCH  13  14
ENDBRANCH   9  13
ENDBRANCH   5   8
ENDBRANCH   3   4
ENDBRANCH   2   3
ENDBRANCH   1   2
BRANCH   1  27
ATOM     27  C   UNL A   1      31.665  30.651  26.675  1.00  0.00     0.002 C 
BRANCH  27  28
ATOM     28  C   UNL A   1      31.529  32.166  26.850  1.00  0.00     0.021 C 
BRANCH  28  29
ATOM     29  C   UNL A   1      32.857  32.871  27.092  1.00  0.00     0.116 C 
BRANCH  29  30
ATOM     30  N   UNL A   1      32.649  34.196  27.657  1.00  0.00    -0.352 N 
ATOM     31  C   UNL A   1      33.161  34.731  28.809  1.00  0.00     0.251 C 
ATOM     32  H   UNL A   1      32.057  34.790  27.139  1.00  0.00     0.163 HD
ATOM     33  O   UNL A   1      32.665  35.740  29.295  1.00  0.00    -0.269 OA
BRANCH  31  34
ATOM     34  C   UNL A   1      34.320  34.079  29.453  1.00  0.00     0.039 A 
ATOM     35  C   UNL A   1      35.610  34.450  29.070  1.00  0.00     0.014 A 
ATOM     36  C   UNL A   1      34.124  33.092  30.423  1.00  0.00     0.014 A 
ATOM     37  C   UNL A   1      36.707  33.852  29.688  1.00  0.00     0.010 A 
ATOM     38  C   UNL A   1      35.216  32.559  31.095  1.00  0.00     0.010 A 
ATOM     39  C   UNL A   1      36.517  32.916  30.720  1.00  0.00    -0.014 A 
BRANCH  39  40
ATOM     40  C   UNL A   1      37.671  32.291  31.412  1.00  0.00     0.031 A 
ATOM     41  C   UNL A   1      38.405  31.148  30.767  1.00  0.00     0.074 A 
ATOM     42  C   UNL A   1      38.003  32.699  32.651  1.00  0.00     0.049 A 
ATOM     43  N   UNL A   1      39.403  30.442  31.233  1.00  0.00    -0.248 NA
ATOM     44  C   UNL A   1      37.939  30.719  29.437  1.00  0.00     0.031 C 
ATOM     45  C   UNL A   1      37.314  33.744  33.410  1.00  0.00     0.029 A 
ATOM     46  N   UNL A   1      38.988  32.265  33.500  1.00  0.00    -0.354 N 
ATOM     47  C   UNL A   1      39.658  29.467  30.276  1.00  0.00     0.074 A 
ATOM     48  C   UNL A   1      38.685  29.645  29.222  1.00  0.00     0.031 C 
ATOM     49  C   UNL A   1      37.901  33.875  34.610  1.00  0.00     0.029 A 
ATOM     50  C   UNL A   1      38.984  32.903  34.719  1.00  0.00     0.049 A 
ATOM     51  H   UNL A   1      39.637  31.564  33.262  1.00  0.00     0.167 HD
ATOM     52  C   UNL A   1      40.631  28.526  30.262  1.00  0.00     0.034 A 
ATOM     53  C   UNL A   1      39.759  32.718  35.805  1.00  0.00     0.034 A 
ATOM     54  C   UNL A   1      41.616  28.377  31.298  1.00  0.00     0.049 A 
ATOM     55  C   UNL A   1      40.856  31.692  35.752  1.00  0.00     0.074 A 
ATOM     56  C   UNL A   1      42.698  27.516  31.341  1.00  0.00     0.029 A 
ATOM     57  N   UNL A   1      41.630  29.095  32.485  1.00  0.00    -0.354 N 
ATOM     58  N   UNL A   1      41.182  30.883  34.773  1.00  0.00    -0.248 NA
ATOM     59  C   UNL A   1      41.717  31.577  36.938  1.00  0.00     0.031 C 
ATOM     60  C   UNL A   1      43.345  27.689  32.568  1.00  0.00     0.029 A 
ATOM     61  C   UNL A   1      42.693  28.689  33.272  1.00  0.00     0.049 A 
ATOM     62  H   UNL A   1      40.981  29.793  32.730  1.00  0.00     0.167 HD
ATOM     63  C   UNL A   1      42.307  30.191  35.207  1.00  0.00     0.074 A 
ATOM     64  C   UNL A   1      42.616  30.690  36.532  1.00  0.00     0.031 C 
ATOM     65  C   UNL A   1      43.015  29.226  34.570  1.00  0.00     0.034 A 
BRANCH  52  66
ATOM     66  C   UNL A   1      40.698  27.609  29.067  1.00  0.00     0.023 A 
ATOM     67  C   UNL A   1      39.823  26.507  28.979  1.00  0.00     0.012 A 
ATOM     68  C   UNL A   1      41.601  27.858  28.015  1.00  0.00     0.148 A 
ATOM     69  C   UNL A   1      39.877  25.640  27.887  1.00  0.00     0.002 A 
ATOM     70  C   UNL A   1      41.614  27.020  26.905  1.00  0.00     0.091 A 
ATOM     71  F   UNL A   1      42.440  28.898  28.123  1.00  0.00    -0.205 F 
ATOM     72  C   UNL A   1      40.765  25.902  26.847  1.00  0.00     0.022 A 
BRANCH  70  73
ATOM     73  S   UNL A   1      42.660  27.321  25.477  1.00  0.00     0.127 S 
ATOM     74  O   UNL A   1      42.070  28.542  24.932  1.00  0.00    -0.237 OA
ATOM     75  O   UNL A   1      43.975  27.502  26.094  1.00  0.00    -0.237 OA
ATOM     76  O   UNL A   1      42.542  26.139  24.637  1.00  0.00    -0.744 OA
ENDBRANCH  70  73
ENDBRANCH  52  66
BRANCH  53  77
ATOM     77  C   UNL A   1      39.557  33.570  37.010  1.00  0.00     0.023 A 
ATOM     78  C   UNL A   1      40.056  34.887  37.021  1.00  0.00     0.012 A 
ATOM     79  C   UNL A   1      38.838  33.098  38.125  1.00  0.00     0.148 A 
ATOM     80  C   UNL A   1      39.870  35.708  38.133  1.00  0.00     0.002 A 
ATOM     81  C   UNL A   1      38.607  33.939  39.206  1.00  0.00     0.091 A 
ATOM     82  F   UNL A   1      38.376  31.840  38.094  1.00  0.00    -0.205 F 
ATOM     83  C   UNL A   1      39.138  35.239  39.220  1.00  0.00     0.022 A 
BRANCH  81  84
ATOM     84  S   UNL A   1      37.562  33.469  40.589  1.00  0.00     0.127 S 
ATOM     85  O   UNL A   1      38.349  32.408  41.211  1.00  0.00    -0.237 OA
ATOM     86  O   UNL A   1      37.496  34.716  41.351  1.00  0.00    -0.237 OA
ATOM     87  O   UNL A   1      36.295  33.054  40.003  1.00  0.00    -0.744 OA
ENDBRANCH  81  84
ENDBRANCH  53  77
BRANCH  65  88
ATOM     88  C   UNL A   1      44.227  28.669  35.273  1.00  0.00     0.023 A 
ATOM     89  C   UNL A   1      45.498  29.233  35.047  1.00  0.00     0.012 A 
ATOM     90  C   UNL A   1      44.088  27.629  36.214  1.00  0.00     0.148 A 
ATOM     91  C   UNL A   1      46.618  28.747  35.722  1.00  0.00     0.002 A 
ATOM     92  C   UNL A   1      45.198  27.188  36.922  1.00  0.00     0.091 A 
ATOM     93  F   UNL A   1      42.872  27.094  36.402  1.00  0.00    -0.205 F 
ATOM     94  C   UNL A   1      46.466  27.735  36.668  1.00  0.00     0.022 A 
BRANCH  92  95
ATOM     95  S   UNL A   1      45.082  25.962  38.230  1.00  0.00     0.127 S 
ATOM     96  O   UNL A   1      46.491  25.690  38.509  1.00  0.00    -0.237 OA
ATOM     97  O   UNL A   1      44.382  26.699  39.283  1.00  0.00    -0.237 OA
ATOM     98  O   UNL A   1      44.330  24.847  37.671  1.00  0.00    -0.744 OA
ENDBRANCH  92  95
ENDBRANCH  65  88
ENDBRANCH  39  40
ENDBRANCH  31  34
ENDBRANCH  29  30
ENDBRANCH  28  29
ENDBRANCH  27  28
ENDBRANCH   1  27
TORSDOF 21
ENDMDL
MODEL 2
REMARK VINA RESULT:     -10.5      1.419      2.074
REMARK SMILES CC[C@H](C(=O)NCc1ccc(C(=O)NCCCCCCNC(=O)c2ccc(-c3c4nc(c(-c5cccc(S(=O)(=O)[O-])c5F)c5ccc([nH]5)c(-c5cccc(S(=O)(=O)[O-])c5F)c5nc(c(-c6cccc(S(=O)(=O)[O-])c6F)c6ccc3[nH]6)C=C5)C=C4)cc2)o1)c1ccccc1
REMARK SMILES IDX 17 1 16 2 15 3 14 4 12 5 13 6 11 8 8 9 9 10 87 11 10 12 7 13
REMARK SMILES IDX 6 14 4 15 5 16 3 18 2 19 1 20 88 21 89 22 93 23 90 24 92 25
REMARK SMILES IDX 91 26 18 27 19 28 20 29 21 30 22 31 23 33 24 34 25 35 86 36
REMARK SMILES IDX 26 37 85 38 27 39 28 40 29 41 79 42 30 43 84 44 78 45 80 46
REMARK SMILES IDX 31 47 83 48 77 49 76 50 32 52 64 53 44 54 63 55 45 56 48 57
REMARK SMILES IDX 62 58 81 59 46 60 47 61 61 63 82 64 49 65 33 66 34 67 42 68
REMARK SMILES IDX 35 69 37 70 43 71 36 72 38 73 39 74 40 75 41 76 65 77 66 78
REMARK SMILES IDX 74 79 67 80 69 81 75 82 68 83 70 84 71 85 72 86 73 87 50 88
REMARK SMILES IDX 51 89 59 90 52 91 54 92 60 93 53 94 55 95 56 96 57 97 58 98
REMARK H PARENT 14 7 6 17 21 32 80 51 48 62
REMARK Flexibility Score: inf
ROOT
ATOM      1  C   UNL A   1      33.517  30.505  27.257  1.00  0.00     0.002 C 
ENDROOT
BRANCH   1   2
ATOM      2  C   UNL A   1      33.956  29.353  26.346  1.00  0.00     0.021 C 
BRANCH   2   3
ATOM      3  C   UNL A   1      32.805  28.812  25.500  1.00  0.00     0.116 C 
BRANCH   3   4
ATOM      4  N   UNL A   1      33.291  28.357  24.222  1.00  0.00    -0.349 N 
ATOM      5  C   UNL A   1      33.095  27.172  23.558  1.00  0.00     0.286 C 
ATOM      6  O   UNL A   1      33.696  27.062  22.487  1.00  0.00    -0.266 OA
ATOM      7  H   UNL A   1      33.860  29.004  23.745  1.00  0.00     0.163 HD
BRANCH   5   8
ATOM      8  C   UNL A   1      32.218  26.137  24.083  1.00  0.00     0.191 A 
ATOM      9  C   UNL A   1      31.772  24.008  24.493  1.00  0.00     0.124 A 
ATOM     10  C   UNL A   1      30.650  24.707  24.864  1.00  0.00     0.048 A 
ATOM     11  O   UNL A   1      32.722  24.861  24.034  1.00  0.00    -0.454 OA
ATOM     12  C   UNL A   1      30.949  26.070  24.637  1.00  0.00     0.056 A 
BRANCH   9  13
ATOM     13  C   UNL A   1      32.133  22.579  24.456  1.00  0.00     0.191 C 
BRANCH  13  14
ATOM     14  N   UNL A   1      32.661  22.180  25.747  1.00  0.00    -0.348 N 
ATOM     15  C   UNL A   1      33.642  21.281  26.052  1.00  0.00     0.227 C 
ATOM     16  O   UNL A   1      33.900  21.104  27.246  1.00  0.00    -0.274 OA
ATOM     17  H   UNL A   1      32.248  22.626  26.522  1.00  0.00     0.163 HD
BRANCH  15  18
ATOM     18  C   UNL A   1      34.397  20.505  24.958  1.00  0.00     0.108 C 
BRANCH  18  19
ATOM     19  C   UNL A   1      35.917  20.786  25.118  1.00  0.00     0.015 C 
ATOM     20  C   UNL A   1      36.414  21.889  24.190  1.00  0.00     0.005 C 
ENDBRANCH  18  19
BRANCH  18  21
ATOM     21  C   UNL A   1      34.020  19.017  24.877  1.00  0.00    -0.036 A 
ATOM     22  C   UNL A   1      34.892  18.054  24.336  1.00  0.00     0.004 A 
ATOM     23  C   UNL A   1      32.769  18.571  25.332  1.00  0.00     0.004 A 
ATOM     24  C   UNL A   1      34.458  16.754  24.074  1.00  0.00     0.000 A 
ATOM     25  C   UNL A   1      32.343  17.262  25.097  1.00  0.00     0.000 A 
ATOM     26  C   UNL A   1      33.173  16.365  24.432  1.00  0.00     0.000 A 
ENDBRANCH  18  21
ENDBRANCH  15  18
ENDBRANCH  13  14
ENDBRANCH   9  13
ENDBRANCH   5   8
ENDBRANCH   3   4
ENDBRANCH   2   3
ENDBRANCH   1   2
BRANCH   1  27
ATOM     27  C   UNL A   1      32.043  30.905  27.102  1.00  0.00     0.002 C 
BRANCH  27  28
ATOM     28  C   UNL A   1      31.813  32.405  26.897  1.00  0.00     0.021 C 
BRANCH  28  29
ATOM     29  C   UNL A   1      33.059  33.249  27.131  1.00  0.00     0.116 C 
BRANCH  29  30
ATOM     30  N   UNL A   1      32.732  34.478  27.838  1.00  0.00    -0.352 N 
ATOM     31  C   UNL A   1      33.146  34.897  29.075  1.00  0.00     0.251 C 
ATOM     32  H   UNL A   1      32.129  35.094  27.361  1.00  0.00     0.163 HD
ATOM     33  O   UNL A   1      32.557  35.806  29.647  1.00  0.00    -0.269 OA
BRANCH  31  34
ATOM     34  C   UNL A   1      34.311  34.243  29.704  1.00  0.00     0.039 A 
ATOM     35  C   UNL A   1      35.595  34.702  29.404  1.00  0.00     0.014 A 
ATOM     36  C   UNL A   1      34.129  33.167  30.577  1.00  0.00     0.014 A 
ATOM     37  C   UNL A   1      36.697  34.100  30.010  1.00  0.00     0.010 A 
ATOM     38  C   UNL A   1      35.221  32.626  31.243  1.00  0.00     0.010 A 
ATOM     39  C   UNL A   1      36.516  33.071  30.950  1.00  0.00    -0.014 A 
BRANCH  39  40
ATOM     40  C   UNL A   1      37.673  32.439  31.629  1.00  0.00     0.031 A 
ATOM     41  C   UNL A   1      38.419  31.318  30.959  1.00  0.00     0.074 A 
ATOM     42  C   UNL A   1      38.000  32.820  32.878  1.00  0.00     0.049 A 
ATOM     43  N   UNL A   1      39.421  30.609  31.411  1.00  0.00    -0.248 NA
ATOM     44  C   UNL A   1      37.959  30.917  29.618  1.00  0.00     0.031 C 
ATOM     45  C   UNL A   1      37.300  33.841  33.661  1.00  0.00     0.029 A 
ATOM     46  N   UNL A   1      38.986  32.374  33.720  1.00  0.00    -0.354 N 
ATOM     47  C   UNL A   1      39.687  29.660  30.431  1.00  0.00     0.074 A 
ATOM     48  C   UNL A   1      38.714  29.855  29.379  1.00  0.00     0.031 C 
ATOM     49  C   UNL A   1      37.883  33.948  34.865  1.00  0.00     0.029 A 
ATOM     50  C   UNL A   1      38.974  32.982  34.953  1.00  0.00     0.049 A 
ATOM     51  H   UNL A   1      39.641  31.684  33.466  1.00  0.00     0.167 HD
ATOM     52  C   UNL A   1      40.667  28.728  30.396  1.00  0.00     0.034 A 
ATOM     53  C   UNL A   1      39.748  32.777  36.037  1.00  0.00     0.034 A 
ATOM     54  C   UNL A   1      41.651  28.562  31.431  1.00  0.00     0.049 A 
ATOM     55  C   UNL A   1      40.853  31.762  35.961  1.00  0.00     0.074 A 
ATOM     56  C   UNL A   1      42.741  27.710  31.455  1.00  0.00     0.029 A 
ATOM     57  N   UNL A   1      41.657  29.252  32.634  1.00  0.00    -0.354 N 
ATOM     58  N   UNL A   1      41.188  30.979  34.964  1.00  0.00    -0.248 NA
ATOM     59  C   UNL A   1      41.713  31.626  37.146  1.00  0.00     0.031 C 
ATOM     60  C   UNL A   1      43.383  27.858  32.688  1.00  0.00     0.029 A 
ATOM     61  C   UNL A   1      42.721  28.835  33.415  1.00  0.00     0.049 A 
ATOM     62  H   UNL A   1      41.001  29.938  32.895  1.00  0.00     0.167 HD
ATOM     63  C   UNL A   1      42.318  30.287  35.384  1.00  0.00     0.074 A 
ATOM     64  C   UNL A   1      42.620  30.756  36.721  1.00  0.00     0.031 C 
ATOM     65  C   UNL A   1      43.036  29.344  34.726  1.00  0.00     0.034 A 
BRANCH  52  66
ATOM     66  C   UNL A   1      40.744  27.840  29.180  1.00  0.00     0.023 A 
ATOM     67  C   UNL A   1      39.886  26.728  29.067  1.00  0.00     0.012 A 
ATOM     68  C   UNL A   1      41.641  28.128  28.132  1.00  0.00     0.148 A 
ATOM     69  C   UNL A   1      39.950  25.888  27.956  1.00  0.00     0.002 A 
ATOM     70  C   UNL A   1      41.663  27.317  27.002  1.00  0.00     0.091 A 
ATOM     71  F   UNL A   1      42.464  29.178  28.262  1.00  0.00    -0.205 F 
ATOM     72  C   UNL A   1      40.830  26.188  26.920  1.00  0.00     0.022 A 
BRANCH  70  73
ATOM     73  S   UNL A   1      42.701  27.667  25.579  1.00  0.00     0.127 S 
ATOM     74  O   UNL A   1      42.480  26.480  24.755  1.00  0.00    -0.237 OA
ATOM     75  O   UNL A   1      42.099  28.893  25.056  1.00  0.00    -0.237 OA
ATOM     76  O   UNL A   1      44.051  27.826  26.098  1.00  0.00    -0.744 OA
ENDBRANCH  70  73
ENDBRANCH  52  66
BRANCH  53  77
ATOM     77  C   UNL A   1      39.536  33.599  37.261  1.00  0.00     0.023 A 
ATOM     78  C   UNL A   1      40.089  34.892  37.334  1.00  0.00     0.012 A 
ATOM     79  C   UNL A   1      38.758  33.122  38.334  1.00  0.00     0.148 A 
ATOM     80  C   UNL A   1      39.894  35.685  38.465  1.00  0.00     0.002 A 
ATOM     81  C   UNL A   1      38.521  33.937  39.432  1.00  0.00     0.091 A 
ATOM     82  F   UNL A   1      38.246  31.886  38.244  1.00  0.00    -0.205 F 
ATOM     83  C   UNL A   1      39.103  35.212  39.509  1.00  0.00     0.022 A 
BRANCH  81  84
ATOM     84  S   UNL A   1      37.407  33.469  40.761  1.00  0.00     0.127 S 
ATOM     85  O   UNL A   1      36.229  33.026  40.020  1.00  0.00    -0.237 OA
ATOM     86  O   UNL A   1      38.159  32.402  41.420  1.00  0.00    -0.237 OA
ATOM     87  O   UNL A   1      37.228  34.668  41.569  1.00  0.00    -0.744 OA
ENDBRANCH  81  84
ENDBRANCH  53  77
BRANCH  65  88
ATOM     88  C   UNL A   1      44.251  28.780  35.418  1.00  0.00     0.023 A 
ATOM     89  C   UNL A   1      45.520  29.351  35.198  1.00  0.00     0.012 A 
ATOM     90  C   UNL A   1      44.117  27.726  36.344  1.00  0.00     0.148 A 
ATOM     91  C   UNL A   1      46.642  28.858  35.863  1.00  0.00     0.002 A 
ATOM     92  C   UNL A   1      45.230  27.277  37.043  1.00  0.00     0.091 A 
ATOM     93  F   UNL A   1      42.903  27.184  36.526  1.00  0.00    -0.205 F 
ATOM     94  C   UNL A   1      46.495  27.832  36.794  1.00  0.00     0.022 A 
BRANCH  92  95
ATOM     95  S   UNL A   1      45.120  26.032  38.333  1.00  0.00     0.127 S 
ATOM     96  O   UNL A   1      44.176  26.651  39.263  1.00  0.00    -0.237 OA
ATOM     97  O   UNL A   1      44.592  24.878  37.606  1.00  0.00    -0.237 OA
ATOM     98  O   UNL A   1      46.474  25.859  38.842  1.00  0.00    -0.744 OA
ENDBRANCH  92  95
ENDBRANCH  65  88
ENDBRANCH  39  40
ENDBRANCH  31  34
ENDBRANCH  29  30
ENDBRANCH  28  29
ENDBRANCH  27  28
ENDBRANCH   1  27
TORSDOF 21
ENDMDL
MODEL 3
REMARK VINA RESULT:     -10.4      4.336     11.057
REMARK SMILES CC[C@H](C(=O)NCc1ccc(C(=O)NCCCCCCNC(=O)c2ccc(-c3c4nc(c(-c5cccc(S(=O)(=O)[O-])c5F)c5ccc([nH]5)c(-c5cccc(S(=O)(=O)[O-])c5F)c5nc(c(-c6cccc(S(=O)(=O)[O-])c6F)c6ccc3[nH]6)C=C5)C=C4)cc2)o1)c1ccccc1
REMARK SMILES IDX 17 1 16 2 15 3 14 4 12 5 13 6 11 8 8 9 9 10 87 11 10 12 7 13
REMARK SMILES IDX 6 14 4 15 5 16 3 18 2 19 1 20 88 21 89 22 93 23 90 24 92 25
REMARK SMILES IDX 91 26 18 27 19 28 20 29 21 30 22 31 23 33 24 34 25 35 86 36
REMARK SMILES IDX 26 37 85 38 27 39 28 40 29 41 79 42 30 43 84 44 78 45 80 46
REMARK SMILES IDX 31 47 83 48 77 49 76 50 32 52 64 53 44 54 63 55 45 56 48 57
REMARK SMILES IDX 62 58 81 59 46 60 47 61 61 63 82 64 49 65 33 66 34 67 42 68
REMARK SMILES IDX 35 69 37 70 43 71 36 72 38 73 39 74 40 75 41 76 65 77 66 78
REMARK SMILES IDX 74 79 67 80 69 81 75 82 68 83 70 84 71 85 72 86 73 87 50 88
REMARK SMILES IDX 51 89 59 90 52 91 54 92 60 93 53 94 55 95 56 96 57 97 58 98
REMARK H PARENT 14 7 6 17 21 32 80 51 48 62
REMARK Flexibility Score: inf
ROOT
ATOM      1  C   UNL A   1      35.334  33.104  31.764  1.00  0.00     0.002 C 
ENDROOT
BRANCH   1   2
ATOM      2  C   UNL A   1      36.218  32.142  32.567  1.00  0.00     0.021 C 
BRANCH   2   3
ATOM      3  C   UNL A   1      37.345  32.866  33.301  1.00  0.00     0.116 C 
BRANCH   3   4
ATOM      4  N   UNL A   1      37.381  32.468  34.685  1.00  0.00    -0.349 N 
ATOM      5  C   UNL A   1      37.966  31.385  35.292  1.00  0.00     0.286 C 
ATOM      6  O   UNL A   1      37.773  31.293  36.506  1.00  0.00    -0.266 OA
ATOM      7  H   UNL A   1      36.905  33.073  35.299  1.00  0.00     0.163 HD
BRANCH   5   8
ATOM      8  C   UNL A   1      38.774  30.434  34.545  1.00  0.00     0.191 A 
ATOM      9  C   UNL A   1      40.709  29.433  34.149  1.00  0.00     0.124 A 
ATOM     10  C   UNL A   1      39.845  28.979  33.184  1.00  0.00     0.048 A 
ATOM     11  O   UNL A   1      40.070  30.298  34.977  1.00  0.00    -0.454 OA
ATOM     12  C   UNL A   1      38.600  29.589  33.460  1.00  0.00     0.056 A 
BRANCH   9  13
ATOM     13  C   UNL A   1      42.138  29.217  34.441  1.00  0.00     0.191 C 
BRANCH  13  14
ATOM     14  N   UNL A   1      42.279  28.659  35.773  1.00  0.00    -0.348 N 
ATOM     15  C   UNL A   1      43.177  27.749  36.251  1.00  0.00     0.227 C 
ATOM     16  O   UNL A   1      43.077  27.418  37.436  1.00  0.00    -0.274 OA
ATOM     17  H   UNL A   1      41.627  28.987  36.434  1.00  0.00     0.163 HD
BRANCH  15  18
ATOM     18  C   UNL A   1      44.271  27.144  35.353  1.00  0.00     0.108 C 
BRANCH  18  19
ATOM     19  C   UNL A   1      45.620  27.191  36.124  1.00  0.00     0.015 C 
ATOM     20  C   UNL A   1      46.325  28.536  35.999  1.00  0.00     0.005 C 
ENDBRANCH  18  19
BRANCH  18  21
ATOM     21  C   UNL A   1      43.908  25.769  34.769  1.00  0.00    -0.036 A 
ATOM     22  C   UNL A   1      42.896  24.965  35.326  1.00  0.00     0.004 A 
ATOM     23  C   UNL A   1      44.597  25.260  33.657  1.00  0.00     0.004 A 
ATOM     24  C   UNL A   1      42.723  23.640  34.922  1.00  0.00     0.000 A 
ATOM     25  C   UNL A   1      44.406  23.944  33.233  1.00  0.00     0.000 A 
ATOM     26  C   UNL A   1      43.497  23.122  33.891  1.00  0.00     0.000 A 
ENDBRANCH  18  21
ENDBRANCH  15  18
ENDBRANCH  13  14
ENDBRANCH   9  13
ENDBRANCH   5   8
ENDBRANCH   3   4
ENDBRANCH   2   3
ENDBRANCH   1   2
BRANCH   1  27
ATOM     27  C   UNL A   1      35.621  33.115  30.256  1.00  0.00     0.002 C 
BRANCH  27  28
ATOM     28  C   UNL A   1      34.369  33.162  29.375  1.00  0.00     0.021 C 
BRANCH  28  29
ATOM     29  C   UNL A   1      34.609  32.668  27.954  1.00  0.00     0.116 C 
BRANCH  29  30
ATOM     30  N   UNL A   1      33.932  31.402  27.721  1.00  0.00    -0.352 N 
ATOM     31  C   UNL A   1      34.469  30.146  27.608  1.00  0.00     0.251 C 
ATOM     32  H   UNL A   1      32.952  31.454  27.631  1.00  0.00     0.163 HD
ATOM     33  O   UNL A   1      33.809  29.234  27.124  1.00  0.00    -0.269 OA
BRANCH  31  34
ATOM     34  C   UNL A   1      35.848  29.908  28.080  1.00  0.00     0.039 A 
ATOM     35  C   UNL A   1      36.060  29.551  29.413  1.00  0.00     0.014 A 
ATOM     36  C   UNL A   1      36.928  30.053  27.204  1.00  0.00     0.014 A 
ATOM     37  C   UNL A   1      37.358  29.306  29.859  1.00  0.00     0.010 A 
ATOM     38  C   UNL A   1      38.209  29.726  27.628  1.00  0.00     0.010 A 
ATOM     39  C   UNL A   1      38.440  29.372  28.964  1.00  0.00    -0.014 A 
BRANCH  39  40
ATOM     40  C   UNL A   1      39.825  29.085  29.411  1.00  0.00     0.031 A 
ATOM     41  C   UNL A   1      40.624  30.147  30.114  1.00  0.00     0.074 A 
ATOM     42  C   UNL A   1      40.387  27.899  29.112  1.00  0.00     0.049 A 
ATOM     43  N   UNL A   1      41.862  30.103  30.536  1.00  0.00    -0.248 NA
ATOM     44  C   UNL A   1      39.958  31.440  30.348  1.00  0.00     0.031 C 
ATOM     45  C   UNL A   1      39.737  26.820  28.364  1.00  0.00     0.029 A 
ATOM     46  N   UNL A   1      41.641  27.412  29.377  1.00  0.00    -0.354 N 
ATOM     47  C   UNL A   1      42.133  31.366  31.048  1.00  0.00     0.074 A 
ATOM     48  C   UNL A   1      40.946  32.168  30.847  1.00  0.00     0.031 C 
ATOM     49  C   UNL A   1      40.595  25.796  28.235  1.00  0.00     0.029 A 
ATOM     50  C   UNL A   1      41.864  26.157  28.861  1.00  0.00     0.049 A 
ATOM     51  H   UNL A   1      42.318  27.912  29.888  1.00  0.00     0.167 HD
ATOM     52  C   UNL A   1      43.258  31.812  31.655  1.00  0.00     0.034 A 
ATOM     53  C   UNL A   1      42.970  25.388  28.880  1.00  0.00     0.034 A 
ATOM     54  C   UNL A   1      44.422  30.999  31.881  1.00  0.00     0.049 A 
ATOM     55  C   UNL A   1      44.195  25.890  29.591  1.00  0.00     0.074 A 
ATOM     56  C   UNL A   1      45.580  31.324  32.565  1.00  0.00     0.029 A 
ATOM     57  N   UNL A   1      44.583  29.703  31.414  1.00  0.00    -0.354 N 
ATOM     58  N   UNL A   1      44.381  27.032  30.208  1.00  0.00    -0.248 NA
ATOM     59  C   UNL A   1      45.352  24.984  29.644  1.00  0.00     0.031 C 
ATOM     60  C   UNL A   1      46.455  30.237  32.480  1.00  0.00     0.029 A 
ATOM     61  C   UNL A   1      45.827  29.218  31.782  1.00  0.00     0.049 A 
ATOM     62  H   UNL A   1      43.913  29.201  30.899  1.00  0.00     0.167 HD
ATOM     63  C   UNL A   1      45.658  26.968  30.755  1.00  0.00     0.074 A 
ATOM     64  C   UNL A   1      46.193  25.667  30.409  1.00  0.00     0.031 C 
ATOM     65  C   UNL A   1      46.329  27.904  31.470  1.00  0.00     0.034 A 
BRANCH  52  66
ATOM     66  C   UNL A   1      43.266  33.236  32.151  1.00  0.00     0.023 A 
ATOM     67  C   UNL A   1      43.837  34.252  31.358  1.00  0.00     0.012 A 
ATOM     68  C   UNL A   1      42.677  33.574  33.385  1.00  0.00     0.148 A 
ATOM     69  C   UNL A   1      43.865  35.573  31.804  1.00  0.00     0.002 A 
ATOM     70  C   UNL A   1      42.662  34.901  33.800  1.00  0.00     0.091 A 
ATOM     71  F   UNL A   1      42.156  32.594  34.137  1.00  0.00    -0.205 F 
ATOM     72  C   UNL A   1      43.269  35.899  33.019  1.00  0.00     0.022 A 
BRANCH  70  73
ATOM     73  S   UNL A   1      41.846  35.434  35.308  1.00  0.00     0.127 S 
ATOM     74  O   UNL A   1      42.658  34.776  36.331  1.00  0.00    -0.237 OA
ATOM     75  O   UNL A   1      42.006  36.888  35.246  1.00  0.00    -0.237 OA
ATOM     76  O   UNL A   1      40.470  34.970  35.207  1.00  0.00    -0.744 OA
ENDBRANCH  70  73
ENDBRANCH  52  66
BRANCH  53  77
ATOM     77  C   UNL A   1      42.941  24.036  28.254  1.00  0.00     0.023 A 
ATOM     78  C   UNL A   1      42.185  23.010  28.854  1.00  0.00     0.012 A 
ATOM     79  C   UNL A   1      43.621  23.775  27.049  1.00  0.00     0.148 A 
ATOM     80  C   UNL A   1      42.132  21.739  28.280  1.00  0.00     0.002 A 
ATOM     81  C   UNL A   1      43.519  22.525  26.454  1.00  0.00     0.091 A 
ATOM     82  F   UNL A   1      44.338  24.766  26.499  1.00  0.00    -0.205 F 
ATOM     83  C   UNL A   1      42.790  21.499  27.077  1.00  0.00     0.022 A 
BRANCH  81  84
ATOM     84  S   UNL A   1      44.218  22.164  24.839  1.00  0.00     0.127 S 
ATOM     85  O   UNL A   1      45.625  22.497  25.042  1.00  0.00    -0.237 OA
ATOM     86  O   UNL A   1      43.934  20.735  24.703  1.00  0.00    -0.237 OA
ATOM     87  O   UNL A   1      43.498  23.013  23.899  1.00  0.00    -0.744 OA
ENDBRANCH  81  84
ENDBRANCH  53  77
BRANCH  65  88
ATOM     88  C   UNL A   1      47.704  27.547  31.973  1.00  0.00     0.023 A 
ATOM     89  C   UNL A   1      47.861  26.947  33.238  1.00  0.00     0.012 A 
ATOM     90  C   UNL A   1      48.834  27.743  31.154  1.00  0.00     0.148 A 
ATOM     91  C   UNL A   1      49.127  26.580  33.694  1.00  0.00     0.002 A 
ATOM     92  C   UNL A   1      50.084  27.325  31.593  1.00  0.00     0.091 A 
ATOM     93  F   UNL A   1      48.665  28.332  29.961  1.00  0.00    -0.205 F 
ATOM     94  C   UNL A   1      50.235  26.756  32.868  1.00  0.00     0.022 A 
BRANCH  92  95
ATOM     95  S   UNL A   1      51.549  27.418  30.558  1.00  0.00     0.127 S 
ATOM     96  O   UNL A   1      52.550  26.765  31.400  1.00  0.00    -0.237 OA
ATOM     97  O   UNL A   1      51.145  26.650  29.380  1.00  0.00    -0.237 OA
ATOM     98  O   UNL A   1      51.775  28.836  30.307  1.00  0.00    -0.744 OA
ENDBRANCH  92  95
ENDBRANCH  65  88
ENDBRANCH  39  40
ENDBRANCH  31  34
ENDBRANCH  29  30
ENDBRANCH  28  29
ENDBRANCH  27  28
ENDBRANCH   1  27
TORSDOF 21
ENDMDL
