MODEL 1
REMARK VINA RESULT:     -11.9      0.000      0.000
REMARK SMILES Cc1cccc(NC(=O)C[C@@H]2CCCCO2)c1C(=O)NCCCCCCNC(=O)c1ccc(-c2c3nc(c(-c4cccc(S(=O)(=O)[O-])c4F)c4ccc([nH]4)c(-c4cccc(S(=O)(=O)[O-])c4F)c4nc(c(-c5cccc(S(=O)(=O)[O-])c5F)c5ccc2[nH]5)C=C4)C=C3)cc1
REMARK SMILES IDX 23 1 22 2 21 3 20 4 18 5 19 6 17 8 1 9 2 10 3 11 4 12 6 13
REMARK SMILES IDX 5 14 7 15 8 16 9 18 10 19 11 20 12 21 16 22 13 23 15 24
REMARK SMILES IDX 14 25 24 26 25 27 26 28 27 29 28 30 29 32 30 33 31 34 92 35
REMARK SMILES IDX 32 36 91 37 33 38 34 39 35 40 85 41 36 42 90 43 84 44 86 45
REMARK SMILES IDX 37 46 89 47 83 48 82 49 38 51 70 52 50 53 69 54 51 55 54 56
REMARK SMILES IDX 68 57 87 58 52 59 53 60 67 62 88 63 55 64 39 65 40 66 48 67
REMARK SMILES IDX 41 68 43 69 49 70 42 71 44 72 45 73 46 74 47 75 71 76 72 77
REMARK SMILES IDX 80 78 73 79 75 80 81 81 74 82 76 83 77 84 78 85 79 86 56 87
REMARK SMILES IDX 57 88 65 89 58 90 60 91 66 92 59 93 61 94 62 95 63 96 64 97
REMARK H PARENT 20 7 7 17 27 31 86 50 54 61
REMARK Flexibility Score: inf
ROOT
ATOM      1  C   UNL A   1      35.407  21.987  25.035  1.00  0.00     0.002 C 
ENDROOT
BRANCH   1   2
ATOM      2  C   UNL A   1      35.412  22.978  23.867  1.00  0.00     0.021 C 
BRANCH   2   3
ATOM      3  C   UNL A   1      34.846  24.355  24.230  1.00  0.00     0.116 C 
BRANCH   3   4
ATOM      4  N   UNL A   1      33.863  24.734  23.237  1.00  0.00    -0.352 N 
ATOM      5  C   UNL A   1      32.521  24.491  23.127  1.00  0.00     0.253 C 
ATOM      6  O   UNL A   1      31.962  24.898  22.109  1.00  0.00    -0.269 OA
ATOM      7  H   UNL A   1      34.231  25.272  22.499  1.00  0.00     0.163 HD
BRANCH   5   8
ATOM      8  C   UNL A   1      31.714  23.930  24.254  1.00  0.00     0.066 A 
ATOM      9  C   UNL A   1      32.099  21.450  23.702  1.00  0.00     0.045 C 
ATOM     10  C   UNL A   1      31.694  22.568  24.625  1.00  0.00    -0.036 A 
ATOM     11  C   UNL A   1      31.114  22.197  25.853  1.00  0.00     0.004 A 
ATOM     12  C   UNL A   1      30.486  23.143  26.656  1.00  0.00     0.002 A 
ATOM     13  C   UNL A   1      30.842  24.815  24.938  1.00  0.00     0.054 A 
ATOM     14  C   UNL A   1      30.325  24.444  26.185  1.00  0.00     0.027 A 
BRANCH  13  15
ATOM     15  N   UNL A   1      30.409  25.996  24.284  1.00  0.00    -0.325 N 
ATOM     16  C   UNL A   1      30.717  27.312  24.527  1.00  0.00     0.227 C 
ATOM     17  H   UNL A   1      29.786  25.848  23.535  1.00  0.00     0.169 HD
ATOM     18  O   UNL A   1      30.134  28.186  23.874  1.00  0.00    -0.275 OA
BRANCH  16  19
ATOM     19  C   UNL A   1      31.731  27.722  25.574  1.00  0.00     0.132 C 
BRANCH  19  20
ATOM     20  C   UNL A   1      32.741  28.803  25.144  1.00  0.00     0.127 C 
ATOM     21  C   UNL A   1      34.079  28.621  25.879  1.00  0.00     0.033 C 
ATOM     22  O   UNL A   1      32.322  30.158  25.296  1.00  0.00    -0.378 OA
ATOM     23  C   UNL A   1      33.962  28.987  27.358  1.00  0.00     0.005 C 
ATOM     24  C   UNL A   1      32.186  30.631  26.628  1.00  0.00     0.160 C 
ATOM     25  C   UNL A   1      33.395  30.390  27.517  1.00  0.00     0.029 C 
ENDBRANCH  19  20
ENDBRANCH  16  19
ENDBRANCH  13  15
ENDBRANCH   5   8
ENDBRANCH   3   4
ENDBRANCH   2   3
ENDBRANCH   1   2
BRANCH   1  26
ATOM     26  C   UNL A   1      36.606  21.028  25.091  1.00  0.00     0.002 C 
BRANCH  26  27
ATOM     27  C   UNL A   1      37.983  21.696  25.073  1.00  0.00     0.021 C 
BRANCH  27  28
ATOM     28  C   UNL A   1      38.166  22.723  26.179  1.00  0.00     0.116 C 
BRANCH  28  29
ATOM     29  N   UNL A   1      39.457  22.617  26.827  1.00  0.00    -0.352 N 
ATOM     30  C   UNL A   1      40.353  23.607  27.206  1.00  0.00     0.251 C 
ATOM     31  H   UNL A   1      39.745  21.698  27.030  1.00  0.00     0.163 HD
ATOM     32  O   UNL A   1      41.490  23.292  27.463  1.00  0.00    -0.269 OA
BRANCH  30  33
ATOM     33  C   UNL A   1      39.854  24.992  27.432  1.00  0.00     0.039 A 
ATOM     34  C   UNL A   1      40.379  25.998  26.609  1.00  0.00     0.014 A 
ATOM     35  C   UNL A   1      39.091  25.333  28.543  1.00  0.00     0.014 A 
ATOM     36  C   UNL A   1      40.360  27.323  27.042  1.00  0.00     0.010 A 
ATOM     37  C   UNL A   1      39.137  26.627  29.014  1.00  0.00     0.010 A 
ATOM     38  C   UNL A   1      39.839  27.601  28.300  1.00  0.00    -0.014 A 
BRANCH  38  39
ATOM     39  C   UNL A   1      39.947  28.878  28.983  1.00  0.00     0.031 A 
ATOM     40  C   UNL A   1      38.942  29.922  28.724  1.00  0.00     0.074 A 
ATOM     41  C   UNL A   1      40.857  29.009  29.974  1.00  0.00     0.049 A 
ATOM     42  N   UNL A   1      39.023  31.130  29.155  1.00  0.00    -0.248 NA
ATOM     43  C   UNL A   1      37.749  29.667  27.927  1.00  0.00     0.031 C 
ATOM     44  C   UNL A   1      40.911  30.037  31.007  1.00  0.00     0.029 A 
ATOM     45  N   UNL A   1      42.074  28.335  30.113  1.00  0.00    -0.354 N 
ATOM     46  C   UNL A   1      37.816  31.748  28.912  1.00  0.00     0.074 A 
ATOM     47  C   UNL A   1      37.085  30.815  28.090  1.00  0.00     0.031 C 
ATOM     48  C   UNL A   1      42.176  30.131  31.450  1.00  0.00     0.029 A 
ATOM     49  C   UNL A   1      42.987  29.309  30.568  1.00  0.00     0.049 A 
ATOM     50  H   UNL A   1      42.257  27.385  29.932  1.00  0.00     0.167 HD
ATOM     51  C   UNL A   1      37.557  32.929  29.543  1.00  0.00     0.034 A 
ATOM     52  C   UNL A   1      44.030  29.758  29.805  1.00  0.00     0.034 A 
ATOM     53  C   UNL A   1      38.767  33.433  30.214  1.00  0.00     0.049 A 
ATOM     54  C   UNL A   1      43.980  31.260  29.522  1.00  0.00     0.074 A 
ATOM     55  C   UNL A   1      39.273  33.379  31.503  1.00  0.00     0.029 A 
ATOM     56  N   UNL A   1      39.815  33.853  29.415  1.00  0.00    -0.354 N 
ATOM     57  N   UNL A   1      43.044  32.068  29.948  1.00  0.00    -0.248 NA
ATOM     58  C   UNL A   1      44.937  31.944  28.650  1.00  0.00     0.031 C 
ATOM     59  C   UNL A   1      40.668  33.692  31.442  1.00  0.00     0.029 A 
ATOM     60  C   UNL A   1      40.996  33.970  30.126  1.00  0.00     0.049 A 
ATOM     61  H   UNL A   1      39.730  34.047  28.454  1.00  0.00     0.167 HD
ATOM     62  C   UNL A   1      43.159  33.276  29.309  1.00  0.00     0.074 A 
ATOM     63  C   UNL A   1      44.383  33.162  28.536  1.00  0.00     0.031 C 
ATOM     64  C   UNL A   1      42.219  34.267  29.388  1.00  0.00     0.034 A 
BRANCH  51  65
ATOM     65  C   UNL A   1      36.186  33.558  29.740  1.00  0.00     0.023 A 
ATOM     66  C   UNL A   1      35.502  33.981  28.577  1.00  0.00     0.012 A 
ATOM     67  C   UNL A   1      35.538  33.839  30.967  1.00  0.00     0.148 A 
ATOM     68  C   UNL A   1      34.302  34.701  28.625  1.00  0.00     0.002 A 
ATOM     69  C   UNL A   1      34.371  34.607  31.021  1.00  0.00     0.091 A 
ATOM     70  F   UNL A   1      35.996  33.315  32.101  1.00  0.00    -0.205 F 
ATOM     71  C   UNL A   1      33.750  35.042  29.849  1.00  0.00     0.022 A 
BRANCH  69  72
ATOM     72  S   UNL A   1      33.635  35.146  32.578  1.00  0.00     0.127 S 
ATOM     73  O   UNL A   1      33.280  33.869  33.203  1.00  0.00    -0.237 OA
ATOM     74  O   UNL A   1      34.739  35.850  33.223  1.00  0.00    -0.237 OA
ATOM     75  O   UNL A   1      32.486  35.973  32.227  1.00  0.00    -0.744 OA
ENDBRANCH  69  72
ENDBRANCH  51  65
BRANCH  52  76
ATOM     76  C   UNL A   1      44.542  28.726  28.845  1.00  0.00     0.023 A 
ATOM     77  C   UNL A   1      44.180  28.876  27.483  1.00  0.00     0.012 A 
ATOM     78  C   UNL A   1      45.631  27.895  29.161  1.00  0.00     0.148 A 
ATOM     79  C   UNL A   1      44.995  28.377  26.466  1.00  0.00     0.002 A 
ATOM     80  C   UNL A   1      46.418  27.370  28.139  1.00  0.00     0.091 A 
ATOM     81  F   UNL A   1      45.933  27.679  30.446  1.00  0.00    -0.205 F 
ATOM     82  C   UNL A   1      46.138  27.658  26.796  1.00  0.00     0.022 A 
BRANCH  80  83
ATOM     83  S   UNL A   1      47.875  26.390  28.520  1.00  0.00     0.127 S 
ATOM     84  O   UNL A   1      47.275  25.193  29.103  1.00  0.00    -0.237 OA
ATOM     85  O   UNL A   1      48.484  26.193  27.205  1.00  0.00    -0.237 OA
ATOM     86  O   UNL A   1      48.654  27.231  29.417  1.00  0.00    -0.744 OA
ENDBRANCH  80  83
ENDBRANCH  52  76
BRANCH  64  87
ATOM     87  C   UNL A   1      42.414  35.625  28.748  1.00  0.00     0.023 A 
ATOM     88  C   UNL A   1      41.974  35.849  27.427  1.00  0.00     0.012 A 
ATOM     89  C   UNL A   1      43.165  36.657  29.362  1.00  0.00     0.148 A 
ATOM     90  C   UNL A   1      42.220  37.056  26.765  1.00  0.00     0.002 A 
ATOM     91  C   UNL A   1      43.499  37.812  28.660  1.00  0.00     0.091 A 
ATOM     92  F   UNL A   1      43.513  36.552  30.650  1.00  0.00    -0.205 F 
ATOM     93  C   UNL A   1      43.003  38.028  27.373  1.00  0.00     0.022 A 
BRANCH  91  94
ATOM     94  S   UNL A   1      44.690  39.001  29.297  1.00  0.00     0.127 S 
ATOM     95  O   UNL A   1      45.964  38.371  28.943  1.00  0.00    -0.237 OA
ATOM     96  O   UNL A   1      44.366  40.196  28.525  1.00  0.00    -0.237 OA
ATOM     97  O   UNL A   1      44.442  39.076  30.731  1.00  0.00    -0.744 OA
ENDBRANCH  91  94
ENDBRANCH  64  87
ENDBRANCH  38  39
ENDBRANCH  30  33
ENDBRANCH  28  29
ENDBRANCH  27  28
ENDBRANCH  26  27
ENDBRANCH   1  26
TORSDOF 19
ENDMDL
MODEL 2
REMARK VINA RESULT:     -11.8      3.929     10.009
REMARK SMILES Cc1cccc(NC(=O)C[C@@H]2CCCCO2)c1C(=O)NCCCCCCNC(=O)c1ccc(-c2c3nc(c(-c4cccc(S(=O)(=O)[O-])c4F)c4ccc([nH]4)c(-c4cccc(S(=O)(=O)[O-])c4F)c4nc(c(-c5cccc(S(=O)(=O)[O-])c5F)c5ccc2[nH]5)C=C4)C=C3)cc1
REMARK SMILES IDX 23 1 22 2 21 3 20 4 18 5 19 6 17 8 1 9 2 10 3 11 4 12 6 13
REMARK SMILES IDX 5 14 7 15 8 16 9 18 10 19 11 20 12 21 16 22 13 23 15 24
REMARK SMILES IDX 14 25 24 26 25 27 26 28 27 29 28 30 29 32 30 33 31 34 92 35
REMARK SMILES IDX 32 36 91 37 33 38 34 39 35 40 85 41 36 42 90 43 84 44 86 45
REMARK SMILES IDX 37 46 89 47 83 48 82 49 38 51 70 52 50 53 69 54 51 55 54 56
REMARK SMILES IDX 68 57 87 58 52 59 53 60 67 62 88 63 55 64 39 65 40 66 48 67
REMARK SMILES IDX 41 68 43 69 49 70 42 71 44 72 45 73 46 74 47 75 71 76 72 77
REMARK SMILES IDX 80 78 73 79 75 80 81 81 74 82 76 83 77 84 78 85 79 86 56 87
REMARK SMILES IDX 57 88 65 89 58 90 60 91 66 92 59 93 61 94 62 95 63 96 64 97
REMARK H PARENT 20 7 7 17 27 31 86 50 54 61
REMARK Flexibility Score: inf
ROOT
ATOM      1  C   UNL A   1      33.603  28.783  23.784  1.00  0.00     0.002 C 
ENDROOT
BRANCH   1   2
ATOM      2  C   UNL A   1      33.725  27.258  23.850  1.00  0.00     0.021 C 
BRANCH   2   3
ATOM      3  C   UNL A   1      33.052  26.538  22.676  1.00  0.00     0.116 C 
BRANCH   3   4
ATOM      4  N   UNL A   1      31.617  26.671  22.806  1.00  0.00    -0.352 N 
ATOM      5  C   UNL A   1      30.677  25.927  23.468  1.00  0.00     0.253 C 
ATOM      6  O   UNL A   1      29.501  26.263  23.329  1.00  0.00    -0.269 OA
ATOM      7  H   UNL A   1      31.243  27.446  22.327  1.00  0.00     0.163 HD
BRANCH   5   8
ATOM      8  C   UNL A   1      31.045  24.876  24.465  1.00  0.00     0.066 A 
ATOM      9  C   UNL A   1      31.305  26.445  26.483  1.00  0.00     0.045 C 
ATOM     10  C   UNL A   1      31.129  25.087  25.859  1.00  0.00    -0.036 A 
ATOM     11  C   UNL A   1      31.222  23.977  26.719  1.00  0.00     0.004 A 
ATOM     12  C   UNL A   1      31.322  22.688  26.206  1.00  0.00     0.002 A 
ATOM     13  C   UNL A   1      31.423  23.603  23.964  1.00  0.00     0.054 A 
ATOM     14  C   UNL A   1      31.451  22.505  24.831  1.00  0.00     0.027 A 
BRANCH  13  15
ATOM     15  N   UNL A   1      31.890  23.500  22.630  1.00  0.00    -0.325 N 
ATOM     16  C   UNL A   1      33.106  23.090  22.142  1.00  0.00     0.227 C 
ATOM     17  H   UNL A   1      31.236  23.764  21.943  1.00  0.00     0.169 HD
ATOM     18  O   UNL A   1      33.314  23.175  20.926  1.00  0.00    -0.275 OA
BRANCH  16  19
ATOM     19  C   UNL A   1      34.198  22.556  23.045  1.00  0.00     0.132 C 
BRANCH  19  20
ATOM     20  C   UNL A   1      35.164  23.608  23.623  1.00  0.00     0.127 C 
ATOM     21  C   UNL A   1      36.626  23.184  23.406  1.00  0.00     0.033 C 
ATOM     22  O   UNL A   1      34.990  23.940  25.000  1.00  0.00    -0.378 OA
ATOM     23  C   UNL A   1      37.006  22.002  24.297  1.00  0.00     0.005 C 
ATOM     24  C   UNL A   1      35.322  22.929  25.940  1.00  0.00     0.160 C 
ATOM     25  C   UNL A   1      36.700  22.315  25.755  1.00  0.00     0.029 C 
ENDBRANCH  19  20
ENDBRANCH  16  19
ENDBRANCH  13  15
ENDBRANCH   5   8
ENDBRANCH   3   4
ENDBRANCH   2   3
ENDBRANCH   1   2
BRANCH   1  26
ATOM     26  C   UNL A   1      33.047  29.454  25.050  1.00  0.00     0.002 C 
BRANCH  26  27
ATOM     27  C   UNL A   1      33.848  29.210  26.330  1.00  0.00     0.021 C 
BRANCH  27  28
ATOM     28  C   UNL A   1      33.356  30.030  27.512  1.00  0.00     0.116 C 
BRANCH  28  29
ATOM     29  N   UNL A   1      34.108  31.256  27.689  1.00  0.00    -0.352 N 
ATOM     30  C   UNL A   1      35.354  31.467  28.259  1.00  0.00     0.251 C 
ATOM     31  H   UNL A   1      33.664  32.066  27.352  1.00  0.00     0.163 HD
ATOM     32  O   UNL A   1      35.668  32.592  28.568  1.00  0.00    -0.269 OA
BRANCH  30  33
ATOM     33  C   UNL A   1      36.324  30.338  28.330  1.00  0.00     0.039 A 
ATOM     34  C   UNL A   1      36.448  29.686  29.565  1.00  0.00     0.014 A 
ATOM     35  C   UNL A   1      37.235  30.077  27.314  1.00  0.00     0.014 A 
ATOM     36  C   UNL A   1      37.618  28.987  29.861  1.00  0.00     0.010 A 
ATOM     37  C   UNL A   1      38.424  29.456  27.626  1.00  0.00     0.010 A 
ATOM     38  C   UNL A   1      38.642  28.982  28.922  1.00  0.00    -0.014 A 
BRANCH  38  39
ATOM     39  C   UNL A   1      39.990  28.498  29.162  1.00  0.00     0.031 A 
ATOM     40  C   UNL A   1      40.327  27.107  28.819  1.00  0.00     0.074 A 
ATOM     41  C   UNL A   1      40.945  29.386  29.517  1.00  0.00     0.049 A 
ATOM     42  N   UNL A   1      41.437  26.534  29.124  1.00  0.00    -0.248 NA
ATOM     43  C   UNL A   1      39.403  26.241  28.100  1.00  0.00     0.031 C 
ATOM     44  C   UNL A   1      42.391  29.210  29.470  1.00  0.00     0.029 A 
ATOM     45  N   UNL A   1      40.780  30.585  30.219  1.00  0.00    -0.354 N 
ATOM     46  C   UNL A   1      41.489  25.329  28.458  1.00  0.00     0.074 A 
ATOM     47  C   UNL A   1      40.173  25.168  27.889  1.00  0.00     0.031 C 
ATOM     48  C   UNL A   1      42.955  30.056  30.348  1.00  0.00     0.029 A 
ATOM     49  C   UNL A   1      41.868  30.642  31.114  1.00  0.00     0.049 A 
ATOM     50  H   UNL A   1      40.059  31.247  30.112  1.00  0.00     0.167 HD
ATOM     51  C   UNL A   1      42.687  24.683  28.384  1.00  0.00     0.034 A 
ATOM     52  C   UNL A   1      41.715  30.546  32.471  1.00  0.00     0.034 A 
ATOM     53  C   UNL A   1      43.677  25.330  29.262  1.00  0.00     0.049 A 
ATOM     54  C   UNL A   1      42.454  29.358  33.088  1.00  0.00     0.074 A 
ATOM     55  C   UNL A   1      44.686  26.263  29.088  1.00  0.00     0.029 A 
ATOM     56  N   UNL A   1      43.479  25.238  30.628  1.00  0.00    -0.354 N 
ATOM     57  N   UNL A   1      43.169  28.495  32.416  1.00  0.00    -0.248 NA
ATOM     58  C   UNL A   1      42.356  29.002  34.505  1.00  0.00     0.031 C 
ATOM     59  C   UNL A   1      45.025  26.790  30.375  1.00  0.00     0.029 A 
ATOM     60  C   UNL A   1      44.248  26.151  31.326  1.00  0.00     0.049 A 
ATOM     61  H   UNL A   1      42.864  24.599  31.052  1.00  0.00     0.167 HD
ATOM     62  C   UNL A   1      43.472  27.428  33.222  1.00  0.00     0.074 A 
ATOM     63  C   UNL A   1      42.975  27.811  34.532  1.00  0.00     0.031 C 
ATOM     64  C   UNL A   1      44.041  26.271  32.765  1.00  0.00     0.034 A 
BRANCH  51  65
ATOM     65  C   UNL A   1      43.058  23.591  27.392  1.00  0.00     0.023 A 
ATOM     66  C   UNL A   1      43.885  23.965  26.307  1.00  0.00     0.012 A 
ATOM     67  C   UNL A   1      42.610  22.249  27.384  1.00  0.00     0.148 A 
ATOM     68  C   UNL A   1      44.183  23.098  25.249  1.00  0.00     0.002 A 
ATOM     69  C   UNL A   1      42.858  21.398  26.302  1.00  0.00     0.091 A 
ATOM     70  F   UNL A   1      41.994  21.743  28.451  1.00  0.00    -0.205 F 
ATOM     71  C   UNL A   1      43.645  21.821  25.231  1.00  0.00     0.022 A 
BRANCH  69  72
ATOM     72  S   UNL A   1      42.135  19.749  26.178  1.00  0.00     0.127 S 
ATOM     73  O   UNL A   1      40.708  20.054  26.050  1.00  0.00    -0.237 OA
ATOM     74  O   UNL A   1      42.754  19.223  24.965  1.00  0.00    -0.237 OA
ATOM     75  O   UNL A   1      42.484  19.052  27.411  1.00  0.00    -0.744 OA
ENDBRANCH  69  72
ENDBRANCH  51  65
BRANCH  52  76
ATOM     76  C   UNL A   1      40.395  31.073  32.951  1.00  0.00     0.023 A 
ATOM     77  C   UNL A   1      39.340  30.138  33.091  1.00  0.00     0.012 A 
ATOM     78  C   UNL A   1      40.287  32.309  33.611  1.00  0.00     0.148 A 
ATOM     79  C   UNL A   1      38.313  30.349  34.012  1.00  0.00     0.002 A 
ATOM     80  C   UNL A   1      39.237  32.527  34.501  1.00  0.00     0.091 A 
ATOM     81  F   UNL A   1      41.236  33.233  33.423  1.00  0.00    -0.205 F 
ATOM     82  C   UNL A   1      38.285  31.528  34.748  1.00  0.00     0.022 A 
BRANCH  80  83
ATOM     83  S   UNL A   1      39.135  34.060  35.434  1.00  0.00     0.127 S 
ATOM     84  O   UNL A   1      37.985  33.799  36.294  1.00  0.00    -0.237 OA
ATOM     85  O   UNL A   1      40.422  34.102  36.126  1.00  0.00    -0.237 OA
ATOM     86  O   UNL A   1      38.970  35.091  34.420  1.00  0.00    -0.744 OA
ENDBRANCH  80  83
ENDBRANCH  52  76
BRANCH  64  87
ATOM     87  C   UNL A   1      44.450  25.145  33.692  1.00  0.00     0.023 A 
ATOM     88  C   UNL A   1      43.466  24.423  34.397  1.00  0.00     0.012 A 
ATOM     89  C   UNL A   1      45.803  24.872  34.010  1.00  0.00     0.148 A 
ATOM     90  C   UNL A   1      43.804  23.441  35.334  1.00  0.00     0.002 A 
ATOM     91  C   UNL A   1      46.132  23.973  35.020  1.00  0.00     0.091 A 
ATOM     92  F   UNL A   1      46.783  25.440  33.297  1.00  0.00    -0.205 F 
ATOM     93  C   UNL A   1      45.137  23.233  35.663  1.00  0.00     0.022 A 
BRANCH  91  94
ATOM     94  S   UNL A   1      47.811  23.822  35.650  1.00  0.00     0.127 S 
ATOM     95  O   UNL A   1      47.576  23.417  37.038  1.00  0.00    -0.237 OA
ATOM     96  O   UNL A   1      48.362  22.775  34.795  1.00  0.00    -0.237 OA
ATOM     97  O   UNL A   1      48.403  25.145  35.509  1.00  0.00    -0.744 OA
ENDBRANCH  91  94
ENDBRANCH  64  87
ENDBRANCH  38  39
ENDBRANCH  30  33
ENDBRANCH  28  29
ENDBRANCH  27  28
ENDBRANCH  26  27
ENDBRANCH   1  26
TORSDOF 19
ENDMDL
MODEL 3
REMARK VINA RESULT:     -11.8      3.970     10.368
REMARK SMILES Cc1cccc(NC(=O)C[C@@H]2CCCCO2)c1C(=O)NCCCCCCNC(=O)c1ccc(-c2c3nc(c(-c4cccc(S(=O)(=O)[O-])c4F)c4ccc([nH]4)c(-c4cccc(S(=O)(=O)[O-])c4F)c4nc(c(-c5cccc(S(=O)(=O)[O-])c5F)c5ccc2[nH]5)C=C4)C=C3)cc1
REMARK SMILES IDX 23 1 22 2 21 3 20 4 18 5 19 6 17 8 1 9 2 10 3 11 4 12 6 13
REMARK SMILES IDX 5 14 7 15 8 16 9 18 10 19 11 20 12 21 16 22 13 23 15 24
REMARK SMILES IDX 14 25 24 26 25 27 26 28 27 29 28 30 29 32 30 33 31 34 92 35
REMARK SMILES IDX 32 36 91 37 33 38 34 39 35 40 85 41 36 42 90 43 84 44 86 45
REMARK SMILES IDX 37 46 89 47 83 48 82 49 38 51 70 52 50 53 69 54 51 55 54 56
REMARK SMILES IDX 68 57 87 58 52 59 53 60 67 62 88 63 55 64 39 65 40 66 48 67
REMARK SMILES IDX 41 68 43 69 49 70 42 71 44 72 45 73 46 74 47 75 71 76 72 77
REMARK SMILES IDX 80 78 73 79 75 80 81 81 74 82 76 83 77 84 78 85 79 86 56 87
REMARK SMILES IDX 57 88 65 89 58 90 60 91 66 92 59 93 61 94 62 95 63 96 64 97
REMARK H PARENT 20 7 7 17 27 31 86 50 54 61
REMARK Flexibility Score: inf
ROOT
ATOM      1  C   UNL A   1      32.215  28.875  25.640  1.00  0.00     0.002 C 
ENDROOT
BRANCH   1   2
ATOM      2  C   UNL A   1      31.790  27.815  26.660  1.00  0.00     0.021 C 
BRANCH   2   3
ATOM      3  C   UNL A   1      32.609  26.522  26.576  1.00  0.00     0.116 C 
BRANCH   3   4
ATOM      4  N   UNL A   1      31.704  25.394  26.539  1.00  0.00    -0.352 N 
ATOM      5  C   UNL A   1      31.049  24.768  25.513  1.00  0.00     0.253 C 
ATOM      6  O   UNL A   1      30.277  23.859  25.816  1.00  0.00    -0.269 OA
ATOM      7  H   UNL A   1      31.523  25.000  27.423  1.00  0.00     0.163 HD
BRANCH   5   8
ATOM      8  C   UNL A   1      31.379  25.027  24.077  1.00  0.00     0.066 A 
ATOM      9  C   UNL A   1      29.691  26.930  23.713  1.00  0.00     0.045 C 
ATOM     10  C   UNL A   1      30.909  26.131  23.333  1.00  0.00    -0.036 A 
ATOM     11  C   UNL A   1      31.489  26.417  22.084  1.00  0.00     0.004 A 
ATOM     12  C   UNL A   1      32.454  25.574  21.540  1.00  0.00     0.002 A 
ATOM     13  C   UNL A   1      32.144  24.046  23.396  1.00  0.00     0.054 A 
ATOM     14  C   UNL A   1      32.759  24.376  22.182  1.00  0.00     0.027 A 
BRANCH  13  15
ATOM     15  N   UNL A   1      32.161  22.718  23.891  1.00  0.00    -0.325 N 
ATOM     16  C   UNL A   1      33.063  22.085  24.711  1.00  0.00     0.227 C 
ATOM     17  H   UNL A   1      31.403  22.160  23.600  1.00  0.00     0.169 HD
ATOM     18  O   UNL A   1      32.912  20.878  24.934  1.00  0.00    -0.275 OA
BRANCH  16  19
ATOM     19  C   UNL A   1      34.236  22.813  25.332  1.00  0.00     0.132 C 
BRANCH  19  20
ATOM     20  C   UNL A   1      35.410  23.125  24.384  1.00  0.00     0.127 C 
ATOM     21  C   UNL A   1      36.207  21.849  24.067  1.00  0.00     0.033 C 
ATOM     22  O   UNL A   1      36.322  24.134  24.815  1.00  0.00    -0.378 OA
ATOM     23  C   UNL A   1      37.006  21.371  25.279  1.00  0.00     0.005 C 
ATOM     24  C   UNL A   1      37.138  23.810  25.931  1.00  0.00     0.160 C 
ATOM     25  C   UNL A   1      37.887  22.492  25.813  1.00  0.00     0.029 C 
ENDBRANCH  19  20
ENDBRANCH  16  19
ENDBRANCH  13  15
ENDBRANCH   5   8
ENDBRANCH   3   4
ENDBRANCH   2   3
ENDBRANCH   1   2
BRANCH   1  26
ATOM     26  C   UNL A   1      31.932  30.330  26.046  1.00  0.00     0.002 C 
BRANCH  26  27
ATOM     27  C   UNL A   1      32.712  30.836  27.262  1.00  0.00     0.021 C 
BRANCH  27  28
ATOM     28  C   UNL A   1      34.214  30.636  27.138  1.00  0.00     0.116 C 
BRANCH  28  29
ATOM     29  N   UNL A   1      34.970  31.626  27.876  1.00  0.00    -0.352 N 
ATOM     30  C   UNL A   1      36.032  31.470  28.754  1.00  0.00     0.251 C 
ATOM     31  H   UNL A   1      34.685  32.557  27.732  1.00  0.00     0.163 HD
ATOM     32  O   UNL A   1      36.325  32.390  29.480  1.00  0.00    -0.269 OA
BRANCH  30  33
ATOM     33  C   UNL A   1      36.872  30.242  28.671  1.00  0.00     0.039 A 
ATOM     34  C   UNL A   1      37.004  29.483  29.842  1.00  0.00     0.014 A 
ATOM     35  C   UNL A   1      37.679  29.969  27.573  1.00  0.00     0.014 A 
ATOM     36  C   UNL A   1      38.106  28.642  29.998  1.00  0.00     0.010 A 
ATOM     37  C   UNL A   1      38.810  29.202  27.749  1.00  0.00     0.010 A 
ATOM     38  C   UNL A   1      39.058  28.605  28.987  1.00  0.00    -0.014 A 
BRANCH  38  39
ATOM     39  C   UNL A   1      40.357  27.963  29.090  1.00  0.00     0.031 A 
ATOM     40  C   UNL A   1      40.475  26.525  28.798  1.00  0.00     0.074 A 
ATOM     41  C   UNL A   1      41.451  28.736  29.268  1.00  0.00     0.049 A 
ATOM     42  N   UNL A   1      41.537  25.828  29.000  1.00  0.00    -0.248 NA
ATOM     43  C   UNL A   1      39.366  25.752  28.255  1.00  0.00     0.031 C 
ATOM     44  C   UNL A   1      42.847  28.372  29.054  1.00  0.00     0.029 A 
ATOM     45  N   UNL A   1      41.527  29.978  29.906  1.00  0.00    -0.354 N 
ATOM     46  C   UNL A   1      41.353  24.597  28.411  1.00  0.00     0.074 A 
ATOM     47  C   UNL A   1      39.965  24.580  28.020  1.00  0.00     0.031 C 
ATOM     48  C   UNL A   1      43.619  29.180  29.800  1.00  0.00     0.029 A 
ATOM     49  C   UNL A   1      42.721  29.937  30.655  1.00  0.00     0.049 A 
ATOM     50  H   UNL A   1      40.885  30.722  29.846  1.00  0.00     0.167 HD
ATOM     51  C   UNL A   1      42.444  23.799  28.232  1.00  0.00     0.034 A 
ATOM     52  C   UNL A   1      42.735  29.927  32.024  1.00  0.00     0.034 A 
ATOM     53  C   UNL A   1      43.612  24.353  28.937  1.00  0.00     0.049 A 
ATOM     54  C   UNL A   1      43.398  28.685  32.619  1.00  0.00     0.074 A 
ATOM     55  C   UNL A   1      44.696  25.139  28.581  1.00  0.00     0.029 A 
ATOM     56  N   UNL A   1      43.584  24.353  30.321  1.00  0.00    -0.354 N 
ATOM     57  N   UNL A   1      43.908  27.705  31.921  1.00  0.00    -0.248 NA
ATOM     58  C   UNL A   1      43.443  28.412  34.057  1.00  0.00     0.031 C 
ATOM     59  C   UNL A   1      45.261  25.679  29.780  1.00  0.00     0.029 A 
ATOM     60  C   UNL A   1      44.543  25.192  30.859  1.00  0.00     0.049 A 
ATOM     61  H   UNL A   1      42.955  23.820  30.858  1.00  0.00     0.167 HD
ATOM     62  C   UNL A   1      44.181  26.647  32.750  1.00  0.00     0.074 A 
ATOM     63  C   UNL A   1      43.910  27.154  34.085  1.00  0.00     0.031 C 
ATOM     64  C   UNL A   1      44.541  25.406  32.302  1.00  0.00     0.034 A 
BRANCH  51  65
ATOM     65  C   UNL A   1      42.546  22.622  27.273  1.00  0.00     0.023 A 
ATOM     66  C   UNL A   1      41.589  21.591  27.420  1.00  0.00     0.012 A 
ATOM     67  C   UNL A   1      43.538  22.399  26.288  1.00  0.00     0.148 A 
ATOM     68  C   UNL A   1      41.654  20.390  26.702  1.00  0.00     0.002 A 
ATOM     69  C   UNL A   1      43.640  21.179  25.611  1.00  0.00     0.091 A 
ATOM     70  F   UNL A   1      44.363  23.382  25.934  1.00  0.00    -0.205 F 
ATOM     71  C   UNL A   1      42.698  20.171  25.818  1.00  0.00     0.022 A 
BRANCH  69  72
ATOM     72  S   UNL A   1      45.008  20.798  24.498  1.00  0.00     0.127 S 
ATOM     73  O   UNL A   1      44.734  19.403  24.148  1.00  0.00    -0.237 OA
ATOM     74  O   UNL A   1      44.804  21.749  23.409  1.00  0.00    -0.237 OA
ATOM     75  O   UNL A   1      46.231  20.986  25.270  1.00  0.00    -0.744 OA
ENDBRANCH  69  72
ENDBRANCH  51  65
BRANCH  52  76
ATOM     76  C   UNL A   1      41.564  30.643  32.628  1.00  0.00     0.023 A 
ATOM     77  C   UNL A   1      40.415  29.866  32.921  1.00  0.00     0.012 A 
ATOM     78  C   UNL A   1      41.701  31.897  33.248  1.00  0.00     0.148 A 
ATOM     79  C   UNL A   1      39.540  30.238  33.943  1.00  0.00     0.002 A 
ATOM     80  C   UNL A   1      40.801  32.278  34.241  1.00  0.00     0.091 A 
ATOM     81  F   UNL A   1      42.738  32.675  32.919  1.00  0.00    -0.205 F 
ATOM     82  C   UNL A   1      39.757  31.426  34.630  1.00  0.00     0.022 A 
BRANCH  80  83
ATOM     83  S   UNL A   1      41.015  33.831  35.119  1.00  0.00     0.127 S 
ATOM     84  O   UNL A   1      40.881  34.798  34.034  1.00  0.00    -0.237 OA
ATOM     85  O   UNL A   1      39.905  33.817  36.071  1.00  0.00    -0.237 OA
ATOM     86  O   UNL A   1      42.328  33.721  35.736  1.00  0.00    -0.744 OA
ENDBRANCH  80  83
ENDBRANCH  52  76
BRANCH  64  87
ATOM     87  C   UNL A   1      44.926  24.283  33.241  1.00  0.00     0.023 A 
ATOM     88  C   UNL A   1      43.934  23.417  33.746  1.00  0.00     0.012 A 
ATOM     89  C   UNL A   1      46.233  24.144  33.769  1.00  0.00     0.148 A 
ATOM     90  C   UNL A   1      44.232  22.428  34.689  1.00  0.00     0.002 A 
ATOM     91  C   UNL A   1      46.500  23.232  34.786  1.00  0.00     0.091 A 
ATOM     92  F   UNL A   1      47.240  24.857  33.252  1.00  0.00    -0.205 F 
ATOM     93  C   UNL A   1      45.510  22.352  35.227  1.00  0.00     0.022 A 
BRANCH  91  94
ATOM     94  S   UNL A   1      48.061  23.234  35.681  1.00  0.00     0.127 S 
ATOM     95  O   UNL A   1      48.128  24.615  36.167  1.00  0.00    -0.237 OA
ATOM     96  O   UNL A   1      47.817  22.235  36.717  1.00  0.00    -0.237 OA
ATOM     97  O   UNL A   1      49.080  22.902  34.695  1.00  0.00    -0.744 OA
ENDBRANCH  91  94
ENDBRANCH  64  87
ENDBRANCH  38  39
ENDBRANCH  30  33
ENDBRANCH  28  29
ENDBRANCH  27  28
ENDBRANCH  26  27
ENDBRANCH   1  26
TORSDOF 19
ENDMDL
