MODEL 1
REMARK VINA RESULT:     -10.6      0.000      0.000
REMARK SMILES Cc1cc(C[N@@H+]2C[C@H](C)[C@H](C(=O)NCCCCCCNC(=O)c3ccc(-c4c5nc(c(-c6cccc(S(=O)(=O)[O-])c6F)c6ccc([nH]6)c(-c6cccc(S(=O)(=O)[O-])c6F)c6nc(c(-c7cccc(S(=O)(=O)[O-])c7F)c7ccc4[nH]7)C=C6)C=C5)cc3)C2)ccc1Br
REMARK SMILES IDX 17 1 16 2 15 3 14 4 13 5 11 6 12 7 10 9 6 10 7 11 86 12 8 14
REMARK SMILES IDX 9 15 5 16 4 17 1 18 2 19 3 20 89 21 88 22 90 23 87 24 18 25
REMARK SMILES IDX 19 26 20 27 21 28 22 30 23 31 24 32 85 33 25 34 84 35 26 36
REMARK SMILES IDX 27 37 28 38 78 39 29 40 83 41 77 42 79 43 30 44 82 45 76 46
REMARK SMILES IDX 75 47 31 49 63 50 43 51 62 52 44 53 47 54 61 55 80 56 45 57
REMARK SMILES IDX 46 58 60 60 81 61 48 62 32 63 33 64 41 65 34 66 36 67 42 68
REMARK SMILES IDX 35 69 37 70 38 71 39 72 40 73 64 74 65 75 73 76 66 77 68 78
REMARK SMILES IDX 74 79 67 80 69 81 70 82 71 83 72 84 49 85 50 86 58 87 51 88
REMARK SMILES IDX 53 89 59 90 52 91 54 92 55 93 56 94 57 95
REMARK H PARENT 13 8 6 13 20 29 79 48 47 59
REMARK Flexibility Score: inf
ROOT
ATOM      1  C   UNL A   1      32.821  27.353  26.329  1.00  0.00     0.002 C 
ENDROOT
BRANCH   1   2
ATOM      2  C   UNL A   1      33.416  27.452  24.919  1.00  0.00     0.002 C 
BRANCH   2   3
ATOM      3  C   UNL A   1      33.964  26.147  24.333  1.00  0.00     0.021 C 
BRANCH   3   4
ATOM      4  C   UNL A   1      34.185  25.021  25.343  1.00  0.00     0.116 C 
BRANCH   4   5
ATOM      5  N   UNL A   1      35.595  24.761  25.564  1.00  0.00    -0.356 N 
ATOM      6  C   UNL A   1      36.321  23.615  25.577  1.00  0.00     0.229 C 
ATOM      7  O   UNL A   1      37.517  23.731  25.877  1.00  0.00    -0.275 OA
ATOM      8  H   UNL A   1      36.126  25.570  25.738  1.00  0.00     0.163 HD
BRANCH   6   9
ATOM      9  C   UNL A   1      35.764  22.228  25.281  1.00  0.00     0.142 C 
ATOM     10  N   UNL A   1      34.025  20.915  24.338  1.00  0.00    -0.330 N 
ATOM     11  C   UNL A   1      34.286  20.389  25.668  1.00  0.00     0.266 C 
ATOM     12  C   UNL A   1      34.863  22.075  24.061  1.00  0.00     0.276 C 
ATOM     13  H   UNL A   1      34.334  20.182  23.698  1.00  0.00     0.348 HD
ATOM     14  C   UNL A   1      35.102  21.445  26.418  1.00  0.00     0.059 C 
ATOM     15  C   UNL A   1      34.250  22.226  27.408  1.00  0.00     0.015 C 
BRANCH  10  16
ATOM     16  C   UNL A   1      32.649  20.940  23.855  1.00  0.00     0.299 C 
BRANCH  16  17
ATOM     17  C   UNL A   1      31.908  22.259  23.946  1.00  0.00     0.007 A 
ATOM     18  C   UNL A   1      30.217  24.325  26.660  1.00  0.00     0.045 C 
ATOM     19  C   UNL A   1      30.703  23.934  25.291  1.00  0.00    -0.036 A 
ATOM     20  C   UNL A   1      31.360  22.691  25.167  1.00  0.00     0.014 A 
ATOM     21  C   UNL A   1      30.590  24.742  24.152  1.00  0.00     0.020 A 
ATOM     22  C   UNL A   1      31.132  24.325  22.934  1.00  0.00     0.016 A 
ATOM     23  Br  UNL A   1      29.734  26.434  24.157  1.00  0.00    -0.051 Br
ATOM     24  C   UNL A   1      31.803  23.106  22.838  1.00  0.00     0.011 A 
ENDBRANCH  16  17
ENDBRANCH  10  16
ENDBRANCH   6   9
ENDBRANCH   4   5
ENDBRANCH   3   4
ENDBRANCH   2   3
ENDBRANCH   1   2
BRANCH   1  25
ATOM     25  C   UNL A   1      32.938  28.614  27.187  1.00  0.00     0.021 C 
BRANCH  25  26
ATOM     26  C   UNL A   1      33.910  29.674  26.677  1.00  0.00     0.116 C 
BRANCH  26  27
ATOM     27  N   UNL A   1      33.748  30.949  27.352  1.00  0.00    -0.352 N 
ATOM     28  C   UNL A   1      34.503  31.512  28.353  1.00  0.00     0.251 C 
ATOM     29  H   UNL A   1      32.983  31.490  27.049  1.00  0.00     0.163 HD
ATOM     30  O   UNL A   1      34.091  32.522  28.919  1.00  0.00    -0.269 OA
BRANCH  28  31
ATOM     31  C   UNL A   1      35.795  30.912  28.770  1.00  0.00     0.039 A 
ATOM     32  C   UNL A   1      36.977  31.428  28.230  1.00  0.00     0.014 A 
ATOM     33  C   UNL A   1      35.857  29.822  29.643  1.00  0.00     0.014 A 
ATOM     34  C   UNL A   1      38.212  30.882  28.594  1.00  0.00     0.010 A 
ATOM     35  C   UNL A   1      37.094  29.325  30.060  1.00  0.00     0.010 A 
ATOM     36  C   UNL A   1      38.287  29.836  29.530  1.00  0.00    -0.014 A 
BRANCH  36  37
ATOM     37  C   UNL A   1      39.604  29.277  29.946  1.00  0.00     0.031 A 
ATOM     38  C   UNL A   1      40.388  29.905  31.070  1.00  0.00     0.074 A 
ATOM     39  C   UNL A   1      40.126  28.225  29.282  1.00  0.00     0.049 A 
ATOM     40  N   UNL A   1      41.541  29.545  31.574  1.00  0.00    -0.248 NA
ATOM     41  C   UNL A   1      39.813  31.106  31.699  1.00  0.00     0.031 C 
ATOM     42  C   UNL A   1      39.515  27.569  28.125  1.00  0.00     0.029 A 
ATOM     43  N   UNL A   1      41.298  27.533  29.474  1.00  0.00    -0.354 N 
ATOM     44  C   UNL A   1      41.845  30.487  32.551  1.00  0.00     0.074 A 
ATOM     45  C   UNL A   1      40.769  31.456  32.547  1.00  0.00     0.031 C 
ATOM     46  C   UNL A   1      40.309  26.566  27.718  1.00  0.00     0.029 A 
ATOM     47  C   UNL A   1      41.499  26.521  28.564  1.00  0.00     0.049 A 
ATOM     48  H   UNL A   1      41.934  27.743  30.195  1.00  0.00     0.167 HD
ATOM     49  C   UNL A   1      42.903  30.530  33.397  1.00  0.00     0.034 A 
ATOM     50  C   UNL A   1      42.522  25.655  28.422  1.00  0.00     0.034 A 
ATOM     51  C   UNL A   1      43.952  29.546  33.431  1.00  0.00     0.049 A 
ATOM     52  C   UNL A   1      43.665  25.698  29.402  1.00  0.00     0.074 A 
ATOM     53  C   UNL A   1      45.017  29.456  34.313  1.00  0.00     0.029 A 
ATOM     54  N   UNL A   1      44.080  28.490  32.544  1.00  0.00    -0.354 N 
ATOM     55  N   UNL A   1      43.844  26.494  30.426  1.00  0.00    -0.248 NA
ATOM     56  C   UNL A   1      44.727  24.695  29.229  1.00  0.00     0.031 C 
ATOM     57  C   UNL A   1      45.803  28.361  33.939  1.00  0.00     0.029 A 
ATOM     58  C   UNL A   1      45.211  27.750  32.846  1.00  0.00     0.049 A 
ATOM     59  H   UNL A   1      43.458  28.295  31.806  1.00  0.00     0.167 HD
ATOM     60  C   UNL A   1      45.018  26.068  31.041  1.00  0.00     0.074 A 
ATOM     61  C   UNL A   1      45.493  24.926  30.287  1.00  0.00     0.031 C 
ATOM     62  C   UNL A   1      45.650  26.585  32.123  1.00  0.00     0.034 A 
BRANCH  49  63
ATOM     63  C   UNL A   1      42.954  31.655  34.398  1.00  0.00     0.023 A 
ATOM     64  C   UNL A   1      43.575  32.873  34.046  1.00  0.00     0.012 A 
ATOM     65  C   UNL A   1      42.334  31.537  35.658  1.00  0.00     0.148 A 
ATOM     66  C   UNL A   1      43.609  33.939  34.944  1.00  0.00     0.002 A 
ATOM     67  C   UNL A   1      42.331  32.621  36.530  1.00  0.00     0.091 A 
ATOM     68  F   UNL A   1      41.764  30.368  35.983  1.00  0.00    -0.205 F 
ATOM     69  C   UNL A   1      42.979  33.817  36.180  1.00  0.00     0.022 A 
BRANCH  67  70
ATOM     70  S   UNL A   1      41.479  32.594  38.111  1.00  0.00     0.127 S 
ATOM     71  O   UNL A   1      40.133  32.187  37.714  1.00  0.00    -0.237 OA
ATOM     72  O   UNL A   1      42.230  31.579  38.849  1.00  0.00    -0.237 OA
ATOM     73  O   UNL A   1      41.590  33.943  38.650  1.00  0.00    -0.744 OA
ENDBRANCH  67  70
ENDBRANCH  49  63
BRANCH  50  74
ATOM     74  C   UNL A   1      42.482  24.626  27.344  1.00  0.00     0.023 A 
ATOM     75  C   UNL A   1      43.268  24.798  26.188  1.00  0.00     0.012 A 
ATOM     76  C   UNL A   1      41.686  23.470  27.467  1.00  0.00     0.148 A 
ATOM     77  C   UNL A   1      43.238  23.856  25.160  1.00  0.00     0.002 A 
ATOM     78  C   UNL A   1      41.706  22.507  26.465  1.00  0.00     0.091 A 
ATOM     79  F   UNL A   1      40.934  23.330  28.568  1.00  0.00    -0.205 F 
ATOM     80  C   UNL A   1      42.466  22.706  25.302  1.00  0.00     0.022 A 
BRANCH  78  81
ATOM     81  S   UNL A   1      40.850  20.936  26.625  1.00  0.00     0.127 S 
ATOM     82  O   UNL A   1      39.533  21.255  26.079  1.00  0.00    -0.237 OA
ATOM     83  O   UNL A   1      41.669  20.060  25.785  1.00  0.00    -0.237 OA
ATOM     84  O   UNL A   1      40.887  20.609  28.043  1.00  0.00    -0.744 OA
ENDBRANCH  78  81
ENDBRANCH  50  74
BRANCH  62  85
ATOM     85  C   UNL A   1      46.912  25.903  32.590  1.00  0.00     0.023 A 
ATOM     86  C   UNL A   1      48.164  26.339  32.114  1.00  0.00     0.012 A 
ATOM     87  C   UNL A   1      46.859  24.874  33.551  1.00  0.00     0.148 A 
ATOM     88  C   UNL A   1      49.341  25.737  32.559  1.00  0.00     0.002 A 
ATOM     89  C   UNL A   1      48.038  24.313  34.027  1.00  0.00     0.091 A 
ATOM     90  F   UNL A   1      45.657  24.458  33.978  1.00  0.00    -0.205 F 
ATOM     91  C   UNL A   1      49.279  24.735  33.523  1.00  0.00     0.022 A 
BRANCH  89  92
ATOM     92  S   UNL A   1      48.059  23.084  35.338  1.00  0.00     0.127 S 
ATOM     93  O   UNL A   1      47.131  22.080  34.820  1.00  0.00    -0.237 OA
ATOM     94  O   UNL A   1      49.462  22.668  35.351  1.00  0.00    -0.237 OA
ATOM     95  O   UNL A   1      47.624  23.776  36.544  1.00  0.00    -0.744 OA
ENDBRANCH  89  92
ENDBRANCH  62  85
ENDBRANCH  36  37
ENDBRANCH  28  31
ENDBRANCH  26  27
ENDBRANCH  25  26
ENDBRANCH   1  25
TORSDOF 18
ENDMDL
MODEL 2
REMARK VINA RESULT:     -10.4      3.233      4.829
REMARK SMILES Cc1cc(C[N@@H+]2C[C@H](C)[C@H](C(=O)NCCCCCCNC(=O)c3ccc(-c4c5nc(c(-c6cccc(S(=O)(=O)[O-])c6F)c6ccc([nH]6)c(-c6cccc(S(=O)(=O)[O-])c6F)c6nc(c(-c7cccc(S(=O)(=O)[O-])c7F)c7ccc4[nH]7)C=C6)C=C5)cc3)C2)ccc1Br
REMARK SMILES IDX 17 1 16 2 15 3 14 4 13 5 11 6 12 7 10 9 6 10 7 11 86 12 8 14
REMARK SMILES IDX 9 15 5 16 4 17 1 18 2 19 3 20 89 21 88 22 90 23 87 24 18 25
REMARK SMILES IDX 19 26 20 27 21 28 22 30 23 31 24 32 85 33 25 34 84 35 26 36
REMARK SMILES IDX 27 37 28 38 78 39 29 40 83 41 77 42 79 43 30 44 82 45 76 46
REMARK SMILES IDX 75 47 31 49 63 50 43 51 62 52 44 53 47 54 61 55 80 56 45 57
REMARK SMILES IDX 46 58 60 60 81 61 48 62 32 63 33 64 41 65 34 66 36 67 42 68
REMARK SMILES IDX 35 69 37 70 38 71 39 72 40 73 64 74 65 75 73 76 66 77 68 78
REMARK SMILES IDX 74 79 67 80 69 81 70 82 71 83 72 84 49 85 50 86 58 87 51 88
REMARK SMILES IDX 53 89 59 90 52 91 54 92 55 93 56 94 57 95
REMARK H PARENT 13 8 6 13 20 29 79 48 47 59
REMARK Flexibility Score: inf
ROOT
ATOM      1  C   UNL A   1      34.934  33.098  28.040  1.00  0.00     0.002 C 
ENDROOT
BRANCH   1   2
ATOM      2  C   UNL A   1      34.929  31.739  28.751  1.00  0.00     0.002 C 
BRANCH   2   3
ATOM      3  C   UNL A   1      34.614  30.526  27.869  1.00  0.00     0.021 C 
BRANCH   3   4
ATOM      4  C   UNL A   1      33.246  30.554  27.188  1.00  0.00     0.116 C 
BRANCH   4   5
ATOM      5  N   UNL A   1      32.467  29.367  27.490  1.00  0.00    -0.356 N 
ATOM      6  C   UNL A   1      32.027  28.343  26.718  1.00  0.00     0.229 C 
ATOM      7  O   UNL A   1      31.308  27.507  27.280  1.00  0.00    -0.275 OA
ATOM      8  H   UNL A   1      32.207  29.292  28.436  1.00  0.00     0.163 HD
BRANCH   6   9
ATOM      9  C   UNL A   1      32.335  28.176  25.235  1.00  0.00     0.142 C 
ATOM     10  N   UNL A   1      31.878  27.045  23.197  1.00  0.00    -0.330 N 
ATOM     11  C   UNL A   1      33.323  27.055  23.368  1.00  0.00     0.266 C 
ATOM     12  C   UNL A   1      31.214  27.672  24.334  1.00  0.00     0.276 C 
ATOM     13  H   UNL A   1      31.702  27.652  22.395  1.00  0.00     0.348 HD
ATOM     14  C   UNL A   1      33.601  27.415  24.829  1.00  0.00     0.059 C 
ATOM     15  C   UNL A   1      33.985  26.196  25.655  1.00  0.00     0.015 C 
BRANCH  10  16
ATOM     16  C   UNL A   1      31.253  25.866  22.610  1.00  0.00     0.299 C 
BRANCH  16  17
ATOM     17  C   UNL A   1      31.585  24.525  23.234  1.00  0.00     0.007 A 
ATOM     18  C   UNL A   1      30.523  22.539  26.304  1.00  0.00     0.045 C 
ATOM     19  C   UNL A   1      31.257  22.876  25.034  1.00  0.00    -0.036 A 
ATOM     20  C   UNL A   1      31.000  24.136  24.452  1.00  0.00     0.014 A 
ATOM     21  C   UNL A   1      32.133  22.005  24.373  1.00  0.00     0.020 A 
ATOM     22  C   UNL A   1      32.718  22.378  23.161  1.00  0.00     0.016 A 
ATOM     23  Br  UNL A   1      32.579  20.282  25.028  1.00  0.00    -0.051 Br
ATOM     24  C   UNL A   1      32.430  23.616  22.587  1.00  0.00     0.011 A 
ENDBRANCH  16  17
ENDBRANCH  10  16
ENDBRANCH   6   9
ENDBRANCH   4   5
ENDBRANCH   3   4
ENDBRANCH   2   3
ENDBRANCH   1   2
BRANCH   1  25
ATOM     25  C   UNL A   1      33.658  33.927  28.189  1.00  0.00     0.021 C 
BRANCH  25  26
ATOM     26  C   UNL A   1      33.843  35.332  28.756  1.00  0.00     0.116 C 
BRANCH  26  27
ATOM     27  N   UNL A   1      33.059  35.556  29.957  1.00  0.00    -0.352 N 
ATOM     28  C   UNL A   1      33.251  35.076  31.230  1.00  0.00     0.251 C 
ATOM     29  H   UNL A   1      32.273  36.137  29.842  1.00  0.00     0.163 HD
ATOM     30  O   UNL A   1      32.368  35.234  32.070  1.00  0.00    -0.269 OA
BRANCH  28  31
ATOM     31  C   UNL A   1      34.496  34.358  31.600  1.00  0.00     0.039 A 
ATOM     32  C   UNL A   1      34.388  33.111  32.225  1.00  0.00     0.014 A 
ATOM     33  C   UNL A   1      35.761  34.912  31.386  1.00  0.00     0.014 A 
ATOM     34  C   UNL A   1      35.541  32.410  32.596  1.00  0.00     0.010 A 
ATOM     35  C   UNL A   1      36.911  34.178  31.692  1.00  0.00     0.010 A 
ATOM     36  C   UNL A   1      36.817  32.926  32.315  1.00  0.00    -0.014 A 
BRANCH  36  37
ATOM     37  C   UNL A   1      38.045  32.164  32.676  1.00  0.00     0.031 A 
ATOM     38  C   UNL A   1      38.796  32.470  33.948  1.00  0.00     0.074 A 
ATOM     39  C   UNL A   1      38.521  31.221  31.837  1.00  0.00     0.049 A 
ATOM     40  N   UNL A   1      39.873  31.901  34.427  1.00  0.00    -0.248 NA
ATOM     41  C   UNL A   1      38.283  33.570  34.780  1.00  0.00     0.031 C 
ATOM     42  C   UNL A   1      37.942  30.877  30.537  1.00  0.00     0.029 A 
ATOM     43  N   UNL A   1      39.611  30.391  31.944  1.00  0.00    -0.354 N 
ATOM     44  C   UNL A   1      40.185  32.591  35.594  1.00  0.00     0.074 A 
ATOM     45  C   UNL A   1      39.201  33.643  35.734  1.00  0.00     0.031 C 
ATOM     46  C   UNL A   1      38.674  29.903  29.974  1.00  0.00     0.029 A 
ATOM     47  C   UNL A   1      39.789  29.569  30.856  1.00  0.00     0.049 A 
ATOM     48  H   UNL A   1      40.208  30.385  32.726  1.00  0.00     0.167 HD
ATOM     49  C   UNL A   1      41.177  32.355  36.486  1.00  0.00     0.034 A 
ATOM     50  C   UNL A   1      40.741  28.651  30.592  1.00  0.00     0.034 A 
ATOM     51  C   UNL A   1      42.131  31.284  36.372  1.00  0.00     0.049 A 
ATOM     52  C   UNL A   1      41.807  28.379  31.620  1.00  0.00     0.074 A 
ATOM     53  C   UNL A   1      43.116  30.911  37.271  1.00  0.00     0.029 A 
ATOM     54  N   UNL A   1      42.231  30.422  35.292  1.00  0.00    -0.354 N 
ATOM     55  N   UNL A   1      41.980  28.930  32.796  1.00  0.00    -0.248 NA
ATOM     56  C   UNL A   1      42.787  27.330  31.300  1.00  0.00     0.031 C 
ATOM     57  C   UNL A   1      43.829  29.841  36.721  1.00  0.00     0.029 A 
ATOM     58  C   UNL A   1      43.268  29.526  35.494  1.00  0.00     0.049 A 
ATOM     59  H   UNL A   1      41.651  30.444  34.497  1.00  0.00     0.167 HD
ATOM     60  C   UNL A   1      43.063  28.272  33.371  1.00  0.00     0.074 A 
ATOM     61  C   UNL A   1      43.490  27.264  32.422  1.00  0.00     0.031 C 
ATOM     62  C   UNL A   1      43.656  28.493  34.569  1.00  0.00     0.034 A 
BRANCH  49  63
ATOM     63  C   UNL A   1      41.253  33.244  37.701  1.00  0.00     0.023 A 
ATOM     64  C   UNL A   1      40.493  32.925  38.846  1.00  0.00     0.012 A 
ATOM     65  C   UNL A   1      42.123  34.352  37.738  1.00  0.00     0.148 A 
ATOM     66  C   UNL A   1      40.568  33.714  39.993  1.00  0.00     0.002 A 
ATOM     67  C   UNL A   1      42.228  35.107  38.902  1.00  0.00     0.091 A 
ATOM     68  F   UNL A   1      42.825  34.651  36.637  1.00  0.00    -0.205 F 
ATOM     69  C   UNL A   1      41.443  34.797  40.024  1.00  0.00     0.022 A 
BRANCH  67  70
ATOM     70  S   UNL A   1      43.383  36.472  39.073  1.00  0.00     0.127 S 
ATOM     71  O   UNL A   1      44.625  35.869  38.594  1.00  0.00    -0.237 OA
ATOM     72  O   UNL A   1      42.808  37.476  38.181  1.00  0.00    -0.237 OA
ATOM     73  O   UNL A   1      43.369  36.835  40.485  1.00  0.00    -0.744 OA
ENDBRANCH  67  70
ENDBRANCH  49  63
BRANCH  50  74
ATOM     74  C   UNL A   1      40.690  27.870  29.322  1.00  0.00     0.023 A 
ATOM     75  C   UNL A   1      39.729  26.852  29.170  1.00  0.00     0.012 A 
ATOM     76  C   UNL A   1      41.574  28.144  28.261  1.00  0.00     0.148 A 
ATOM     77  C   UNL A   1      39.669  26.099  27.997  1.00  0.00     0.002 A 
ATOM     78  C   UNL A   1      41.471  27.429  27.072  1.00  0.00     0.091 A 
ATOM     79  F   UNL A   1      42.492  29.107  28.429  1.00  0.00    -0.205 F 
ATOM     80  C   UNL A   1      40.533  26.394  26.945  1.00  0.00     0.022 A 
BRANCH  78  81
ATOM     81  S   UNL A   1      42.449  27.831  25.621  1.00  0.00     0.127 S 
ATOM     82  O   UNL A   1      41.870  29.109  25.214  1.00  0.00    -0.237 OA
ATOM     83  O   UNL A   1      43.799  27.916  26.180  1.00  0.00    -0.237 OA
ATOM     84  O   UNL A   1      42.255  26.723  24.696  1.00  0.00    -0.744 OA
ENDBRANCH  78  81
ENDBRANCH  50  74
BRANCH  62  85
ATOM     85  C   UNL A   1      44.816  27.607  34.952  1.00  0.00     0.023 A 
ATOM     86  C   UNL A   1      46.135  28.020  34.679  1.00  0.00     0.012 A 
ATOM     87  C   UNL A   1      44.599  26.397  35.640  1.00  0.00     0.148 A 
ATOM     88  C   UNL A   1      47.218  27.225  35.054  1.00  0.00     0.002 A 
ATOM     89  C   UNL A   1      45.685  25.635  36.054  1.00  0.00     0.091 A 
ATOM     90  F   UNL A   1      43.336  26.011  35.874  1.00  0.00    -0.205 F 
ATOM     91  C   UNL A   1      46.994  26.041  35.751  1.00  0.00     0.022 A 
BRANCH  89  92
ATOM     92  S   UNL A   1      45.495  24.145  37.041  1.00  0.00     0.127 S 
ATOM     93  O   UNL A   1      44.789  24.654  38.216  1.00  0.00    -0.237 OA
ATOM     94  O   UNL A   1      44.687  23.294  36.166  1.00  0.00    -0.237 OA
ATOM     95  O   UNL A   1      46.843  23.651  37.285  1.00  0.00    -0.744 OA
ENDBRANCH  89  92
ENDBRANCH  62  85
ENDBRANCH  36  37
ENDBRANCH  28  31
ENDBRANCH  26  27
ENDBRANCH  25  26
ENDBRANCH   1  25
TORSDOF 18
ENDMDL
MODEL 3
REMARK VINA RESULT:     -10.4      5.025      9.802
REMARK SMILES Cc1cc(C[N@@H+]2C[C@H](C)[C@H](C(=O)NCCCCCCNC(=O)c3ccc(-c4c5nc(c(-c6cccc(S(=O)(=O)[O-])c6F)c6ccc([nH]6)c(-c6cccc(S(=O)(=O)[O-])c6F)c6nc(c(-c7cccc(S(=O)(=O)[O-])c7F)c7ccc4[nH]7)C=C6)C=C5)cc3)C2)ccc1Br
REMARK SMILES IDX 17 1 16 2 15 3 14 4 13 5 11 6 12 7 10 9 6 10 7 11 86 12 8 14
REMARK SMILES IDX 9 15 5 16 4 17 1 18 2 19 3 20 89 21 88 22 90 23 87 24 18 25
REMARK SMILES IDX 19 26 20 27 21 28 22 30 23 31 24 32 85 33 25 34 84 35 26 36
REMARK SMILES IDX 27 37 28 38 78 39 29 40 83 41 77 42 79 43 30 44 82 45 76 46
REMARK SMILES IDX 75 47 31 49 63 50 43 51 62 52 44 53 47 54 61 55 80 56 45 57
REMARK SMILES IDX 46 58 60 60 81 61 48 62 32 63 33 64 41 65 34 66 36 67 42 68
REMARK SMILES IDX 35 69 37 70 38 71 39 72 40 73 64 74 65 75 73 76 66 77 68 78
REMARK SMILES IDX 74 79 67 80 69 81 70 82 71 83 72 84 49 85 50 86 58 87 51 88
REMARK SMILES IDX 53 89 59 90 52 91 54 92 55 93 56 94 57 95
REMARK H PARENT 13 8 6 13 20 29 79 48 47 59
REMARK Flexibility Score: inf
ROOT
ATOM      1  C   UNL A   1      36.087  23.887  25.351  1.00  0.00     0.002 C 
ENDROOT
BRANCH   1   2
ATOM      2  C   UNL A   1      34.598  24.150  25.607  1.00  0.00     0.002 C 
BRANCH   2   3
ATOM      3  C   UNL A   1      34.065  25.500  25.117  1.00  0.00     0.021 C 
BRANCH   3   4
ATOM      4  C   UNL A   1      33.202  26.263  26.120  1.00  0.00     0.116 C 
BRANCH   4   5
ATOM      5  N   UNL A   1      33.794  27.536  26.488  1.00  0.00    -0.356 N 
ATOM      6  C   UNL A   1      33.616  28.795  26.017  1.00  0.00     0.229 C 
ATOM      7  O   UNL A   1      34.346  29.667  26.506  1.00  0.00    -0.275 OA
ATOM      8  H   UNL A   1      34.451  27.473  27.217  1.00  0.00     0.163 HD
BRANCH   6   9
ATOM      9  C   UNL A   1      32.619  29.187  24.934  1.00  0.00     0.142 C 
ATOM     10  N   UNL A   1      30.749  28.580  23.602  1.00  0.00    -0.330 N 
ATOM     11  C   UNL A   1      31.751  29.136  22.706  1.00  0.00     0.266 C 
ATOM     12  C   UNL A   1      31.242  28.537  24.973  1.00  0.00     0.276 C 
ATOM     13  H   UNL A   1      29.984  29.256  23.595  1.00  0.00     0.348 HD
ATOM     14  C   UNL A   1      33.076  29.159  23.472  1.00  0.00     0.059 C 
ATOM     15  C   UNL A   1      34.003  28.031  23.044  1.00  0.00     0.015 C 
BRANCH  10  16
ATOM     16  C   UNL A   1      29.940  27.461  23.134  1.00  0.00     0.299 C 
BRANCH  16  17
ATOM     17  C   UNL A   1      30.522  26.071  23.297  1.00  0.00     0.007 A 
ATOM     18  C   UNL A   1      33.205  23.958  21.614  1.00  0.00     0.045 C 
ATOM     19  C   UNL A   1      32.105  24.329  22.571  1.00  0.00    -0.036 A 
ATOM     20  C   UNL A   1      31.514  25.601  22.418  1.00  0.00     0.014 A 
ATOM     21  C   UNL A   1      31.669  23.517  23.627  1.00  0.00     0.020 A 
ATOM     22  C   UNL A   1      30.686  23.973  24.509  1.00  0.00     0.016 A 
ATOM     23  Br  UNL A   1      32.363  21.784  23.963  1.00  0.00    -0.051 Br
ATOM     24  C   UNL A   1      30.135  25.245  24.357  1.00  0.00     0.011 A 
ENDBRANCH  16  17
ENDBRANCH  10  16
ENDBRANCH   6   9
ENDBRANCH   4   5
ENDBRANCH   3   4
ENDBRANCH   2   3
ENDBRANCH   1   2
BRANCH   1  25
ATOM     25  C   UNL A   1      36.602  22.516  25.793  1.00  0.00     0.021 C 
BRANCH  25  26
ATOM     26  C   UNL A   1      37.776  21.960  24.992  1.00  0.00     0.116 C 
BRANCH  26  27
ATOM     27  N   UNL A   1      38.567  21.008  25.752  1.00  0.00    -0.352 N 
ATOM     28  C   UNL A   1      39.678  21.219  26.533  1.00  0.00     0.251 C 
ATOM     29  H   UNL A   1      38.262  20.073  25.698  1.00  0.00     0.163 HD
ATOM     30  O   UNL A   1      40.313  20.250  26.945  1.00  0.00    -0.269 OA
BRANCH  28  31
ATOM     31  C   UNL A   1      40.131  22.591  26.870  1.00  0.00     0.039 A 
ATOM     32  C   UNL A   1      40.954  22.768  27.987  1.00  0.00     0.014 A 
ATOM     33  C   UNL A   1      39.720  23.707  26.135  1.00  0.00     0.014 A 
ATOM     34  C   UNL A   1      41.393  24.049  28.339  1.00  0.00     0.010 A 
ATOM     35  C   UNL A   1      40.218  24.975  26.446  1.00  0.00     0.010 A 
ATOM     36  C   UNL A   1      41.046  25.166  27.561  1.00  0.00    -0.014 A 
BRANCH  36  37
ATOM     37  C   UNL A   1      41.542  26.526  27.913  1.00  0.00     0.031 A 
ATOM     38  C   UNL A   1      42.963  26.932  27.610  1.00  0.00     0.074 A 
ATOM     39  C   UNL A   1      40.729  27.391  28.553  1.00  0.00     0.049 A 
ATOM     40  N   UNL A   1      43.560  28.074  27.834  1.00  0.00    -0.248 NA
ATOM     41  C   UNL A   1      43.833  25.916  26.995  1.00  0.00     0.031 C 
ATOM     42  C   UNL A   1      39.358  27.105  28.979  1.00  0.00     0.029 A 
ATOM     43  N   UNL A   1      40.943  28.683  28.971  1.00  0.00    -0.354 N 
ATOM     44  C   UNL A   1      44.877  27.908  27.419  1.00  0.00     0.074 A 
ATOM     45  C   UNL A   1      45.001  26.541  26.959  1.00  0.00     0.031 C 
ATOM     46  C   UNL A   1      38.851  28.189  29.587  1.00  0.00     0.029 A 
ATOM     47  C   UNL A   1      39.865  29.240  29.621  1.00  0.00     0.049 A 
ATOM     48  H   UNL A   1      41.788  29.164  28.822  1.00  0.00     0.167 HD
ATOM     49  C   UNL A   1      45.885  28.813  27.391  1.00  0.00     0.034 A 
ATOM     50  C   UNL A   1      39.707  30.455  30.182  1.00  0.00     0.034 A 
ATOM     51  C   UNL A   1      45.754  30.184  27.807  1.00  0.00     0.049 A 
ATOM     52  C   UNL A   1      40.829  31.457  30.099  1.00  0.00     0.074 A 
ATOM     53  C   UNL A   1      46.693  31.198  27.731  1.00  0.00     0.029 A 
ATOM     54  N   UNL A   1      44.622  30.732  28.388  1.00  0.00    -0.354 N 
ATOM     55  N   UNL A   1      42.010  31.329  29.546  1.00  0.00    -0.248 NA
ATOM     56  C   UNL A   1      40.580  32.784  30.682  1.00  0.00     0.031 C 
ATOM     57  C   UNL A   1      46.137  32.353  28.292  1.00  0.00     0.029 A 
ATOM     58  C   UNL A   1      44.841  32.067  28.687  1.00  0.00     0.049 A 
ATOM     59  H   UNL A   1      43.785  30.245  28.562  1.00  0.00     0.167 HD
ATOM     60  C   UNL A   1      42.631  32.567  29.683  1.00  0.00     0.074 A 
ATOM     61  C   UNL A   1      41.685  33.438  30.349  1.00  0.00     0.031 C 
ATOM     62  C   UNL A   1      43.877  32.942  29.303  1.00  0.00     0.034 A 
BRANCH  49  63
ATOM     63  C   UNL A   1      47.215  28.364  26.840  1.00  0.00     0.023 A 
ATOM     64  C   UNL A   1      48.299  28.161  27.719  1.00  0.00     0.012 A 
ATOM     65  C   UNL A   1      47.375  28.079  25.469  1.00  0.00     0.148 A 
ATOM     66  C   UNL A   1      49.531  27.718  27.238  1.00  0.00     0.002 A 
ATOM     67  C   UNL A   1      48.592  27.592  25.005  1.00  0.00     0.091 A 
ATOM     68  F   UNL A   1      46.340  28.293  24.646  1.00  0.00    -0.205 F 
ATOM     69  C   UNL A   1      49.674  27.423  25.885  1.00  0.00     0.022 A 
BRANCH  67  70
ATOM     70  S   UNL A   1      48.856  27.105  23.296  1.00  0.00     0.127 S 
ATOM     71  O   UNL A   1      48.452  28.313  22.580  1.00  0.00    -0.237 OA
ATOM     72  O   UNL A   1      50.292  26.832  23.270  1.00  0.00    -0.237 OA
ATOM     73  O   UNL A   1      48.012  25.937  23.076  1.00  0.00    -0.744 OA
ENDBRANCH  67  70
ENDBRANCH  49  63
BRANCH  50  74
ATOM     74  C   UNL A   1      38.408  30.819  30.817  1.00  0.00     0.023 A 
ATOM     75  C   UNL A   1      38.174  30.483  32.164  1.00  0.00     0.012 A 
ATOM     76  C   UNL A   1      37.414  31.513  30.100  1.00  0.00     0.148 A 
ATOM     77  C   UNL A   1      36.962  30.801  32.777  1.00  0.00     0.002 A 
ATOM     78  C   UNL A   1      36.231  31.878  30.733  1.00  0.00     0.091 A 
ATOM     79  F   UNL A   1      37.648  31.812  28.814  1.00  0.00    -0.205 F 
ATOM     80  C   UNL A   1      35.995  31.507  32.066  1.00  0.00     0.022 A 
BRANCH  78  81
ATOM     81  S   UNL A   1      34.991  32.904  29.937  1.00  0.00     0.127 S 
ATOM     82  O   UNL A   1      34.504  32.021  28.881  1.00  0.00    -0.237 OA
ATOM     83  O   UNL A   1      34.045  33.137  31.030  1.00  0.00    -0.237 OA
ATOM     84  O   UNL A   1      35.694  34.099  29.491  1.00  0.00    -0.744 OA
ENDBRANCH  78  81
ENDBRANCH  50  74
BRANCH  62  85
ATOM     85  C   UNL A   1      44.290  34.370  29.561  1.00  0.00     0.023 A 
ATOM     86  C   UNL A   1      44.995  34.696  30.736  1.00  0.00     0.012 A 
ATOM     87  C   UNL A   1      44.035  35.375  28.607  1.00  0.00     0.148 A 
ATOM     88  C   UNL A   1      45.408  36.007  30.974  1.00  0.00     0.002 A 
ATOM     89  C   UNL A   1      44.493  36.668  28.828  1.00  0.00     0.091 A 
ATOM     90  F   UNL A   1      43.345  35.050  27.504  1.00  0.00    -0.205 F 
ATOM     91  C   UNL A   1      45.168  36.989  30.017  1.00  0.00     0.022 A 
BRANCH  89  92
ATOM     92  S   UNL A   1      44.315  37.974  27.607  1.00  0.00     0.127 S 
ATOM     93  O   UNL A   1      45.312  37.588  26.610  1.00  0.00    -0.237 OA
ATOM     94  O   UNL A   1      42.926  37.809  27.176  1.00  0.00    -0.237 OA
ATOM     95  O   UNL A   1      44.583  39.221  28.311  1.00  0.00    -0.744 OA
ENDBRANCH  89  92
ENDBRANCH  62  85
ENDBRANCH  36  37
ENDBRANCH  28  31
ENDBRANCH  26  27
ENDBRANCH  25  26
ENDBRANCH   1  25
TORSDOF 18
ENDMDL
