MODEL 1
REMARK VINA RESULT:      -7.3      0.000      0.000
REMARK SMILES CCCCCCOC(=O)Nc1cccc(-c2ccc([C@@H](C)C(=O)NCCCCCCNC(=O)c3ccc(-c4c5nc(c(-c6cccc(S(=O)(=O)[O-])c6F)c6ccc([nH]6)c(-c6cccc(S(=O)(=O)[O-])c6F)c6nc(c(-c7cccc(S(=O)(=O)[O-])c7F)c7ccc4[nH]7)C=C6)C=C5)cc3)cc2F)c1
REMARK SMILES IDX 22 1 23 2 24 3 20 5 21 6 19 7 16 8 17 9 98 10 18 11 97 12
REMARK SMILES IDX 99 13 15 14 11 15 12 16 100 17 13 18 14 19 10 20 8 21 9 22
REMARK SMILES IDX 7 24 6 25 5 26 4 27 3 28 2 29 1 30 25 31 26 32 27 33 28 34
REMARK SMILES IDX 29 35 30 36 31 37 32 38 33 40 34 41 35 42 96 43 36 44 95 45
REMARK SMILES IDX 37 46 38 47 39 48 89 49 40 50 94 51 88 52 90 53 41 54 93 55
REMARK SMILES IDX 87 56 86 57 42 59 74 60 54 61 73 62 55 63 58 64 72 65 91 66
REMARK SMILES IDX 56 67 57 68 71 70 92 71 59 72 43 73 44 74 52 75 45 76 47 77
REMARK SMILES IDX 53 78 46 79 48 80 49 81 50 82 51 83 75 84 76 85 84 86 77 87
REMARK SMILES IDX 79 88 85 89 78 90 80 91 81 92 82 93 83 94 60 95 61 96 69 97
REMARK SMILES IDX 62 98 64 99 70 100 63 101 65 102 66 103 67 104 68 105
REMARK H PARENT 24 4 10 23 31 39 90 58 58 69
REMARK Flexibility Score: inf
ROOT
ATOM      1  C   UNL A   1      42.882  35.303  29.244  1.00  0.00     0.227 C 
ATOM      2  O   UNL A   1      43.426  36.292  28.737  1.00  0.00    -0.274 OA
ATOM      3  N   UNL A   1      41.524  35.331  29.327  1.00  0.00    -0.356 N 
ATOM      4  H   UNL A   1      41.108  36.114  28.898  1.00  0.00     0.163 HD
ENDROOT
BRANCH   1   5
ATOM      5  C   UNL A   1      43.739  34.122  29.726  1.00  0.00     0.105 C 
ATOM      6  C   UNL A   1      45.197  34.487  30.008  1.00  0.00     0.023 C 
BRANCH   5   7
ATOM      7  C   UNL A   1      43.509  32.842  28.939  1.00  0.00    -0.033 A 
ATOM      8  C   UNL A   1      43.264  30.437  27.407  1.00  0.00     0.018 A 
ATOM      9  C   UNL A   1      42.895  30.487  28.758  1.00  0.00     0.012 A 
ATOM     10  C   UNL A   1      43.709  31.639  26.834  1.00  0.00     0.131 A 
ATOM     11  C   UNL A   1      42.988  31.672  29.501  1.00  0.00     0.005 A 
ATOM     12  C   UNL A   1      43.851  32.810  27.581  1.00  0.00     0.044 A 
ATOM     13  F   UNL A   1      44.018  31.703  25.528  1.00  0.00    -0.206 F 
BRANCH   8  14
ATOM     14  C   UNL A   1      43.199  29.174  26.641  1.00  0.00    -0.013 A 
ATOM     15  C   UNL A   1      44.347  27.357  25.461  1.00  0.00     0.045 A 
ATOM     16  C   UNL A   1      43.124  26.818  25.075  1.00  0.00     0.026 A 
ATOM     17  C   UNL A   1      44.376  28.516  26.245  1.00  0.00     0.035 A 
ATOM     18  C   UNL A   1      41.940  27.412  25.509  1.00  0.00     0.003 A 
ATOM     19  C   UNL A   1      41.979  28.583  26.274  1.00  0.00     0.009 A 
BRANCH  15  20
ATOM     20  N   UNL A   1      45.525  26.783  24.961  1.00  0.00    -0.291 N 
ATOM     21  C   UNL A   1      46.762  26.786  25.549  1.00  0.00     0.411 C 
ATOM     22  O   UNL A   1      47.783  26.676  24.887  1.00  0.00    -0.224 OA
ATOM     23  H   UNL A   1      45.455  26.329  24.090  1.00  0.00     0.173 HD
BRANCH  21  24
ATOM     24  O   UNL A   1      46.700  26.794  26.906  1.00  0.00    -0.449 OA
BRANCH  24  25
ATOM     25  C   UNL A   1      47.896  27.078  27.645  1.00  0.00     0.235 C 
BRANCH  25  26
ATOM     26  C   UNL A   1      47.599  27.472  29.097  1.00  0.00     0.042 C 
BRANCH  26  27
ATOM     27  C   UNL A   1      46.366  28.358  29.306  1.00  0.00     0.003 C 
BRANCH  27  28
ATOM     28  C   UNL A   1      46.548  29.498  30.317  1.00  0.00    -0.000 C 
BRANCH  28  29
ATOM     29  C   UNL A   1      46.563  30.901  29.711  1.00  0.00    -0.003 C 
ATOM     30  C   UNL A   1      47.008  30.906  28.258  1.00  0.00     0.004 C 
ENDBRANCH  28  29
ENDBRANCH  27  28
ENDBRANCH  26  27
ENDBRANCH  25  26
ENDBRANCH  24  25
ENDBRANCH  21  24
ENDBRANCH  15  20
ENDBRANCH   8  14
ENDBRANCH   5   7
ENDBRANCH   1   5
BRANCH   3  31
ATOM     31  C   UNL A   1      40.584  34.412  29.936  1.00  0.00     0.116 C 
BRANCH  31  32
ATOM     32  C   UNL A   1      39.138  34.877  29.747  1.00  0.00     0.021 C 
BRANCH  32  33
ATOM     33  C   UNL A   1      38.100  33.771  29.961  1.00  0.00     0.002 C 
BRANCH  33  34
ATOM     34  C   UNL A   1      37.353  33.325  28.695  1.00  0.00     0.002 C 
BRANCH  34  35
ATOM     35  C   UNL A   1      35.884  33.750  28.609  1.00  0.00     0.021 C 
BRANCH  35  36
ATOM     36  C   UNL A   1      34.898  32.784  29.262  1.00  0.00     0.116 C 
BRANCH  36  37
ATOM     37  N   UNL A   1      34.261  31.915  28.280  1.00  0.00    -0.352 N 
ATOM     38  C   UNL A   1      34.738  30.774  27.682  1.00  0.00     0.251 C 
ATOM     39  H   UNL A   1      33.357  32.186  28.005  1.00  0.00     0.163 HD
ATOM     40  O   UNL A   1      34.159  30.306  26.705  1.00  0.00    -0.269 OA
BRANCH  38  41
ATOM     41  C   UNL A   1      35.951  30.113  28.209  1.00  0.00     0.039 A 
ATOM     42  C   UNL A   1      37.112  30.099  27.430  1.00  0.00     0.014 A 
ATOM     43  C   UNL A   1      35.936  29.497  29.462  1.00  0.00     0.014 A 
ATOM     44  C   UNL A   1      38.281  29.529  27.941  1.00  0.00     0.010 A 
ATOM     45  C   UNL A   1      37.116  28.983  29.993  1.00  0.00     0.010 A 
ATOM     46  C   UNL A   1      38.301  28.999  29.242  1.00  0.00    -0.014 A 
BRANCH  46  47
ATOM     47  C   UNL A   1      39.556  28.499  29.858  1.00  0.00     0.031 A 
ATOM     48  C   UNL A   1      40.253  29.295  30.924  1.00  0.00     0.074 A 
ATOM     49  C   UNL A   1      40.127  27.379  29.371  1.00  0.00     0.049 A 
ATOM     50  N   UNL A   1      41.401  29.066  31.506  1.00  0.00    -0.248 NA
ATOM     51  C   UNL A   1      39.582  30.525  31.379  1.00  0.00     0.031 C 
ATOM     52  C   UNL A   1      39.582  26.556  28.289  1.00  0.00     0.029 A 
ATOM     53  N   UNL A   1      41.308  26.760  29.697  1.00  0.00    -0.354 N 
ATOM     54  C   UNL A   1      41.609  30.135  32.369  1.00  0.00     0.074 A 
ATOM     55  C   UNL A   1      40.480  31.027  32.215  1.00  0.00     0.031 C 
ATOM     56  C   UNL A   1      40.428  25.544  28.038  1.00  0.00     0.029 A 
ATOM     57  C   UNL A   1      41.589  25.665  28.915  1.00  0.00     0.049 A 
ATOM     58  H   UNL A   1      41.898  27.070  30.422  1.00  0.00     0.167 HD
ATOM     59  C   UNL A   1      42.632  30.340  33.234  1.00  0.00     0.034 A 
ATOM     60  C   UNL A   1      42.666  24.856  28.893  1.00  0.00     0.034 A 
ATOM     61  C   UNL A   1      43.733  29.431  33.412  1.00  0.00     0.049 A 
ATOM     62  C   UNL A   1      43.788  25.103  29.864  1.00  0.00     0.074 A 
ATOM     63  C   UNL A   1      44.763  29.496  34.333  1.00  0.00     0.029 A 
ATOM     64  N   UNL A   1      43.956  28.298  32.643  1.00  0.00    -0.354 N 
ATOM     65  N   UNL A   1      43.887  26.024  30.792  1.00  0.00    -0.248 NA
ATOM     66  C   UNL A   1      44.935  24.186  29.802  1.00  0.00     0.031 C 
ATOM     67  C   UNL A   1      45.623  28.416  34.105  1.00  0.00     0.029 A 
ATOM     68  C   UNL A   1      45.119  27.669  33.052  1.00  0.00     0.049 A 
ATOM     69  H   UNL A   1      43.372  27.988  31.914  1.00  0.00     0.167 HD
ATOM     70  C   UNL A   1      45.094  25.788  31.437  1.00  0.00     0.074 A 
ATOM     71  C   UNL A   1      45.679  24.618  30.812  1.00  0.00     0.031 C 
ATOM     72  C   UNL A   1      45.675  26.486  32.444  1.00  0.00     0.034 A 
BRANCH  59  73
ATOM     73  C   UNL A   1      42.578  31.574  34.094  1.00  0.00     0.023 A 
ATOM     74  C   UNL A   1      41.902  31.527  35.331  1.00  0.00     0.012 A 
ATOM     75  C   UNL A   1      43.227  32.763  33.708  1.00  0.00     0.148 A 
ATOM     76  C   UNL A   1      41.839  32.652  36.152  1.00  0.00     0.002 A 
ATOM     77  C   UNL A   1      43.195  33.869  34.551  1.00  0.00     0.091 A 
ATOM     78  F   UNL A   1      43.846  32.799  32.520  1.00  0.00    -0.205 F 
ATOM     79  C   UNL A   1      42.493  33.819  35.767  1.00  0.00     0.022 A 
BRANCH  77  80
ATOM     80  S   UNL A   1      44.068  35.394  34.174  1.00  0.00     0.127 S 
ATOM     81  O   UNL A   1      43.281  35.915  33.057  1.00  0.00    -0.237 OA
ATOM     82  O   UNL A   1      43.929  36.148  35.421  1.00  0.00    -0.237 OA
ATOM     83  O   UNL A   1      45.433  35.001  33.854  1.00  0.00    -0.744 OA
ENDBRANCH  77  80
ENDBRANCH  59  73
BRANCH  60  84
ATOM     84  C   UNL A   1      42.704  23.702  27.952  1.00  0.00     0.023 A 
ATOM     85  C   UNL A   1      41.649  22.769  27.969  1.00  0.00     0.012 A 
ATOM     86  C   UNL A   1      43.740  23.551  27.010  1.00  0.00     0.148 A 
ATOM     87  C   UNL A   1      41.636  21.695  27.078  1.00  0.00     0.002 A 
ATOM     88  C   UNL A   1      43.693  22.510  26.089  1.00  0.00     0.091 A 
ATOM     89  F   UNL A   1      44.741  24.443  27.019  1.00  0.00    -0.205 F 
ATOM     90  C   UNL A   1      42.649  21.572  26.132  1.00  0.00     0.022 A 
BRANCH  88  91
ATOM     91  S   UNL A   1      44.881  22.352  24.751  1.00  0.00     0.127 S 
ATOM     92  O   UNL A   1      44.534  21.048  24.195  1.00  0.00    -0.237 OA
ATOM     93  O   UNL A   1      44.538  23.496  23.906  1.00  0.00    -0.237 OA
ATOM     94  O   UNL A   1      46.194  22.444  25.377  1.00  0.00    -0.744 OA
ENDBRANCH  88  91
ENDBRANCH  60  84
BRANCH  72  95
ATOM     95  C   UNL A   1      47.017  26.012  32.938  1.00  0.00     0.023 A 
ATOM     96  C   UNL A   1      48.185  26.664  32.497  1.00  0.00     0.012 A 
ATOM     97  C   UNL A   1      47.118  24.982  33.893  1.00  0.00     0.148 A 
ATOM     98  C   UNL A   1      49.436  26.284  32.981  1.00  0.00     0.002 A 
ATOM     99  C   UNL A   1      48.364  24.637  34.403  1.00  0.00     0.091 A 
ATOM    100  F   UNL A   1      45.996  24.362  34.286  1.00  0.00    -0.205 F 
ATOM    101  C   UNL A   1      49.524  25.279  33.942  1.00  0.00     0.022 A 
BRANCH  99 102
ATOM    102  S   UNL A   1      48.572  23.418  35.707  1.00  0.00     0.127 S 
ATOM    103  O   UNL A   1      50.021  23.434  35.901  1.00  0.00    -0.237 OA
ATOM    104  O   UNL A   1      47.802  24.003  36.805  1.00  0.00    -0.237 OA
ATOM    105  O   UNL A   1      48.028  22.172  35.184  1.00  0.00    -0.744 OA
ENDBRANCH  99 102
ENDBRANCH  72  95
ENDBRANCH  46  47
ENDBRANCH  38  41
ENDBRANCH  36  37
ENDBRANCH  35  36
ENDBRANCH  34  35
ENDBRANCH  33  34
ENDBRANCH  32  33
ENDBRANCH  31  32
ENDBRANCH   3  31
TORSDOF 25
ENDMDL
MODEL 2
REMARK VINA RESULT:      -6.4      2.119      2.702
REMARK SMILES CCCCCCOC(=O)Nc1cccc(-c2ccc([C@@H](C)C(=O)NCCCCCCNC(=O)c3ccc(-c4c5nc(c(-c6cccc(S(=O)(=O)[O-])c6F)c6ccc([nH]6)c(-c6cccc(S(=O)(=O)[O-])c6F)c6nc(c(-c7cccc(S(=O)(=O)[O-])c7F)c7ccc4[nH]7)C=C6)C=C5)cc3)cc2F)c1
REMARK SMILES IDX 22 1 23 2 24 3 20 5 21 6 19 7 16 8 17 9 98 10 18 11 97 12
REMARK SMILES IDX 99 13 15 14 11 15 12 16 100 17 13 18 14 19 10 20 8 21 9 22
REMARK SMILES IDX 7 24 6 25 5 26 4 27 3 28 2 29 1 30 25 31 26 32 27 33 28 34
REMARK SMILES IDX 29 35 30 36 31 37 32 38 33 40 34 41 35 42 96 43 36 44 95 45
REMARK SMILES IDX 37 46 38 47 39 48 89 49 40 50 94 51 88 52 90 53 41 54 93 55
REMARK SMILES IDX 87 56 86 57 42 59 74 60 54 61 73 62 55 63 58 64 72 65 91 66
REMARK SMILES IDX 56 67 57 68 71 70 92 71 59 72 43 73 44 74 52 75 45 76 47 77
REMARK SMILES IDX 53 78 46 79 48 80 49 81 50 82 51 83 75 84 76 85 84 86 77 87
REMARK SMILES IDX 79 88 85 89 78 90 80 91 81 92 82 93 83 94 60 95 61 96 69 97
REMARK SMILES IDX 62 98 64 99 70 100 63 101 65 102 66 103 67 104 68 105
REMARK H PARENT 24 4 10 23 31 39 90 58 58 69
REMARK Flexibility Score: inf
ROOT
ATOM      1  C   UNL A   1      43.112  33.602  28.925  1.00  0.00     0.227 C 
ATOM      2  O   UNL A   1      43.885  33.931  28.016  1.00  0.00    -0.274 OA
ATOM      3  N   UNL A   1      41.975  34.339  29.052  1.00  0.00    -0.356 N 
ATOM      4  H   UNL A   1      41.850  35.017  28.349  1.00  0.00     0.163 HD
ENDROOT
BRANCH   1   5
ATOM      5  C   UNL A   1      43.456  32.406  29.827  1.00  0.00     0.105 C 
ATOM      6  C   UNL A   1      44.069  32.798  31.170  1.00  0.00     0.023 C 
BRANCH   5   7
ATOM      7  C   UNL A   1      44.133  31.263  29.088  1.00  0.00    -0.033 A 
ATOM      8  C   UNL A   1      45.355  29.195  27.531  1.00  0.00     0.018 A 
ATOM      9  C   UNL A   1      46.081  29.921  28.486  1.00  0.00     0.012 A 
ATOM     10  C   UNL A   1      43.990  29.501  27.418  1.00  0.00     0.131 A 
ATOM     11  C   UNL A   1      45.475  30.913  29.269  1.00  0.00     0.005 A 
ATOM     12  C   UNL A   1      43.392  30.522  28.158  1.00  0.00     0.044 A 
ATOM     13  F   UNL A   1      43.201  28.810  26.578  1.00  0.00    -0.206 F 
BRANCH   8  14
ATOM     14  C   UNL A   1      46.010  28.176  26.683  1.00  0.00    -0.013 A 
ATOM     15  C   UNL A   1      47.294  26.097  26.489  1.00  0.00     0.045 A 
ATOM     16  C   UNL A   1      47.375  26.261  25.110  1.00  0.00     0.026 A 
ATOM     17  C   UNL A   1      46.607  27.042  27.259  1.00  0.00     0.035 A 
ATOM     18  C   UNL A   1      46.736  27.341  24.505  1.00  0.00     0.003 A 
ATOM     19  C   UNL A   1      46.070  28.293  25.285  1.00  0.00     0.009 A 
BRANCH  15  20
ATOM     20  N   UNL A   1      47.998  25.040  27.086  1.00  0.00    -0.291 N 
ATOM     21  C   UNL A   1      49.183  25.115  27.768  1.00  0.00     0.411 C 
ATOM     22  O   UNL A   1      49.929  24.151  27.860  1.00  0.00    -0.224 OA
ATOM     23  H   UNL A   1      47.596  24.145  27.004  1.00  0.00     0.173 HD
BRANCH  21  24
ATOM     24  O   UNL A   1      49.348  26.302  28.408  1.00  0.00    -0.449 OA
BRANCH  24  25
ATOM     25  C   UNL A   1      50.682  26.780  28.633  1.00  0.00     0.235 C 
BRANCH  25  26
ATOM     26  C   UNL A   1      50.918  28.156  27.998  1.00  0.00     0.042 C 
BRANCH  26  27
ATOM     27  C   UNL A   1      49.957  28.538  26.866  1.00  0.00     0.003 C 
BRANCH  27  28
ATOM     28  C   UNL A   1      50.441  29.680  25.962  1.00  0.00    -0.000 C 
BRANCH  28  29
ATOM     29  C   UNL A   1      50.832  30.962  26.696  1.00  0.00    -0.003 C 
ATOM     30  C   UNL A   1      52.096  31.594  26.140  1.00  0.00     0.004 C 
ENDBRANCH  28  29
ENDBRANCH  27  28
ENDBRANCH  26  27
ENDBRANCH  25  26
ENDBRANCH  24  25
ENDBRANCH  21  24
ENDBRANCH  15  20
ENDBRANCH   8  14
ENDBRANCH   5   7
ENDBRANCH   1   5
BRANCH   3  31
ATOM     31  C   UNL A   1      40.917  34.301  30.041  1.00  0.00     0.116 C 
BRANCH  31  32
ATOM     32  C   UNL A   1      39.621  34.913  29.504  1.00  0.00     0.021 C 
BRANCH  32  33
ATOM     33  C   UNL A   1      38.355  34.368  30.173  1.00  0.00     0.002 C 
BRANCH  33  34
ATOM     34  C   UNL A   1      37.505  33.436  29.299  1.00  0.00     0.002 C 
BRANCH  34  35
ATOM     35  C   UNL A   1      36.074  33.909  29.023  1.00  0.00     0.021 C 
BRANCH  35  36
ATOM     36  C   UNL A   1      34.981  33.040  29.639  1.00  0.00     0.116 C 
BRANCH  36  37
ATOM     37  N   UNL A   1      34.291  32.243  28.633  1.00  0.00    -0.352 N 
ATOM     38  C   UNL A   1      34.729  31.144  27.935  1.00  0.00     0.251 C 
ATOM     39  H   UNL A   1      33.375  32.535  28.423  1.00  0.00     0.163 HD
ATOM     40  O   UNL A   1      34.100  30.747  26.958  1.00  0.00    -0.269 OA
BRANCH  38  41
ATOM     41  C   UNL A   1      35.962  30.445  28.354  1.00  0.00     0.039 A 
ATOM     42  C   UNL A   1      37.093  30.508  27.535  1.00  0.00     0.014 A 
ATOM     43  C   UNL A   1      35.996  29.717  29.546  1.00  0.00     0.014 A 
ATOM     44  C   UNL A   1      38.283  29.900  27.949  1.00  0.00     0.010 A 
ATOM     45  C   UNL A   1      37.196  29.163  29.984  1.00  0.00     0.010 A 
ATOM     46  C   UNL A   1      38.352  29.254  29.194  1.00  0.00    -0.014 A 
BRANCH  46  47
ATOM     47  C   UNL A   1      39.629  28.706  29.716  1.00  0.00     0.031 A 
ATOM     48  C   UNL A   1      40.340  29.380  30.855  1.00  0.00     0.074 A 
ATOM     49  C   UNL A   1      40.206  27.664  29.082  1.00  0.00     0.049 A 
ATOM     50  N   UNL A   1      41.506  29.104  31.377  1.00  0.00    -0.248 NA
ATOM     51  C   UNL A   1      39.662  30.532  31.471  1.00  0.00     0.031 C 
ATOM     52  C   UNL A   1      39.647  26.969  27.921  1.00  0.00     0.029 A 
ATOM     53  N   UNL A   1      41.405  27.033  29.303  1.00  0.00    -0.354 N 
ATOM     54  C   UNL A   1      41.719  30.063  32.359  1.00  0.00     0.074 A 
ATOM     55  C   UNL A   1      40.573  30.946  32.341  1.00  0.00     0.031 C 
ATOM     56  C   UNL A   1      40.502  26.012  27.529  1.00  0.00     0.029 A 
ATOM     57  C   UNL A   1      41.682  26.046  28.386  1.00  0.00     0.049 A 
ATOM     58  H   UNL A   1      42.007  27.264  30.047  1.00  0.00     0.167 HD
ATOM     59  C   UNL A   1      42.760  30.181  33.218  1.00  0.00     0.034 A 
ATOM     60  C   UNL A   1      42.772  25.267  28.241  1.00  0.00     0.034 A 
ATOM     61  C   UNL A   1      43.879  29.278  33.258  1.00  0.00     0.049 A 
ATOM     62  C   UNL A   1      43.914  25.415  29.209  1.00  0.00     0.074 A 
ATOM     63  C   UNL A   1      44.931  29.250  34.157  1.00  0.00     0.029 A 
ATOM     64  N   UNL A   1      44.101  28.252  32.353  1.00  0.00    -0.354 N 
ATOM     65  N   UNL A   1      44.021  26.218  30.239  1.00  0.00    -0.248 NA
ATOM     66  C   UNL A   1      45.074  24.534  29.009  1.00  0.00     0.031 C 
ATOM     67  C   UNL A   1      45.802  28.222  33.779  1.00  0.00     0.029 A 
ATOM     68  C   UNL A   1      45.284  27.599  32.654  1.00  0.00     0.049 A 
ATOM     69  H   UNL A   1      43.504  28.021  31.605  1.00  0.00     0.167 HD
ATOM     70  C   UNL A   1      45.248  25.928  30.823  1.00  0.00     0.074 A 
ATOM     71  C   UNL A   1      45.836  24.855  30.047  1.00  0.00     0.031 C 
ATOM     72  C   UNL A   1      45.843  26.510  31.894  1.00  0.00     0.034 A 
BRANCH  59  73
ATOM     73  C   UNL A   1      42.708  31.300  34.224  1.00  0.00     0.023 A 
ATOM     74  C   UNL A   1      43.537  32.428  34.048  1.00  0.00     0.012 A 
ATOM     75  C   UNL A   1      41.818  31.263  35.314  1.00  0.00     0.148 A 
ATOM     76  C   UNL A   1      43.507  33.483  34.958  1.00  0.00     0.002 A 
ATOM     77  C   UNL A   1      41.765  32.338  36.197  1.00  0.00     0.091 A 
ATOM     78  F   UNL A   1      41.054  30.175  35.481  1.00  0.00    -0.205 F 
ATOM     79  C   UNL A   1      42.616  33.442  36.027  1.00  0.00     0.022 A 
BRANCH  77  80
ATOM     80  S   UNL A   1      40.599  32.408  37.562  1.00  0.00     0.127 S 
ATOM     81  O   UNL A   1      40.238  33.824  37.568  1.00  0.00    -0.237 OA
ATOM     82  O   UNL A   1      39.536  31.510  37.109  1.00  0.00    -0.237 OA
ATOM     83  O   UNL A   1      41.328  31.939  38.732  1.00  0.00    -0.744 OA
ENDBRANCH  77  80
ENDBRANCH  59  73
BRANCH  60  84
ATOM     84  C   UNL A   1      42.804  24.237  27.166  1.00  0.00     0.023 A 
ATOM     85  C   UNL A   1      43.498  24.513  25.972  1.00  0.00     0.012 A 
ATOM     86  C   UNL A   1      42.203  22.974  27.335  1.00  0.00     0.148 A 
ATOM     87  C   UNL A   1      43.577  23.558  24.958  1.00  0.00     0.002 A 
ATOM     88  C   UNL A   1      42.331  22.008  26.344  1.00  0.00     0.091 A 
ATOM     89  F   UNL A   1      41.536  22.737  28.474  1.00  0.00    -0.205 F 
ATOM     90  C   UNL A   1      43.005  22.303  25.148  1.00  0.00     0.022 A 
BRANCH  88  91
ATOM     91  S   UNL A   1      41.745  20.323  26.558  1.00  0.00     0.127 S 
ATOM     92  O   UNL A   1      42.311  19.658  25.389  1.00  0.00    -0.237 OA
ATOM     93  O   UNL A   1      42.352  19.952  27.836  1.00  0.00    -0.237 OA
ATOM     94  O   UNL A   1      40.290  20.414  26.592  1.00  0.00    -0.744 OA
ENDBRANCH  88  91
ENDBRANCH  60  84
BRANCH  72  95
ATOM     95  C   UNL A   1      47.205  26.005  32.295  1.00  0.00     0.023 A 
ATOM     96  C   UNL A   1      48.349  26.522  31.657  1.00  0.00     0.012 A 
ATOM     97  C   UNL A   1      47.357  25.085  33.351  1.00  0.00     0.148 A 
ATOM     98  C   UNL A   1      49.624  26.115  32.047  1.00  0.00     0.002 A 
ATOM     99  C   UNL A   1      48.632  24.716  33.763  1.00  0.00     0.091 A 
ATOM    100  F   UNL A   1      46.255  24.592  33.933  1.00  0.00    -0.205 F 
ATOM    101  C   UNL A   1      49.766  25.222  33.106  1.00  0.00     0.022 A 
BRANCH  99 102
ATOM    102  S   UNL A   1      48.920  23.642  35.175  1.00  0.00     0.127 S 
ATOM    103  O   UNL A   1      48.263  22.408  34.749  1.00  0.00    -0.237 OA
ATOM    104  O   UNL A   1      50.381  23.572  35.219  1.00  0.00    -0.237 OA
ATOM    105  O   UNL A   1      48.311  24.309  36.319  1.00  0.00    -0.744 OA
ENDBRANCH  99 102
ENDBRANCH  72  95
ENDBRANCH  46  47
ENDBRANCH  38  41
ENDBRANCH  36  37
ENDBRANCH  35  36
ENDBRANCH  34  35
ENDBRANCH  33  34
ENDBRANCH  32  33
ENDBRANCH  31  32
ENDBRANCH   3  31
TORSDOF 25
ENDMDL
MODEL 3
REMARK VINA RESULT:      -6.3      5.070     11.403
REMARK SMILES CCCCCCOC(=O)Nc1cccc(-c2ccc([C@@H](C)C(=O)NCCCCCCNC(=O)c3ccc(-c4c5nc(c(-c6cccc(S(=O)(=O)[O-])c6F)c6ccc([nH]6)c(-c6cccc(S(=O)(=O)[O-])c6F)c6nc(c(-c7cccc(S(=O)(=O)[O-])c7F)c7ccc4[nH]7)C=C6)C=C5)cc3)cc2F)c1
REMARK SMILES IDX 22 1 23 2 24 3 20 5 21 6 19 7 16 8 17 9 98 10 18 11 97 12
REMARK SMILES IDX 99 13 15 14 11 15 12 16 100 17 13 18 14 19 10 20 8 21 9 22
REMARK SMILES IDX 7 24 6 25 5 26 4 27 3 28 2 29 1 30 25 31 26 32 27 33 28 34
REMARK SMILES IDX 29 35 30 36 31 37 32 38 33 40 34 41 35 42 96 43 36 44 95 45
REMARK SMILES IDX 37 46 38 47 39 48 89 49 40 50 94 51 88 52 90 53 41 54 93 55
REMARK SMILES IDX 87 56 86 57 42 59 74 60 54 61 73 62 55 63 58 64 72 65 91 66
REMARK SMILES IDX 56 67 57 68 71 70 92 71 59 72 43 73 44 74 52 75 45 76 47 77
REMARK SMILES IDX 53 78 46 79 48 80 49 81 50 82 51 83 75 84 76 85 84 86 77 87
REMARK SMILES IDX 79 88 85 89 78 90 80 91 81 92 82 93 83 94 60 95 61 96 69 97
REMARK SMILES IDX 62 98 64 99 70 100 63 101 65 102 66 103 67 104 68 105
REMARK H PARENT 24 4 10 23 31 39 90 58 58 69
REMARK Flexibility Score: inf
ROOT
ATOM      1  C   UNL A   1      40.910  22.062  27.136  1.00  0.00     0.227 C 
ATOM      2  O   UNL A   1      40.541  21.401  28.115  1.00  0.00    -0.274 OA
ATOM      3  N   UNL A   1      42.031  21.628  26.498  1.00  0.00    -0.356 N 
ATOM      4  H   UNL A   1      42.389  20.777  26.841  1.00  0.00     0.163 HD
ENDROOT
BRANCH   1   5
ATOM      5  C   UNL A   1      40.103  23.293  26.695  1.00  0.00     0.105 C 
ATOM      6  C   UNL A   1      40.151  24.455  27.686  1.00  0.00     0.023 C 
BRANCH   5   7
ATOM      7  C   UNL A   1      38.734  22.952  26.129  1.00  0.00    -0.033 A 
ATOM      8  C   UNL A   1      36.172  22.465  24.949  1.00  0.00     0.018 A 
ATOM      9  C   UNL A   1      37.181  21.492  24.938  1.00  0.00     0.012 A 
ATOM     10  C   UNL A   1      36.468  23.667  25.613  1.00  0.00     0.131 A 
ATOM     11  C   UNL A   1      38.426  21.720  25.542  1.00  0.00     0.005 A 
ATOM     12  C   UNL A   1      37.722  23.919  26.171  1.00  0.00     0.044 A 
ATOM     13  F   UNL A   1      35.538  24.629  25.734  1.00  0.00    -0.206 F 
BRANCH   8  14
ATOM     14  C   UNL A   1      34.875  22.232  24.278  1.00  0.00    -0.013 A 
ATOM     15  C   UNL A   1      33.226  22.881  22.584  1.00  0.00     0.045 A 
ATOM     16  C   UNL A   1      32.355  21.897  23.038  1.00  0.00     0.026 A 
ATOM     17  C   UNL A   1      34.477  23.033  23.194  1.00  0.00     0.035 A 
ATOM     18  C   UNL A   1      32.750  21.045  24.067  1.00  0.00     0.003 A 
ATOM     19  C   UNL A   1      33.993  21.218  24.686  1.00  0.00     0.009 A 
BRANCH  15  20
ATOM     20  N   UNL A   1      32.785  23.770  21.592  1.00  0.00    -0.291 N 
ATOM     21  C   UNL A   1      32.808  25.138  21.636  1.00  0.00     0.411 C 
ATOM     22  O   UNL A   1      32.033  25.812  20.974  1.00  0.00    -0.224 OA
ATOM     23  H   UNL A   1      32.416  23.364  20.775  1.00  0.00     0.173 HD
BRANCH  21  24
ATOM     24  O   UNL A   1      33.840  25.624  22.374  1.00  0.00    -0.449 OA
BRANCH  24  25
ATOM     25  C   UNL A   1      33.761  26.972  22.860  1.00  0.00     0.235 C 
BRANCH  25  26
ATOM     26  C   UNL A   1      32.629  27.154  23.878  1.00  0.00     0.042 C 
BRANCH  26  27
ATOM     27  C   UNL A   1      32.878  26.546  25.264  1.00  0.00     0.003 C 
BRANCH  27  28
ATOM     28  C   UNL A   1      31.873  25.467  25.690  1.00  0.00    -0.000 C 
BRANCH  28  29
ATOM     29  C   UNL A   1      32.489  24.250  26.379  1.00  0.00    -0.003 C 
ATOM     30  C   UNL A   1      31.461  23.183  26.714  1.00  0.00     0.004 C 
ENDBRANCH  28  29
ENDBRANCH  27  28
ENDBRANCH  26  27
ENDBRANCH  25  26
ENDBRANCH  24  25
ENDBRANCH  21  24
ENDBRANCH  15  20
ENDBRANCH   8  14
ENDBRANCH   5   7
ENDBRANCH   1   5
BRANCH   3  31
ATOM     31  C   UNL A   1      42.789  22.197  25.403  1.00  0.00     0.116 C 
BRANCH  31  32
ATOM     32  C   UNL A   1      43.956  23.049  25.907  1.00  0.00     0.021 C 
BRANCH  32  33
ATOM     33  C   UNL A   1      44.142  24.361  25.137  1.00  0.00     0.002 C 
BRANCH  33  34
ATOM     34  C   UNL A   1      43.150  25.475  25.499  1.00  0.00     0.002 C 
BRANCH  34  35
ATOM     35  C   UNL A   1      43.481  26.863  24.941  1.00  0.00     0.021 C 
BRANCH  35  36
ATOM     36  C   UNL A   1      43.327  28.009  25.938  1.00  0.00     0.116 C 
BRANCH  36  37
ATOM     37  N   UNL A   1      41.932  28.398  26.104  1.00  0.00    -0.352 N 
ATOM     38  C   UNL A   1      41.164  28.436  27.242  1.00  0.00     0.251 C 
ATOM     39  H   UNL A   1      41.473  28.673  25.279  1.00  0.00     0.163 HD
ATOM     40  O   UNL A   1      39.945  28.561  27.155  1.00  0.00    -0.269 OA
BRANCH  38  41
ATOM     41  C   UNL A   1      41.801  28.318  28.570  1.00  0.00     0.039 A 
ATOM     42  C   UNL A   1      43.157  28.633  28.706  1.00  0.00     0.014 A 
ATOM     43  C   UNL A   1      41.065  27.885  29.675  1.00  0.00     0.014 A 
ATOM     44  C   UNL A   1      43.756  28.582  29.968  1.00  0.00     0.010 A 
ATOM     45  C   UNL A   1      41.647  27.892  30.940  1.00  0.00     0.010 A 
ATOM     46  C   UNL A   1      42.996  28.246  31.100  1.00  0.00    -0.014 A 
BRANCH  46  47
ATOM     47  C   UNL A   1      43.571  28.302  32.468  1.00  0.00     0.031 A 
ATOM     48  C   UNL A   1      44.158  27.073  33.100  1.00  0.00     0.074 A 
ATOM     49  C   UNL A   1      43.458  29.440  33.183  1.00  0.00     0.049 A 
ATOM     50  N   UNL A   1      44.616  26.908  34.313  1.00  0.00    -0.248 NA
ATOM     51  C   UNL A   1      44.215  25.861  32.265  1.00  0.00     0.031 C 
ATOM     52  C   UNL A   1      42.845  30.680  32.704  1.00  0.00     0.029 A 
ATOM     53  N   UNL A   1      43.821  29.726  34.476  1.00  0.00    -0.354 N 
ATOM     54  C   UNL A   1      44.985  25.572  34.402  1.00  0.00     0.074 A 
ATOM     55  C   UNL A   1      44.672  24.962  33.127  1.00  0.00     0.031 C 
ATOM     56  C   UNL A   1      42.870  31.592  33.689  1.00  0.00     0.029 A 
ATOM     57  C   UNL A   1      43.468  30.993  34.877  1.00  0.00     0.049 A 
ATOM     58  H   UNL A   1      44.290  29.086  35.059  1.00  0.00     0.167 HD
ATOM     59  C   UNL A   1      45.560  24.918  35.439  1.00  0.00     0.034 A 
ATOM     60  C   UNL A   1      43.597  31.600  36.073  1.00  0.00     0.034 A 
ATOM     61  C   UNL A   1      45.906  25.536  36.691  1.00  0.00     0.049 A 
ATOM     62  C   UNL A   1      44.241  30.854  37.209  1.00  0.00     0.074 A 
ATOM     63  C   UNL A   1      46.584  24.987  37.765  1.00  0.00     0.029 A 
ATOM     64  N   UNL A   1      45.588  26.839  37.045  1.00  0.00    -0.354 N 
ATOM     65  N   UNL A   1      44.738  29.642  37.222  1.00  0.00    -0.248 NA
ATOM     66  C   UNL A   1      44.362  31.567  38.490  1.00  0.00     0.031 C 
ATOM     67  C   UNL A   1      46.654  25.951  38.778  1.00  0.00     0.029 A 
ATOM     68  C   UNL A   1      46.033  27.105  38.328  1.00  0.00     0.049 A 
ATOM     69  H   UNL A   1      45.115  27.480  36.467  1.00  0.00     0.167 HD
ATOM     70  C   UNL A   1      45.249  29.451  38.500  1.00  0.00     0.074 A 
ATOM     71  C   UNL A   1      45.026  30.685  39.226  1.00  0.00     0.031 C 
ATOM     72  C   UNL A   1      45.834  28.349  39.030  1.00  0.00     0.034 A 
BRANCH  59  73
ATOM     73  C   UNL A   1      45.902  23.464  35.242  1.00  0.00     0.023 A 
ATOM     74  C   UNL A   1      44.868  22.505  35.236  1.00  0.00     0.012 A 
ATOM     75  C   UNL A   1      47.229  23.048  35.020  1.00  0.00     0.148 A 
ATOM     76  C   UNL A   1      45.151  21.153  35.050  1.00  0.00     0.002 A 
ATOM     77  C   UNL A   1      47.500  21.703  34.796  1.00  0.00     0.091 A 
ATOM     78  F   UNL A   1      48.203  23.969  35.053  1.00  0.00    -0.205 F 
ATOM     79  C   UNL A   1      46.465  20.754  34.821  1.00  0.00     0.022 A 
BRANCH  77  80
ATOM     80  S   UNL A   1      49.151  21.101  34.420  1.00  0.00     0.127 S 
ATOM     81  O   UNL A   1      49.592  22.062  33.410  1.00  0.00    -0.237 OA
ATOM     82  O   UNL A   1      49.827  21.222  35.712  1.00  0.00    -0.237 OA
ATOM     83  O   UNL A   1      48.979  19.732  33.954  1.00  0.00    -0.744 OA
ENDBRANCH  77  80
ENDBRANCH  59  73
BRANCH  60  84
ATOM     84  C   UNL A   1      43.154  33.014  36.234  1.00  0.00     0.023 A 
ATOM     85  C   UNL A   1      44.106  34.046  36.129  1.00  0.00     0.012 A 
ATOM     86  C   UNL A   1      41.800  33.345  36.436  1.00  0.00     0.148 A 
ATOM     87  C   UNL A   1      43.720  35.383  36.241  1.00  0.00     0.002 A 
ATOM     88  C   UNL A   1      41.414  34.679  36.492  1.00  0.00     0.091 A 
ATOM     89  F   UNL A   1      40.912  32.345  36.546  1.00  0.00    -0.205 F 
ATOM     90  C   UNL A   1      42.374  35.699  36.410  1.00  0.00     0.022 A 
BRANCH  88  91
ATOM     91  S   UNL A   1      39.691  35.182  36.572  1.00  0.00     0.127 S 
ATOM     92  O   UNL A   1      39.035  34.130  35.800  1.00  0.00    -0.237 OA
ATOM     93  O   UNL A   1      39.432  35.145  38.011  1.00  0.00    -0.237 OA
ATOM     94  O   UNL A   1      39.643  36.517  35.990  1.00  0.00    -0.744 OA
ENDBRANCH  88  91
ENDBRANCH  60  84
BRANCH  72  95
ATOM     95  C   UNL A   1      46.275  28.417  40.469  1.00  0.00     0.023 A 
ATOM     96  C   UNL A   1      45.384  28.020  41.484  1.00  0.00     0.012 A 
ATOM     97  C   UNL A   1      47.589  28.794  40.809  1.00  0.00     0.148 A 
ATOM     98  C   UNL A   1      45.784  28.019  42.819  1.00  0.00     0.002 A 
ATOM     99  C   UNL A   1      47.995  28.749  42.138  1.00  0.00     0.091 A 
ATOM    100  F   UNL A   1      48.416  29.186  39.829  1.00  0.00    -0.205 F 
ATOM    101  C   UNL A   1      47.091  28.372  43.145  1.00  0.00     0.022 A 
BRANCH  99 102
ATOM    102  S   UNL A   1      49.682  29.100  42.647  1.00  0.00     0.127 S 
ATOM    103  O   UNL A   1      50.437  28.113  41.876  1.00  0.00    -0.237 OA
ATOM    104  O   UNL A   1      49.858  30.484  42.206  1.00  0.00    -0.237 OA
ATOM    105  O   UNL A   1      49.713  28.917  44.092  1.00  0.00    -0.744 OA
ENDBRANCH  99 102
ENDBRANCH  72  95
ENDBRANCH  46  47
ENDBRANCH  38  41
ENDBRANCH  36  37
ENDBRANCH  35  36
ENDBRANCH  34  35
ENDBRANCH  33  34
ENDBRANCH  32  33
ENDBRANCH  31  32
ENDBRANCH   3  31
TORSDOF 25
ENDMDL
