MODEL 1
REMARK VINA RESULT:     -13.3      0.000      0.000
REMARK SMILES Cc1ccccc1C(=O)Nc1ccc(N2CCCCC2)cc1C(=O)NCCCCCCNC(=O)c1ccc(-c2c3nc(c(-c4cccc(S(=O)(=O)[O-])c4F)c4ccc([nH]4)c(-c4cccc(S(=O)(=O)[O-])c4F)c4nc(c(-c5cccc(S(=O)(=O)[O-])c5F)c5ccc2[nH]5)C=C4)C=C3)cc1
REMARK SMILES IDX 29 1 28 2 27 3 26 4 25 5 23 6 24 7 22 9 11 10 12 11 13 12
REMARK SMILES IDX 21 13 14 14 10 15 8 16 9 17 7 19 1 20 2 21 3 22 4 23 6 24
REMARK SMILES IDX 5 25 15 26 16 27 20 28 17 29 19 30 18 31 30 32 31 33 32 34
REMARK SMILES IDX 33 35 34 37 35 38 36 39 97 40 37 41 96 42 38 43 39 44 40 45
REMARK SMILES IDX 90 46 41 47 95 48 89 49 91 50 42 51 94 52 88 53 87 54 43 56
REMARK SMILES IDX 75 57 55 58 74 59 56 60 59 61 73 62 92 63 57 64 58 65 72 67
REMARK SMILES IDX 93 68 60 69 44 70 45 71 53 72 46 73 48 74 54 75 47 76 49 77
REMARK SMILES IDX 50 78 51 79 52 80 76 81 77 82 85 83 78 84 80 85 86 86 79 87
REMARK SMILES IDX 81 88 82 89 83 90 84 91 61 92 62 93 70 94 63 95 65 96 71 97
REMARK SMILES IDX 64 98 66 99 67 100 68 101 69 102
REMARK H PARENT 25 8 10 18 32 36 91 55 59 66
REMARK Flexibility Score: inf
ROOT
ATOM      1  C   UNL A   1      36.616  22.579  23.814  1.00  0.00     0.002 C 
ENDROOT
BRANCH   1   2
ATOM      2  C   UNL A   1      35.475  23.575  23.583  1.00  0.00     0.002 C 
BRANCH   2   3
ATOM      3  C   UNL A   1      35.066  24.472  24.751  1.00  0.00     0.021 C 
BRANCH   3   4
ATOM      4  C   UNL A   1      34.104  25.619  24.467  1.00  0.00     0.116 C 
BRANCH   4   5
ATOM      5  N   UNL A   1      33.941  26.591  25.531  1.00  0.00    -0.352 N 
ATOM      6  C   UNL A   1      32.790  27.175  26.019  1.00  0.00     0.253 C 
ATOM      7  O   UNL A   1      32.859  27.892  27.016  1.00  0.00    -0.269 OA
ATOM      8  H   UNL A   1      34.774  26.876  25.970  1.00  0.00     0.163 HD
BRANCH   6   9
ATOM      9  C   UNL A   1      31.475  26.957  25.358  1.00  0.00     0.065 A 
ATOM     10  C   UNL A   1      30.679  25.836  25.646  1.00  0.00     0.054 A 
ATOM     11  C   UNL A   1      29.508  25.622  24.908  1.00  0.00     0.029 A 
ATOM     12  C   UNL A   1      29.027  26.611  24.055  1.00  0.00     0.028 A 
ATOM     13  C   UNL A   1      31.043  27.857  24.365  1.00  0.00     0.042 A 
ATOM     14  C   UNL A   1      29.762  27.771  23.812  1.00  0.00     0.038 A 
BRANCH  10  15
ATOM     15  N   UNL A   1      30.869  24.900  26.673  1.00  0.00    -0.321 N 
ATOM     16  C   UNL A   1      31.259  23.583  26.679  1.00  0.00     0.255 C 
ATOM     17  O   UNL A   1      31.231  23.000  27.768  1.00  0.00    -0.269 OA
ATOM     18  H   UNL A   1      30.685  25.260  27.571  1.00  0.00     0.170 HD
BRANCH  16  19
ATOM     19  C   UNL A   1      31.823  22.846  25.509  1.00  0.00     0.043 A 
ATOM     20  C   UNL A   1      33.446  21.266  26.768  1.00  0.00     0.045 C 
ATOM     21  C   UNL A   1      32.780  21.810  25.539  1.00  0.00    -0.038 A 
ATOM     22  C   UNL A   1      33.143  21.188  24.324  1.00  0.00     0.004 A 
ATOM     23  C   UNL A   1      32.513  21.510  23.123  1.00  0.00     0.000 A 
ATOM     24  C   UNL A   1      31.183  23.138  24.286  1.00  0.00     0.014 A 
ATOM     25  C   UNL A   1      31.514  22.471  23.108  1.00  0.00     0.001 A 
ENDBRANCH  16  19
ENDBRANCH  10  15
BRANCH  14  26
ATOM     26  N   UNL A   1      29.170  28.809  23.107  1.00  0.00    -0.372 N 
ATOM     27  C   UNL A   1      29.909  29.255  21.912  1.00  0.00     0.116 C 
ATOM     28  C   UNL A   1      27.717  28.906  22.994  1.00  0.00     0.116 C 
ATOM     29  C   UNL A   1      29.580  30.717  21.626  1.00  0.00     0.021 C 
ATOM     30  C   UNL A   1      27.359  30.377  22.787  1.00  0.00     0.021 C 
ATOM     31  C   UNL A   1      28.072  30.962  21.568  1.00  0.00     0.004 C 
ENDBRANCH  14  26
ENDBRANCH   6   9
ENDBRANCH   4   5
ENDBRANCH   3   4
ENDBRANCH   2   3
ENDBRANCH   1   2
BRANCH   1  32
ATOM     32  C   UNL A   1      37.789  23.058  24.660  1.00  0.00     0.021 C 
BRANCH  32  33
ATOM     33  C   UNL A   1      38.054  22.254  25.924  1.00  0.00     0.116 C 
BRANCH  33  34
ATOM     34  N   UNL A   1      39.467  22.192  26.269  1.00  0.00    -0.352 N 
ATOM     35  C   UNL A   1      40.373  23.224  26.447  1.00  0.00     0.251 C 
ATOM     36  H   UNL A   1      39.830  21.286  26.395  1.00  0.00     0.163 HD
ATOM     37  O   UNL A   1      41.579  22.981  26.481  1.00  0.00    -0.269 OA
BRANCH  35  38
ATOM     38  C   UNL A   1      39.859  24.577  26.763  1.00  0.00     0.039 A 
ATOM     39  C   UNL A   1      40.483  25.646  26.109  1.00  0.00     0.014 A 
ATOM     40  C   UNL A   1      39.105  24.793  27.908  1.00  0.00     0.014 A 
ATOM     41  C   UNL A   1      40.619  26.861  26.767  1.00  0.00     0.010 A 
ATOM     42  C   UNL A   1      39.330  25.952  28.613  1.00  0.00     0.010 A 
ATOM     43  C   UNL A   1      40.151  26.948  28.070  1.00  0.00    -0.014 A 
BRANCH  43  44
ATOM     44  C   UNL A   1      40.400  28.058  28.965  1.00  0.00     0.031 A 
ATOM     45  C   UNL A   1      39.505  29.225  28.885  1.00  0.00     0.074 A 
ATOM     46  C   UNL A   1      41.256  27.883  29.996  1.00  0.00     0.049 A 
ATOM     47  N   UNL A   1      39.697  30.323  29.525  1.00  0.00    -0.248 NA
ATOM     48  C   UNL A   1      38.331  29.258  28.013  1.00  0.00     0.031 C 
ATOM     49  C   UNL A   1      41.266  28.614  31.257  1.00  0.00     0.029 A 
ATOM     50  N   UNL A   1      42.432  27.122  30.030  1.00  0.00    -0.354 N 
ATOM     51  C   UNL A   1      38.548  31.071  29.398  1.00  0.00     0.074 A 
ATOM     52  C   UNL A   1      37.802  30.439  28.342  1.00  0.00     0.031 C 
ATOM     53  C   UNL A   1      42.477  28.490  31.820  1.00  0.00     0.029 A 
ATOM     54  C   UNL A   1      43.332  27.831  30.848  1.00  0.00     0.049 A 
ATOM     55  H   UNL A   1      42.597  26.265  29.576  1.00  0.00     0.167 HD
ATOM     56  C   UNL A   1      38.310  32.043  30.317  1.00  0.00     0.034 A 
ATOM     57  C   UNL A   1      44.536  28.314  30.424  1.00  0.00     0.034 A 
ATOM     58  C   UNL A   1      39.515  32.290  31.120  1.00  0.00     0.049 A 
ATOM     59  C   UNL A   1      44.641  29.825  30.535  1.00  0.00     0.074 A 
ATOM     60  C   UNL A   1      39.901  31.911  32.393  1.00  0.00     0.029 A 
ATOM     61  N   UNL A   1      40.658  32.779  30.491  1.00  0.00    -0.354 N 
ATOM     62  N   UNL A   1      43.640  30.608  30.834  1.00  0.00    -0.248 NA
ATOM     63  C   UNL A   1      45.872  30.578  30.305  1.00  0.00     0.031 C 
ATOM     64  C   UNL A   1      41.314  32.059  32.479  1.00  0.00     0.029 A 
ATOM     65  C   UNL A   1      41.779  32.579  31.281  1.00  0.00     0.049 A 
ATOM     66  H   UNL A   1      40.668  33.210  29.605  1.00  0.00     0.167 HD
ATOM     67  C   UNL A   1      44.017  31.921  30.721  1.00  0.00     0.074 A 
ATOM     68  C   UNL A   1      45.445  31.844  30.461  1.00  0.00     0.031 C 
ATOM     69  C   UNL A   1      43.108  32.946  30.793  1.00  0.00     0.034 A 
BRANCH  56  70
ATOM     70  C   UNL A   1      36.956  32.648  30.657  1.00  0.00     0.023 A 
ATOM     71  C   UNL A   1      36.488  32.452  31.977  1.00  0.00     0.012 A 
ATOM     72  C   UNL A   1      36.049  33.285  29.771  1.00  0.00     0.148 A 
ATOM     73  C   UNL A   1      35.205  32.835  32.387  1.00  0.00     0.002 A 
ATOM     74  C   UNL A   1      34.789  33.719  30.195  1.00  0.00     0.091 A 
ATOM     75  F   UNL A   1      36.343  33.408  28.477  1.00  0.00    -0.205 F 
ATOM     76  C   UNL A   1      34.356  33.479  31.500  1.00  0.00     0.022 A 
BRANCH  74  77
ATOM     77  S   UNL A   1      33.648  34.593  29.103  1.00  0.00     0.127 S 
ATOM     78  O   UNL A   1      32.567  34.958  30.017  1.00  0.00    -0.237 OA
ATOM     79  O   UNL A   1      34.459  35.720  28.639  1.00  0.00    -0.237 OA
ATOM     80  O   UNL A   1      33.280  33.649  28.055  1.00  0.00    -0.744 OA
ENDBRANCH  74  77
ENDBRANCH  56  70
BRANCH  57  81
ATOM     81  C   UNL A   1      45.211  27.455  29.413  1.00  0.00     0.023 A 
ATOM     82  C   UNL A   1      45.470  26.118  29.797  1.00  0.00     0.012 A 
ATOM     83  C   UNL A   1      45.182  27.779  28.045  1.00  0.00     0.148 A 
ATOM     84  C   UNL A   1      45.564  25.103  28.843  1.00  0.00     0.002 A 
ATOM     85  C   UNL A   1      45.253  26.756  27.100  1.00  0.00     0.091 A 
ATOM     86  F   UNL A   1      44.963  29.054  27.698  1.00  0.00    -0.205 F 
ATOM     87  C   UNL A   1      45.415  25.419  27.499  1.00  0.00     0.022 A 
BRANCH  85  88
ATOM     88  S   UNL A   1      44.949  27.031  25.350  1.00  0.00     0.127 S 
ATOM     89  O   UNL A   1      45.338  25.747  24.775  1.00  0.00    -0.237 OA
ATOM     90  O   UNL A   1      43.513  27.299  25.339  1.00  0.00    -0.237 OA
ATOM     91  O   UNL A   1      45.780  28.170  24.987  1.00  0.00    -0.744 OA
ENDBRANCH  85  88
ENDBRANCH  57  81
BRANCH  69  92
ATOM     92  C   UNL A   1      43.386  34.391  30.404  1.00  0.00     0.023 A 
ATOM     93  C   UNL A   1      43.889  35.337  31.318  1.00  0.00     0.012 A 
ATOM     94  C   UNL A   1      43.291  34.815  29.051  1.00  0.00     0.148 A 
ATOM     95  C   UNL A   1      44.212  36.645  30.938  1.00  0.00     0.002 A 
ATOM     96  C   UNL A   1      43.728  36.078  28.656  1.00  0.00     0.091 A 
ATOM     97  F   UNL A   1      42.759  34.001  28.129  1.00  0.00    -0.205 F 
ATOM     98  C   UNL A   1      44.153  37.011  29.602  1.00  0.00     0.022 A 
BRANCH  96  99
ATOM     99  S   UNL A   1      43.916  36.487  26.914  1.00  0.00     0.127 S 
ATOM    100  O   UNL A   1      44.996  37.470  26.944  1.00  0.00    -0.237 OA
ATOM    101  O   UNL A   1      44.281  35.197  26.324  1.00  0.00    -0.237 OA
ATOM    102  O   UNL A   1      42.606  36.978  26.503  1.00  0.00    -0.744 OA
ENDBRANCH  96  99
ENDBRANCH  69  92
ENDBRANCH  43  44
ENDBRANCH  35  38
ENDBRANCH  33  34
ENDBRANCH  32  33
ENDBRANCH   1  32
TORSDOF 19
ENDMDL
MODEL 2
REMARK VINA RESULT:     -13.0      3.525      9.604
REMARK SMILES Cc1ccccc1C(=O)Nc1ccc(N2CCCCC2)cc1C(=O)NCCCCCCNC(=O)c1ccc(-c2c3nc(c(-c4cccc(S(=O)(=O)[O-])c4F)c4ccc([nH]4)c(-c4cccc(S(=O)(=O)[O-])c4F)c4nc(c(-c5cccc(S(=O)(=O)[O-])c5F)c5ccc2[nH]5)C=C4)C=C3)cc1
REMARK SMILES IDX 29 1 28 2 27 3 26 4 25 5 23 6 24 7 22 9 11 10 12 11 13 12
REMARK SMILES IDX 21 13 14 14 10 15 8 16 9 17 7 19 1 20 2 21 3 22 4 23 6 24
REMARK SMILES IDX 5 25 15 26 16 27 20 28 17 29 19 30 18 31 30 32 31 33 32 34
REMARK SMILES IDX 33 35 34 37 35 38 36 39 97 40 37 41 96 42 38 43 39 44 40 45
REMARK SMILES IDX 90 46 41 47 95 48 89 49 91 50 42 51 94 52 88 53 87 54 43 56
REMARK SMILES IDX 75 57 55 58 74 59 56 60 59 61 73 62 92 63 57 64 58 65 72 67
REMARK SMILES IDX 93 68 60 69 44 70 45 71 53 72 46 73 48 74 54 75 47 76 49 77
REMARK SMILES IDX 50 78 51 79 52 80 76 81 77 82 85 83 78 84 80 85 86 86 79 87
REMARK SMILES IDX 81 88 82 89 83 90 84 91 61 92 62 93 70 94 63 95 65 96 71 97
REMARK SMILES IDX 64 98 66 99 67 100 68 101 69 102
REMARK H PARENT 25 8 10 18 32 36 91 55 59 66
REMARK Flexibility Score: inf
ROOT
ATOM      1  C   UNL A   1      33.779  29.981  27.117  1.00  0.00     0.002 C 
ENDROOT
BRANCH   1   2
ATOM      2  C   UNL A   1      34.128  28.820  26.181  1.00  0.00     0.002 C 
BRANCH   2   3
ATOM      3  C   UNL A   1      33.198  27.607  26.174  1.00  0.00     0.021 C 
BRANCH   3   4
ATOM      4  C   UNL A   1      33.775  26.268  25.734  1.00  0.00     0.116 C 
BRANCH   4   5
ATOM      5  N   UNL A   1      33.872  26.056  24.302  1.00  0.00    -0.352 N 
ATOM      6  C   UNL A   1      34.290  24.943  23.604  1.00  0.00     0.253 C 
ATOM      7  O   UNL A   1      34.182  24.928  22.379  1.00  0.00    -0.269 OA
ATOM      8  H   UNL A   1      33.599  26.821  23.745  1.00  0.00     0.163 HD
BRANCH   6   9
ATOM      9  C   UNL A   1      34.873  23.767  24.306  1.00  0.00     0.065 A 
ATOM     10  C   UNL A   1      34.297  22.489  24.212  1.00  0.00     0.054 A 
ATOM     11  C   UNL A   1      34.819  21.446  24.989  1.00  0.00     0.029 A 
ATOM     12  C   UNL A   1      36.017  21.616  25.675  1.00  0.00     0.028 A 
ATOM     13  C   UNL A   1      35.990  23.947  25.145  1.00  0.00     0.042 A 
ATOM     14  C   UNL A   1      36.652  22.857  25.719  1.00  0.00     0.038 A 
BRANCH  10  15
ATOM     15  N   UNL A   1      33.270  22.080  23.350  1.00  0.00    -0.321 N 
ATOM     16  C   UNL A   1      31.925  22.350  23.301  1.00  0.00     0.255 C 
ATOM     17  O   UNL A   1      31.265  21.739  22.453  1.00  0.00    -0.269 OA
ATOM     18  H   UNL A   1      33.576  21.479  22.632  1.00  0.00     0.170 HD
BRANCH  16  19
ATOM     19  C   UNL A   1      31.227  23.400  24.102  1.00  0.00     0.043 A 
ATOM     20  C   UNL A   1      31.690  22.473  26.477  1.00  0.00     0.045 C 
ATOM     21  C   UNL A   1      31.130  23.472  25.508  1.00  0.00    -0.038 A 
ATOM     22  C   UNL A   1      30.480  24.584  26.086  1.00  0.00     0.004 A 
ATOM     23  C   UNL A   1      30.022  25.646  25.309  1.00  0.00     0.000 A 
ATOM     24  C   UNL A   1      30.777  24.497  23.337  1.00  0.00     0.014 A 
ATOM     25  C   UNL A   1      30.191  25.614  23.933  1.00  0.00     0.001 A 
ENDBRANCH  16  19
ENDBRANCH  10  15
BRANCH  14  26
ATOM     26  N   UNL A   1      37.930  22.943  26.252  1.00  0.00    -0.372 N 
ATOM     27  C   UNL A   1      38.866  21.896  25.803  1.00  0.00     0.116 C 
ATOM     28  C   UNL A   1      38.548  24.240  26.512  1.00  0.00     0.116 C 
ATOM     29  C   UNL A   1      39.933  21.676  26.871  1.00  0.00     0.021 C 
ATOM     30  C   UNL A   1      39.567  24.059  27.637  1.00  0.00     0.021 C 
ATOM     31  C   UNL A   1      40.600  22.986  27.290  1.00  0.00     0.004 C 
ENDBRANCH  14  26
ENDBRANCH   6   9
ENDBRANCH   4   5
ENDBRANCH   3   4
ENDBRANCH   2   3
ENDBRANCH   1   2
BRANCH   1  32
ATOM     32  C   UNL A   1      34.829  30.373  28.150  1.00  0.00     0.021 C 
BRANCH  32  33
ATOM     33  C   UNL A   1      35.745  31.520  27.748  1.00  0.00     0.116 C 
BRANCH  33  34
ATOM     34  N   UNL A   1      35.112  32.823  27.887  1.00  0.00    -0.352 N 
ATOM     35  C   UNL A   1      35.243  33.759  28.899  1.00  0.00     0.251 C 
ATOM     36  H   UNL A   1      34.504  33.076  27.156  1.00  0.00     0.163 HD
ATOM     37  O   UNL A   1      34.439  34.688  28.981  1.00  0.00    -0.269 OA
BRANCH  35  38
ATOM     38  C   UNL A   1      36.447  33.715  29.759  1.00  0.00     0.039 A 
ATOM     39  C   UNL A   1      37.633  34.195  29.191  1.00  0.00     0.014 A 
ATOM     40  C   UNL A   1      36.482  32.897  30.880  1.00  0.00     0.014 A 
ATOM     41  C   UNL A   1      38.843  33.607  29.540  1.00  0.00     0.010 A 
ATOM     42  C   UNL A   1      37.655  32.232  31.151  1.00  0.00     0.010 A 
ATOM     43  C   UNL A   1      38.812  32.538  30.424  1.00  0.00    -0.014 A 
BRANCH  43  44
ATOM     44  C   UNL A   1      39.940  31.683  30.725  1.00  0.00     0.031 A 
ATOM     45  C   UNL A   1      40.014  30.373  30.056  1.00  0.00     0.074 A 
ATOM     46  C   UNL A   1      40.995  32.210  31.386  1.00  0.00     0.049 A 
ATOM     47  N   UNL A   1      40.887  29.473  30.335  1.00  0.00    -0.248 NA
ATOM     48  C   UNL A   1      39.050  29.954  29.039  1.00  0.00     0.031 C 
ATOM     49  C   UNL A   1      42.376  31.743  31.340  1.00  0.00     0.029 A 
ATOM     50  N   UNL A   1      40.992  33.174  32.403  1.00  0.00    -0.354 N 
ATOM     51  C   UNL A   1      40.801  28.509  29.356  1.00  0.00     0.074 A 
ATOM     52  C   UNL A   1      39.563  28.777  28.672  1.00  0.00     0.031 C 
ATOM     53  C   UNL A   1      43.023  32.200  32.422  1.00  0.00     0.029 A 
ATOM     54  C   UNL A   1      42.030  32.815  33.284  1.00  0.00     0.049 A 
ATOM     55  H   UNL A   1      40.387  33.945  32.485  1.00  0.00     0.167 HD
ATOM     56  C   UNL A   1      41.873  27.699  29.156  1.00  0.00     0.034 A 
ATOM     57  C   UNL A   1      41.846  32.501  34.599  1.00  0.00     0.034 A 
ATOM     58  C   UNL A   1      42.832  27.841  30.260  1.00  0.00     0.049 A 
ATOM     59  C   UNL A   1      42.282  31.085  34.937  1.00  0.00     0.074 A 
ATOM     60  C   UNL A   1      44.029  28.520  30.394  1.00  0.00     0.029 A 
ATOM     61  N   UNL A   1      42.442  27.470  31.545  1.00  0.00    -0.354 N 
ATOM     62  N   UNL A   1      42.632  30.196  34.047  1.00  0.00    -0.248 NA
ATOM     63  C   UNL A   1      42.345  30.552  36.295  1.00  0.00     0.031 C 
ATOM     64  C   UNL A   1      44.292  28.663  31.785  1.00  0.00     0.029 A 
ATOM     65  C   UNL A   1      43.285  28.025  32.495  1.00  0.00     0.049 A 
ATOM     66  H   UNL A   1      41.673  26.891  31.751  1.00  0.00     0.167 HD
ATOM     67  C   UNL A   1      42.837  28.982  34.649  1.00  0.00     0.074 A 
ATOM     68  C   UNL A   1      42.718  29.279  36.066  1.00  0.00     0.031 C 
ATOM     69  C   UNL A   1      43.027  27.834  33.922  1.00  0.00     0.034 A 
BRANCH  56  70
ATOM     70  C   UNL A   1      42.189  26.922  27.886  1.00  0.00     0.023 A 
ATOM     71  C   UNL A   1      41.374  27.188  26.761  1.00  0.00     0.012 A 
ATOM     72  C   UNL A   1      43.129  25.871  27.730  1.00  0.00     0.148 A 
ATOM     73  C   UNL A   1      41.465  26.452  25.574  1.00  0.00     0.002 A 
ATOM     74  C   UNL A   1      43.259  25.173  26.524  1.00  0.00     0.091 A 
ATOM     75  F   UNL A   1      43.860  25.459  28.766  1.00  0.00    -0.205 F 
ATOM     76  C   UNL A   1      42.415  25.450  25.449  1.00  0.00     0.022 A 
BRANCH  74  77
ATOM     77  S   UNL A   1      44.496  23.881  26.283  1.00  0.00     0.127 S 
ATOM     78  O   UNL A   1      44.175  22.944  27.359  1.00  0.00    -0.237 OA
ATOM     79  O   UNL A   1      44.183  23.395  24.938  1.00  0.00    -0.237 OA
ATOM     80  O   UNL A   1      45.795  24.532  26.397  1.00  0.00    -0.744 OA
ENDBRANCH  74  77
ENDBRANCH  56  70
BRANCH  57  81
ATOM     81  C   UNL A   1      40.753  33.268  35.258  1.00  0.00     0.023 A 
ATOM     82  C   UNL A   1      41.041  34.612  35.587  1.00  0.00     0.012 A 
ATOM     83  C   UNL A   1      39.411  32.863  35.150  1.00  0.00     0.148 A 
ATOM     84  C   UNL A   1      40.022  35.563  35.675  1.00  0.00     0.002 A 
ATOM     85  C   UNL A   1      38.402  33.823  35.215  1.00  0.00     0.091 A 
ATOM     86  F   UNL A   1      39.155  31.580  34.863  1.00  0.00    -0.205 F 
ATOM     87  C   UNL A   1      38.709  35.174  35.449  1.00  0.00     0.022 A 
BRANCH  85  88
ATOM     88  S   UNL A   1      36.688  33.456  34.816  1.00  0.00     0.127 S 
ATOM     89  O   UNL A   1      36.779  32.070  34.364  1.00  0.00    -0.237 OA
ATOM     90  O   UNL A   1      36.038  33.638  36.111  1.00  0.00    -0.237 OA
ATOM     91  O   UNL A   1      36.308  34.432  33.805  1.00  0.00    -0.744 OA
ENDBRANCH  85  88
ENDBRANCH  57  81
BRANCH  69  92
ATOM     92  C   UNL A   1      42.982  26.422  34.488  1.00  0.00     0.023 A 
ATOM     93  C   UNL A   1      41.856  25.914  35.165  1.00  0.00     0.012 A 
ATOM     94  C   UNL A   1      44.026  25.495  34.222  1.00  0.00     0.148 A 
ATOM     95  C   UNL A   1      41.792  24.591  35.619  1.00  0.00     0.002 A 
ATOM     96  C   UNL A   1      43.905  24.150  34.570  1.00  0.00     0.091 A 
ATOM     97  F   UNL A   1      45.161  25.911  33.644  1.00  0.00    -0.205 F 
ATOM     98  C   UNL A   1      42.807  23.702  35.302  1.00  0.00     0.022 A 
BRANCH  96  99
ATOM     99  S   UNL A   1      45.068  22.928  33.944  1.00  0.00     0.127 S 
ATOM    100  O   UNL A   1      44.596  21.702  34.582  1.00  0.00    -0.237 OA
ATOM    101  O   UNL A   1      44.843  22.988  32.498  1.00  0.00    -0.237 OA
ATOM    102  O   UNL A   1      46.378  23.412  34.361  1.00  0.00    -0.744 OA
ENDBRANCH  96  99
ENDBRANCH  69  92
ENDBRANCH  43  44
ENDBRANCH  35  38
ENDBRANCH  33  34
ENDBRANCH  32  33
ENDBRANCH   1  32
TORSDOF 19
ENDMDL
MODEL 3
REMARK VINA RESULT:     -12.7      3.993      8.882
REMARK SMILES Cc1ccccc1C(=O)Nc1ccc(N2CCCCC2)cc1C(=O)NCCCCCCNC(=O)c1ccc(-c2c3nc(c(-c4cccc(S(=O)(=O)[O-])c4F)c4ccc([nH]4)c(-c4cccc(S(=O)(=O)[O-])c4F)c4nc(c(-c5cccc(S(=O)(=O)[O-])c5F)c5ccc2[nH]5)C=C4)C=C3)cc1
REMARK SMILES IDX 29 1 28 2 27 3 26 4 25 5 23 6 24 7 22 9 11 10 12 11 13 12
REMARK SMILES IDX 21 13 14 14 10 15 8 16 9 17 7 19 1 20 2 21 3 22 4 23 6 24
REMARK SMILES IDX 5 25 15 26 16 27 20 28 17 29 19 30 18 31 30 32 31 33 32 34
REMARK SMILES IDX 33 35 34 37 35 38 36 39 97 40 37 41 96 42 38 43 39 44 40 45
REMARK SMILES IDX 90 46 41 47 95 48 89 49 91 50 42 51 94 52 88 53 87 54 43 56
REMARK SMILES IDX 75 57 55 58 74 59 56 60 59 61 73 62 92 63 57 64 58 65 72 67
REMARK SMILES IDX 93 68 60 69 44 70 45 71 53 72 46 73 48 74 54 75 47 76 49 77
REMARK SMILES IDX 50 78 51 79 52 80 76 81 77 82 85 83 78 84 80 85 86 86 79 87
REMARK SMILES IDX 81 88 82 89 83 90 84 91 61 92 62 93 70 94 63 95 65 96 71 97
REMARK SMILES IDX 64 98 66 99 67 100 68 101 69 102
REMARK H PARENT 25 8 10 18 32 36 91 55 59 66
REMARK Flexibility Score: inf
ROOT
ATOM      1  C   UNL A   1      35.707  31.425  27.859  1.00  0.00     0.002 C 
ENDROOT
BRANCH   1   2
ATOM      2  C   UNL A   1      35.255  29.976  27.650  1.00  0.00     0.002 C 
BRANCH   2   3
ATOM      3  C   UNL A   1      33.816  29.739  27.192  1.00  0.00     0.021 C 
BRANCH   3   4
ATOM      4  C   UNL A   1      33.285  28.312  27.219  1.00  0.00     0.116 C 
BRANCH   4   5
ATOM      5  N   UNL A   1      33.973  27.360  26.367  1.00  0.00    -0.352 N 
ATOM      6  C   UNL A   1      33.472  26.548  25.371  1.00  0.00     0.253 C 
ATOM      7  O   UNL A   1      34.253  25.895  24.681  1.00  0.00    -0.269 OA
ATOM      8  H   UNL A   1      34.942  27.282  26.523  1.00  0.00     0.163 HD
BRANCH   6   9
ATOM      9  C   UNL A   1      32.008  26.446  25.125  1.00  0.00     0.065 A 
ATOM     10  C   UNL A   1      31.208  25.509  25.799  1.00  0.00     0.054 A 
ATOM     11  C   UNL A   1      29.860  25.379  25.441  1.00  0.00     0.029 A 
ATOM     12  C   UNL A   1      29.269  26.305  24.587  1.00  0.00     0.028 A 
ATOM     13  C   UNL A   1      31.415  27.259  24.140  1.00  0.00     0.042 A 
ATOM     14  C   UNL A   1      30.029  27.295  23.964  1.00  0.00     0.038 A 
BRANCH  10  15
ATOM     15  N   UNL A   1      31.575  24.703  26.885  1.00  0.00    -0.321 N 
ATOM     16  C   UNL A   1      32.140  23.454  26.976  1.00  0.00     0.255 C 
ATOM     17  O   UNL A   1      32.248  22.973  28.110  1.00  0.00    -0.269 OA
ATOM     18  H   UNL A   1      31.392  25.115  27.761  1.00  0.00     0.170 HD
BRANCH  16  19
ATOM     19  C   UNL A   1      32.738  22.694  25.837  1.00  0.00     0.043 A 
ATOM     20  C   UNL A   1      35.246  23.059  26.378  1.00  0.00     0.045 C 
ATOM     21  C   UNL A   1      34.110  22.501  25.572  1.00  0.00    -0.038 A 
ATOM     22  C   UNL A   1      34.480  21.692  24.476  1.00  0.00     0.004 A 
ATOM     23  C   UNL A   1      33.529  21.012  23.717  1.00  0.00     0.000 A 
ATOM     24  C   UNL A   1      31.794  21.978  25.071  1.00  0.00     0.014 A 
ATOM     25  C   UNL A   1      32.184  21.136  24.029  1.00  0.00     0.001 A 
ENDBRANCH  16  19
ENDBRANCH  10  15
BRANCH  14  26
ATOM     26  N   UNL A   1      29.379  28.307  23.271  1.00  0.00    -0.372 N 
ATOM     27  C   UNL A   1      30.120  28.850  22.117  1.00  0.00     0.116 C 
ATOM     28  C   UNL A   1      27.928  28.294  23.110  1.00  0.00     0.116 C 
ATOM     29  C   UNL A   1      29.685  30.290  21.865  1.00  0.00     0.021 C 
ATOM     30  C   UNL A   1      27.461  29.739  22.936  1.00  0.00     0.021 C 
ATOM     31  C   UNL A   1      28.165  30.418  21.761  1.00  0.00     0.004 C 
ENDBRANCH  14  26
ENDBRANCH   6   9
ENDBRANCH   4   5
ENDBRANCH   3   4
ENDBRANCH   2   3
ENDBRANCH   1   2
BRANCH   1  32
ATOM     32  C   UNL A   1      34.740  32.352  28.586  1.00  0.00     0.021 C 
BRANCH  32  33
ATOM     33  C   UNL A   1      34.767  32.264  30.104  1.00  0.00     0.116 C 
BRANCH  33  34
ATOM     34  N   UNL A   1      34.054  33.359  30.746  1.00  0.00    -0.352 N 
ATOM     35  C   UNL A   1      34.286  33.958  31.973  1.00  0.00     0.251 C 
ATOM     36  H   UNL A   1      33.297  33.727  30.235  1.00  0.00     0.163 HD
ATOM     37  O   UNL A   1      33.431  34.691  32.468  1.00  0.00    -0.269 OA
BRANCH  35  38
ATOM     38  C   UNL A   1      35.631  33.837  32.582  1.00  0.00     0.039 A 
ATOM     39  C   UNL A   1      36.674  34.493  31.918  1.00  0.00     0.014 A 
ATOM     40  C   UNL A   1      35.900  32.829  33.498  1.00  0.00     0.014 A 
ATOM     41  C   UNL A   1      37.946  33.933  31.926  1.00  0.00     0.010 A 
ATOM     42  C   UNL A   1      37.124  32.206  33.423  1.00  0.00     0.010 A 
ATOM     43  C   UNL A   1      38.114  32.719  32.577  1.00  0.00    -0.014 A 
BRANCH  43  44
ATOM     44  C   UNL A   1      39.307  31.902  32.502  1.00  0.00     0.031 A 
ATOM     45  C   UNL A   1      39.230  30.634  31.756  1.00  0.00     0.074 A 
ATOM     46  C   UNL A   1      40.487  32.439  32.882  1.00  0.00     0.049 A 
ATOM     47  N   UNL A   1      40.172  29.760  31.727  1.00  0.00    -0.248 NA
ATOM     48  C   UNL A   1      38.036  30.227  31.017  1.00  0.00     0.031 C 
ATOM     49  C   UNL A   1      41.814  32.039  32.429  1.00  0.00     0.029 A 
ATOM     50  N   UNL A   1      40.737  33.345  33.920  1.00  0.00    -0.354 N 
ATOM     51  C   UNL A   1      39.847  28.847  30.749  1.00  0.00     0.074 A 
ATOM     52  C   UNL A   1      38.461  29.096  30.449  1.00  0.00     0.031 C 
ATOM     53  C   UNL A   1      42.722  32.466  33.319  1.00  0.00     0.029 A 
ATOM     54  C   UNL A   1      41.988  32.988  34.458  1.00  0.00     0.049 A 
ATOM     55  H   UNL A   1      40.157  34.084  34.214  1.00  0.00     0.167 HD
ATOM     56  C   UNL A   1      40.845  28.099  30.211  1.00  0.00     0.034 A 
ATOM     57  C   UNL A   1      42.183  32.595  35.750  1.00  0.00     0.034 A 
ATOM     58  C   UNL A   1      42.067  28.225  31.017  1.00  0.00     0.049 A 
ATOM     59  C   UNL A   1      42.735  31.184  35.864  1.00  0.00     0.074 A 
ATOM     60  C   UNL A   1      43.235  28.949  30.862  1.00  0.00     0.029 A 
ATOM     61  N   UNL A   1      42.058  27.769  32.333  1.00  0.00    -0.354 N 
ATOM     62  N   UNL A   1      42.852  30.361  34.858  1.00  0.00    -0.248 NA
ATOM     63  C   UNL A   1      43.186  30.582  37.116  1.00  0.00     0.031 C 
ATOM     64  C   UNL A   1      43.867  29.029  32.134  1.00  0.00     0.029 A 
ATOM     65  C   UNL A   1      43.114  28.309  33.050  1.00  0.00     0.049 A 
ATOM     66  H   UNL A   1      41.392  27.145  32.704  1.00  0.00     0.167 HD
ATOM     67  C   UNL A   1      43.250  29.127  35.301  1.00  0.00     0.074 A 
ATOM     68  C   UNL A   1      43.518  29.342  36.713  1.00  0.00     0.031 C 
ATOM     69  C   UNL A   1      43.265  28.030  34.477  1.00  0.00     0.034 A 
BRANCH  56  70
ATOM     70  C   UNL A   1      40.820  27.407  28.856  1.00  0.00     0.023 A 
ATOM     71  C   UNL A   1      39.775  26.479  28.638  1.00  0.00     0.012 A 
ATOM     72  C   UNL A   1      41.793  27.492  27.827  1.00  0.00     0.148 A 
ATOM     73  C   UNL A   1      39.709  25.674  27.494  1.00  0.00     0.002 A 
ATOM     74  C   UNL A   1      41.695  26.728  26.658  1.00  0.00     0.091 A 
ATOM     75  F   UNL A   1      42.882  28.244  27.986  1.00  0.00    -0.205 F 
ATOM     76  C   UNL A   1      40.663  25.804  26.497  1.00  0.00     0.022 A 
BRANCH  74  77
ATOM     77  S   UNL A   1      42.883  26.873  25.307  1.00  0.00     0.127 S 
ATOM     78  O   UNL A   1      42.677  25.619  24.582  1.00  0.00    -0.237 OA
ATOM     79  O   UNL A   1      42.413  28.067  24.602  1.00  0.00    -0.237 OA
ATOM     80  O   UNL A   1      44.194  27.021  25.927  1.00  0.00    -0.744 OA
ENDBRANCH  74  77
ENDBRANCH  56  70
BRANCH  57  81
ATOM     81  C   UNL A   1      41.292  33.275  36.731  1.00  0.00     0.023 A 
ATOM     82  C   UNL A   1      41.429  34.679  36.834  1.00  0.00     0.012 A 
ATOM     83  C   UNL A   1      40.106  32.669  37.181  1.00  0.00     0.148 A 
ATOM     84  C   UNL A   1      40.360  35.475  37.249  1.00  0.00     0.002 A 
ATOM     85  C   UNL A   1      39.035  33.473  37.571  1.00  0.00     0.091 A 
ATOM     86  F   UNL A   1      40.003  31.336  37.101  1.00  0.00    -0.205 F 
ATOM     87  C   UNL A   1      39.153  34.873  37.578  1.00  0.00     0.022 A 
BRANCH  85  88
ATOM     88  S   UNL A   1      37.395  32.811  37.895  1.00  0.00     0.127 S 
ATOM     89  O   UNL A   1      37.594  31.387  37.640  1.00  0.00    -0.237 OA
ATOM     90  O   UNL A   1      37.208  33.164  39.300  1.00  0.00    -0.237 OA
ATOM     91  O   UNL A   1      36.509  33.506  36.973  1.00  0.00    -0.744 OA
ENDBRANCH  85  88
ENDBRANCH  57  81
BRANCH  69  92
ATOM     92  C   UNL A   1      43.419  26.588  34.942  1.00  0.00     0.023 A 
ATOM     93  C   UNL A   1      42.316  25.786  35.295  1.00  0.00     0.012 A 
ATOM     94  C   UNL A   1      44.680  25.936  34.895  1.00  0.00     0.148 A 
ATOM     95  C   UNL A   1      42.456  24.440  35.652  1.00  0.00     0.002 A 
ATOM     96  C   UNL A   1      44.796  24.567  35.132  1.00  0.00     0.091 A 
ATOM     97  F   UNL A   1      45.790  26.641  34.634  1.00  0.00    -0.205 F 
ATOM     98  C   UNL A   1      43.693  23.823  35.549  1.00  0.00     0.022 A 
BRANCH  96  99
ATOM     99  S   UNL A   1      46.320  23.690  34.750  1.00  0.00     0.127 S 
ATOM    100  O   UNL A   1      45.840  22.332  34.508  1.00  0.00    -0.237 OA
ATOM    101  O   UNL A   1      46.796  24.391  33.555  1.00  0.00    -0.237 OA
ATOM    102  O   UNL A   1      47.163  23.880  35.924  1.00  0.00    -0.744 OA
ENDBRANCH  96  99
ENDBRANCH  69  92
ENDBRANCH  43  44
ENDBRANCH  35  38
ENDBRANCH  33  34
ENDBRANCH  32  33
ENDBRANCH   1  32
TORSDOF 19
ENDMDL
