MODEL 1
REMARK VINA RESULT:     -12.3      0.000      0.000
REMARK SMILES CC1(C)[C@@]2(C(=O)NCCCCCCNC(=O)c3ccc(-c4c5nc(c(-c6cccc(S(=O)(=O)[O-])c6F)c6ccc([nH]6)c(-c6cccc(S(=O)(=O)[O-])c6F)c6nc(c(-c7cccc(S(=O)(=O)[O-])c7F)c7ccc4[nH]7)C=C6)C=C5)cc3)CC[C@]1(C)/C(=N/NC(=O)c1ccc(Cl)cc1)C2
REMARK SMILES IDX 11 1 10 2 9 3 8 4 7 5 5 6 6 7 4 9 1 10 2 11 3 12 82 13 80 14
REMARK SMILES IDX 96 15 81 16 83 17 84 18 85 19 86 20 87 21 88 23 89 24 90 25
REMARK SMILES IDX 95 26 91 27 94 28 92 29 93 30 12 31 13 32 14 33 15 34 16 36
REMARK SMILES IDX 17 37 18 38 79 39 19 40 78 41 20 42 21 43 22 44 72 45 23 46
REMARK SMILES IDX 77 47 71 48 73 49 24 50 76 51 70 52 69 53 25 55 57 56 37 57
REMARK SMILES IDX 56 58 38 59 41 60 55 61 74 62 39 63 40 64 54 66 75 67 42 68
REMARK SMILES IDX 26 69 27 70 35 71 28 72 30 73 36 74 29 75 31 76 32 77 33 78
REMARK SMILES IDX 34 79 58 80 59 81 67 82 60 83 62 84 68 85 61 86 63 87 64 88
REMARK SMILES IDX 65 89 66 90 43 91 44 92 52 93 45 94 47 95 53 96 46 97 48 98
REMARK SMILES IDX 49 99 50 100 51 101
REMARK H PARENT 7 8 86 22 14 35 73 54 41 65
REMARK Flexibility Score: inf
ROOT
ATOM      1  C   UNL A   1      33.842  28.884  26.904  1.00  0.00     0.002 C 
ENDROOT
BRANCH   1   2
ATOM      2  C   UNL A   1      33.056  27.799  26.150  1.00  0.00     0.002 C 
BRANCH   2   3
ATOM      3  C   UNL A   1      31.769  27.369  26.865  1.00  0.00     0.021 C 
BRANCH   3   4
ATOM      4  C   UNL A   1      30.744  26.471  26.116  1.00  0.00     0.116 C 
BRANCH   4   5
ATOM      5  N   UNL A   1      30.539  25.071  26.532  1.00  0.00    -0.356 N 
ATOM      6  C   UNL A   1      31.377  23.993  26.729  1.00  0.00     0.227 C 
ATOM      7  O   UNL A   1      31.026  23.200  27.612  1.00  0.00    -0.274 OA
ATOM      8  H   UNL A   1      29.594  24.859  26.709  1.00  0.00     0.163 HD
BRANCH   6   9
ATOM      9  C   UNL A   1      32.594  23.635  25.842  1.00  0.00     0.060 C 
ATOM     10  C   UNL A   1      33.690  21.750  27.265  1.00  0.00     0.013 C 
ATOM     11  C   UNL A   1      33.205  22.182  25.867  1.00  0.00    -0.010 C 
ATOM     12  C   UNL A   1      32.334  21.017  25.332  1.00  0.00     0.013 C 
ATOM     13  C   UNL A   1      34.333  22.568  24.836  1.00  0.00     0.014 C 
ATOM     14  C   UNL A   1      33.849  24.527  26.108  1.00  0.00     0.019 C 
ATOM     15  C   UNL A   1      32.222  23.707  24.341  1.00  0.00     0.071 C 
ATOM     16  C   UNL A   1      35.039  23.737  25.534  1.00  0.00     0.014 C 
ATOM     17  C   UNL A   1      35.255  21.476  24.343  1.00  0.00     0.018 C 
ATOM     18  C   UNL A   1      33.513  23.290  23.723  1.00  0.00     0.046 C 
ATOM     19  N   UNL A   1      34.064  23.530  22.578  1.00  0.00    -0.181 NA
BRANCH  19  20
ATOM     20  N   UNL A   1      33.711  24.213  21.452  1.00  0.00    -0.243 N 
ATOM     21  C   UNL A   1      32.996  25.310  21.012  1.00  0.00     0.271 C 
ATOM     22  H   UNL A   1      34.106  23.760  20.671  1.00  0.00     0.194 HD
ATOM     23  O   UNL A   1      32.860  25.486  19.798  1.00  0.00    -0.267 OA
BRANCH  21  24
ATOM     24  C   UNL A   1      32.350  26.290  21.876  1.00  0.00     0.041 A 
ATOM     25  C   UNL A   1      33.082  27.413  22.288  1.00  0.00     0.015 A 
ATOM     26  C   UNL A   1      31.027  26.141  22.243  1.00  0.00     0.015 A 
ATOM     27  C   UNL A   1      32.421  28.522  22.814  1.00  0.00     0.021 A 
ATOM     28  C   UNL A   1      30.371  27.291  22.688  1.00  0.00     0.021 A 
ATOM     29  C   UNL A   1      31.043  28.491  22.908  1.00  0.00     0.041 A 
ATOM     30  Cl  UNL A   1      30.176  29.965  23.086  1.00  0.00    -0.084 Cl
ENDBRANCH  21  24
ENDBRANCH  19  20
ENDBRANCH   6   9
ENDBRANCH   4   5
ENDBRANCH   3   4
ENDBRANCH   2   3
ENDBRANCH   1   2
BRANCH   1  31
ATOM     31  C   UNL A   1      33.545  30.338  26.504  1.00  0.00     0.021 C 
BRANCH  31  32
ATOM     32  C   UNL A   1      32.399  30.999  27.265  1.00  0.00     0.116 C 
BRANCH  32  33
ATOM     33  N   UNL A   1      32.363  32.434  27.016  1.00  0.00    -0.352 N 
ATOM     34  C   UNL A   1      33.064  33.426  27.669  1.00  0.00     0.251 C 
ATOM     35  H   UNL A   1      31.766  32.732  26.293  1.00  0.00     0.163 HD
ATOM     36  O   UNL A   1      32.716  34.593  27.595  1.00  0.00    -0.269 OA
BRANCH  34  37
ATOM     37  C   UNL A   1      34.251  33.044  28.465  1.00  0.00     0.039 A 
ATOM     38  C   UNL A   1      34.086  32.373  29.679  1.00  0.00     0.014 A 
ATOM     39  C   UNL A   1      35.530  33.333  27.980  1.00  0.00     0.014 A 
ATOM     40  C   UNL A   1      35.213  31.927  30.374  1.00  0.00     0.010 A 
ATOM     41  C   UNL A   1      36.647  32.832  28.643  1.00  0.00     0.010 A 
ATOM     42  C   UNL A   1      36.501  32.120  29.843  1.00  0.00    -0.014 A 
BRANCH  42  43
ATOM     43  C   UNL A   1      37.709  31.560  30.505  1.00  0.00     0.031 A 
ATOM     44  C   UNL A   1      38.515  30.486  29.826  1.00  0.00     0.074 A 
ATOM     45  C   UNL A   1      38.020  31.948  31.758  1.00  0.00     0.049 A 
ATOM     46  N   UNL A   1      39.543  29.817  30.279  1.00  0.00    -0.248 NA
ATOM     47  C   UNL A   1      38.097  30.095  28.468  1.00  0.00     0.031 C 
ATOM     48  C   UNL A   1      37.274  32.930  32.550  1.00  0.00     0.029 A 
ATOM     49  N   UNL A   1      39.026  31.542  32.601  1.00  0.00    -0.354 N 
ATOM     50  C   UNL A   1      39.879  28.911  29.279  1.00  0.00     0.074 A 
ATOM     51  C   UNL A   1      38.922  29.091  28.209  1.00  0.00     0.031 C 
ATOM     52  C   UNL A   1      37.845  33.048  33.759  1.00  0.00     0.029 A 
ATOM     53  C   UNL A   1      38.972  32.126  33.846  1.00  0.00     0.049 A 
ATOM     54  H   UNL A   1      39.719  30.893  32.339  1.00  0.00     0.167 HD
ATOM     55  C   UNL A   1      40.906  28.030  29.243  1.00  0.00     0.034 A 
ATOM     56  C   UNL A   1      39.734  31.927  34.941  1.00  0.00     0.034 A 
ATOM     57  C   UNL A   1      41.872  27.876  30.297  1.00  0.00     0.049 A 
ATOM     58  C   UNL A   1      40.867  30.938  34.871  1.00  0.00     0.074 A 
ATOM     59  C   UNL A   1      42.995  27.067  30.321  1.00  0.00     0.029 A 
ATOM     60  N   UNL A   1      41.825  28.532  31.516  1.00  0.00    -0.354 N 
ATOM     61  N   UNL A   1      41.265  30.207  33.858  1.00  0.00    -0.248 NA
ATOM     62  C   UNL A   1      41.676  30.765  36.089  1.00  0.00     0.031 C 
ATOM     63  C   UNL A   1      43.609  27.211  31.569  1.00  0.00     0.029 A 
ATOM     64  C   UNL A   1      42.887  28.133  32.309  1.00  0.00     0.049 A 
ATOM     65  H   UNL A   1      41.137  29.186  31.780  1.00  0.00     0.167 HD
ATOM     66  C   UNL A   1      42.384  29.513  34.303  1.00  0.00     0.074 A 
ATOM     67  C   UNL A   1      42.619  29.933  35.670  1.00  0.00     0.031 C 
ATOM     68  C   UNL A   1      43.137  28.596  33.649  1.00  0.00     0.034 A 
BRANCH  55  69
ATOM     69  C   UNL A   1      41.076  27.196  27.999  1.00  0.00     0.023 A 
ATOM     70  C   UNL A   1      41.699  27.760  26.867  1.00  0.00     0.012 A 
ATOM     71  C   UNL A   1      40.697  25.839  27.976  1.00  0.00     0.148 A 
ATOM     72  C   UNL A   1      41.915  26.997  25.720  1.00  0.00     0.002 A 
ATOM     73  C   UNL A   1      40.958  25.073  26.846  1.00  0.00     0.091 A 
ATOM     74  F   UNL A   1      40.093  25.326  29.057  1.00  0.00    -0.205 F 
ATOM     75  C   UNL A   1      41.556  25.651  25.715  1.00  0.00     0.022 A 
BRANCH  73  76
ATOM     76  S   UNL A   1      40.609  23.312  26.762  1.00  0.00     0.127 S 
ATOM     77  O   UNL A   1      39.188  23.310  26.416  1.00  0.00    -0.237 OA
ATOM     78  O   UNL A   1      41.499  22.876  25.687  1.00  0.00    -0.237 OA
ATOM     79  O   UNL A   1      40.928  22.773  28.077  1.00  0.00    -0.744 OA
ENDBRANCH  73  76
ENDBRANCH  55  69
BRANCH  56  80
ATOM     80  C   UNL A   1      39.476  32.700  36.191  1.00  0.00     0.023 A 
ATOM     81  C   UNL A   1      40.125  33.935  36.389  1.00  0.00     0.012 A 
ATOM     82  C   UNL A   1      38.596  32.224  37.182  1.00  0.00     0.148 A 
ATOM     83  C   UNL A   1      39.938  34.657  37.568  1.00  0.00     0.002 A 
ATOM     84  C   UNL A   1      38.368  32.978  38.328  1.00  0.00     0.091 A 
ATOM     85  F   UNL A   1      37.996  31.041  36.985  1.00  0.00    -0.205 F 
ATOM     86  C   UNL A   1      39.054  34.184  38.533  1.00  0.00     0.022 A 
BRANCH  84  87
ATOM     87  S   UNL A   1      37.146  32.508  39.559  1.00  0.00     0.127 S 
ATOM     88  O   UNL A   1      37.343  33.530  40.583  1.00  0.00    -0.237 OA
ATOM     89  O   UNL A   1      35.897  32.622  38.804  1.00  0.00    -0.237 OA
ATOM     90  O   UNL A   1      37.485  31.146  39.948  1.00  0.00    -0.744 OA
ENDBRANCH  84  87
ENDBRANCH  56  80
BRANCH  68  91
ATOM     91  C   UNL A   1      44.308  27.998  34.384  1.00  0.00     0.023 A 
ATOM     92  C   UNL A   1      45.552  28.660  34.375  1.00  0.00     0.012 A 
ATOM     93  C   UNL A   1      44.151  26.829  35.154  1.00  0.00     0.148 A 
ATOM     94  C   UNL A   1      46.629  28.152  35.098  1.00  0.00     0.002 A 
ATOM     95  C   UNL A   1      45.215  26.357  35.913  1.00  0.00     0.091 A 
ATOM     96  F   UNL A   1      42.962  26.208  35.139  1.00  0.00    -0.205 F 
ATOM     97  C   UNL A   1      46.458  27.010  35.876  1.00  0.00     0.022 A 
BRANCH  95  98
ATOM     98  S   UNL A   1      45.065  24.950  37.021  1.00  0.00     0.127 S 
ATOM     99  O   UNL A   1      44.620  23.899  36.107  1.00  0.00    -0.237 OA
ATOM    100  O   UNL A   1      46.437  24.795  37.508  1.00  0.00    -0.237 OA
ATOM    101  O   UNL A   1      44.098  25.337  38.038  1.00  0.00    -0.744 OA
ENDBRANCH  95  98
ENDBRANCH  68  91
ENDBRANCH  42  43
ENDBRANCH  34  37
ENDBRANCH  32  33
ENDBRANCH  31  32
ENDBRANCH   1  31
TORSDOF 18
ENDMDL
MODEL 2
REMARK VINA RESULT:     -12.2      6.135     10.904
REMARK SMILES CC1(C)[C@@]2(C(=O)NCCCCCCNC(=O)c3ccc(-c4c5nc(c(-c6cccc(S(=O)(=O)[O-])c6F)c6ccc([nH]6)c(-c6cccc(S(=O)(=O)[O-])c6F)c6nc(c(-c7cccc(S(=O)(=O)[O-])c7F)c7ccc4[nH]7)C=C6)C=C5)cc3)CC[C@]1(C)/C(=N/NC(=O)c1ccc(Cl)cc1)C2
REMARK SMILES IDX 11 1 10 2 9 3 8 4 7 5 5 6 6 7 4 9 1 10 2 11 3 12 82 13 80 14
REMARK SMILES IDX 96 15 81 16 83 17 84 18 85 19 86 20 87 21 88 23 89 24 90 25
REMARK SMILES IDX 95 26 91 27 94 28 92 29 93 30 12 31 13 32 14 33 15 34 16 36
REMARK SMILES IDX 17 37 18 38 79 39 19 40 78 41 20 42 21 43 22 44 72 45 23 46
REMARK SMILES IDX 77 47 71 48 73 49 24 50 76 51 70 52 69 53 25 55 57 56 37 57
REMARK SMILES IDX 56 58 38 59 41 60 55 61 74 62 39 63 40 64 54 66 75 67 42 68
REMARK SMILES IDX 26 69 27 70 35 71 28 72 30 73 36 74 29 75 31 76 32 77 33 78
REMARK SMILES IDX 34 79 58 80 59 81 67 82 60 83 62 84 68 85 61 86 63 87 64 88
REMARK SMILES IDX 65 89 66 90 43 91 44 92 52 93 45 94 47 95 53 96 46 97 48 98
REMARK SMILES IDX 49 99 50 100 51 101
REMARK H PARENT 7 8 86 22 14 35 73 54 41 65
REMARK Flexibility Score: inf
ROOT
ATOM      1  C   UNL A   1      36.967  21.312  24.951  1.00  0.00     0.002 C 
ENDROOT
BRANCH   1   2
ATOM      2  C   UNL A   1      37.380  22.733  25.367  1.00  0.00     0.002 C 
BRANCH   2   3
ATOM      3  C   UNL A   1      36.276  23.498  26.108  1.00  0.00     0.021 C 
BRANCH   3   4
ATOM      4  C   UNL A   1      34.858  22.870  26.225  1.00  0.00     0.116 C 
BRANCH   4   5
ATOM      5  N   UNL A   1      33.734  23.667  26.750  1.00  0.00    -0.356 N 
ATOM      6  C   UNL A   1      32.631  24.269  26.179  1.00  0.00     0.227 C 
ATOM      7  O   UNL A   1      31.622  24.319  26.894  1.00  0.00    -0.274 OA
ATOM      8  H   UNL A   1      33.781  23.799  27.724  1.00  0.00     0.163 HD
BRANCH   6   9
ATOM      9  C   UNL A   1      32.622  25.004  24.817  1.00  0.00     0.060 C 
ATOM     10  C   UNL A   1      33.333  23.073  23.222  1.00  0.00     0.013 C 
ATOM     11  C   UNL A   1      32.333  24.216  23.482  1.00  0.00    -0.010 C 
ATOM     12  C   UNL A   1      30.920  23.609  23.287  1.00  0.00     0.013 C 
ATOM     13  C   UNL A   1      32.522  25.510  22.601  1.00  0.00     0.014 C 
ATOM     14  C   UNL A   1      33.965  25.732  24.488  1.00  0.00     0.019 C 
ATOM     15  C   UNL A   1      31.456  26.021  24.746  1.00  0.00     0.071 C 
ATOM     16  C   UNL A   1      33.942  25.958  22.964  1.00  0.00     0.014 C 
ATOM     17  C   UNL A   1      32.251  25.409  21.117  1.00  0.00     0.018 C 
ATOM     18  C   UNL A   1      31.639  26.546  23.363  1.00  0.00     0.046 C 
ATOM     19  N   UNL A   1      31.338  27.668  22.797  1.00  0.00    -0.181 NA
BRANCH  19  20
ATOM     20  N   UNL A   1      30.710  28.815  23.181  1.00  0.00    -0.243 N 
ATOM     21  C   UNL A   1      30.694  29.778  24.171  1.00  0.00     0.271 C 
ATOM     22  H   UNL A   1      30.019  29.036  22.515  1.00  0.00     0.194 HD
ATOM     23  O   UNL A   1      29.810  30.640  24.151  1.00  0.00    -0.267 OA
BRANCH  21  24
ATOM     24  C   UNL A   1      31.635  29.856  25.280  1.00  0.00     0.041 A 
ATOM     25  C   UNL A   1      32.833  29.131  25.201  1.00  0.00     0.015 A 
ATOM     26  C   UNL A   1      31.376  30.666  26.369  1.00  0.00     0.015 A 
ATOM     27  C   UNL A   1      33.892  29.437  26.054  1.00  0.00     0.021 A 
ATOM     28  C   UNL A   1      32.474  31.021  27.156  1.00  0.00     0.021 A 
ATOM     29  C   UNL A   1      33.737  30.466  26.962  1.00  0.00     0.041 A 
ATOM     30  Cl  UNL A   1      35.129  31.178  27.676  1.00  0.00    -0.084 Cl
ENDBRANCH  21  24
ENDBRANCH  19  20
ENDBRANCH   6   9
ENDBRANCH   4   5
ENDBRANCH   3   4
ENDBRANCH   2   3
ENDBRANCH   1   2
BRANCH   1  31
ATOM     31  C   UNL A   1      38.076  20.248  24.976  1.00  0.00     0.021 C 
BRANCH  31  32
ATOM     32  C   UNL A   1      39.256  20.563  25.892  1.00  0.00     0.116 C 
BRANCH  32  33
ATOM     33  N   UNL A   1      40.133  19.409  26.032  1.00  0.00    -0.352 N 
ATOM     34  C   UNL A   1      41.512  19.389  26.060  1.00  0.00     0.251 C 
ATOM     35  H   UNL A   1      39.687  18.535  26.117  1.00  0.00     0.163 HD
ATOM     36  O   UNL A   1      42.129  18.357  25.857  1.00  0.00    -0.269 OA
BRANCH  34  37
ATOM     37  C   UNL A   1      42.230  20.651  26.342  1.00  0.00     0.039 A 
ATOM     38  C   UNL A   1      42.701  21.433  25.285  1.00  0.00     0.014 A 
ATOM     39  C   UNL A   1      42.403  21.066  27.665  1.00  0.00     0.014 A 
ATOM     40  C   UNL A   1      43.288  22.672  25.557  1.00  0.00     0.010 A 
ATOM     41  C   UNL A   1      42.930  22.327  27.928  1.00  0.00     0.010 A 
ATOM     42  C   UNL A   1      43.373  23.146  26.878  1.00  0.00    -0.014 A 
BRANCH  42  43
ATOM     43  C   UNL A   1      43.890  24.505  27.187  1.00  0.00     0.031 A 
ATOM     44  C   UNL A   1      42.961  25.569  27.704  1.00  0.00     0.074 A 
ATOM     45  C   UNL A   1      45.175  24.807  26.906  1.00  0.00     0.049 A 
ATOM     46  N   UNL A   1      43.207  26.831  27.947  1.00  0.00    -0.248 NA
ATOM     47  C   UNL A   1      41.566  25.171  27.961  1.00  0.00     0.031 C 
ATOM     48  C   UNL A   1      46.156  23.880  26.335  1.00  0.00     0.029 A 
ATOM     49  N   UNL A   1      45.869  25.985  27.032  1.00  0.00    -0.354 N 
ATOM     50  C   UNL A   1      41.999  27.382  28.358  1.00  0.00     0.074 A 
ATOM     51  C   UNL A   1      41.011  26.326  28.296  1.00  0.00     0.031 C 
ATOM     52  C   UNL A   1      47.321  24.525  26.159  1.00  0.00     0.029 A 
ATOM     53  C   UNL A   1      47.162  25.916  26.566  1.00  0.00     0.049 A 
ATOM     54  H   UNL A   1      45.477  26.802  27.417  1.00  0.00     0.167 HD
ATOM     55  C   UNL A   1      41.740  28.644  28.774  1.00  0.00     0.034 A 
ATOM     56  C   UNL A   1      48.108  26.872  26.462  1.00  0.00     0.034 A 
ATOM     57  C   UNL A   1      42.732  29.681  28.861  1.00  0.00     0.049 A 
ATOM     58  C   UNL A   1      47.790  28.267  26.931  1.00  0.00     0.074 A 
ATOM     59  C   UNL A   1      42.587  30.969  29.346  1.00  0.00     0.029 A 
ATOM     60  N   UNL A   1      44.048  29.557  28.444  1.00  0.00    -0.354 N 
ATOM     61  N   UNL A   1      46.686  28.727  27.466  1.00  0.00    -0.248 NA
ATOM     62  C   UNL A   1      48.859  29.271  26.807  1.00  0.00     0.031 C 
ATOM     63  C   UNL A   1      43.807  31.634  29.191  1.00  0.00     0.029 A 
ATOM     64  C   UNL A   1      44.721  30.750  28.641  1.00  0.00     0.049 A 
ATOM     65  H   UNL A   1      44.445  28.740  28.064  1.00  0.00     0.167 HD
ATOM     66  C   UNL A   1      46.934  30.061  27.770  1.00  0.00     0.074 A 
ATOM     67  C   UNL A   1      48.305  30.327  27.385  1.00  0.00     0.031 C 
ATOM     68  C   UNL A   1      46.099  30.987  28.300  1.00  0.00     0.034 A 
BRANCH  55  69
ATOM     69  C   UNL A   1      40.338  28.965  29.222  1.00  0.00     0.023 A 
ATOM     70  C   UNL A   1      39.366  29.309  28.259  1.00  0.00     0.012 A 
ATOM     71  C   UNL A   1      39.961  28.848  30.574  1.00  0.00     0.148 A 
ATOM     72  C   UNL A   1      38.048  29.561  28.639  1.00  0.00     0.002 A 
ATOM     73  C   UNL A   1      38.635  29.056  30.938  1.00  0.00     0.091 A 
ATOM     74  F   UNL A   1      40.903  28.535  31.475  1.00  0.00    -0.205 F 
ATOM     75  C   UNL A   1      37.681  29.423  29.975  1.00  0.00     0.022 A 
BRANCH  73  76
ATOM     76  S   UNL A   1      38.040  28.827  32.618  1.00  0.00     0.127 S 
ATOM     77  O   UNL A   1      36.659  29.298  32.507  1.00  0.00    -0.237 OA
ATOM     78  O   UNL A   1      38.178  27.383  32.796  1.00  0.00    -0.237 OA
ATOM     79  O   UNL A   1      38.904  29.635  33.466  1.00  0.00    -0.744 OA
ENDBRANCH  73  76
ENDBRANCH  55  69
BRANCH  56  80
ATOM     80  C   UNL A   1      49.459  26.541  25.921  1.00  0.00     0.023 A 
ATOM     81  C   UNL A   1      50.340  25.753  26.688  1.00  0.00     0.012 A 
ATOM     82  C   UNL A   1      49.878  27.001  24.657  1.00  0.00     0.148 A 
ATOM     83  C   UNL A   1      51.625  25.467  26.227  1.00  0.00     0.002 A 
ATOM     84  C   UNL A   1      51.138  26.662  24.178  1.00  0.00     0.091 A 
ATOM     85  F   UNL A   1      49.033  27.761  23.945  1.00  0.00    -0.205 F 
ATOM     86  C   UNL A   1      52.021  25.913  24.970  1.00  0.00     0.022 A 
BRANCH  84  87
ATOM     87  S   UNL A   1      51.678  27.082  22.516  1.00  0.00     0.127 S 
ATOM     88  O   UNL A   1      51.940  28.512  22.638  1.00  0.00    -0.237 OA
ATOM     89  O   UNL A   1      52.871  26.246  22.367  1.00  0.00    -0.237 OA
ATOM     90  O   UNL A   1      50.577  26.709  21.639  1.00  0.00    -0.744 OA
ENDBRANCH  84  87
ENDBRANCH  56  80
BRANCH  68  91
ATOM     91  C   UNL A   1      46.643  32.373  28.526  1.00  0.00     0.023 A 
ATOM     92  C   UNL A   1      47.195  32.712  29.778  1.00  0.00     0.012 A 
ATOM     93  C   UNL A   1      46.687  33.308  27.473  1.00  0.00     0.148 A 
ATOM     94  C   UNL A   1      47.756  33.970  29.987  1.00  0.00     0.002 A 
ATOM     95  C   UNL A   1      47.295  34.542  27.674  1.00  0.00     0.091 A 
ATOM     96  F   UNL A   1      46.145  32.969  26.294  1.00  0.00    -0.205 F 
ATOM     97  C   UNL A   1      47.818  34.880  28.933  1.00  0.00     0.022 A 
BRANCH  95  98
ATOM     98  S   UNL A   1      47.509  35.742  26.354  1.00  0.00     0.127 S 
ATOM     99  O   UNL A   1      47.832  34.878  25.218  1.00  0.00    -0.237 OA
ATOM    100  O   UNL A   1      46.187  36.366  26.289  1.00  0.00    -0.237 OA
ATOM    101  O   UNL A   1      48.581  36.628  26.782  1.00  0.00    -0.744 OA
ENDBRANCH  95  98
ENDBRANCH  68  91
ENDBRANCH  42  43
ENDBRANCH  34  37
ENDBRANCH  32  33
ENDBRANCH  31  32
ENDBRANCH   1  31
TORSDOF 18
ENDMDL
MODEL 3
REMARK VINA RESULT:     -12.2      1.414      7.409
REMARK SMILES CC1(C)[C@@]2(C(=O)NCCCCCCNC(=O)c3ccc(-c4c5nc(c(-c6cccc(S(=O)(=O)[O-])c6F)c6ccc([nH]6)c(-c6cccc(S(=O)(=O)[O-])c6F)c6nc(c(-c7cccc(S(=O)(=O)[O-])c7F)c7ccc4[nH]7)C=C6)C=C5)cc3)CC[C@]1(C)/C(=N/NC(=O)c1ccc(Cl)cc1)C2
REMARK SMILES IDX 11 1 10 2 9 3 8 4 7 5 5 6 6 7 4 9 1 10 2 11 3 12 82 13 80 14
REMARK SMILES IDX 96 15 81 16 83 17 84 18 85 19 86 20 87 21 88 23 89 24 90 25
REMARK SMILES IDX 95 26 91 27 94 28 92 29 93 30 12 31 13 32 14 33 15 34 16 36
REMARK SMILES IDX 17 37 18 38 79 39 19 40 78 41 20 42 21 43 22 44 72 45 23 46
REMARK SMILES IDX 77 47 71 48 73 49 24 50 76 51 70 52 69 53 25 55 57 56 37 57
REMARK SMILES IDX 56 58 38 59 41 60 55 61 74 62 39 63 40 64 54 66 75 67 42 68
REMARK SMILES IDX 26 69 27 70 35 71 28 72 30 73 36 74 29 75 31 76 32 77 33 78
REMARK SMILES IDX 34 79 58 80 59 81 67 82 60 83 62 84 68 85 61 86 63 87 64 88
REMARK SMILES IDX 65 89 66 90 43 91 44 92 52 93 45 94 47 95 53 96 46 97 48 98
REMARK SMILES IDX 49 99 50 100 51 101
REMARK H PARENT 7 8 86 22 14 35 73 54 41 65
REMARK Flexibility Score: inf
ROOT
ATOM      1  C   UNL A   1      33.286  29.010  26.564  1.00  0.00     0.002 C 
ENDROOT
BRANCH   1   2
ATOM      2  C   UNL A   1      32.589  27.822  25.882  1.00  0.00     0.002 C 
BRANCH   2   3
ATOM      3  C   UNL A   1      31.435  27.235  26.705  1.00  0.00     0.021 C 
BRANCH   3   4
ATOM      4  C   UNL A   1      30.445  26.243  26.031  1.00  0.00     0.116 C 
BRANCH   4   5
ATOM      5  N   UNL A   1      30.369  24.843  26.490  1.00  0.00    -0.356 N 
ATOM      6  C   UNL A   1      31.305  23.858  26.733  1.00  0.00     0.227 C 
ATOM      7  O   UNL A   1      31.016  23.062  27.636  1.00  0.00    -0.274 OA
ATOM      8  H   UNL A   1      29.446  24.546  26.659  1.00  0.00     0.163 HD
BRANCH   6   9
ATOM      9  C   UNL A   1      32.566  23.594  25.876  1.00  0.00     0.060 C 
ATOM     10  C   UNL A   1      33.795  21.838  27.356  1.00  0.00     0.013 C 
ATOM     11  C   UNL A   1      33.302  22.201  25.941  1.00  0.00    -0.010 C 
ATOM     12  C   UNL A   1      32.548  20.955  25.412  1.00  0.00     0.013 C 
ATOM     13  C   UNL A   1      34.413  22.667  24.924  1.00  0.00     0.014 C 
ATOM     14  C   UNL A   1      33.732  24.598  26.149  1.00  0.00     0.019 C 
ATOM     15  C   UNL A   1      32.220  23.606  24.367  1.00  0.00     0.071 C 
ATOM     16  C   UNL A   1      34.999  23.906  25.613  1.00  0.00     0.014 C 
ATOM     17  C   UNL A   1      35.437  21.652  24.470  1.00  0.00     0.018 C 
ATOM     18  C   UNL A   1      33.555  23.294  23.782  1.00  0.00     0.046 C 
ATOM     19  N   UNL A   1      34.106  23.562  22.643  1.00  0.00    -0.181 NA
BRANCH  19  20
ATOM     20  N   UNL A   1      33.717  24.191  21.498  1.00  0.00    -0.243 N 
ATOM     21  C   UNL A   1      33.001  25.275  21.030  1.00  0.00     0.271 C 
ATOM     22  H   UNL A   1      34.074  23.692  20.727  1.00  0.00     0.194 HD
ATOM     23  O   UNL A   1      32.818  25.390  19.815  1.00  0.00    -0.267 OA
BRANCH  21  24
ATOM     24  C   UNL A   1      32.403  26.308  21.866  1.00  0.00     0.041 A 
ATOM     25  C   UNL A   1      33.163  27.443  22.183  1.00  0.00     0.015 A 
ATOM     26  C   UNL A   1      31.096  26.195  22.298  1.00  0.00     0.015 A 
ATOM     27  C   UNL A   1      32.537  28.587  22.675  1.00  0.00     0.021 A 
ATOM     28  C   UNL A   1      30.472  27.375  22.708  1.00  0.00     0.021 A 
ATOM     29  C   UNL A   1      31.164  28.578  22.831  1.00  0.00     0.041 A 
ATOM     30  Cl  UNL A   1      30.320  30.069  22.966  1.00  0.00    -0.084 Cl
ENDBRANCH  21  24
ENDBRANCH  19  20
ENDBRANCH   6   9
ENDBRANCH   4   5
ENDBRANCH   3   4
ENDBRANCH   2   3
ENDBRANCH   1   2
BRANCH   1  31
ATOM     31  C   UNL A   1      32.831  30.409  26.121  1.00  0.00     0.021 C 
BRANCH  31  32
ATOM     32  C   UNL A   1      32.101  31.222  27.187  1.00  0.00     0.116 C 
BRANCH  32  33
ATOM     33  N   UNL A   1      32.380  32.644  27.044  1.00  0.00    -0.352 N 
ATOM     34  C   UNL A   1      33.403  33.371  27.616  1.00  0.00     0.251 C 
ATOM     35  H   UNL A   1      31.762  33.149  26.468  1.00  0.00     0.163 HD
ATOM     36  O   UNL A   1      33.348  34.586  27.686  1.00  0.00    -0.269 OA
BRANCH  34  37
ATOM     37  C   UNL A   1      34.575  32.640  28.147  1.00  0.00     0.039 A 
ATOM     38  C   UNL A   1      35.861  33.143  27.938  1.00  0.00     0.014 A 
ATOM     39  C   UNL A   1      34.382  31.464  28.879  1.00  0.00     0.014 A 
ATOM     40  C   UNL A   1      36.953  32.501  28.528  1.00  0.00     0.010 A 
ATOM     41  C   UNL A   1      35.464  30.865  29.517  1.00  0.00     0.010 A 
ATOM     42  C   UNL A   1      36.760  31.379  29.353  1.00  0.00    -0.014 A 
BRANCH  42  43
ATOM     43  C   UNL A   1      37.889  30.743  30.081  1.00  0.00     0.031 A 
ATOM     44  C   UNL A   1      38.239  31.191  31.475  1.00  0.00     0.074 A 
ATOM     45  C   UNL A   1      38.660  29.834  29.450  1.00  0.00     0.049 A 
ATOM     46  N   UNL A   1      39.237  30.819  32.234  1.00  0.00    -0.248 NA
ATOM     47  C   UNL A   1      37.367  32.207  32.089  1.00  0.00     0.031 C 
ATOM     48  C   UNL A   1      38.465  29.371  28.073  1.00  0.00     0.029 A 
ATOM     49  N   UNL A   1      39.781  29.161  29.868  1.00  0.00    -0.354 N 
ATOM     50  C   UNL A   1      39.131  31.569  33.398  1.00  0.00     0.074 A 
ATOM     51  C   UNL A   1      37.992  32.446  33.233  1.00  0.00     0.031 C 
ATOM     52  C   UNL A   1      39.432  28.493  27.762  1.00  0.00     0.029 A 
ATOM     53  C   UNL A   1      40.338  28.358  28.898  1.00  0.00     0.049 A 
ATOM     54  H   UNL A   1      40.153  29.246  30.776  1.00  0.00     0.167 HD
ATOM     55  C   UNL A   1      39.895  31.516  34.515  1.00  0.00     0.034 A 
ATOM     56  C   UNL A   1      41.461  27.613  28.916  1.00  0.00     0.034 A 
ATOM     57  C   UNL A   1      41.008  30.622  34.686  1.00  0.00     0.049 A 
ATOM     58  C   UNL A   1      42.292  27.575  30.171  1.00  0.00     0.074 A 
ATOM     59  C   UNL A   1      41.795  30.436  35.809  1.00  0.00     0.029 A 
ATOM     60  N   UNL A   1      41.502  29.775  33.706  1.00  0.00    -0.354 N 
ATOM     61  N   UNL A   1      42.082  28.172  31.319  1.00  0.00    -0.248 NA
ATOM     62  C   UNL A   1      43.502  26.738  30.145  1.00  0.00     0.031 C 
ATOM     63  C   UNL A   1      42.785  29.499  35.498  1.00  0.00     0.029 A 
ATOM     64  C   UNL A   1      42.595  29.078  34.192  1.00  0.00     0.049 A 
ATOM     65  H   UNL A   1      41.130  29.683  32.799  1.00  0.00     0.167 HD
ATOM     66  C   UNL A   1      43.111  27.762  32.158  1.00  0.00     0.074 A 
ATOM     67  C   UNL A   1      43.929  26.841  31.395  1.00  0.00     0.031 C 
ATOM     68  C   UNL A   1      43.370  28.128  33.437  1.00  0.00     0.034 A 
BRANCH  55  69
ATOM     69  C   UNL A   1      39.522  32.412  35.668  1.00  0.00     0.023 A 
ATOM     70  C   UNL A   1      38.802  31.877  36.756  1.00  0.00     0.012 A 
ATOM     71  C   UNL A   1      39.952  33.753  35.715  1.00  0.00     0.148 A 
ATOM     72  C   UNL A   1      38.488  32.670  37.859  1.00  0.00     0.002 A 
ATOM     73  C   UNL A   1      39.675  34.523  36.838  1.00  0.00     0.091 A 
ATOM     74  F   UNL A   1      40.622  34.246  34.664  1.00  0.00    -0.205 F 
ATOM     75  C   UNL A   1      38.935  33.988  37.905  1.00  0.00     0.022 A 
BRANCH  73  76
ATOM     76  S   UNL A   1      40.271  36.207  37.035  1.00  0.00     0.127 S 
ATOM     77  O   UNL A   1      41.702  35.990  37.247  1.00  0.00    -0.237 OA
ATOM     78  O   UNL A   1      39.930  36.804  35.744  1.00  0.00    -0.237 OA
ATOM     79  O   UNL A   1      39.552  36.760  38.174  1.00  0.00    -0.744 OA
ENDBRANCH  73  76
ENDBRANCH  55  69
BRANCH  56  80
ATOM     80  C   UNL A   1      41.855  26.812  27.720  1.00  0.00     0.023 A 
ATOM     81  C   UNL A   1      42.510  27.447  26.645  1.00  0.00     0.012 A 
ATOM     82  C   UNL A   1      41.585  25.433  27.637  1.00  0.00     0.148 A 
ATOM     83  C   UNL A   1      42.849  26.733  25.496  1.00  0.00     0.002 A 
ATOM     84  C   UNL A   1      41.979  24.715  26.514  1.00  0.00     0.091 A 
ATOM     85  F   UNL A   1      40.950  24.847  28.662  1.00  0.00    -0.205 F 
ATOM     86  C   UNL A   1      42.592  25.366  25.433  1.00  0.00     0.022 A 
BRANCH  84  87
ATOM     87  S   UNL A   1      41.807  22.929  26.406  1.00  0.00     0.127 S 
ATOM     88  O   UNL A   1      42.445  22.643  25.125  1.00  0.00    -0.237 OA
ATOM     89  O   UNL A   1      42.556  22.482  27.582  1.00  0.00    -0.237 OA
ATOM     90  O   UNL A   1      40.376  22.668  26.476  1.00  0.00    -0.744 OA
ENDBRANCH  84  87
ENDBRANCH  56  80
BRANCH  68  91
ATOM     91  C   UNL A   1      44.569  27.517  34.112  1.00  0.00     0.023 A 
ATOM     92  C   UNL A   1      45.810  28.184  34.070  1.00  0.00     0.012 A 
ATOM     93  C   UNL A   1      44.446  26.330  34.861  1.00  0.00     0.148 A 
ATOM     94  C   UNL A   1      46.916  27.664  34.739  1.00  0.00     0.002 A 
ATOM     95  C   UNL A   1      45.540  25.844  35.567  1.00  0.00     0.091 A 
ATOM     96  F   UNL A   1      43.259  25.705  34.877  1.00  0.00    -0.205 F 
ATOM     97  C   UNL A   1      46.779  26.503  35.497  1.00  0.00     0.022 A 
BRANCH  95  98
ATOM     98  S   UNL A   1      45.437  24.412  36.647  1.00  0.00     0.127 S 
ATOM     99  O   UNL A   1      46.780  24.382  37.227  1.00  0.00    -0.237 OA
ATOM    100  O   UNL A   1      44.379  24.804  37.578  1.00  0.00    -0.237 OA
ATOM    101  O   UNL A   1      45.107  23.282  35.790  1.00  0.00    -0.744 OA
ENDBRANCH  95  98
ENDBRANCH  68  91
ENDBRANCH  42  43
ENDBRANCH  34  37
ENDBRANCH  32  33
ENDBRANCH  31  32
ENDBRANCH   1  31
TORSDOF 18
ENDMDL
