MODEL 1
REMARK VINA RESULT:     -12.4      0.000      0.000
REMARK SMILES O=C(NCCCCCCNC(=O)c1cc(F)ccc1N1CCCc2ccccc21)c1ccc(-c2c3nc(c(-c4cccc(S(=O)(=O)[O-])c4F)c4ccc([nH]4)c(-c4cccc(S(=O)(=O)[O-])c4F)c4nc(c(-c5cccc(S(=O)(=O)[O-])c5F)c5ccc2[nH]5)C=C4)C=C3)cc1
REMARK SMILES IDX 5 1 4 2 3 3 1 4 2 5 30 7 31 8 92 9 32 10 91 11 33 12 34 13
REMARK SMILES IDX 35 14 85 15 36 16 90 17 84 18 86 19 37 20 89 21 83 22 82 23
REMARK SMILES IDX 38 25 70 26 50 27 69 28 51 29 54 30 68 31 87 32 52 33 53 34
REMARK SMILES IDX 67 36 88 37 55 38 39 39 40 40 48 41 41 42 43 43 49 44 42 45
REMARK SMILES IDX 44 46 45 47 46 48 47 49 71 50 72 51 80 52 73 53 75 54 81 55
REMARK SMILES IDX 74 56 76 57 77 58 78 59 79 60 56 61 57 62 65 63 58 64 60 65
REMARK SMILES IDX 66 66 59 67 61 68 62 69 63 70 64 71 6 72 7 73 8 74 9 75
REMARK SMILES IDX 10 76 11 77 12 79 13 80 14 81 19 82 15 83 18 84 16 85 17 86
REMARK SMILES IDX 20 87 21 88 29 89 22 90 24 91 28 92 23 93 25 94 27 95 26 96
REMARK H PARENT 3 6 86 24 54 35 10 78
REMARK Flexibility Score: inf
ROOT
ATOM      1  C   UNL A   1      31.094  31.961  26.446  1.00  0.00     0.021 C 
ENDROOT
BRANCH   1   2
ATOM      2  C   UNL A   1      32.453  32.393  26.977  1.00  0.00     0.116 C 
BRANCH   2   3
ATOM      3  N   UNL A   1      32.451  33.774  27.424  1.00  0.00    -0.352 N 
ATOM      4  O   UNL A   1      32.981  35.494  28.780  1.00  0.00    -0.269 OA
ATOM      5  C   UNL A   1      33.246  34.365  28.374  1.00  0.00     0.251 C 
ATOM      6  H   UNL A   1      31.794  34.364  26.989  1.00  0.00     0.163 HD
BRANCH   5   7
ATOM      7  C   UNL A   1      34.406  33.625  28.911  1.00  0.00     0.039 A 
ATOM      8  C   UNL A   1      35.687  34.188  28.870  1.00  0.00     0.014 A 
ATOM      9  C   UNL A   1      34.208  32.364  29.481  1.00  0.00     0.014 A 
ATOM     10  C   UNL A   1      36.781  33.451  29.306  1.00  0.00     0.010 A 
ATOM     11  C   UNL A   1      35.297  31.659  29.993  1.00  0.00     0.010 A 
ATOM     12  C   UNL A   1      36.592  32.197  29.907  1.00  0.00    -0.014 A 
BRANCH  12  13
ATOM     13  C   UNL A   1      37.731  31.535  30.587  1.00  0.00     0.031 A 
ATOM     14  C   UNL A   1      38.105  31.861  32.000  1.00  0.00     0.074 A 
ATOM     15  C   UNL A   1      38.449  30.645  29.876  1.00  0.00     0.049 A 
ATOM     16  N   UNL A   1      39.089  31.381  32.716  1.00  0.00    -0.248 NA
ATOM     17  C   UNL A   1      37.274  32.850  32.703  1.00  0.00     0.031 C 
ATOM     18  C   UNL A   1      38.182  30.277  28.482  1.00  0.00     0.029 A 
ATOM     19  N   UNL A   1      39.540  29.890  30.215  1.00  0.00    -0.354 N 
ATOM     20  C   UNL A   1      39.015  32.024  33.945  1.00  0.00     0.074 A 
ATOM     21  C   UNL A   1      37.896  32.940  33.873  1.00  0.00     0.031 C 
ATOM     22  C   UNL A   1      39.064  29.346  28.096  1.00  0.00     0.029 A 
ATOM     23  C   UNL A   1      39.996  29.099  29.188  1.00  0.00     0.049 A 
ATOM     24  H   UNL A   1      39.958  29.913  31.107  1.00  0.00     0.167 HD
ATOM     25  C   UNL A   1      39.803  31.852  35.035  1.00  0.00     0.034 A 
ATOM     26  C   UNL A   1      41.057  28.275  29.120  1.00  0.00     0.034 A 
ATOM     27  C   UNL A   1      40.917  30.937  35.086  1.00  0.00     0.049 A 
ATOM     28  C   UNL A   1      41.923  28.114  30.333  1.00  0.00     0.074 A 
ATOM     29  C   UNL A   1      41.770  30.679  36.145  1.00  0.00     0.029 A 
ATOM     30  N   UNL A   1      41.337  30.134  34.034  1.00  0.00    -0.354 N 
ATOM     31  N   UNL A   1      41.799  28.677  31.510  1.00  0.00    -0.248 NA
ATOM     32  C   UNL A   1      43.056  27.189  30.220  1.00  0.00     0.031 C 
ATOM     33  C   UNL A   1      42.719  29.740  35.725  1.00  0.00     0.029 A 
ATOM     34  C   UNL A   1      42.436  29.382  34.417  1.00  0.00     0.049 A 
ATOM     35  H   UNL A   1      40.916  30.104  33.145  1.00  0.00     0.167 HD
ATOM     36  C   UNL A   1      42.815  28.149  32.294  1.00  0.00     0.074 A 
ATOM     37  C   UNL A   1      43.540  27.212  31.457  1.00  0.00     0.031 C 
ATOM     38  C   UNL A   1      43.122  28.422  33.586  1.00  0.00     0.034 A 
BRANCH  25  39
ATOM     39  C   UNL A   1      39.470  32.644  36.275  1.00  0.00     0.023 A 
ATOM     40  C   UNL A   1      40.028  33.928  36.449  1.00  0.00     0.012 A 
ATOM     41  C   UNL A   1      38.561  32.155  37.235  1.00  0.00     0.148 A 
ATOM     42  C   UNL A   1      39.713  34.696  37.569  1.00  0.00     0.002 A 
ATOM     43  C   UNL A   1      38.217  32.945  38.326  1.00  0.00     0.091 A 
ATOM     44  F   UNL A   1      38.055  30.924  37.070  1.00  0.00    -0.205 F 
ATOM     45  C   UNL A   1      38.801  34.211  38.502  1.00  0.00     0.022 A 
BRANCH  43  46
ATOM     46  S   UNL A   1      36.986  32.444  39.536  1.00  0.00     0.127 S 
ATOM     47  O   UNL A   1      37.110  33.499  40.540  1.00  0.00    -0.237 OA
ATOM     48  O   UNL A   1      35.748  32.487  38.757  1.00  0.00    -0.237 OA
ATOM     49  O   UNL A   1      37.378  31.111  39.974  1.00  0.00    -0.744 OA
ENDBRANCH  43  46
ENDBRANCH  25  39
BRANCH  26  50
ATOM     50  C   UNL A   1      41.281  27.491  27.875  1.00  0.00     0.023 A 
ATOM     51  C   UNL A   1      41.877  28.124  26.768  1.00  0.00     0.012 A 
ATOM     52  C   UNL A   1      41.030  26.105  27.827  1.00  0.00     0.148 A 
ATOM     53  C   UNL A   1      42.219  27.389  25.633  1.00  0.00     0.002 A 
ATOM     54  C   UNL A   1      41.428  25.371  26.718  1.00  0.00     0.091 A 
ATOM     55  F   UNL A   1      40.463  25.529  28.896  1.00  0.00    -0.205 F 
ATOM     56  C   UNL A   1      42.011  26.013  25.613  1.00  0.00     0.022 A 
BRANCH  54  57
ATOM     57  S   UNL A   1      41.345  23.577  26.663  1.00  0.00     0.127 S 
ATOM     58  O   UNL A   1      42.139  23.277  25.474  1.00  0.00    -0.237 OA
ATOM     59  O   UNL A   1      41.975  23.213  27.932  1.00  0.00    -0.237 OA
ATOM     60  O   UNL A   1      39.930  23.247  26.570  1.00  0.00    -0.744 OA
ENDBRANCH  54  57
ENDBRANCH  26  50
BRANCH  38  61
ATOM     61  C   UNL A   1      44.273  27.668  34.201  1.00  0.00     0.023 A 
ATOM     62  C   UNL A   1      45.582  28.179  34.107  1.00  0.00     0.012 A 
ATOM     63  C   UNL A   1      44.041  26.488  34.936  1.00  0.00     0.148 A 
ATOM     64  C   UNL A   1      46.647  27.512  34.712  1.00  0.00     0.002 A 
ATOM     65  C   UNL A   1      45.099  25.857  35.578  1.00  0.00     0.091 A 
ATOM     66  F   UNL A   1      42.792  26.004  34.991  1.00  0.00    -0.205 F 
ATOM     67  C   UNL A   1      46.405  26.360  35.457  1.00  0.00     0.022 A 
BRANCH  65  68
ATOM     68  S   UNL A   1      44.860  24.430  36.643  1.00  0.00     0.127 S 
ATOM     69  O   UNL A   1      46.223  24.170  37.103  1.00  0.00    -0.237 OA
ATOM     70  O   UNL A   1      43.959  24.956  37.670  1.00  0.00    -0.237 OA
ATOM     71  O   UNL A   1      44.274  23.397  35.800  1.00  0.00    -0.744 OA
ENDBRANCH  65  68
ENDBRANCH  38  61
ENDBRANCH  12  13
ENDBRANCH   5   7
ENDBRANCH   2   3
ENDBRANCH   1   2
BRANCH   1  72
ATOM     72  C   UNL A   1      31.131  30.763  25.497  1.00  0.00     0.002 C 
BRANCH  72  73
ATOM     73  C   UNL A   1      32.231  29.736  25.778  1.00  0.00     0.002 C 
BRANCH  73  74
ATOM     74  C   UNL A   1      31.914  28.711  26.871  1.00  0.00     0.021 C 
BRANCH  74  75
ATOM     75  C   UNL A   1      32.683  27.398  26.770  1.00  0.00     0.116 C 
BRANCH  75  76
ATOM     76  N   UNL A   1      31.820  26.242  26.937  1.00  0.00    -0.352 N 
ATOM     77  C   UNL A   1      31.087  25.561  25.996  1.00  0.00     0.253 C 
ATOM     78  H   UNL A   1      31.751  25.896  27.856  1.00  0.00     0.163 HD
ATOM     79  O   UNL A   1      30.374  24.624  26.338  1.00  0.00    -0.269 OA
BRANCH  77  80
ATOM     80  C   UNL A   1      31.202  25.956  24.577  1.00  0.00     0.066 A 
ATOM     81  C   UNL A   1      30.340  26.966  24.120  1.00  0.00     0.055 A 
ATOM     82  C   UNL A   1      32.179  25.405  23.725  1.00  0.00     0.054 A 
ATOM     83  C   UNL A   1      30.393  27.370  22.795  1.00  0.00     0.124 A 
ATOM     84  C   UNL A   1      32.198  25.845  22.383  1.00  0.00     0.030 A 
ATOM     85  F   UNL A   1      29.548  28.314  22.359  1.00  0.00    -0.207 F 
ATOM     86  C   UNL A   1      31.304  26.808  21.916  1.00  0.00     0.041 A 
BRANCH  82  87
ATOM     87  N   UNL A   1      33.160  24.481  24.124  1.00  0.00    -0.341 N 
ATOM     88  C   UNL A   1      34.419  25.002  24.662  1.00  0.00     0.123 C 
ATOM     89  C   UNL A   1      33.059  23.075  24.024  1.00  0.00     0.044 A 
ATOM     90  C   UNL A   1      34.737  24.291  25.973  1.00  0.00     0.027 C 
ATOM     91  C   UNL A   1      33.869  22.228  24.806  1.00  0.00    -0.024 A 
ATOM     92  C   UNL A   1      32.140  22.482  23.139  1.00  0.00     0.026 A 
ATOM     93  C   UNL A   1      34.912  22.795  25.734  1.00  0.00     0.039 C 
ATOM     94  C   UNL A   1      33.740  20.834  24.696  1.00  0.00     0.006 A 
ATOM     95  C   UNL A   1      32.020  21.096  23.032  1.00  0.00     0.002 A 
ATOM     96  C   UNL A   1      32.816  20.271  23.816  1.00  0.00     0.000 A 
ENDBRANCH  82  87
ENDBRANCH  77  80
ENDBRANCH  75  76
ENDBRANCH  74  75
ENDBRANCH  73  74
ENDBRANCH  72  73
ENDBRANCH   1  72
TORSDOF 17
ENDMDL
MODEL 2
REMARK VINA RESULT:     -12.2      1.425      1.732
REMARK SMILES O=C(NCCCCCCNC(=O)c1cc(F)ccc1N1CCCc2ccccc21)c1ccc(-c2c3nc(c(-c4cccc(S(=O)(=O)[O-])c4F)c4ccc([nH]4)c(-c4cccc(S(=O)(=O)[O-])c4F)c4nc(c(-c5cccc(S(=O)(=O)[O-])c5F)c5ccc2[nH]5)C=C4)C=C3)cc1
REMARK SMILES IDX 5 1 4 2 3 3 1 4 2 5 30 7 31 8 92 9 32 10 91 11 33 12 34 13
REMARK SMILES IDX 35 14 85 15 36 16 90 17 84 18 86 19 37 20 89 21 83 22 82 23
REMARK SMILES IDX 38 25 70 26 50 27 69 28 51 29 54 30 68 31 87 32 52 33 53 34
REMARK SMILES IDX 67 36 88 37 55 38 39 39 40 40 48 41 41 42 43 43 49 44 42 45
REMARK SMILES IDX 44 46 45 47 46 48 47 49 71 50 72 51 80 52 73 53 75 54 81 55
REMARK SMILES IDX 74 56 76 57 77 58 78 59 79 60 56 61 57 62 65 63 58 64 60 65
REMARK SMILES IDX 66 66 59 67 61 68 62 69 63 70 64 71 6 72 7 73 8 74 9 75
REMARK SMILES IDX 10 76 11 77 12 79 13 80 14 81 19 82 15 83 18 84 16 85 17 86
REMARK SMILES IDX 20 87 21 88 29 89 22 90 24 91 28 92 23 93 25 94 27 95 26 96
REMARK H PARENT 3 6 86 24 54 35 10 78
REMARK Flexibility Score: inf
ROOT
ATOM      1  C   UNL A   1      31.802  30.078  25.397  1.00  0.00     0.021 C 
ENDROOT
BRANCH   1   2
ATOM      2  C   UNL A   1      32.100  30.598  26.796  1.00  0.00     0.116 C 
BRANCH   2   3
ATOM      3  N   UNL A   1      32.127  32.049  26.844  1.00  0.00    -0.352 N 
ATOM      4  O   UNL A   1      32.774  34.066  27.613  1.00  0.00    -0.269 OA
ATOM      5  C   UNL A   1      33.009  32.865  27.508  1.00  0.00     0.251 C 
ATOM      6  H   UNL A   1      31.422  32.508  26.333  1.00  0.00     0.163 HD
BRANCH   5   7
ATOM      7  C   UNL A   1      34.228  32.281  28.106  1.00  0.00     0.039 A 
ATOM      8  C   UNL A   1      35.326  33.092  28.412  1.00  0.00     0.014 A 
ATOM      9  C   UNL A   1      34.263  30.912  28.383  1.00  0.00     0.014 A 
ATOM     10  C   UNL A   1      36.494  32.521  28.901  1.00  0.00     0.010 A 
ATOM     11  C   UNL A   1      35.409  30.352  28.950  1.00  0.00     0.010 A 
ATOM     12  C   UNL A   1      36.533  31.152  29.211  1.00  0.00    -0.014 A 
BRANCH  12  13
ATOM     13  C   UNL A   1      37.692  30.607  29.956  1.00  0.00     0.031 A 
ATOM     14  C   UNL A   1      37.976  31.001  31.373  1.00  0.00     0.074 A 
ATOM     15  C   UNL A   1      38.510  29.759  29.304  1.00  0.00     0.049 A 
ATOM     16  N   UNL A   1      38.964  30.626  32.144  1.00  0.00    -0.248 NA
ATOM     17  C   UNL A   1      37.037  31.937  32.010  1.00  0.00     0.031 C 
ATOM     18  C   UNL A   1      38.335  29.332  27.913  1.00  0.00     0.029 A 
ATOM     19  N   UNL A   1      39.644  29.108  29.711  1.00  0.00    -0.354 N 
ATOM     20  C   UNL A   1      38.785  31.294  33.348  1.00  0.00     0.074 A 
ATOM     21  C   UNL A   1      37.598  32.111  33.201  1.00  0.00     0.031 C 
ATOM     22  C   UNL A   1      39.306  28.468  27.592  1.00  0.00     0.029 A 
ATOM     23  C   UNL A   1      40.207  28.329  28.729  1.00  0.00     0.049 A 
ATOM     24  H   UNL A   1      40.019  29.190  30.618  1.00  0.00     0.167 HD
ATOM     25  C   UNL A   1      39.536  31.218  34.474  1.00  0.00     0.034 A 
ATOM     26  C   UNL A   1      41.334  27.594  28.731  1.00  0.00     0.034 A 
ATOM     27  C   UNL A   1      40.718  30.401  34.599  1.00  0.00     0.049 A 
ATOM     28  C   UNL A   1      42.157  27.541  29.982  1.00  0.00     0.074 A 
ATOM     29  C   UNL A   1      41.543  30.245  35.699  1.00  0.00     0.029 A 
ATOM     30  N   UNL A   1      41.248  29.607  33.591  1.00  0.00    -0.354 N 
ATOM     31  N   UNL A   1      41.936  28.124  31.135  1.00  0.00    -0.248 NA
ATOM     32  C   UNL A   1      43.366  26.710  29.945  1.00  0.00     0.031 C 
ATOM     33  C   UNL A   1      42.583  29.377  35.348  1.00  0.00     0.029 A 
ATOM     34  C   UNL A   1      42.386  28.960  34.042  1.00  0.00     0.049 A 
ATOM     35  H   UNL A   1      40.869  29.517  32.687  1.00  0.00     0.167 HD
ATOM     36  C   UNL A   1      42.957  27.704  31.976  1.00  0.00     0.074 A 
ATOM     37  C   UNL A   1      43.792  26.807  31.199  1.00  0.00     0.031 C 
ATOM     38  C   UNL A   1      43.184  28.038  33.271  1.00  0.00     0.034 A 
BRANCH  25  39
ATOM     39  C   UNL A   1      39.086  32.014  35.674  1.00  0.00     0.023 A 
ATOM     40  C   UNL A   1      38.194  31.432  36.598  1.00  0.00     0.012 A 
ATOM     41  C   UNL A   1      39.590  33.306  35.928  1.00  0.00     0.148 A 
ATOM     42  C   UNL A   1      37.785  32.132  37.733  1.00  0.00     0.002 A 
ATOM     43  C   UNL A   1      39.214  33.980  37.085  1.00  0.00     0.091 A 
ATOM     44  F   UNL A   1      40.421  33.858  35.030  1.00  0.00    -0.205 F 
ATOM     45  C   UNL A   1      38.303  33.399  37.983  1.00  0.00     0.022 A 
BRANCH  43  46
ATOM     46  S   UNL A   1      39.893  35.581  37.538  1.00  0.00     0.127 S 
ATOM     47  O   UNL A   1      39.131  35.894  38.745  1.00  0.00    -0.237 OA
ATOM     48  O   UNL A   1      41.303  35.267  37.772  1.00  0.00    -0.237 OA
ATOM     49  O   UNL A   1      39.649  36.453  36.397  1.00  0.00    -0.744 OA
ENDBRANCH  43  46
ENDBRANCH  25  39
BRANCH  26  50
ATOM     50  C   UNL A   1      41.675  26.798  27.521  1.00  0.00     0.023 A 
ATOM     51  C   UNL A   1      42.355  27.424  26.460  1.00  0.00     0.012 A 
ATOM     52  C   UNL A   1      41.449  25.408  27.472  1.00  0.00     0.148 A 
ATOM     53  C   UNL A   1      42.804  26.680  25.369  1.00  0.00     0.002 A 
ATOM     54  C   UNL A   1      41.951  24.664  26.412  1.00  0.00     0.091 A 
ATOM     55  F   UNL A   1      40.800  24.837  28.497  1.00  0.00    -0.205 F 
ATOM     56  C   UNL A   1      42.617  25.300  25.352  1.00  0.00     0.022 A 
BRANCH  54  57
ATOM     57  S   UNL A   1      41.898  22.869  26.377  1.00  0.00     0.127 S 
ATOM     58  O   UNL A   1      42.566  22.575  25.111  1.00  0.00    -0.237 OA
ATOM     59  O   UNL A   1      42.667  22.527  27.573  1.00  0.00    -0.237 OA
ATOM     60  O   UNL A   1      40.488  22.511  26.438  1.00  0.00    -0.744 OA
ENDBRANCH  54  57
ENDBRANCH  26  50
BRANCH  38  61
ATOM     61  C   UNL A   1      44.365  27.400  33.955  1.00  0.00     0.023 A 
ATOM     62  C   UNL A   1      45.624  28.031  33.927  1.00  0.00     0.012 A 
ATOM     63  C   UNL A   1      44.205  26.208  34.690  1.00  0.00     0.148 A 
ATOM     64  C   UNL A   1      46.712  27.471  34.595  1.00  0.00     0.002 A 
ATOM     65  C   UNL A   1      45.281  25.683  35.396  1.00  0.00     0.091 A 
ATOM     66  F   UNL A   1      43.006  25.608  34.683  1.00  0.00    -0.205 F 
ATOM     67  C   UNL A   1      46.538  26.306  35.340  1.00  0.00     0.022 A 
BRANCH  65  68
ATOM     68  S   UNL A   1      45.118  24.247  36.462  1.00  0.00     0.127 S 
ATOM     69  O   UNL A   1      44.330  24.786  37.569  1.00  0.00    -0.237 OA
ATOM     70  O   UNL A   1      44.400  23.302  35.605  1.00  0.00    -0.237 OA
ATOM     71  O   UNL A   1      46.476  23.842  36.798  1.00  0.00    -0.744 OA
ENDBRANCH  65  68
ENDBRANCH  38  61
ENDBRANCH  12  13
ENDBRANCH   5   7
ENDBRANCH   2   3
ENDBRANCH   1   2
BRANCH   1  72
ATOM     72  C   UNL A   1      32.824  29.077  24.857  1.00  0.00     0.002 C 
BRANCH  72  73
ATOM     73  C   UNL A   1      33.729  28.430  25.910  1.00  0.00     0.002 C 
BRANCH  73  74
ATOM     74  C   UNL A   1      33.284  27.050  26.406  1.00  0.00     0.021 C 
BRANCH  74  75
ATOM     75  C   UNL A   1      31.803  26.933  26.749  1.00  0.00     0.116 C 
BRANCH  75  76
ATOM     76  N   UNL A   1      31.334  25.559  26.694  1.00  0.00    -0.352 N 
ATOM     77  C   UNL A   1      31.133  24.752  25.601  1.00  0.00     0.253 C 
ATOM     78  H   UNL A   1      31.131  25.147  27.565  1.00  0.00     0.163 HD
ATOM     79  O   UNL A   1      30.685  23.620  25.751  1.00  0.00    -0.269 OA
BRANCH  77  80
ATOM     80  C   UNL A   1      31.498  25.259  24.261  1.00  0.00     0.066 A 
ATOM     81  C   UNL A   1      30.735  26.320  23.748  1.00  0.00     0.055 A 
ATOM     82  C   UNL A   1      32.605  24.759  23.549  1.00  0.00     0.054 A 
ATOM     83  C   UNL A   1      31.021  26.829  22.490  1.00  0.00     0.124 A 
ATOM     84  C   UNL A   1      32.862  25.305  22.273  1.00  0.00     0.030 A 
ATOM     85  F   UNL A   1      30.272  27.823  21.995  1.00  0.00    -0.207 F 
ATOM     86  C   UNL A   1      32.069  26.322  21.740  1.00  0.00     0.041 A 
BRANCH  82  87
ATOM     87  N   UNL A   1      33.496  23.785  24.034  1.00  0.00    -0.341 N 
ATOM     88  C   UNL A   1      34.765  24.237  24.608  1.00  0.00     0.123 C 
ATOM     89  C   UNL A   1      33.293  22.387  23.991  1.00  0.00     0.044 A 
ATOM     90  C   UNL A   1      34.971  23.567  25.962  1.00  0.00     0.027 C 
ATOM     91  C   UNL A   1      34.002  21.521  24.846  1.00  0.00    -0.024 A 
ATOM     92  C   UNL A   1      32.372  21.821  23.091  1.00  0.00     0.026 A 
ATOM     93  C   UNL A   1      35.043  22.052  25.797  1.00  0.00     0.039 C 
ATOM     94  C   UNL A   1      33.773  20.135  24.791  1.00  0.00     0.006 A 
ATOM     95  C   UNL A   1      32.153  20.444  23.038  1.00  0.00     0.002 A 
ATOM     96  C   UNL A   1      32.849  19.601  23.894  1.00  0.00     0.000 A 
ENDBRANCH  82  87
ENDBRANCH  77  80
ENDBRANCH  75  76
ENDBRANCH  74  75
ENDBRANCH  73  74
ENDBRANCH  72  73
ENDBRANCH   1  72
TORSDOF 17
ENDMDL
MODEL 3
REMARK VINA RESULT:     -12.2      5.591     11.054
REMARK SMILES O=C(NCCCCCCNC(=O)c1cc(F)ccc1N1CCCc2ccccc21)c1ccc(-c2c3nc(c(-c4cccc(S(=O)(=O)[O-])c4F)c4ccc([nH]4)c(-c4cccc(S(=O)(=O)[O-])c4F)c4nc(c(-c5cccc(S(=O)(=O)[O-])c5F)c5ccc2[nH]5)C=C4)C=C3)cc1
REMARK SMILES IDX 5 1 4 2 3 3 1 4 2 5 30 7 31 8 92 9 32 10 91 11 33 12 34 13
REMARK SMILES IDX 35 14 85 15 36 16 90 17 84 18 86 19 37 20 89 21 83 22 82 23
REMARK SMILES IDX 38 25 70 26 50 27 69 28 51 29 54 30 68 31 87 32 52 33 53 34
REMARK SMILES IDX 67 36 88 37 55 38 39 39 40 40 48 41 41 42 43 43 49 44 42 45
REMARK SMILES IDX 44 46 45 47 46 48 47 49 71 50 72 51 80 52 73 53 75 54 81 55
REMARK SMILES IDX 74 56 76 57 77 58 78 59 79 60 56 61 57 62 65 63 58 64 60 65
REMARK SMILES IDX 66 66 59 67 61 68 62 69 63 70 64 71 6 72 7 73 8 74 9 75
REMARK SMILES IDX 10 76 11 77 12 79 13 80 14 81 19 82 15 83 18 84 16 85 17 86
REMARK SMILES IDX 20 87 21 88 29 89 22 90 24 91 28 92 23 93 25 94 27 95 26 96
REMARK H PARENT 3 6 86 24 54 35 10 78
REMARK Flexibility Score: inf
ROOT
ATOM      1  C   UNL A   1      37.864  19.928  24.897  1.00  0.00     0.021 C 
ENDROOT
BRANCH   1   2
ATOM      2  C   UNL A   1      38.973  20.368  25.841  1.00  0.00     0.116 C 
BRANCH   2   3
ATOM      3  N   UNL A   1      40.018  19.367  25.960  1.00  0.00    -0.352 N 
ATOM      4  O   UNL A   1      42.139  18.608  25.998  1.00  0.00    -0.269 OA
ATOM      5  C   UNL A   1      41.368  19.557  26.118  1.00  0.00     0.251 C 
ATOM      6  H   UNL A   1      39.719  18.430  25.923  1.00  0.00     0.163 HD
BRANCH   5   7
ATOM      7  C   UNL A   1      41.880  20.911  26.414  1.00  0.00     0.039 A 
ATOM      8  C   UNL A   1      42.075  21.836  25.381  1.00  0.00     0.014 A 
ATOM      9  C   UNL A   1      42.146  21.266  27.739  1.00  0.00     0.014 A 
ATOM     10  C   UNL A   1      42.630  23.079  25.661  1.00  0.00     0.010 A 
ATOM     11  C   UNL A   1      42.627  22.545  28.027  1.00  0.00     0.010 A 
ATOM     12  C   UNL A   1      42.874  23.458  26.990  1.00  0.00    -0.014 A 
BRANCH  12  13
ATOM     13  C   UNL A   1      43.230  24.865  27.292  1.00  0.00     0.031 A 
ATOM     14  C   UNL A   1      44.597  25.411  27.013  1.00  0.00     0.074 A 
ATOM     15  C   UNL A   1      42.286  25.639  27.861  1.00  0.00     0.049 A 
ATOM     16  N   UNL A   1      45.060  26.612  27.244  1.00  0.00    -0.248 NA
ATOM     17  C   UNL A   1      45.571  24.498  26.397  1.00  0.00     0.031 C 
ATOM     18  C   UNL A   1      40.931  25.194  28.198  1.00  0.00     0.029 A 
ATOM     19  N   UNL A   1      42.313  26.950  28.256  1.00  0.00    -0.354 N 
ATOM     20  C   UNL A   1      46.385  26.598  26.828  1.00  0.00     0.074 A 
ATOM     21  C   UNL A   1      46.656  25.261  26.341  1.00  0.00     0.031 C 
ATOM     22  C   UNL A   1      40.248  26.220  28.719  1.00  0.00     0.029 A 
ATOM     23  C   UNL A   1      41.132  27.375  28.815  1.00  0.00     0.049 A 
ATOM     24  H   UNL A   1      43.102  27.530  28.152  1.00  0.00     0.167 HD
ATOM     25  C   UNL A   1      47.284  27.613  26.841  1.00  0.00     0.034 A 
ATOM     26  C   UNL A   1      40.795  28.557  29.361  1.00  0.00     0.034 A 
ATOM     27  C   UNL A   1      46.996  28.936  27.335  1.00  0.00     0.049 A 
ATOM     28  C   UNL A   1      41.811  29.658  29.379  1.00  0.00     0.074 A 
ATOM     29  C   UNL A   1      47.832  30.038  27.382  1.00  0.00     0.029 A 
ATOM     30  N   UNL A   1      45.780  29.339  27.873  1.00  0.00    -0.354 N 
ATOM     31  N   UNL A   1      43.039  29.650  28.918  1.00  0.00    -0.248 NA
ATOM     32  C   UNL A   1      41.393  30.937  29.964  1.00  0.00     0.031 C 
ATOM     33  C   UNL A   1      47.131  31.097  27.969  1.00  0.00     0.029 A 
ATOM     34  C   UNL A   1      45.844  30.669  28.254  1.00  0.00     0.049 A 
ATOM     35  H   UNL A   1      44.989  28.762  27.970  1.00  0.00     0.167 HD
ATOM     36  C   UNL A   1      43.531  30.930  29.123  1.00  0.00     0.074 A 
ATOM     37  C   UNL A   1      42.463  31.692  29.742  1.00  0.00     0.031 C 
ATOM     38  C   UNL A   1      44.760  31.426  28.831  1.00  0.00     0.034 A 
BRANCH  25  39
ATOM     39  C   UNL A   1      48.656  27.344  26.274  1.00  0.00     0.023 A 
ATOM     40  C   UNL A   1      49.660  26.811  27.110  1.00  0.00     0.012 A 
ATOM     41  C   UNL A   1      48.938  27.551  24.909  1.00  0.00     0.148 A 
ATOM     42  C   UNL A   1      50.928  26.522  26.607  1.00  0.00     0.002 A 
ATOM     43  C   UNL A   1      50.191  27.218  24.404  1.00  0.00     0.091 A 
ATOM     44  F   UNL A   1      47.983  28.079  24.130  1.00  0.00    -0.205 F 
ATOM     45  C   UNL A   1      51.190  26.715  25.254  1.00  0.00     0.022 A 
BRANCH  43  46
ATOM     46  S   UNL A   1      50.598  27.349  22.659  1.00  0.00     0.127 S 
ATOM     47  O   UNL A   1      49.507  26.595  22.043  1.00  0.00    -0.237 OA
ATOM     48  O   UNL A   1      50.543  28.794  22.434  1.00  0.00    -0.237 OA
ATOM     49  O   UNL A   1      51.925  26.765  22.514  1.00  0.00    -0.744 OA
ENDBRANCH  43  46
ENDBRANCH  25  39
BRANCH  26  50
ATOM     50  C   UNL A   1      39.402  28.753  29.848  1.00  0.00     0.023 A 
ATOM     51  C   UNL A   1      39.083  28.388  31.170  1.00  0.00     0.012 A 
ATOM     52  C   UNL A   1      38.438  29.414  29.061  1.00  0.00     0.148 A 
ATOM     53  C   UNL A   1      37.826  28.677  31.700  1.00  0.00     0.002 A 
ATOM     54  C   UNL A   1      37.210  29.751  29.616  1.00  0.00     0.091 A 
ATOM     55  F   UNL A   1      38.769  29.752  27.808  1.00  0.00    -0.205 F 
ATOM     56  C   UNL A   1      36.897  29.371  30.931  1.00  0.00     0.022 A 
BRANCH  54  57
ATOM     57  S   UNL A   1      36.010  30.778  28.760  1.00  0.00     0.127 S 
ATOM     58  O   UNL A   1      35.286  29.790  27.963  1.00  0.00    -0.237 OA
ATOM     59  O   UNL A   1      35.254  31.343  29.877  1.00  0.00    -0.237 OA
ATOM     60  O   UNL A   1      36.786  31.748  27.999  1.00  0.00    -0.744 OA
ENDBRANCH  54  57
ENDBRANCH  26  50
BRANCH  38  61
ATOM     61  C   UNL A   1      45.012  32.879  29.139  1.00  0.00     0.023 A 
ATOM     62  C   UNL A   1      45.599  33.250  30.364  1.00  0.00     0.012 A 
ATOM     63  C   UNL A   1      44.735  33.871  28.176  1.00  0.00     0.148 A 
ATOM     64  C   UNL A   1      45.878  34.589  30.638  1.00  0.00     0.002 A 
ATOM     65  C   UNL A   1      45.063  35.195  28.436  1.00  0.00     0.091 A 
ATOM     66  F   UNL A   1      44.153  33.500  27.026  1.00  0.00    -0.205 F 
ATOM     67  C   UNL A   1      45.623  35.558  29.671  1.00  0.00     0.022 A 
BRANCH  65  68
ATOM     68  S   UNL A   1      44.865  36.490  27.206  1.00  0.00     0.127 S 
ATOM     69  O   UNL A   1      45.955  36.189  26.279  1.00  0.00    -0.237 OA
ATOM     70  O   UNL A   1      43.525  36.220  26.682  1.00  0.00    -0.237 OA
ATOM     71  O   UNL A   1      44.986  37.749  27.928  1.00  0.00    -0.744 OA
ENDBRANCH  65  68
ENDBRANCH  38  61
ENDBRANCH  12  13
ENDBRANCH   5   7
ENDBRANCH   2   3
ENDBRANCH   1   2
BRANCH   1  72
ATOM     72  C   UNL A   1      36.609  20.800  24.935  1.00  0.00     0.002 C 
BRANCH  72  73
ATOM     73  C   UNL A   1      36.678  22.087  24.107  1.00  0.00     0.002 C 
BRANCH  73  74
ATOM     74  C   UNL A   1      36.850  23.380  24.909  1.00  0.00     0.021 C 
BRANCH  74  75
ATOM     75  C   UNL A   1      35.565  24.160  25.162  1.00  0.00     0.116 C 
BRANCH  75  76
ATOM     76  N   UNL A   1      34.955  24.629  23.931  1.00  0.00    -0.352 N 
ATOM     77  C   UNL A   1      33.659  24.495  23.496  1.00  0.00     0.253 C 
ATOM     78  H   UNL A   1      35.557  25.112  23.319  1.00  0.00     0.163 HD
ATOM     79  O   UNL A   1      33.337  24.924  22.393  1.00  0.00    -0.269 OA
BRANCH  77  80
ATOM     80  C   UNL A   1      32.668  23.862  24.390  1.00  0.00     0.066 A 
ATOM     81  C   UNL A   1      32.631  22.458  24.416  1.00  0.00     0.055 A 
ATOM     82  C   UNL A   1      31.838  24.618  25.240  1.00  0.00     0.054 A 
ATOM     83  C   UNL A   1      31.712  21.808  25.225  1.00  0.00     0.124 A 
ATOM     84  C   UNL A   1      30.918  23.917  26.049  1.00  0.00     0.030 A 
ATOM     85  F   UNL A   1      31.664  20.470  25.224  1.00  0.00    -0.207 F 
ATOM     86  C   UNL A   1      30.844  22.524  26.033  1.00  0.00     0.041 A 
BRANCH  82  87
ATOM     87  N   UNL A   1      31.889  26.018  25.372  1.00  0.00    -0.341 N 
ATOM     88  C   UNL A   1      32.828  26.585  26.344  1.00  0.00     0.123 C 
ATOM     89  C   UNL A   1      31.086  26.942  24.667  1.00  0.00     0.044 A 
ATOM     90  C   UNL A   1      33.641  27.685  25.672  1.00  0.00     0.027 C 
ATOM     91  C   UNL A   1      31.470  28.291  24.537  1.00  0.00    -0.024 A 
ATOM     92  C   UNL A   1      29.878  26.537  24.072  1.00  0.00     0.026 A 
ATOM     93  C   UNL A   1      32.725  28.806  25.195  1.00  0.00     0.039 C 
ATOM     94  C   UNL A   1      30.659  29.188  23.821  1.00  0.00     0.006 A 
ATOM     95  C   UNL A   1      29.075  27.434  23.365  1.00  0.00     0.002 A 
ATOM     96  C   UNL A   1      29.469  28.759  23.234  1.00  0.00     0.000 A 
ENDBRANCH  82  87
ENDBRANCH  77  80
ENDBRANCH  75  76
ENDBRANCH  74  75
ENDBRANCH  73  74
ENDBRANCH  72  73
ENDBRANCH   1  72
TORSDOF 17
ENDMDL
