MODEL 1
REMARK VINA RESULT:     -11.5      0.000      0.000
REMARK SMILES CC1=C(C)C[C@@H](C(=O)N[C@H](C)C(C)(C)C)[C@@H](C(=O)NCCCCCCNC(=O)c2ccc(-c3c4nc(c(-c5cccc(S(=O)(=O)[O-])c5F)c5ccc([nH]5)c(-c5cccc(S(=O)(=O)[O-])c5F)c5nc(c(-c6cccc(S(=O)(=O)[O-])c6F)c6ccc3[nH]6)C=C5)C=C4)cc2)C1
REMARK SMILES IDX 22 1 21 2 20 3 19 4 17 5 18 6 16 8 1 9 2 10 3 11 92 12 4 13
REMARK SMILES IDX 5 14 6 15 7 16 8 17 9 18 10 20 11 21 12 22 13 23 14 24 15 25
REMARK SMILES IDX 23 26 24 27 25 28 26 29 27 30 28 32 29 33 30 34 91 35 31 36
REMARK SMILES IDX 90 37 32 38 33 39 34 40 84 41 35 42 89 43 83 44 85 45 36 46
REMARK SMILES IDX 88 47 82 48 81 49 37 51 69 52 49 53 68 54 50 55 53 56 67 57
REMARK SMILES IDX 86 58 51 59 52 60 66 62 87 63 54 64 38 65 39 66 47 67 40 68
REMARK SMILES IDX 42 69 48 70 41 71 43 72 44 73 45 74 46 75 70 76 71 77 79 78
REMARK SMILES IDX 72 79 74 80 80 81 73 82 75 83 76 84 77 85 78 86 55 87 56 88
REMARK SMILES IDX 64 89 57 90 59 91 65 92 58 93 60 94 61 95 62 96 63 97
REMARK H PARENT 19 7 9 19 26 31 85 50 53 61
REMARK Flexibility Score: inf
ROOT
ATOM      1  C   UNL A   1      30.985  27.612  27.028  1.00  0.00     0.002 C 
ENDROOT
BRANCH   1   2
ATOM      2  C   UNL A   1      30.858  26.969  25.639  1.00  0.00     0.021 C 
BRANCH   2   3
ATOM      3  C   UNL A   1      30.173  25.603  25.614  1.00  0.00     0.116 C 
BRANCH   3   4
ATOM      4  N   UNL A   1      30.862  24.584  26.395  1.00  0.00    -0.356 N 
ATOM      5  C   UNL A   1      32.117  24.074  26.436  1.00  0.00     0.224 C 
ATOM      6  O   UNL A   1      32.325  23.325  27.404  1.00  0.00    -0.275 OA
ATOM      7  H   UNL A   1      30.269  24.161  27.058  1.00  0.00     0.163 HD
BRANCH   5   8
ATOM      8  C   UNL A   1      33.274  24.285  25.438  1.00  0.00     0.095 C 
ATOM      9  C   UNL A   1      37.074  23.644  26.096  1.00  0.00     0.039 C 
ATOM     10  C   UNL A   1      35.861  23.899  25.226  1.00  0.00    -0.074 C 
ATOM     11  C   UNL A   1      35.757  23.440  23.956  1.00  0.00    -0.074 C 
ATOM     12  C   UNL A   1      34.704  24.579  25.930  1.00  0.00     0.045 C 
ATOM     13  C   UNL A   1      36.888  22.784  23.194  1.00  0.00     0.039 C 
ATOM     14  C   UNL A   1      34.421  23.410  23.237  1.00  0.00     0.045 C 
ATOM     15  C   UNL A   1      33.137  23.500  24.102  1.00  0.00     0.095 C 
BRANCH  15  16
ATOM     16  C   UNL A   1      32.086  22.360  23.889  1.00  0.00     0.224 C 
ATOM     17  O   UNL A   1      31.134  22.641  23.128  1.00  0.00    -0.275 OA
ATOM     18  N   UNL A   1      32.006  21.069  24.276  1.00  0.00    -0.353 N 
ATOM     19  H   UNL A   1      31.273  20.672  23.751  1.00  0.00     0.163 HD
BRANCH  18  20
ATOM     20  C   UNL A   1      32.539  19.968  25.152  1.00  0.00     0.084 C 
ATOM     21  C   UNL A   1      33.614  20.550  26.072  1.00  0.00     0.031 C 
BRANCH  20  22
ATOM     22  C   UNL A   1      32.886  18.620  24.474  1.00  0.00    -0.018 C 
ATOM     23  C   UNL A   1      32.435  17.332  25.184  1.00  0.00     0.013 C 
ATOM     24  C   UNL A   1      32.258  18.611  23.061  1.00  0.00     0.013 C 
ATOM     25  C   UNL A   1      34.379  18.517  24.400  1.00  0.00     0.013 C 
ENDBRANCH  20  22
ENDBRANCH  18  20
ENDBRANCH  15  16
ENDBRANCH   5   8
ENDBRANCH   3   4
ENDBRANCH   2   3
ENDBRANCH   1   2
BRANCH   1  26
ATOM     26  C   UNL A   1      32.348  28.208  27.406  1.00  0.00     0.002 C 
BRANCH  26  27
ATOM     27  C   UNL A   1      33.525  27.932  26.469  1.00  0.00     0.021 C 
BRANCH  27  28
ATOM     28  C   UNL A   1      34.213  29.164  25.892  1.00  0.00     0.116 C 
BRANCH  28  29
ATOM     29  N   UNL A   1      33.889  30.381  26.616  1.00  0.00    -0.352 N 
ATOM     30  C   UNL A   1      34.513  30.957  27.690  1.00  0.00     0.251 C 
ATOM     31  H   UNL A   1      33.099  30.866  26.282  1.00  0.00     0.163 HD
ATOM     32  O   UNL A   1      33.986  31.929  28.239  1.00  0.00    -0.269 OA
BRANCH  30  33
ATOM     33  C   UNL A   1      35.793  30.425  28.211  1.00  0.00     0.039 A 
ATOM     34  C   UNL A   1      35.766  29.629  29.360  1.00  0.00     0.014 A 
ATOM     35  C   UNL A   1      37.017  30.731  27.608  1.00  0.00     0.014 A 
ATOM     36  C   UNL A   1      36.956  29.116  29.881  1.00  0.00     0.010 A 
ATOM     37  C   UNL A   1      38.193  30.150  28.081  1.00  0.00     0.010 A 
ATOM     38  C   UNL A   1      38.180  29.354  29.234  1.00  0.00    -0.014 A 
BRANCH  38  39
ATOM     39  C   UNL A   1      39.447  28.785  29.765  1.00  0.00     0.031 A 
ATOM     40  C   UNL A   1      40.102  29.386  30.981  1.00  0.00     0.074 A 
ATOM     41  C   UNL A   1      40.035  27.757  29.121  1.00  0.00     0.049 A 
ATOM     42  N   UNL A   1      41.205  29.025  31.584  1.00  0.00    -0.248 NA
ATOM     43  C   UNL A   1      39.449  30.560  31.589  1.00  0.00     0.031 C 
ATOM     44  C   UNL A   1      39.542  27.137  27.888  1.00  0.00     0.029 A 
ATOM     45  N   UNL A   1      41.186  27.062  29.400  1.00  0.00    -0.354 N 
ATOM     46  C   UNL A   1      41.398  29.944  32.610  1.00  0.00     0.074 A 
ATOM     47  C   UNL A   1      40.315  30.896  32.535  1.00  0.00     0.031 C 
ATOM     48  C   UNL A   1      40.376  26.150  27.525  1.00  0.00     0.029 A 
ATOM     49  C   UNL A   1      41.480  26.084  28.477  1.00  0.00     0.049 A 
ATOM     50  H   UNL A   1      41.749  27.246  30.186  1.00  0.00     0.167 HD
ATOM     51  C   UNL A   1      42.375  29.975  33.548  1.00  0.00     0.034 A 
ATOM     52  C   UNL A   1      42.523  25.234  28.403  1.00  0.00     0.034 A 
ATOM     53  C   UNL A   1      43.422  28.996  33.652  1.00  0.00     0.049 A 
ATOM     54  C   UNL A   1      43.568  25.268  29.487  1.00  0.00     0.074 A 
ATOM     55  C   UNL A   1      44.396  28.881  34.627  1.00  0.00     0.029 A 
ATOM     56  N   UNL A   1      43.642  27.971  32.744  1.00  0.00    -0.354 N 
ATOM     57  N   UNL A   1      43.632  26.034  30.548  1.00  0.00    -0.248 NA
ATOM     58  C   UNL A   1      44.666  24.295  29.383  1.00  0.00     0.031 C 
ATOM     59  C   UNL A   1      45.229  27.811  34.290  1.00  0.00     0.029 A 
ATOM     60  C   UNL A   1      44.747  27.233  33.126  1.00  0.00     0.049 A 
ATOM     61  H   UNL A   1      43.092  27.797  31.946  1.00  0.00     0.167 HD
ATOM     62  C   UNL A   1      44.749  25.608  31.259  1.00  0.00     0.074 A 
ATOM     63  C   UNL A   1      45.317  24.500  30.519  1.00  0.00     0.031 C 
ATOM     64  C   UNL A   1      45.267  26.097  32.412  1.00  0.00     0.034 A 
BRANCH  51  65
ATOM     65  C   UNL A   1      42.346  31.078  34.573  1.00  0.00     0.023 A 
ATOM     66  C   UNL A   1      41.710  30.865  35.813  1.00  0.00     0.012 A 
ATOM     67  C   UNL A   1      43.036  32.286  34.348  1.00  0.00     0.148 A 
ATOM     68  C   UNL A   1      41.744  31.846  36.805  1.00  0.00     0.002 A 
ATOM     69  C   UNL A   1      43.105  33.237  35.358  1.00  0.00     0.091 A 
ATOM     70  F   UNL A   1      43.619  32.474  33.155  1.00  0.00    -0.205 F 
ATOM     71  C   UNL A   1      42.451  33.024  36.583  1.00  0.00     0.022 A 
BRANCH  69  72
ATOM     72  S   UNL A   1      44.061  34.751  35.203  1.00  0.00     0.127 S 
ATOM     73  O   UNL A   1      45.385  34.230  34.867  1.00  0.00    -0.237 OA
ATOM     74  O   UNL A   1      43.376  35.432  34.104  1.00  0.00    -0.237 OA
ATOM     75  O   UNL A   1      43.967  35.422  36.492  1.00  0.00    -0.744 OA
ENDBRANCH  69  72
ENDBRANCH  51  65
BRANCH  52  76
ATOM     76  C   UNL A   1      42.617  24.243  27.292  1.00  0.00     0.023 A 
ATOM     77  C   UNL A   1      43.297  24.586  26.107  1.00  0.00     0.012 A 
ATOM     78  C   UNL A   1      42.024  22.970  27.397  1.00  0.00     0.148 A 
ATOM     79  C   UNL A   1      43.339  23.702  25.028  1.00  0.00     0.002 A 
ATOM     80  C   UNL A   1      42.122  22.071  26.342  1.00  0.00     0.091 A 
ATOM     81  F   UNL A   1      41.371  22.663  28.527  1.00  0.00    -0.205 F 
ATOM     82  C   UNL A   1      42.758  22.442  25.148  1.00  0.00     0.022 A 
BRANCH  80  83
ATOM     83  S   UNL A   1      41.519  20.383  26.464  1.00  0.00     0.127 S 
ATOM     84  O   UNL A   1      40.076  20.571  26.340  1.00  0.00    -0.237 OA
ATOM     85  O   UNL A   1      42.160  19.747  25.313  1.00  0.00    -0.237 OA
ATOM     86  O   UNL A   1      41.988  19.894  27.753  1.00  0.00    -0.744 OA
ENDBRANCH  80  83
ENDBRANCH  52  76
BRANCH  64  87
ATOM     87  C   UNL A   1      46.481  25.411  32.981  1.00  0.00     0.023 A 
ATOM     88  C   UNL A   1      47.771  25.879  32.665  1.00  0.00     0.012 A 
ATOM     89  C   UNL A   1      46.335  24.346  33.892  1.00  0.00     0.148 A 
ATOM     90  C   UNL A   1      48.899  25.273  33.216  1.00  0.00     0.002 A 
ATOM     91  C   UNL A   1      47.461  23.782  34.480  1.00  0.00     0.091 A 
ATOM     92  F   UNL A   1      45.099  23.904  34.168  1.00  0.00    -0.205 F 
ATOM     93  C   UNL A   1      48.744  24.234  34.131  1.00  0.00     0.022 A 
BRANCH  91  94
ATOM     94  S   UNL A   1      47.354  22.513  35.745  1.00  0.00     0.127 S 
ATOM     95  O   UNL A   1      46.726  21.414  35.013  1.00  0.00    -0.237 OA
ATOM     96  O   UNL A   1      48.760  22.296  36.084  1.00  0.00    -0.237 OA
ATOM     97  O   UNL A   1      46.553  23.082  36.821  1.00  0.00    -0.744 OA
ENDBRANCH  91  94
ENDBRANCH  64  87
ENDBRANCH  38  39
ENDBRANCH  30  33
ENDBRANCH  28  29
ENDBRANCH  27  28
ENDBRANCH  26  27
ENDBRANCH   1  26
TORSDOF 19
ENDMDL
MODEL 2
REMARK VINA RESULT:     -11.4      4.469      9.856
REMARK SMILES CC1=C(C)C[C@@H](C(=O)N[C@H](C)C(C)(C)C)[C@@H](C(=O)NCCCCCCNC(=O)c2ccc(-c3c4nc(c(-c5cccc(S(=O)(=O)[O-])c5F)c5ccc([nH]5)c(-c5cccc(S(=O)(=O)[O-])c5F)c5nc(c(-c6cccc(S(=O)(=O)[O-])c6F)c6ccc3[nH]6)C=C5)C=C4)cc2)C1
REMARK SMILES IDX 22 1 21 2 20 3 19 4 17 5 18 6 16 8 1 9 2 10 3 11 92 12 4 13
REMARK SMILES IDX 5 14 6 15 7 16 8 17 9 18 10 20 11 21 12 22 13 23 14 24 15 25
REMARK SMILES IDX 23 26 24 27 25 28 26 29 27 30 28 32 29 33 30 34 91 35 31 36
REMARK SMILES IDX 90 37 32 38 33 39 34 40 84 41 35 42 89 43 83 44 85 45 36 46
REMARK SMILES IDX 88 47 82 48 81 49 37 51 69 52 49 53 68 54 50 55 53 56 67 57
REMARK SMILES IDX 86 58 51 59 52 60 66 62 87 63 54 64 38 65 39 66 47 67 40 68
REMARK SMILES IDX 42 69 48 70 41 71 43 72 44 73 45 74 46 75 70 76 71 77 79 78
REMARK SMILES IDX 72 79 74 80 80 81 73 82 75 83 76 84 77 85 78 86 55 87 56 88
REMARK SMILES IDX 64 89 57 90 59 91 65 92 58 93 60 94 61 95 62 96 63 97
REMARK H PARENT 19 7 9 19 26 31 85 50 53 61
REMARK Flexibility Score: inf
ROOT
ATOM      1  C   UNL A   1      35.394  22.976  22.676  1.00  0.00     0.002 C 
ENDROOT
BRANCH   1   2
ATOM      2  C   UNL A   1      33.952  22.992  23.208  1.00  0.00     0.021 C 
BRANCH   2   3
ATOM      3  C   UNL A   1      32.907  23.543  22.239  1.00  0.00     0.116 C 
BRANCH   3   4
ATOM      4  N   UNL A   1      33.010  24.979  22.015  1.00  0.00    -0.356 N 
ATOM      5  C   UNL A   1      33.077  26.082  22.799  1.00  0.00     0.224 C 
ATOM      6  O   UNL A   1      33.347  27.125  22.180  1.00  0.00    -0.275 OA
ATOM      7  H   UNL A   1      33.039  25.204  21.057  1.00  0.00     0.163 HD
BRANCH   5   8
ATOM      8  C   UNL A   1      32.839  26.200  24.319  1.00  0.00     0.095 C 
ATOM      9  C   UNL A   1      34.180  29.005  26.686  1.00  0.00     0.039 C 
ATOM     10  C   UNL A   1      33.294  27.834  26.321  1.00  0.00    -0.074 C 
ATOM     11  C   UNL A   1      32.050  27.665  26.829  1.00  0.00    -0.074 C 
ATOM     12  C   UNL A   1      33.840  26.940  25.225  1.00  0.00     0.045 C 
ATOM     13  C   UNL A   1      31.466  28.507  27.943  1.00  0.00     0.039 C 
ATOM     14  C   UNL A   1      31.066  26.696  26.200  1.00  0.00     0.045 C 
ATOM     15  C   UNL A   1      31.343  26.236  24.745  1.00  0.00     0.095 C 
BRANCH  15  16
ATOM     16  C   UNL A   1      30.172  26.441  23.727  1.00  0.00     0.224 C 
ATOM     17  O   UNL A   1      29.569  25.401  23.382  1.00  0.00    -0.275 OA
ATOM     18  N   UNL A   1      29.581  27.524  23.179  1.00  0.00    -0.353 N 
ATOM     19  H   UNL A   1      28.759  27.197  22.747  1.00  0.00     0.163 HD
BRANCH  18  20
ATOM     20  C   UNL A   1      29.621  29.009  22.934  1.00  0.00     0.084 C 
ATOM     21  C   UNL A   1      30.604  29.642  23.922  1.00  0.00     0.031 C 
BRANCH  20  22
ATOM     22  C   UNL A   1      28.267  29.740  22.762  1.00  0.00    -0.018 C 
ATOM     23  C   UNL A   1      28.016  30.979  23.640  1.00  0.00     0.013 C 
ATOM     24  C   UNL A   1      28.139  30.186  21.288  1.00  0.00     0.013 C 
ATOM     25  C   UNL A   1      27.178  28.780  23.131  1.00  0.00     0.013 C 
ENDBRANCH  20  22
ENDBRANCH  18  20
ENDBRANCH  15  16
ENDBRANCH   5   8
ENDBRANCH   3   4
ENDBRANCH   2   3
ENDBRANCH   1   2
BRANCH   1  26
ATOM     26  C   UNL A   1      36.522  23.183  23.696  1.00  0.00     0.002 C 
BRANCH  26  27
ATOM     27  C   UNL A   1      36.209  24.019  24.938  1.00  0.00     0.021 C 
BRANCH  27  28
ATOM     28  C   UNL A   1      36.517  23.354  26.275  1.00  0.00     0.116 C 
BRANCH  28  29
ATOM     29  N   UNL A   1      37.662  22.463  26.210  1.00  0.00    -0.352 N 
ATOM     30  C   UNL A   1      38.991  22.723  26.419  1.00  0.00     0.251 C 
ATOM     31  H   UNL A   1      37.450  21.528  25.983  1.00  0.00     0.163 HD
ATOM     32  O   UNL A   1      39.819  21.840  26.177  1.00  0.00    -0.269 OA
BRANCH  30  33
ATOM     33  C   UNL A   1      39.447  24.044  26.908  1.00  0.00     0.039 A 
ATOM     34  C   UNL A   1      39.946  24.963  25.980  1.00  0.00     0.014 A 
ATOM     35  C   UNL A   1      39.429  24.372  28.267  1.00  0.00     0.014 A 
ATOM     36  C   UNL A   1      40.389  26.216  26.409  1.00  0.00     0.010 A 
ATOM     37  C   UNL A   1      39.795  25.652  28.682  1.00  0.00     0.010 A 
ATOM     38  C   UNL A   1      40.299  26.582  27.762  1.00  0.00    -0.014 A 
BRANCH  38  39
ATOM     39  C   UNL A   1      40.741  27.924  28.221  1.00  0.00     0.031 A 
ATOM     40  C   UNL A   1      42.205  28.282  28.234  1.00  0.00     0.074 A 
ATOM     41  C   UNL A   1      39.827  28.806  28.675  1.00  0.00     0.049 A 
ATOM     42  N   UNL A   1      42.775  29.401  28.601  1.00  0.00    -0.248 NA
ATOM     43  C   UNL A   1      43.158  27.244  27.803  1.00  0.00     0.031 C 
ATOM     44  C   UNL A   1      38.388  28.552  28.787  1.00  0.00     0.029 A 
ATOM     45  N   UNL A   1      39.971  30.088  29.145  1.00  0.00    -0.354 N 
ATOM     46  C   UNL A   1      44.144  29.190  28.482  1.00  0.00     0.074 A 
ATOM     47  C   UNL A   1      44.325  27.828  28.036  1.00  0.00     0.031 C 
ATOM     48  C   UNL A   1      37.783  29.643  29.281  1.00  0.00     0.029 A 
ATOM     49  C   UNL A   1      38.789  30.664  29.552  1.00  0.00     0.049 A 
ATOM     50  H   UNL A   1      40.838  30.551  29.189  1.00  0.00     0.167 HD
ATOM     51  C   UNL A   1      45.158  30.061  28.700  1.00  0.00     0.034 A 
ATOM     52  C   UNL A   1      38.545  31.876  30.087  1.00  0.00     0.034 A 
ATOM     53  C   UNL A   1      44.972  31.430  29.094  1.00  0.00     0.049 A 
ATOM     54  C   UNL A   1      39.691  32.835  30.275  1.00  0.00     0.074 A 
ATOM     55  C   UNL A   1      45.929  32.419  29.238  1.00  0.00     0.029 A 
ATOM     56  N   UNL A   1      43.753  32.002  29.420  1.00  0.00    -0.354 N 
ATOM     57  N   UNL A   1      40.959  32.671  29.987  1.00  0.00    -0.248 NA
ATOM     58  C   UNL A   1      39.367  34.159  30.826  1.00  0.00     0.031 C 
ATOM     59  C   UNL A   1      45.294  33.579  29.688  1.00  0.00     0.029 A 
ATOM     60  C   UNL A   1      43.935  33.324  29.783  1.00  0.00     0.049 A 
ATOM     61  H   UNL A   1      42.886  31.536  29.396  1.00  0.00     0.167 HD
ATOM     62  C   UNL A   1      41.576  33.883  30.280  1.00  0.00     0.074 A 
ATOM     63  C   UNL A   1      40.537  34.778  30.746  1.00  0.00     0.031 C 
ATOM     64  C   UNL A   1      42.885  34.221  30.188  1.00  0.00     0.034 A 
BRANCH  51  65
ATOM     65  C   UNL A   1      46.569  29.582  28.478  1.00  0.00     0.023 A 
ATOM     66  C   UNL A   1      47.192  29.792  27.230  1.00  0.00     0.012 A 
ATOM     67  C   UNL A   1      47.311  29.019  29.535  1.00  0.00     0.148 A 
ATOM     68  C   UNL A   1      48.524  29.430  27.033  1.00  0.00     0.002 A 
ATOM     69  C   UNL A   1      48.650  28.705  29.344  1.00  0.00     0.091 A 
ATOM     70  F   UNL A   1      46.694  28.812  30.707  1.00  0.00    -0.205 F 
ATOM     71  C   UNL A   1      49.256  28.899  28.092  1.00  0.00     0.022 A 
BRANCH  69  72
ATOM     72  S   UNL A   1      49.704  28.095  30.667  1.00  0.00     0.127 S 
ATOM     73  O   UNL A   1      50.909  27.713  29.931  1.00  0.00    -0.237 OA
ATOM     74  O   UNL A   1      49.854  29.282  31.508  1.00  0.00    -0.237 OA
ATOM     75  O   UNL A   1      48.980  26.993  31.285  1.00  0.00    -0.744 OA
ENDBRANCH  69  72
ENDBRANCH  51  65
BRANCH  52  76
ATOM     76  C   UNL A   1      37.154  32.281  30.445  1.00  0.00     0.023 A 
ATOM     77  C   UNL A   1      36.667  32.036  31.744  1.00  0.00     0.012 A 
ATOM     78  C   UNL A   1      36.306  32.893  29.501  1.00  0.00     0.148 A 
ATOM     79  C   UNL A   1      35.349  32.342  32.081  1.00  0.00     0.002 A 
ATOM     80  C   UNL A   1      35.013  33.251  29.862  1.00  0.00     0.091 A 
ATOM     81  F   UNL A   1      36.780  33.109  28.266  1.00  0.00    -0.205 F 
ATOM     82  C   UNL A   1      34.524  32.957  31.143  1.00  0.00     0.022 A 
BRANCH  80  83
ATOM     83  S   UNL A   1      33.931  34.166  28.757  1.00  0.00     0.127 S 
ATOM     84  O   UNL A   1      33.562  33.142  27.784  1.00  0.00    -0.237 OA
ATOM     85  O   UNL A   1      32.853  34.578  29.658  1.00  0.00    -0.237 OA
ATOM     86  O   UNL A   1      34.735  35.268  28.248  1.00  0.00    -0.744 OA
ENDBRANCH  80  83
ENDBRANCH  52  76
BRANCH  64  87
ATOM     87  C   UNL A   1      43.271  35.632  30.546  1.00  0.00     0.023 A 
ATOM     88  C   UNL A   1      43.715  35.935  31.848  1.00  0.00     0.012 A 
ATOM     89  C   UNL A   1      43.265  36.642  29.564  1.00  0.00     0.148 A 
ATOM     90  C   UNL A   1      44.108  37.231  32.178  1.00  0.00     0.002 A 
ATOM     91  C   UNL A   1      43.711  37.918  29.885  1.00  0.00     0.091 A 
ATOM     92  F   UNL A   1      42.825  36.337  28.335  1.00  0.00    -0.205 F 
ATOM     93  C   UNL A   1      44.118  38.218  31.195  1.00  0.00     0.022 A 
BRANCH  91  94
ATOM     94  S   UNL A   1      43.857  39.224  28.661  1.00  0.00     0.127 S 
ATOM     95  O   UNL A   1      44.661  38.575  27.627  1.00  0.00    -0.237 OA
ATOM     96  O   UNL A   1      42.461  39.459  28.292  1.00  0.00    -0.237 OA
ATOM     97  O   UNL A   1      44.500  40.342  29.340  1.00  0.00    -0.744 OA
ENDBRANCH  91  94
ENDBRANCH  64  87
ENDBRANCH  38  39
ENDBRANCH  30  33
ENDBRANCH  28  29
ENDBRANCH  27  28
ENDBRANCH  26  27
ENDBRANCH   1  26
TORSDOF 19
ENDMDL
MODEL 3
REMARK VINA RESULT:     -10.9      1.826      2.187
REMARK SMILES CC1=C(C)C[C@@H](C(=O)N[C@H](C)C(C)(C)C)[C@@H](C(=O)NCCCCCCNC(=O)c2ccc(-c3c4nc(c(-c5cccc(S(=O)(=O)[O-])c5F)c5ccc([nH]5)c(-c5cccc(S(=O)(=O)[O-])c5F)c5nc(c(-c6cccc(S(=O)(=O)[O-])c6F)c6ccc3[nH]6)C=C5)C=C4)cc2)C1
REMARK SMILES IDX 22 1 21 2 20 3 19 4 17 5 18 6 16 8 1 9 2 10 3 11 92 12 4 13
REMARK SMILES IDX 5 14 6 15 7 16 8 17 9 18 10 20 11 21 12 22 13 23 14 24 15 25
REMARK SMILES IDX 23 26 24 27 25 28 26 29 27 30 28 32 29 33 30 34 91 35 31 36
REMARK SMILES IDX 90 37 32 38 33 39 34 40 84 41 35 42 89 43 83 44 85 45 36 46
REMARK SMILES IDX 88 47 82 48 81 49 37 51 69 52 49 53 68 54 50 55 53 56 67 57
REMARK SMILES IDX 86 58 51 59 52 60 66 62 87 63 54 64 38 65 39 66 47 67 40 68
REMARK SMILES IDX 42 69 48 70 41 71 43 72 44 73 45 74 46 75 70 76 71 77 79 78
REMARK SMILES IDX 72 79 74 80 80 81 73 82 75 83 76 84 77 85 78 86 55 87 56 88
REMARK SMILES IDX 64 89 57 90 59 91 65 92 58 93 60 94 61 95 62 96 63 97
REMARK H PARENT 19 7 9 19 26 31 85 50 53 61
REMARK Flexibility Score: inf
ROOT
ATOM      1  C   UNL A   1      31.002  27.553  26.788  1.00  0.00     0.002 C 
ENDROOT
BRANCH   1   2
ATOM      2  C   UNL A   1      30.883  27.069  25.335  1.00  0.00     0.021 C 
BRANCH   2   3
ATOM      3  C   UNL A   1      30.322  25.657  25.164  1.00  0.00     0.116 C 
BRANCH   3   4
ATOM      4  N   UNL A   1      30.957  24.663  26.020  1.00  0.00    -0.356 N 
ATOM      5  C   UNL A   1      32.192  24.113  26.119  1.00  0.00     0.224 C 
ATOM      6  O   UNL A   1      32.352  23.416  27.134  1.00  0.00    -0.275 OA
ATOM      7  H   UNL A   1      30.336  24.302  26.693  1.00  0.00     0.163 HD
BRANCH   5   8
ATOM      8  C   UNL A   1      33.376  24.222  25.136  1.00  0.00     0.095 C 
ATOM      9  C   UNL A   1      37.155  23.654  25.957  1.00  0.00     0.039 C 
ATOM     10  C   UNL A   1      35.967  23.818  25.034  1.00  0.00    -0.074 C 
ATOM     11  C   UNL A   1      35.896  23.233  23.815  1.00  0.00    -0.074 C 
ATOM     12  C   UNL A   1      34.792  24.565  25.634  1.00  0.00     0.045 C 
ATOM     13  C   UNL A   1      37.046  22.503  23.154  1.00  0.00     0.039 C 
ATOM     14  C   UNL A   1      34.580  23.128  23.067  1.00  0.00     0.045 C 
ATOM     15  C   UNL A   1      33.273  23.304  23.884  1.00  0.00     0.095 C 
BRANCH  15  16
ATOM     16  C   UNL A   1      32.226  22.148  23.759  1.00  0.00     0.224 C 
ATOM     17  O   UNL A   1      31.264  22.373  22.993  1.00  0.00    -0.275 OA
ATOM     18  N   UNL A   1      32.157  20.885  24.232  1.00  0.00    -0.353 N 
ATOM     19  H   UNL A   1      31.421  20.451  23.744  1.00  0.00     0.163 HD
BRANCH  18  20
ATOM     20  C   UNL A   1      32.706  19.848  25.174  1.00  0.00     0.084 C 
ATOM     21  C   UNL A   1      33.762  20.505  26.067  1.00  0.00     0.031 C 
BRANCH  20  22
ATOM     22  C   UNL A   1      33.087  18.471  24.576  1.00  0.00    -0.018 C 
ATOM     23  C   UNL A   1      34.583  18.179  24.369  1.00  0.00     0.013 C 
ATOM     24  C   UNL A   1      32.526  17.367  25.501  1.00  0.00     0.013 C 
ATOM     25  C   UNL A   1      32.484  18.384  23.207  1.00  0.00     0.013 C 
ENDBRANCH  20  22
ENDBRANCH  18  20
ENDBRANCH  15  16
ENDBRANCH   5   8
ENDBRANCH   3   4
ENDBRANCH   2   3
ENDBRANCH   1   2
BRANCH   1  26
ATOM     26  C   UNL A   1      32.410  27.876  27.309  1.00  0.00     0.002 C 
BRANCH  26  27
ATOM     27  C   UNL A   1      33.584  27.664  26.351  1.00  0.00     0.021 C 
BRANCH  27  28
ATOM     28  C   UNL A   1      34.112  28.919  25.667  1.00  0.00     0.116 C 
BRANCH  28  29
ATOM     29  N   UNL A   1      33.752  30.138  26.370  1.00  0.00    -0.352 N 
ATOM     30  C   UNL A   1      34.365  30.758  27.426  1.00  0.00     0.251 C 
ATOM     31  H   UNL A   1      32.942  30.588  26.034  1.00  0.00     0.163 HD
ATOM     32  O   UNL A   1      33.809  31.721  27.961  1.00  0.00    -0.269 OA
BRANCH  30  33
ATOM     33  C   UNL A   1      35.668  30.282  27.944  1.00  0.00     0.039 A 
ATOM     34  C   UNL A   1      35.692  29.601  29.165  1.00  0.00     0.014 A 
ATOM     35  C   UNL A   1      36.865  30.532  27.266  1.00  0.00     0.014 A 
ATOM     36  C   UNL A   1      36.905  29.143  29.685  1.00  0.00     0.010 A 
ATOM     37  C   UNL A   1      38.063  30.003  27.745  1.00  0.00     0.010 A 
ATOM     38  C   UNL A   1      38.101  29.321  28.970  1.00  0.00    -0.014 A 
BRANCH  38  39
ATOM     39  C   UNL A   1      39.391  28.810  29.502  1.00  0.00     0.031 A 
ATOM     40  C   UNL A   1      40.057  29.489  30.671  1.00  0.00     0.074 A 
ATOM     41  C   UNL A   1      39.991  27.763  28.900  1.00  0.00     0.049 A 
ATOM     42  N   UNL A   1      41.180  29.185  31.268  1.00  0.00    -0.248 NA
ATOM     43  C   UNL A   1      39.389  30.678  31.231  1.00  0.00     0.031 C 
ATOM     44  C   UNL A   1      39.488  27.068  27.711  1.00  0.00     0.029 A 
ATOM     45  N   UNL A   1      41.163  27.110  29.190  1.00  0.00    -0.354 N 
ATOM     46  C   UNL A   1      41.372  30.160  32.241  1.00  0.00     0.074 A 
ATOM     47  C   UNL A   1      40.265  31.083  32.139  1.00  0.00     0.031 C 
ATOM     48  C   UNL A   1      40.338  26.082  27.383  1.00  0.00     0.029 A 
ATOM     49  C   UNL A   1      41.462  26.092  28.313  1.00  0.00     0.049 A 
ATOM     50  H   UNL A   1      41.737  27.348  29.953  1.00  0.00     0.167 HD
ATOM     51  C   UNL A   1      42.367  30.263  33.154  1.00  0.00     0.034 A 
ATOM     52  C   UNL A   1      42.523  25.263  28.261  1.00  0.00     0.034 A 
ATOM     53  C   UNL A   1      43.439  29.314  33.286  1.00  0.00     0.049 A 
ATOM     54  C   UNL A   1      43.589  25.377  29.318  1.00  0.00     0.074 A 
ATOM     55  C   UNL A   1      44.435  29.273  34.245  1.00  0.00     0.029 A 
ATOM     56  N   UNL A   1      43.665  28.249  32.429  1.00  0.00    -0.354 N 
ATOM     57  N   UNL A   1      43.656  26.199  30.337  1.00  0.00    -0.248 NA
ATOM     58  C   UNL A   1      44.707  24.425  29.242  1.00  0.00     0.031 C 
ATOM     59  C   UNL A   1      45.286  28.206  33.946  1.00  0.00     0.029 A 
ATOM     60  C   UNL A   1      44.794  27.557  32.825  1.00  0.00     0.049 A 
ATOM     61  H   UNL A   1      43.103  28.020  31.653  1.00  0.00     0.167 HD
ATOM     62  C   UNL A   1      44.797  25.836  31.045  1.00  0.00     0.074 A 
ATOM     63  C   UNL A   1      45.376  24.705  30.351  1.00  0.00     0.031 C 
ATOM     64  C   UNL A   1      45.326  26.397  32.160  1.00  0.00     0.034 A 
BRANCH  51  65
ATOM     65  C   UNL A   1      42.332  31.418  34.121  1.00  0.00     0.023 A 
ATOM     66  C   UNL A   1      43.228  32.495  33.957  1.00  0.00     0.012 A 
ATOM     67  C   UNL A   1      41.347  31.484  35.125  1.00  0.00     0.148 A 
ATOM     68  C   UNL A   1      43.155  33.610  34.791  1.00  0.00     0.002 A 
ATOM     69  C   UNL A   1      41.251  32.618  35.921  1.00  0.00     0.091 A 
ATOM     70  F   UNL A   1      40.517  30.441  35.274  1.00  0.00    -0.205 F 
ATOM     71  C   UNL A   1      42.161  33.678  35.763  1.00  0.00     0.022 A 
BRANCH  69  72
ATOM     72  S   UNL A   1      39.954  32.841  37.144  1.00  0.00     0.127 S 
ATOM     73  O   UNL A   1      39.369  31.502  37.200  1.00  0.00    -0.237 OA
ATOM     74  O   UNL A   1      40.718  33.223  38.332  1.00  0.00    -0.237 OA
ATOM     75  O   UNL A   1      39.077  33.879  36.620  1.00  0.00    -0.744 OA
ENDBRANCH  69  72
ENDBRANCH  51  65
BRANCH  52  76
ATOM     76  C   UNL A   1      42.617  24.217  27.201  1.00  0.00     0.023 A 
ATOM     77  C   UNL A   1      43.374  24.467  26.039  1.00  0.00     0.012 A 
ATOM     78  C   UNL A   1      41.950  22.984  27.331  1.00  0.00     0.148 A 
ATOM     79  C   UNL A   1      43.421  23.533  25.005  1.00  0.00     0.002 A 
ATOM     80  C   UNL A   1      42.052  22.032  26.322  1.00  0.00     0.091 A 
ATOM     81  F   UNL A   1      41.225  22.766  28.437  1.00  0.00    -0.205 F 
ATOM     82  C   UNL A   1      42.767  22.312  25.149  1.00  0.00     0.022 A 
BRANCH  80  83
ATOM     83  S   UNL A   1      41.351  20.387  26.488  1.00  0.00     0.127 S 
ATOM     84  O   UNL A   1      42.052  19.655  25.436  1.00  0.00    -0.237 OA
ATOM     85  O   UNL A   1      41.738  20.027  27.853  1.00  0.00    -0.237 OA
ATOM     86  O   UNL A   1      39.916  20.553  26.299  1.00  0.00    -0.744 OA
ENDBRANCH  80  83
ENDBRANCH  52  76
BRANCH  64  87
ATOM     87  C   UNL A   1      46.568  25.769  32.737  1.00  0.00     0.023 A 
ATOM     88  C   UNL A   1      46.466  24.841  33.791  1.00  0.00     0.012 A 
ATOM     89  C   UNL A   1      47.831  26.048  32.179  1.00  0.00     0.148 A 
ATOM     90  C   UNL A   1      47.607  24.228  34.307  1.00  0.00     0.002 A 
ATOM     91  C   UNL A   1      48.957  25.392  32.660  1.00  0.00     0.091 A 
ATOM     92  F   UNL A   1      47.908  26.946  31.187  1.00  0.00    -0.205 F 
ATOM     93  C   UNL A   1      48.849  24.494  33.734  1.00  0.00     0.022 A 
BRANCH  91  94
ATOM     94  S   UNL A   1      50.580  25.592  31.918  1.00  0.00     0.127 S 
ATOM     95  O   UNL A   1      51.349  24.553  32.601  1.00  0.00    -0.237 OA
ATOM     96  O   UNL A   1      50.309  25.323  30.506  1.00  0.00    -0.237 OA
ATOM     97  O   UNL A   1      50.988  26.960  32.206  1.00  0.00    -0.744 OA
ENDBRANCH  91  94
ENDBRANCH  64  87
ENDBRANCH  38  39
ENDBRANCH  30  33
ENDBRANCH  28  29
ENDBRANCH  27  28
ENDBRANCH  26  27
ENDBRANCH   1  26
TORSDOF 19
ENDMDL
