MODEL 1
REMARK VINA RESULT:     -13.1      0.000      0.000
REMARK SMILES CC1=C(CC(=O)NCCCCCCNC(=O)c2ccc(-c3c4nc(c(-c5cccc(S(=O)(=O)[O-])c5F)c5ccc([nH]5)c(-c5cccc(S(=O)(=O)[O-])c5F)c5nc(c(-c6cccc(S(=O)(=O)[O-])c6F)c6ccc3[nH]6)C=C5)C=C4)cc2)c2cc(F)ccc2/C1=C\c1ccc([S@@+](C)[O-])cc1
REMARK SMILES IDX 10 1 9 2 8 3 7 4 5 5 6 6 4 8 3 9 1 10 2 11 87 12 80 13 86 14
REMARK SMILES IDX 88 15 81 16 85 17 82 18 84 19 83 20 89 21 90 22 97 23 91 24
REMARK SMILES IDX 96 25 92 26 93 27 94 28 95 29 11 30 12 31 13 32 14 33 15 34
REMARK SMILES IDX 16 36 17 37 18 38 79 39 19 40 78 41 20 42 21 43 22 44 72 45
REMARK SMILES IDX 23 46 77 47 71 48 73 49 24 50 76 51 70 52 69 53 25 55 57 56
REMARK SMILES IDX 37 57 56 58 38 59 41 60 55 61 74 62 39 63 40 64 54 66 75 67
REMARK SMILES IDX 42 68 26 69 27 70 35 71 28 72 30 73 36 74 29 75 31 76 32 77
REMARK SMILES IDX 33 78 34 79 58 80 59 81 67 82 60 83 62 84 68 85 61 86 63 87
REMARK SMILES IDX 64 88 65 89 66 90 43 91 44 92 52 93 45 94 47 95 53 96 46 97
REMARK SMILES IDX 48 98 49 99 50 100 51 101
REMARK H PARENT 7 7 14 35 73 54 41 65
REMARK Flexibility Score: inf
ROOT
ATOM      1  C   UNL A   1      33.439  22.347  23.180  1.00  0.00     0.002 C 
ENDROOT
BRANCH   1   2
ATOM      2  C   UNL A   1      32.930  21.310  24.191  1.00  0.00     0.021 C 
BRANCH   2   3
ATOM      3  C   UNL A   1      33.466  21.505  25.610  1.00  0.00     0.116 C 
BRANCH   3   4
ATOM      4  N   UNL A   1      32.456  22.071  26.481  1.00  0.00    -0.356 N 
ATOM      5  C   UNL A   1      32.233  23.379  26.797  1.00  0.00     0.224 C 
ATOM      6  O   UNL A   1      31.366  23.637  27.636  1.00  0.00    -0.275 OA
ATOM      7  H   UNL A   1      31.848  21.423  26.903  1.00  0.00     0.163 HD
BRANCH   5   8
ATOM      8  C   UNL A   1      33.001  24.491  26.086  1.00  0.00     0.136 C 
BRANCH   8   9
ATOM      9  C   UNL A   1      32.138  25.546  25.471  1.00  0.00    -0.027 C 
ATOM     10  C   UNL A   1      30.535  24.148  24.042  1.00  0.00     0.045 C 
ATOM     11  C   UNL A   1      31.107  25.410  24.602  1.00  0.00    -0.039 C 
ATOM     12  C   UNL A   1      30.572  26.737  24.255  1.00  0.00    -0.014 C 
ATOM     13  C   UNL A   1      32.268  26.978  25.793  1.00  0.00    -0.011 A 
ATOM     14  C   UNL A   1      31.287  27.713  25.100  1.00  0.00    -0.010 A 
ATOM     15  C   UNL A   1      29.654  26.959  23.293  1.00  0.00     0.017 C 
ATOM     16  C   UNL A   1      33.150  27.615  26.655  1.00  0.00     0.048 A 
ATOM     17  C   UNL A   1      31.144  29.077  25.319  1.00  0.00     0.012 A 
ATOM     18  C   UNL A   1      33.034  28.992  26.822  1.00  0.00     0.123 A 
ATOM     19  C   UNL A   1      32.037  29.723  26.174  1.00  0.00     0.040 A 
ATOM     20  F   UNL A   1      33.883  29.632  27.637  1.00  0.00    -0.207 F 
BRANCH  15  21
ATOM     21  C   UNL A   1      29.159  28.274  22.879  1.00  0.00    -0.025 A 
ATOM     22  C   UNL A   1      29.970  29.147  22.143  1.00  0.00     0.013 A 
ATOM     23  C   UNL A   1      27.900  28.702  23.307  1.00  0.00     0.013 A 
ATOM     24  C   UNL A   1      29.581  30.476  21.956  1.00  0.00     0.061 A 
ATOM     25  C   UNL A   1      27.503  30.024  23.099  1.00  0.00     0.061 A 
ATOM     26  C   UNL A   1      28.357  30.933  22.459  1.00  0.00     0.152 A 
BRANCH  26  27
ATOM     27  S   UNL A   1      27.955  32.696  22.453  1.00  0.00    -0.018 S 
ATOM     28  C   UNL A   1      29.429  33.345  23.264  1.00  0.00     0.346 C 
ATOM     29  O   UNL A   1      27.967  33.174  20.956  1.00  0.00    -0.612 OA
ENDBRANCH  26  27
ENDBRANCH  15  21
ENDBRANCH   8   9
ENDBRANCH   5   8
ENDBRANCH   3   4
ENDBRANCH   2   3
ENDBRANCH   1   2
BRANCH   1  30
ATOM     30  C   UNL A   1      34.704  23.106  23.598  1.00  0.00     0.002 C 
BRANCH  30  31
ATOM     31  C   UNL A   1      35.997  22.290  23.569  1.00  0.00     0.021 C 
BRANCH  31  32
ATOM     32  C   UNL A   1      36.966  22.584  24.710  1.00  0.00     0.116 C 
BRANCH  32  33
ATOM     33  N   UNL A   1      37.711  21.406  25.126  1.00  0.00    -0.352 N 
ATOM     34  C   UNL A   1      38.853  21.329  25.889  1.00  0.00     0.251 C 
ATOM     35  H   UNL A   1      37.348  20.544  24.819  1.00  0.00     0.163 HD
ATOM     36  O   UNL A   1      39.440  20.257  26.013  1.00  0.00    -0.269 OA
BRANCH  34  37
ATOM     37  C   UNL A   1      39.386  22.553  26.528  1.00  0.00     0.039 A 
ATOM     38  C   UNL A   1      38.853  23.805  26.212  1.00  0.00     0.014 A 
ATOM     39  C   UNL A   1      40.453  22.449  27.425  1.00  0.00     0.014 A 
ATOM     40  C   UNL A   1      39.489  24.957  26.660  1.00  0.00     0.010 A 
ATOM     41  C   UNL A   1      41.044  23.609  27.935  1.00  0.00     0.010 A 
ATOM     42  C   UNL A   1      40.600  24.873  27.517  1.00  0.00    -0.014 A 
BRANCH  42  43
ATOM     43  C   UNL A   1      41.280  26.120  27.954  1.00  0.00     0.031 A 
ATOM     44  C   UNL A   1      42.692  26.421  27.527  1.00  0.00     0.074 A 
ATOM     45  C   UNL A   1      40.601  27.011  28.701  1.00  0.00     0.049 A 
ATOM     46  N   UNL A   1      43.418  27.479  27.784  1.00  0.00    -0.248 NA
ATOM     47  C   UNL A   1      43.382  25.412  26.706  1.00  0.00     0.031 C 
ATOM     48  C   UNL A   1      39.232  26.828  29.191  1.00  0.00     0.029 A 
ATOM     49  N   UNL A   1      40.957  28.253  29.163  1.00  0.00    -0.354 N 
ATOM     50  C   UNL A   1      44.654  27.249  27.195  1.00  0.00     0.074 A 
ATOM     51  C   UNL A   1      44.587  25.947  26.567  1.00  0.00     0.031 C 
ATOM     52  C   UNL A   1      38.848  27.935  29.843  1.00  0.00     0.029 A 
ATOM     53  C   UNL A   1      39.956  28.887  29.860  1.00  0.00     0.049 A 
ATOM     54  H   UNL A   1      41.844  28.651  29.011  1.00  0.00     0.167 HD
ATOM     55  C   UNL A   1      45.740  28.057  27.158  1.00  0.00     0.034 A 
ATOM     56  C   UNL A   1      39.926  30.098  30.449  1.00  0.00     0.034 A 
ATOM     57  C   UNL A   1      45.793  29.373  27.732  1.00  0.00     0.049 A 
ATOM     58  C   UNL A   1      41.139  30.978  30.385  1.00  0.00     0.074 A 
ATOM     59  C   UNL A   1      46.839  30.279  27.705  1.00  0.00     0.029 A 
ATOM     60  N   UNL A   1      44.759  29.976  28.430  1.00  0.00    -0.354 N 
ATOM     61  N   UNL A   1      42.272  30.767  29.763  1.00  0.00    -0.248 NA
ATOM     62  C   UNL A   1      41.069  32.263  31.095  1.00  0.00     0.031 C 
ATOM     63  C   UNL A   1      46.436  31.431  28.386  1.00  0.00     0.029 A 
ATOM     64  C   UNL A   1      45.140  31.242  28.836  1.00  0.00     0.049 A 
ATOM     65  H   UNL A   1      43.882  29.564  28.608  1.00  0.00     0.167 HD
ATOM     66  C   UNL A   1      43.049  31.894  29.997  1.00  0.00     0.074 A 
ATOM     67  C   UNL A   1      42.249  32.797  30.800  1.00  0.00     0.031 C 
ATOM     68  C   UNL A   1      44.319  32.146  29.599  1.00  0.00     0.034 A 
BRANCH  55  69
ATOM     69  C   UNL A   1      46.956  27.571  26.418  1.00  0.00     0.023 A 
ATOM     70  C   UNL A   1      47.858  26.712  27.075  1.00  0.00     0.012 A 
ATOM     71  C   UNL A   1      47.154  27.881  25.060  1.00  0.00     0.148 A 
ATOM     72  C   UNL A   1      48.949  26.175  26.392  1.00  0.00     0.002 A 
ATOM     73  C   UNL A   1      48.230  27.322  24.379  1.00  0.00     0.091 A 
ATOM     74  F   UNL A   1      46.289  28.714  24.461  1.00  0.00    -0.205 F 
ATOM     75  C   UNL A   1      49.128  26.472  25.044  1.00  0.00     0.022 A 
BRANCH  73  76
ATOM     76  S   UNL A   1      48.524  27.598  22.628  1.00  0.00     0.127 S 
ATOM     77  O   UNL A   1      49.784  28.338  22.656  1.00  0.00    -0.237 OA
ATOM     78  O   UNL A   1      48.631  26.232  22.115  1.00  0.00    -0.237 OA
ATOM     79  O   UNL A   1      47.374  28.345  22.139  1.00  0.00    -0.744 OA
ENDBRANCH  73  76
ENDBRANCH  55  69
BRANCH  56  80
ATOM     80  C   UNL A   1      38.668  30.555  31.096  1.00  0.00     0.023 A 
ATOM     81  C   UNL A   1      38.502  30.365  32.481  1.00  0.00     0.012 A 
ATOM     82  C   UNL A   1      37.687  31.257  30.370  1.00  0.00     0.148 A 
ATOM     83  C   UNL A   1      37.377  30.871  33.134  1.00  0.00     0.002 A 
ATOM     84  C   UNL A   1      36.592  31.796  31.033  1.00  0.00     0.091 A 
ATOM     85  F   UNL A   1      37.871  31.416  29.052  1.00  0.00    -0.205 F 
ATOM     86  C   UNL A   1      36.430  31.596  32.414  1.00  0.00     0.022 A 
BRANCH  84  87
ATOM     87  S   UNL A   1      35.385  32.846  30.217  1.00  0.00     0.127 S 
ATOM     88  O   UNL A   1      34.861  31.954  29.187  1.00  0.00    -0.237 OA
ATOM     89  O   UNL A   1      34.459  33.138  31.311  1.00  0.00    -0.237 OA
ATOM     90  O   UNL A   1      36.128  33.999  29.728  1.00  0.00    -0.744 OA
ENDBRANCH  84  87
ENDBRANCH  56  80
BRANCH  68  91
ATOM     91  C   UNL A   1      44.944  33.445  30.023  1.00  0.00     0.023 A 
ATOM     92  C   UNL A   1      45.722  33.481  31.195  1.00  0.00     0.012 A 
ATOM     93  C   UNL A   1      44.865  34.588  29.203  1.00  0.00     0.148 A 
ATOM     94  C   UNL A   1      46.409  34.640  31.552  1.00  0.00     0.002 A 
ATOM     95  C   UNL A   1      45.577  35.730  29.549  1.00  0.00     0.091 A 
ATOM     96  F   UNL A   1      44.108  34.528  28.098  1.00  0.00    -0.205 F 
ATOM     97  C   UNL A   1      46.346  35.759  30.724  1.00  0.00     0.022 A 
BRANCH  95  98
ATOM     98  S   UNL A   1      45.617  37.196  28.513  1.00  0.00     0.127 S 
ATOM     99  O   UNL A   1      45.978  36.633  27.212  1.00  0.00    -0.237 OA
ATOM    100  O   UNL A   1      44.239  37.679  28.608  1.00  0.00    -0.237 OA
ATOM    101  O   UNL A   1      46.613  38.081  29.103  1.00  0.00    -0.744 OA
ENDBRANCH  95  98
ENDBRANCH  68  91
ENDBRANCH  42  43
ENDBRANCH  34  37
ENDBRANCH  32  33
ENDBRANCH  31  32
ENDBRANCH  30  31
ENDBRANCH   1  30
TORSDOF 19
ENDMDL
MODEL 2
REMARK VINA RESULT:     -12.6      5.436      8.356
REMARK SMILES CC1=C(CC(=O)NCCCCCCNC(=O)c2ccc(-c3c4nc(c(-c5cccc(S(=O)(=O)[O-])c5F)c5ccc([nH]5)c(-c5cccc(S(=O)(=O)[O-])c5F)c5nc(c(-c6cccc(S(=O)(=O)[O-])c6F)c6ccc3[nH]6)C=C5)C=C4)cc2)c2cc(F)ccc2/C1=C\c1ccc([S@@+](C)[O-])cc1
REMARK SMILES IDX 10 1 9 2 8 3 7 4 5 5 6 6 4 8 3 9 1 10 2 11 87 12 80 13 86 14
REMARK SMILES IDX 88 15 81 16 85 17 82 18 84 19 83 20 89 21 90 22 97 23 91 24
REMARK SMILES IDX 96 25 92 26 93 27 94 28 95 29 11 30 12 31 13 32 14 33 15 34
REMARK SMILES IDX 16 36 17 37 18 38 79 39 19 40 78 41 20 42 21 43 22 44 72 45
REMARK SMILES IDX 23 46 77 47 71 48 73 49 24 50 76 51 70 52 69 53 25 55 57 56
REMARK SMILES IDX 37 57 56 58 38 59 41 60 55 61 74 62 39 63 40 64 54 66 75 67
REMARK SMILES IDX 42 68 26 69 27 70 35 71 28 72 30 73 36 74 29 75 31 76 32 77
REMARK SMILES IDX 33 78 34 79 58 80 59 81 67 82 60 83 62 84 68 85 61 86 63 87
REMARK SMILES IDX 64 88 65 89 66 90 43 91 44 92 52 93 45 94 47 95 53 96 46 97
REMARK SMILES IDX 48 98 49 99 50 100 51 101
REMARK H PARENT 7 7 14 35 73 54 41 65
REMARK Flexibility Score: inf
ROOT
ATOM      1  C   UNL A   1      46.974  24.427  26.602  1.00  0.00     0.002 C 
ENDROOT
BRANCH   1   2
ATOM      2  C   UNL A   1      45.607  23.861  26.191  1.00  0.00     0.021 C 
BRANCH   2   3
ATOM      3  C   UNL A   1      45.317  22.465  26.745  1.00  0.00     0.116 C 
BRANCH   3   4
ATOM      4  N   UNL A   1      44.290  21.796  25.973  1.00  0.00    -0.356 N 
ATOM      5  C   UNL A   1      43.064  21.358  26.377  1.00  0.00     0.224 C 
ATOM      6  O   UNL A   1      42.373  20.729  25.570  1.00  0.00    -0.275 OA
ATOM      7  H   UNL A   1      44.507  21.634  25.027  1.00  0.00     0.163 HD
BRANCH   5   8
ATOM      8  C   UNL A   1      42.542  21.690  27.773  1.00  0.00     0.136 C 
BRANCH   8   9
ATOM      9  C   UNL A   1      41.781  22.974  27.862  1.00  0.00    -0.027 C 
ATOM     10  C   UNL A   1      43.472  24.508  29.025  1.00  0.00     0.045 C 
ATOM     11  C   UNL A   1      42.162  24.160  28.398  1.00  0.00    -0.039 C 
ATOM     12  C   UNL A   1      41.065  25.134  28.275  1.00  0.00    -0.014 C 
ATOM     13  C   UNL A   1      40.434  23.152  27.290  1.00  0.00    -0.011 A 
ATOM     14  C   UNL A   1      40.004  24.478  27.487  1.00  0.00    -0.010 A 
ATOM     15  C   UNL A   1      41.063  26.352  28.853  1.00  0.00     0.017 C 
ATOM     16  C   UNL A   1      39.635  22.243  26.609  1.00  0.00     0.048 A 
ATOM     17  C   UNL A   1      38.802  24.916  26.945  1.00  0.00     0.012 A 
ATOM     18  C   UNL A   1      38.407  22.679  26.120  1.00  0.00     0.123 A 
ATOM     19  C   UNL A   1      37.991  24.002  26.272  1.00  0.00     0.040 A 
ATOM     20  F   UNL A   1      37.611  21.818  25.473  1.00  0.00    -0.207 F 
BRANCH  15  21
ATOM     21  C   UNL A   1      39.956  27.312  28.807  1.00  0.00    -0.025 A 
ATOM     22  C   UNL A   1      39.820  28.199  27.733  1.00  0.00     0.013 A 
ATOM     23  C   UNL A   1      39.085  27.409  29.894  1.00  0.00     0.013 A 
ATOM     24  C   UNL A   1      38.910  29.258  27.808  1.00  0.00     0.061 A 
ATOM     25  C   UNL A   1      38.160  28.453  29.957  1.00  0.00     0.061 A 
ATOM     26  C   UNL A   1      38.094  29.410  28.936  1.00  0.00     0.152 A 
BRANCH  26  27
ATOM     27  S   UNL A   1      37.104  30.906  29.164  1.00  0.00    -0.018 S 
ATOM     28  C   UNL A   1      36.444  30.584  30.810  1.00  0.00     0.346 C 
ATOM     29  O   UNL A   1      38.100  32.117  29.261  1.00  0.00    -0.612 OA
ENDBRANCH  26  27
ENDBRANCH  15  21
ENDBRANCH   8   9
ENDBRANCH   5   8
ENDBRANCH   3   4
ENDBRANCH   2   3
ENDBRANCH   1   2
BRANCH   1  30
ATOM     30  C   UNL A   1      47.096  25.955  26.548  1.00  0.00     0.002 C 
BRANCH  30  31
ATOM     31  C   UNL A   1      47.128  26.559  25.143  1.00  0.00     0.021 C 
BRANCH  31  32
ATOM     32  C   UNL A   1      45.943  27.458  24.806  1.00  0.00     0.116 C 
BRANCH  32  33
ATOM     33  N   UNL A   1      44.694  26.718  24.702  1.00  0.00    -0.352 N 
ATOM     34  C   UNL A   1      43.569  26.803  25.489  1.00  0.00     0.251 C 
ATOM     35  H   UNL A   1      44.647  26.067  23.964  1.00  0.00     0.163 HD
ATOM     36  O   UNL A   1      42.660  25.989  25.353  1.00  0.00    -0.269 OA
BRANCH  34  37
ATOM     37  C   UNL A   1      43.481  27.860  26.520  1.00  0.00     0.039 A 
ATOM     38  C   UNL A   1      42.834  29.067  26.243  1.00  0.00     0.014 A 
ATOM     39  C   UNL A   1      44.084  27.654  27.765  1.00  0.00     0.014 A 
ATOM     40  C   UNL A   1      42.932  30.123  27.143  1.00  0.00     0.010 A 
ATOM     41  C   UNL A   1      44.115  28.694  28.698  1.00  0.00     0.010 A 
ATOM     42  C   UNL A   1      43.585  29.953  28.376  1.00  0.00    -0.014 A 
BRANCH  42  43
ATOM     43  C   UNL A   1      43.703  31.108  29.303  1.00  0.00     0.031 A 
ATOM     44  C   UNL A   1      44.892  32.030  29.242  1.00  0.00     0.074 A 
ATOM     45  C   UNL A   1      42.706  31.356  30.175  1.00  0.00     0.049 A 
ATOM     46  N   UNL A   1      45.132  33.105  29.949  1.00  0.00    -0.248 NA
ATOM     47  C   UNL A   1      45.948  31.712  28.267  1.00  0.00     0.031 C 
ATOM     48  C   UNL A   1      41.509  30.528  30.340  1.00  0.00     0.029 A 
ATOM     49  N   UNL A   1      42.528  32.380  31.069  1.00  0.00    -0.354 N 
ATOM     50  C   UNL A   1      46.374  33.567  29.534  1.00  0.00     0.074 A 
ATOM     51  C   UNL A   1      46.846  32.656  28.515  1.00  0.00     0.031 C 
ATOM     52  C   UNL A   1      40.700  31.102  31.242  1.00  0.00     0.029 A 
ATOM     53  C   UNL A   1      41.339  32.311  31.754  1.00  0.00     0.049 A 
ATOM     54  H   UNL A   1      43.189  33.097  31.207  1.00  0.00     0.167 HD
ATOM     55  C   UNL A   1      47.052  34.664  29.947  1.00  0.00     0.034 A 
ATOM     56  C   UNL A   1      40.816  33.124  32.692  1.00  0.00     0.034 A 
ATOM     57  C   UNL A   1      46.564  35.604  30.919  1.00  0.00     0.049 A 
ATOM     58  C   UNL A   1      41.583  34.339  33.124  1.00  0.00     0.074 A 
ATOM     59  C   UNL A   1      47.166  36.767  31.365  1.00  0.00     0.029 A 
ATOM     60  N   UNL A   1      45.356  35.494  31.589  1.00  0.00    -0.354 N 
ATOM     61  N   UNL A   1      42.724  34.792  32.667  1.00  0.00    -0.248 NA
ATOM     62  C   UNL A   1      40.989  35.157  34.191  1.00  0.00     0.031 C 
ATOM     63  C   UNL A   1      46.321  37.362  32.307  1.00  0.00     0.029 A 
ATOM     64  C   UNL A   1      45.193  36.570  32.444  1.00  0.00     0.049 A 
ATOM     65  H   UNL A   1      44.710  34.761  31.473  1.00  0.00     0.167 HD
ATOM     66  C   UNL A   1      42.984  35.953  33.384  1.00  0.00     0.074 A 
ATOM     67  C   UNL A   1      41.870  36.147  34.290  1.00  0.00     0.031 C 
ATOM     68  C   UNL A   1      44.061  36.772  33.311  1.00  0.00     0.034 A 
BRANCH  55  69
ATOM     69  C   UNL A   1      48.381  34.955  29.305  1.00  0.00     0.023 A 
ATOM     70  C   UNL A   1      49.562  34.605  29.989  1.00  0.00     0.012 A 
ATOM     71  C   UNL A   1      48.462  35.478  28.001  1.00  0.00     0.148 A 
ATOM     72  C   UNL A   1      50.807  34.782  29.388  1.00  0.00     0.002 A 
ATOM     73  C   UNL A   1      49.706  35.628  27.398  1.00  0.00     0.091 A 
ATOM     74  F   UNL A   1      47.324  35.817  27.377  1.00  0.00    -0.205 F 
ATOM     75  C   UNL A   1      50.878  35.283  28.092  1.00  0.00     0.022 A 
BRANCH  73  76
ATOM     76  S   UNL A   1      49.907  36.216  25.713  1.00  0.00     0.127 S 
ATOM     77  O   UNL A   1      49.676  37.651  25.874  1.00  0.00    -0.237 OA
ATOM     78  O   UNL A   1      51.293  35.850  25.422  1.00  0.00    -0.237 OA
ATOM     79  O   UNL A   1      48.911  35.511  24.918  1.00  0.00    -0.744 OA
ENDBRANCH  73  76
ENDBRANCH  55  69
BRANCH  56  80
ATOM     80  C   UNL A   1      39.462  32.828  33.231  1.00  0.00     0.023 A 
ATOM     81  C   UNL A   1      39.341  31.995  34.360  1.00  0.00     0.012 A 
ATOM     82  C   UNL A   1      38.313  33.439  32.693  1.00  0.00     0.148 A 
ATOM     83  C   UNL A   1      38.095  31.778  34.948  1.00  0.00     0.002 A 
ATOM     84  C   UNL A   1      37.083  33.254  33.310  1.00  0.00     0.091 A 
ATOM     85  F   UNL A   1      38.460  34.221  31.615  1.00  0.00    -0.205 F 
ATOM     86  C   UNL A   1      36.969  32.417  34.432  1.00  0.00     0.022 A 
BRANCH  84  87
ATOM     87  S   UNL A   1      35.600  34.128  32.795  1.00  0.00     0.127 S 
ATOM     88  O   UNL A   1      34.563  33.426  33.547  1.00  0.00    -0.237 OA
ATOM     89  O   UNL A   1      35.883  35.488  33.255  1.00  0.00    -0.237 OA
ATOM     90  O   UNL A   1      35.533  33.979  31.348  1.00  0.00    -0.744 OA
ENDBRANCH  84  87
ENDBRANCH  56  80
BRANCH  68  91
ATOM     91  C   UNL A   1      44.108  37.957  34.233  1.00  0.00     0.023 A 
ATOM     92  C   UNL A   1      44.765  37.834  35.472  1.00  0.00     0.012 A 
ATOM     93  C   UNL A   1      43.617  39.212  33.825  1.00  0.00     0.148 A 
ATOM     94  C   UNL A   1      44.927  38.945  36.298  1.00  0.00     0.002 A 
ATOM     95  C   UNL A   1      43.809  40.321  34.640  1.00  0.00     0.091 A 
ATOM     96  F   UNL A   1      42.987  39.297  32.645  1.00  0.00    -0.205 F 
ATOM     97  C   UNL A   1      44.460  40.189  35.878  1.00  0.00     0.022 A 
BRANCH  95  98
ATOM     98  S   UNL A   1      43.309  41.976  34.156  1.00  0.00     0.127 S 
ATOM     99  O   UNL A   1      41.902  41.774  33.813  1.00  0.00    -0.237 OA
ATOM    100  O   UNL A   1      43.535  42.738  35.384  1.00  0.00    -0.237 OA
ATOM    101  O   UNL A   1      44.171  42.350  33.042  1.00  0.00    -0.744 OA
ENDBRANCH  95  98
ENDBRANCH  68  91
ENDBRANCH  42  43
ENDBRANCH  34  37
ENDBRANCH  32  33
ENDBRANCH  31  32
ENDBRANCH  30  31
ENDBRANCH   1  30
TORSDOF 19
ENDMDL
MODEL 3
REMARK VINA RESULT:     -12.2      1.208      7.313
REMARK SMILES CC1=C(CC(=O)NCCCCCCNC(=O)c2ccc(-c3c4nc(c(-c5cccc(S(=O)(=O)[O-])c5F)c5ccc([nH]5)c(-c5cccc(S(=O)(=O)[O-])c5F)c5nc(c(-c6cccc(S(=O)(=O)[O-])c6F)c6ccc3[nH]6)C=C5)C=C4)cc2)c2cc(F)ccc2/C1=C\c1ccc([S@@+](C)[O-])cc1
REMARK SMILES IDX 10 1 9 2 8 3 7 4 5 5 6 6 4 8 3 9 1 10 2 11 87 12 80 13 86 14
REMARK SMILES IDX 88 15 81 16 85 17 82 18 84 19 83 20 89 21 90 22 97 23 91 24
REMARK SMILES IDX 96 25 92 26 93 27 94 28 95 29 11 30 12 31 13 32 14 33 15 34
REMARK SMILES IDX 16 36 17 37 18 38 79 39 19 40 78 41 20 42 21 43 22 44 72 45
REMARK SMILES IDX 23 46 77 47 71 48 73 49 24 50 76 51 70 52 69 53 25 55 57 56
REMARK SMILES IDX 37 57 56 58 38 59 41 60 55 61 74 62 39 63 40 64 54 66 75 67
REMARK SMILES IDX 42 68 26 69 27 70 35 71 28 72 30 73 36 74 29 75 31 76 32 77
REMARK SMILES IDX 33 78 34 79 58 80 59 81 67 82 60 83 62 84 68 85 61 86 63 87
REMARK SMILES IDX 64 88 65 89 66 90 43 91 44 92 52 93 45 94 47 95 53 96 46 97
REMARK SMILES IDX 48 98 49 99 50 100 51 101
REMARK H PARENT 7 7 14 35 73 54 41 65
REMARK Flexibility Score: inf
ROOT
ATOM      1  C   UNL A   1      34.997  20.596  25.439  1.00  0.00     0.002 C 
ENDROOT
BRANCH   1   2
ATOM      2  C   UNL A   1      33.827  20.645  24.446  1.00  0.00     0.021 C 
BRANCH   2   3
ATOM      3  C   UNL A   1      33.382  22.061  24.075  1.00  0.00     0.116 C 
BRANCH   3   4
ATOM      4  N   UNL A   1      34.409  23.034  24.386  1.00  0.00    -0.356 N 
ATOM      5  C   UNL A   1      34.319  24.160  25.150  1.00  0.00     0.224 C 
ATOM      6  O   UNL A   1      35.303  24.902  25.214  1.00  0.00    -0.275 OA
ATOM      7  H   UNL A   1      35.294  22.858  23.992  1.00  0.00     0.163 HD
BRANCH   5   8
ATOM      8  C   UNL A   1      33.051  24.459  25.946  1.00  0.00     0.136 C 
BRANCH   8   9
ATOM      9  C   UNL A   1      32.184  25.526  25.356  1.00  0.00    -0.027 C 
ATOM     10  C   UNL A   1      30.589  24.158  23.890  1.00  0.00     0.045 C 
ATOM     11  C   UNL A   1      31.155  25.407  24.483  1.00  0.00    -0.039 C 
ATOM     12  C   UNL A   1      30.615  26.740  24.169  1.00  0.00    -0.014 C 
ATOM     13  C   UNL A   1      32.308  26.950  25.714  1.00  0.00    -0.011 A 
ATOM     14  C   UNL A   1      31.325  27.698  25.039  1.00  0.00    -0.010 A 
ATOM     15  C   UNL A   1      29.698  26.983  23.211  1.00  0.00     0.017 C 
ATOM     16  C   UNL A   1      33.187  27.569  26.593  1.00  0.00     0.048 A 
ATOM     17  C   UNL A   1      31.176  29.056  25.291  1.00  0.00     0.012 A 
ATOM     18  C   UNL A   1      33.065  28.940  26.794  1.00  0.00     0.123 A 
ATOM     19  C   UNL A   1      32.066  29.683  26.164  1.00  0.00     0.040 A 
ATOM     20  F   UNL A   1      33.910  29.563  27.627  1.00  0.00    -0.207 F 
BRANCH  15  21
ATOM     21  C   UNL A   1      29.197  28.306  22.829  1.00  0.00    -0.025 A 
ATOM     22  C   UNL A   1      30.031  29.230  22.188  1.00  0.00     0.013 A 
ATOM     23  C   UNL A   1      27.905  28.685  23.198  1.00  0.00     0.013 A 
ATOM     24  C   UNL A   1      29.623  30.558  22.040  1.00  0.00     0.061 A 
ATOM     25  C   UNL A   1      27.490  30.008  23.027  1.00  0.00     0.061 A 
ATOM     26  C   UNL A   1      28.359  30.964  22.486  1.00  0.00     0.152 A 
BRANCH  26  27
ATOM     27  S   UNL A   1      27.917  32.717  22.538  1.00  0.00    -0.018 S 
ATOM     28  C   UNL A   1      29.425  33.388  23.264  1.00  0.00     0.346 C 
ATOM     29  O   UNL A   1      27.820  33.219  21.053  1.00  0.00    -0.612 OA
ENDBRANCH  26  27
ENDBRANCH  15  21
ENDBRANCH   8   9
ENDBRANCH   5   8
ENDBRANCH   3   4
ENDBRANCH   2   3
ENDBRANCH   1   2
BRANCH   1  30
ATOM     30  C   UNL A   1      36.313  20.045  24.878  1.00  0.00     0.002 C 
BRANCH  30  31
ATOM     31  C   UNL A   1      37.369  21.096  24.534  1.00  0.00     0.021 C 
BRANCH  31  32
ATOM     32  C   UNL A   1      38.324  21.440  25.673  1.00  0.00     0.116 C 
BRANCH  32  33
ATOM     33  N   UNL A   1      39.175  20.320  26.044  1.00  0.00    -0.352 N 
ATOM     34  C   UNL A   1      40.489  20.328  26.450  1.00  0.00     0.251 C 
ATOM     35  H   UNL A   1      38.751  19.432  26.000  1.00  0.00     0.163 HD
ATOM     36  O   UNL A   1      41.101  19.271  26.574  1.00  0.00    -0.269 OA
BRANCH  34  37
ATOM     37  C   UNL A   1      41.165  21.621  26.700  1.00  0.00     0.039 A 
ATOM     38  C   UNL A   1      41.367  22.072  28.007  1.00  0.00     0.014 A 
ATOM     39  C   UNL A   1      41.568  22.404  25.615  1.00  0.00     0.014 A 
ATOM     40  C   UNL A   1      41.817  23.370  28.225  1.00  0.00     0.010 A 
ATOM     41  C   UNL A   1      42.091  23.681  25.840  1.00  0.00     0.010 A 
ATOM     42  C   UNL A   1      42.173  24.194  27.144  1.00  0.00    -0.014 A 
BRANCH  42  43
ATOM     43  C   UNL A   1      42.619  25.587  27.405  1.00  0.00     0.031 A 
ATOM     44  C   UNL A   1      41.750  26.546  28.176  1.00  0.00     0.074 A 
ATOM     45  C   UNL A   1      43.839  25.976  26.986  1.00  0.00     0.049 A 
ATOM     46  N   UNL A   1      42.004  27.781  28.527  1.00  0.00    -0.248 NA
ATOM     47  C   UNL A   1      40.429  26.063  28.612  1.00  0.00     0.031 C 
ATOM     48  C   UNL A   1      44.768  25.144  26.218  1.00  0.00     0.029 A 
ATOM     49  N   UNL A   1      44.515  27.156  27.162  1.00  0.00    -0.354 N 
ATOM     50  C   UNL A   1      40.869  28.233  29.186  1.00  0.00     0.074 A 
ATOM     51  C   UNL A   1      39.918  27.144  29.187  1.00  0.00     0.031 C 
ATOM     52  C   UNL A   1      45.910  25.821  26.030  1.00  0.00     0.029 A 
ATOM     53  C   UNL A   1      45.779  27.150  26.621  1.00  0.00     0.049 A 
ATOM     54  H   UNL A   1      44.133  27.932  27.631  1.00  0.00     0.167 HD
ATOM     55  C   UNL A   1      40.646  29.439  29.761  1.00  0.00     0.034 A 
ATOM     56  C   UNL A   1      46.729  28.104  26.598  1.00  0.00     0.034 A 
ATOM     57  C   UNL A   1      41.607  30.506  29.812  1.00  0.00     0.049 A 
ATOM     58  C   UNL A   1      46.461  29.427  27.252  1.00  0.00     0.074 A 
ATOM     59  C   UNL A   1      41.481  31.746  30.411  1.00  0.00     0.029 A 
ATOM     60  N   UNL A   1      42.873  30.459  29.250  1.00  0.00    -0.354 N 
ATOM     61  N   UNL A   1      45.406  29.807  27.929  1.00  0.00    -0.248 NA
ATOM     62  C   UNL A   1      47.512  30.449  27.145  1.00  0.00     0.031 C 
ATOM     63  C   UNL A   1      42.672  32.451  30.212  1.00  0.00     0.029 A 
ATOM     64  C   UNL A   1      43.539  31.647  29.490  1.00  0.00     0.049 A 
ATOM     65  H   UNL A   1      43.243  29.693  28.754  1.00  0.00     0.167 HD
ATOM     66  C   UNL A   1      45.667  31.109  28.338  1.00  0.00     0.074 A 
ATOM     67  C   UNL A   1      46.990  31.445  27.852  1.00  0.00     0.031 C 
ATOM     68  C   UNL A   1      44.871  31.954  29.036  1.00  0.00     0.034 A 
BRANCH  55  69
ATOM     69  C   UNL A   1      39.324  29.661  30.444  1.00  0.00     0.023 A 
ATOM     70  C   UNL A   1      39.065  29.003  31.662  1.00  0.00     0.012 A 
ATOM     71  C   UNL A   1      38.388  30.583  29.938  1.00  0.00     0.148 A 
ATOM     72  C   UNL A   1      37.886  29.252  32.365  1.00  0.00     0.002 A 
ATOM     73  C   UNL A   1      37.228  30.845  30.657  1.00  0.00     0.091 A 
ATOM     74  F   UNL A   1      38.652  31.184  28.769  1.00  0.00    -0.205 F 
ATOM     75  C   UNL A   1      36.974  30.179  31.867  1.00  0.00     0.022 A 
BRANCH  73  76
ATOM     76  S   UNL A   1      36.011  32.058  30.132  1.00  0.00     0.127 S 
ATOM     77  O   UNL A   1      35.532  31.471  28.881  1.00  0.00    -0.237 OA
ATOM     78  O   UNL A   1      35.046  32.022  31.231  1.00  0.00    -0.237 OA
ATOM     79  O   UNL A   1      36.730  33.317  29.993  1.00  0.00    -0.744 OA
ENDBRANCH  73  76
ENDBRANCH  55  69
BRANCH  56  80
ATOM     80  C   UNL A   1      48.046  27.796  25.979  1.00  0.00     0.023 A 
ATOM     81  C   UNL A   1      49.104  27.361  26.800  1.00  0.00     0.012 A 
ATOM     82  C   UNL A   1      48.223  27.838  24.583  1.00  0.00     0.148 A 
ATOM     83  C   UNL A   1      50.319  26.970  26.238  1.00  0.00     0.002 A 
ATOM     84  C   UNL A   1      49.420  27.405  24.027  1.00  0.00     0.091 A 
ATOM     85  F   UNL A   1      47.200  28.262  23.829  1.00  0.00    -0.205 F 
ATOM     86  C   UNL A   1      50.474  26.980  24.853  1.00  0.00     0.022 A 
BRANCH  84  87
ATOM     87  S   UNL A   1      49.671  27.265  22.254  1.00  0.00     0.127 S 
ATOM     88  O   UNL A   1      48.722  26.212  21.901  1.00  0.00    -0.237 OA
ATOM     89  O   UNL A   1      49.304  28.606  21.797  1.00  0.00    -0.237 OA
ATOM     90  O   UNL A   1      51.076  26.928  22.077  1.00  0.00    -0.744 OA
ENDBRANCH  84  87
ENDBRANCH  56  80
BRANCH  68  91
ATOM     91  C   UNL A   1      45.389  33.335  29.321  1.00  0.00     0.023 A 
ATOM     92  C   UNL A   1      46.159  33.552  30.479  1.00  0.00     0.012 A 
ATOM     93  C   UNL A   1      45.222  34.377  28.388  1.00  0.00     0.148 A 
ATOM     94  C   UNL A   1      46.751  34.792  30.712  1.00  0.00     0.002 A 
ATOM     95  C   UNL A   1      45.840  35.601  28.611  1.00  0.00     0.091 A 
ATOM     96  F   UNL A   1      44.476  34.145  27.299  1.00  0.00    -0.205 F 
ATOM     97  C   UNL A   1      46.602  35.812  29.773  1.00  0.00     0.022 A 
BRANCH  95  98
ATOM     98  S   UNL A   1      45.768  36.952  27.430  1.00  0.00     0.127 S 
ATOM     99  O   UNL A   1      46.112  36.274  26.180  1.00  0.00    -0.237 OA
ATOM    100  O   UNL A   1      44.371  37.376  27.531  1.00  0.00    -0.237 OA
ATOM    101  O   UNL A   1      46.736  37.940  27.886  1.00  0.00    -0.744 OA
ENDBRANCH  95  98
ENDBRANCH  68  91
ENDBRANCH  42  43
ENDBRANCH  34  37
ENDBRANCH  32  33
ENDBRANCH  31  32
ENDBRANCH  30  31
ENDBRANCH   1  30
TORSDOF 19
ENDMDL
