MODEL 1
REMARK VINA RESULT:      -8.7      0.000      0.000
REMARK SMILES O=C(NCCCCCCNC(=O)c1cccc([C@@H]2CCC[N@@H+](Cc3cccc(OCCO)c3)C2)c1)c1ccc(-c2c3nc(c(-c4cccc(S(=O)(=O)[O-])c4F)c4ccc([nH]4)c(-c4cccc(S(=O)(=O)[O-])c4F)c4nc(c(-c5cccc(S(=O)(=O)[O-])c5F)c5ccc2[nH]5)C=C4)C=C3)cc1
REMARK SMILES IDX 8 1 7 2 6 3 5 4 4 5 3 6 1 7 2 8 36 10 37 11 98 12 38 13
REMARK SMILES IDX 97 14 39 15 40 16 41 17 91 18 42 19 96 20 90 21 92 22 43 23
REMARK SMILES IDX 95 24 89 25 88 26 44 28 76 29 56 30 75 31 57 32 60 33 74 34
REMARK SMILES IDX 93 35 58 36 59 37 73 39 94 40 61 41 45 42 46 43 54 44 47 45
REMARK SMILES IDX 49 46 55 47 48 48 50 49 51 50 52 51 53 52 77 53 78 54 86 55
REMARK SMILES IDX 79 56 81 57 87 58 80 59 82 60 83 61 84 62 85 63 62 64 63 65
REMARK SMILES IDX 71 66 64 67 66 68 72 69 65 70 67 71 68 72 69 73 70 74 9 75
REMARK SMILES IDX 10 76 11 77 12 79 13 80 14 81 35 82 15 83 17 84 16 85 18 86
REMARK SMILES IDX 19 87 34 88 20 89 22 90 21 91 23 93 24 94 25 95 33 96 26 97
REMARK SMILES IDX 28 98 27 99 29 100 30 101 31 102 32 103
REMARK H PARENT 3 9 92 27 60 38 10 78 22 92 32 104
REMARK Flexibility Score: inf
ROOT
ATOM      1  C   UNL A   1      43.217  24.851  28.052  1.00  0.00     0.021 C 
ENDROOT
BRANCH   1   2
ATOM      2  C   UNL A   1      44.393  23.883  27.891  1.00  0.00     0.002 C 
BRANCH   2   3
ATOM      3  C   UNL A   1      44.511  23.204  26.524  1.00  0.00     0.002 C 
BRANCH   3   4
ATOM      4  C   UNL A   1      45.913  23.182  25.916  1.00  0.00     0.021 C 
BRANCH   4   5
ATOM      5  C   UNL A   1      46.805  24.361  26.283  1.00  0.00     0.116 C 
BRANCH   5   6
ATOM      6  N   UNL A   1      47.093  25.230  25.155  1.00  0.00    -0.352 N 
ATOM      7  O   UNL A   1      46.984  27.092  23.892  1.00  0.00    -0.269 OA
ATOM      8  C   UNL A   1      46.770  26.555  24.971  1.00  0.00     0.251 C 
ATOM      9  H   UNL A   1      47.591  24.810  24.416  1.00  0.00     0.163 HD
BRANCH   8  10
ATOM     10  C   UNL A   1      46.133  27.314  26.073  1.00  0.00     0.039 A 
ATOM     11  C   UNL A   1      46.902  27.883  27.091  1.00  0.00     0.014 A 
ATOM     12  C   UNL A   1      44.741  27.447  26.090  1.00  0.00     0.014 A 
ATOM     13  C   UNL A   1      46.276  28.449  28.197  1.00  0.00     0.010 A 
ATOM     14  C   UNL A   1      44.117  28.093  27.162  1.00  0.00     0.010 A 
ATOM     15  C   UNL A   1      44.875  28.565  28.244  1.00  0.00    -0.014 A 
BRANCH  15  16
ATOM     16  C   UNL A   1      44.240  29.235  29.409  1.00  0.00     0.031 A 
ATOM     17  C   UNL A   1      43.816  30.677  29.350  1.00  0.00     0.074 A 
ATOM     18  C   UNL A   1      44.036  28.519  30.532  1.00  0.00     0.049 A 
ATOM     19  N   UNL A   1      43.197  31.389  30.257  1.00  0.00    -0.248 NA
ATOM     20  C   UNL A   1      44.133  31.424  28.122  1.00  0.00     0.031 C 
ATOM     21  C   UNL A   1      44.448  27.127  30.727  1.00  0.00     0.029 A 
ATOM     22  N   UNL A   1      43.429  28.853  31.715  1.00  0.00    -0.354 N 
ATOM     23  C   UNL A   1      43.085  32.671  29.733  1.00  0.00     0.074 A 
ATOM     24  C   UNL A   1      43.710  32.644  28.428  1.00  0.00     0.031 C 
ATOM     25  C   UNL A   1      44.047  26.714  31.938  1.00  0.00     0.029 A 
ATOM     26  C   UNL A   1      43.393  27.822  32.624  1.00  0.00     0.049 A 
ATOM     27  H   UNL A   1      43.054  29.745  31.897  1.00  0.00     0.167 HD
ATOM     28  C   UNL A   1      42.503  33.765  30.281  1.00  0.00     0.034 A 
ATOM     29  C   UNL A   1      42.891  27.769  33.872  1.00  0.00     0.034 A 
ATOM     30  C   UNL A   1      41.844  33.775  31.561  1.00  0.00     0.049 A 
ATOM     31  C   UNL A   1      42.219  28.987  34.437  1.00  0.00     0.074 A 
ATOM     32  C   UNL A   1      41.159  34.815  32.169  1.00  0.00     0.029 A 
ATOM     33  N   UNL A   1      41.793  32.700  32.435  1.00  0.00    -0.354 N 
ATOM     34  N   UNL A   1      42.000  30.147  33.868  1.00  0.00    -0.248 NA
ATOM     35  C   UNL A   1      41.700  28.881  35.808  1.00  0.00     0.031 C 
ATOM     36  C   UNL A   1      40.708  34.372  33.417  1.00  0.00     0.029 A 
ATOM     37  C   UNL A   1      41.098  33.052  33.581  1.00  0.00     0.049 A 
ATOM     38  H   UNL A   1      42.192  31.817  32.267  1.00  0.00     0.167 HD
ATOM     39  C   UNL A   1      41.297  30.901  34.798  1.00  0.00     0.074 A 
ATOM     40  C   UNL A   1      41.102  30.055  35.958  1.00  0.00     0.031 C 
ATOM     41  C   UNL A   1      40.867  32.184  34.708  1.00  0.00     0.034 A 
BRANCH  28  42
ATOM     42  C   UNL A   1      42.509  35.040  29.478  1.00  0.00     0.023 A 
ATOM     43  C   UNL A   1      41.524  35.247  28.491  1.00  0.00     0.012 A 
ATOM     44  C   UNL A   1      43.444  36.062  29.744  1.00  0.00     0.148 A 
ATOM     45  C   UNL A   1      41.486  36.435  27.762  1.00  0.00     0.002 A 
ATOM     46  C   UNL A   1      43.376  37.259  29.039  1.00  0.00     0.091 A 
ATOM     47  F   UNL A   1      44.388  35.841  30.670  1.00  0.00    -0.205 F 
ATOM     48  C   UNL A   1      42.405  37.443  28.042  1.00  0.00     0.022 A 
BRANCH  46  49
ATOM     49  S   UNL A   1      44.470  38.642  29.384  1.00  0.00     0.127 S 
ATOM     50  O   UNL A   1      44.113  38.963  30.765  1.00  0.00    -0.237 OA
ATOM     51  O   UNL A   1      45.795  38.039  29.223  1.00  0.00    -0.237 OA
ATOM     52  O   UNL A   1      44.147  39.659  28.394  1.00  0.00    -0.744 OA
ENDBRANCH  46  49
ENDBRANCH  28  42
BRANCH  29  53
ATOM     53  C   UNL A   1      42.945  26.492  34.637  1.00  0.00     0.023 A 
ATOM     54  C   UNL A   1      41.782  25.707  34.750  1.00  0.00     0.012 A 
ATOM     55  C   UNL A   1      44.149  26.024  35.200  1.00  0.00     0.148 A 
ATOM     56  C   UNL A   1      41.812  24.488  35.428  1.00  0.00     0.002 A 
ATOM     57  C   UNL A   1      44.184  24.783  35.823  1.00  0.00     0.091 A 
ATOM     58  F   UNL A   1      45.241  26.796  35.097  1.00  0.00    -0.205 F 
ATOM     59  C   UNL A   1      43.014  24.020  35.952  1.00  0.00     0.022 A 
BRANCH  57  60
ATOM     60  S   UNL A   1      45.719  24.045  36.394  1.00  0.00     0.127 S 
ATOM     61  O   UNL A   1      46.514  24.025  35.170  1.00  0.00    -0.237 OA
ATOM     62  O   UNL A   1      46.164  25.006  37.403  1.00  0.00    -0.237 OA
ATOM     63  O   UNL A   1      45.346  22.744  36.933  1.00  0.00    -0.744 OA
ENDBRANCH  57  60
ENDBRANCH  29  53
BRANCH  41  64
ATOM     64  C   UNL A   1      40.124  32.748  35.889  1.00  0.00     0.023 A 
ATOM     65  C   UNL A   1      38.724  32.607  35.963  1.00  0.00     0.012 A 
ATOM     66  C   UNL A   1      40.815  33.366  36.949  1.00  0.00     0.148 A 
ATOM     67  C   UNL A   1      38.019  33.103  37.060  1.00  0.00     0.002 A 
ATOM     68  C   UNL A   1      40.111  33.818  38.060  1.00  0.00     0.091 A 
ATOM     69  F   UNL A   1      42.145  33.513  36.850  1.00  0.00    -0.205 F 
ATOM     70  C   UNL A   1      38.713  33.698  38.112  1.00  0.00     0.022 A 
BRANCH  68  71
ATOM     71  S   UNL A   1      40.936  34.513  39.495  1.00  0.00     0.127 S 
ATOM     72  O   UNL A   1      41.595  35.686  38.923  1.00  0.00    -0.237 OA
ATOM     73  O   UNL A   1      39.816  34.818  40.386  1.00  0.00    -0.237 OA
ATOM     74  O   UNL A   1      41.824  33.468  39.985  1.00  0.00    -0.744 OA
ENDBRANCH  68  71
ENDBRANCH  41  64
ENDBRANCH  15  16
ENDBRANCH   8  10
ENDBRANCH   5   6
ENDBRANCH   4   5
ENDBRANCH   3   4
ENDBRANCH   2   3
ENDBRANCH   1   2
BRANCH   1  75
ATOM     75  C   UNL A   1      42.019  24.295  28.814  1.00  0.00     0.116 C 
BRANCH  75  76
ATOM     76  N   UNL A   1      40.842  24.161  27.966  1.00  0.00    -0.352 N 
ATOM     77  C   UNL A   1      39.923  25.115  27.601  1.00  0.00     0.251 C 
ATOM     78  H   UNL A   1      40.683  23.259  27.604  1.00  0.00     0.163 HD
ATOM     79  O   UNL A   1      38.893  24.792  27.016  1.00  0.00    -0.269 OA
BRANCH  77  80
ATOM     80  C   UNL A   1      40.171  26.538  27.917  1.00  0.00     0.040 A 
ATOM     81  C   UNL A   1      40.400  27.445  26.883  1.00  0.00     0.014 A 
ATOM     82  C   UNL A   1      40.182  26.969  29.246  1.00  0.00     0.018 A 
ATOM     83  C   UNL A   1      40.582  28.794  27.185  1.00  0.00     0.001 A 
ATOM     84  C   UNL A   1      40.331  28.321  29.564  1.00  0.00    -0.039 A 
ATOM     85  C   UNL A   1      40.535  29.230  28.513  1.00  0.00     0.004 A 
BRANCH  84  86
ATOM     86  C   UNL A   1      40.177  28.820  30.991  1.00  0.00     0.074 C 
ATOM     87  C   UNL A   1      39.131  28.077  31.838  1.00  0.00     0.020 C 
ATOM     88  C   UNL A   1      39.952  30.347  31.043  1.00  0.00     0.270 C 
ATOM     89  C   UNL A   1      37.708  28.613  31.689  1.00  0.00     0.062 C 
ATOM     90  N   UNL A   1      38.563  30.780  30.807  1.00  0.00    -0.331 N 
ATOM     91  C   UNL A   1      37.641  30.141  31.756  1.00  0.00     0.262 C 
ATOM     92  H   UNL A   1      38.304  30.466  29.872  1.00  0.00     0.348 HD
BRANCH  90  93
ATOM     93  C   UNL A   1      38.420  32.257  30.787  1.00  0.00     0.299 C 
BRANCH  93  94
ATOM     94  C   UNL A   1      37.167  32.825  31.425  1.00  0.00     0.010 A 
ATOM     95  C   UNL A   1      37.170  33.265  32.755  1.00  0.00     0.010 A 
ATOM     96  C   UNL A   1      35.993  32.983  30.670  1.00  0.00     0.056 A 
ATOM     97  C   UNL A   1      36.046  33.891  33.292  1.00  0.00     0.004 A 
ATOM     98  C   UNL A   1      34.910  33.707  31.161  1.00  0.00     0.119 A 
ATOM     99  C   UNL A   1      34.929  34.131  32.489  1.00  0.00     0.046 A 
BRANCH  98 100
ATOM    100  O   UNL A   1      33.815  34.092  30.438  1.00  0.00    -0.491 OA
BRANCH 100 101
ATOM    101  C   UNL A   1      33.319  35.428  30.584  1.00  0.00     0.257 C 
BRANCH 101 102
ATOM    102  C   UNL A   1      33.467  36.247  29.296  1.00  0.00     0.197 C 
BRANCH 102 103
ATOM    103  O   UNL A   1      33.493  37.652  29.528  1.00  0.00    -0.393 OA
ATOM    104  H   UNL A   1      33.738  37.823  30.451  1.00  0.00     0.210 HD
ENDBRANCH 102 103
ENDBRANCH 101 102
ENDBRANCH 100 101
ENDBRANCH  98 100
ENDBRANCH  93  94
ENDBRANCH  90  93
ENDBRANCH  84  86
ENDBRANCH  77  80
ENDBRANCH  75  76
ENDBRANCH   1  75
TORSDOF 23
ENDMDL
MODEL 2
REMARK VINA RESULT:      -8.4      1.841      2.324
REMARK SMILES O=C(NCCCCCCNC(=O)c1cccc([C@@H]2CCC[N@@H+](Cc3cccc(OCCO)c3)C2)c1)c1ccc(-c2c3nc(c(-c4cccc(S(=O)(=O)[O-])c4F)c4ccc([nH]4)c(-c4cccc(S(=O)(=O)[O-])c4F)c4nc(c(-c5cccc(S(=O)(=O)[O-])c5F)c5ccc2[nH]5)C=C4)C=C3)cc1
REMARK SMILES IDX 8 1 7 2 6 3 5 4 4 5 3 6 1 7 2 8 36 10 37 11 98 12 38 13
REMARK SMILES IDX 97 14 39 15 40 16 41 17 91 18 42 19 96 20 90 21 92 22 43 23
REMARK SMILES IDX 95 24 89 25 88 26 44 28 76 29 56 30 75 31 57 32 60 33 74 34
REMARK SMILES IDX 93 35 58 36 59 37 73 39 94 40 61 41 45 42 46 43 54 44 47 45
REMARK SMILES IDX 49 46 55 47 48 48 50 49 51 50 52 51 53 52 77 53 78 54 86 55
REMARK SMILES IDX 79 56 81 57 87 58 80 59 82 60 83 61 84 62 85 63 62 64 63 65
REMARK SMILES IDX 71 66 64 67 66 68 72 69 65 70 67 71 68 72 69 73 70 74 9 75
REMARK SMILES IDX 10 76 11 77 12 79 13 80 14 81 35 82 15 83 17 84 16 85 18 86
REMARK SMILES IDX 19 87 34 88 20 89 22 90 21 91 23 93 24 94 25 95 33 96 26 97
REMARK SMILES IDX 28 98 27 99 29 100 30 101 31 102 32 103
REMARK H PARENT 3 9 92 27 60 38 10 78 22 92 32 104
REMARK Flexibility Score: inf
ROOT
ATOM      1  C   UNL A   1      43.269  24.271  27.394  1.00  0.00     0.021 C 
ENDROOT
BRANCH   1   2
ATOM      2  C   UNL A   1      43.975  23.130  26.657  1.00  0.00     0.002 C 
BRANCH   2   3
ATOM      3  C   UNL A   1      43.637  22.992  25.170  1.00  0.00     0.002 C 
BRANCH   3   4
ATOM      4  C   UNL A   1      44.836  22.891  24.227  1.00  0.00     0.021 C 
BRANCH   4   5
ATOM      5  C   UNL A   1      46.199  23.104  24.874  1.00  0.00     0.116 C 
BRANCH   5   6
ATOM      6  N   UNL A   1      47.095  23.909  24.062  1.00  0.00    -0.352 N 
ATOM      7  O   UNL A   1      48.080  25.788  23.306  1.00  0.00    -0.269 OA
ATOM      8  C   UNL A   1      47.397  25.248  24.166  1.00  0.00     0.251 C 
ATOM      9  H   UNL A   1      47.551  23.428  23.334  1.00  0.00     0.163 HD
BRANCH   8  10
ATOM     10  C   UNL A   1      46.863  26.034  25.302  1.00  0.00     0.039 A 
ATOM     11  C   UNL A   1      47.697  26.451  26.342  1.00  0.00     0.014 A 
ATOM     12  C   UNL A   1      45.501  26.350  25.330  1.00  0.00     0.014 A 
ATOM     13  C   UNL A   1      47.148  27.046  27.474  1.00  0.00     0.010 A 
ATOM     14  C   UNL A   1      44.964  27.024  26.431  1.00  0.00     0.010 A 
ATOM     15  C   UNL A   1      45.775  27.344  27.531  1.00  0.00    -0.014 A 
BRANCH  15  16
ATOM     16  C   UNL A   1      45.231  28.039  28.726  1.00  0.00     0.031 A 
ATOM     17  C   UNL A   1      44.850  29.494  28.682  1.00  0.00     0.074 A 
ATOM     18  C   UNL A   1      45.069  27.335  29.864  1.00  0.00     0.049 A 
ATOM     19  N   UNL A   1      44.308  30.230  29.619  1.00  0.00    -0.248 NA
ATOM     20  C   UNL A   1      45.120  30.225  27.434  1.00  0.00     0.031 C 
ATOM     21  C   UNL A   1      45.446  25.931  30.043  1.00  0.00     0.029 A 
ATOM     22  N   UNL A   1      44.542  27.694  31.077  1.00  0.00    -0.354 N 
ATOM     23  C   UNL A   1      44.209  31.512  29.094  1.00  0.00     0.074 A 
ATOM     24  C   UNL A   1      44.755  31.459  27.755  1.00  0.00     0.031 C 
ATOM     25  C   UNL A   1      45.103  25.536  31.278  1.00  0.00     0.029 A 
ATOM     26  C   UNL A   1      44.526  26.668  31.993  1.00  0.00     0.049 A 
ATOM     27  H   UNL A   1      44.208  28.599  31.275  1.00  0.00     0.167 HD
ATOM     28  C   UNL A   1      43.694  32.627  29.668  1.00  0.00     0.034 A 
ATOM     29  C   UNL A   1      44.095  26.638  33.269  1.00  0.00     0.034 A 
ATOM     30  C   UNL A   1      43.112  32.664  30.985  1.00  0.00     0.049 A 
ATOM     31  C   UNL A   1      43.497  27.880  33.864  1.00  0.00     0.074 A 
ATOM     32  C   UNL A   1      42.498  33.729  31.624  1.00  0.00     0.029 A 
ATOM     33  N   UNL A   1      43.077  31.596  31.867  1.00  0.00    -0.354 N 
ATOM     34  N   UNL A   1      43.283  29.044  33.301  1.00  0.00    -0.248 NA
ATOM     35  C   UNL A   1      43.055  27.797  35.263  1.00  0.00     0.031 C 
ATOM     36  C   UNL A   1      42.106  33.306  32.899  1.00  0.00     0.029 A 
ATOM     37  C   UNL A   1      42.461  31.975  33.049  1.00  0.00     0.049 A 
ATOM     38  H   UNL A   1      43.436  30.699  31.681  1.00  0.00     0.167 HD
ATOM     39  C   UNL A   1      42.660  29.825  34.266  1.00  0.00     0.074 A 
ATOM     40  C   UNL A   1      42.505  28.990  35.440  1.00  0.00     0.031 C 
ATOM     41  C   UNL A   1      42.268  31.121  34.192  1.00  0.00     0.034 A 
BRANCH  28  42
ATOM     42  C   UNL A   1      43.696  33.898  28.859  1.00  0.00     0.023 A 
ATOM     43  C   UNL A   1      42.508  34.326  28.232  1.00  0.00     0.012 A 
ATOM     44  C   UNL A   1      44.850  34.704  28.773  1.00  0.00     0.148 A 
ATOM     45  C   UNL A   1      42.474  35.518  27.509  1.00  0.00     0.002 A 
ATOM     46  C   UNL A   1      44.797  35.911  28.082  1.00  0.00     0.091 A 
ATOM     47  F   UNL A   1      45.977  34.273  29.355  1.00  0.00    -0.205 F 
ATOM     48  C   UNL A   1      43.615  36.314  27.442  1.00  0.00     0.022 A 
BRANCH  46  49
ATOM     49  S   UNL A   1      46.196  37.036  28.007  1.00  0.00     0.127 S 
ATOM     50  O   UNL A   1      45.770  37.966  26.962  1.00  0.00    -0.237 OA
ATOM     51  O   UNL A   1      46.212  37.604  29.356  1.00  0.00    -0.237 OA
ATOM     52  O   UNL A   1      47.352  36.211  27.686  1.00  0.00    -0.744 OA
ENDBRANCH  46  49
ENDBRANCH  28  42
BRANCH  29  53
ATOM     53  C   UNL A   1      44.152  25.363  34.037  1.00  0.00     0.023 A 
ATOM     54  C   UNL A   1      43.172  24.378  33.811  1.00  0.00     0.012 A 
ATOM     55  C   UNL A   1      45.198  25.098  34.942  1.00  0.00     0.148 A 
ATOM     56  C   UNL A   1      43.221  23.160  34.488  1.00  0.00     0.002 A 
ATOM     57  C   UNL A   1      45.272  23.860  35.569  1.00  0.00     0.091 A 
ATOM     58  F   UNL A   1      46.111  26.056  35.158  1.00  0.00    -0.205 F 
ATOM     59  C   UNL A   1      44.277  22.895  35.356  1.00  0.00     0.022 A 
BRANCH  57  60
ATOM     60  S   UNL A   1      46.676  23.388  36.586  1.00  0.00     0.127 S 
ATOM     61  O   UNL A   1      47.799  23.858  35.781  1.00  0.00    -0.237 OA
ATOM     62  O   UNL A   1      46.435  24.149  37.813  1.00  0.00    -0.237 OA
ATOM     63  O   UNL A   1      46.568  21.944  36.750  1.00  0.00    -0.744 OA
ENDBRANCH  57  60
ENDBRANCH  29  53
BRANCH  41  64
ATOM     64  C   UNL A   1      41.613  31.713  35.411  1.00  0.00     0.023 A 
ATOM     65  C   UNL A   1      42.391  32.441  36.335  1.00  0.00     0.012 A 
ATOM     66  C   UNL A   1      40.224  31.599  35.613  1.00  0.00     0.148 A 
ATOM     67  C   UNL A   1      41.800  33.016  37.459  1.00  0.00     0.002 A 
ATOM     68  C   UNL A   1      39.636  32.213  36.713  1.00  0.00     0.091 A 
ATOM     69  F   UNL A   1      39.505  30.883  34.737  1.00  0.00    -0.205 F 
ATOM     70  C   UNL A   1      40.423  32.912  37.643  1.00  0.00     0.022 A 
BRANCH  68  71
ATOM     71  S   UNL A   1      37.859  32.203  36.974  1.00  0.00     0.127 S 
ATOM     72  O   UNL A   1      37.356  32.413  35.618  1.00  0.00    -0.237 OA
ATOM     73  O   UNL A   1      37.627  30.861  37.509  1.00  0.00    -0.237 OA
ATOM     74  O   UNL A   1      37.593  33.279  37.919  1.00  0.00    -0.744 OA
ENDBRANCH  68  71
ENDBRANCH  41  64
ENDBRANCH  15  16
ENDBRANCH   8  10
ENDBRANCH   5   6
ENDBRANCH   4   5
ENDBRANCH   3   4
ENDBRANCH   2   3
ENDBRANCH   1   2
BRANCH   1  75
ATOM     75  C   UNL A   1      42.205  23.834  28.397  1.00  0.00     0.116 C 
BRANCH  75  76
ATOM     76  N   UNL A   1      40.873  23.810  27.809  1.00  0.00    -0.352 N 
ATOM     77  C   UNL A   1      40.060  24.861  27.458  1.00  0.00     0.251 C 
ATOM     78  H   UNL A   1      40.502  22.913  27.639  1.00  0.00     0.163 HD
ATOM     79  O   UNL A   1      38.893  24.660  27.130  1.00  0.00    -0.269 OA
BRANCH  77  80
ATOM     80  C   UNL A   1      40.588  26.241  27.478  1.00  0.00     0.040 A 
ATOM     81  C   UNL A   1      40.983  26.848  26.286  1.00  0.00     0.014 A 
ATOM     82  C   UNL A   1      40.699  26.932  28.688  1.00  0.00     0.018 A 
ATOM     83  C   UNL A   1      41.431  28.168  26.305  1.00  0.00     0.001 A 
ATOM     84  C   UNL A   1      41.116  28.265  28.722  1.00  0.00    -0.039 A 
ATOM     85  C   UNL A   1      41.485  28.874  27.511  1.00  0.00     0.004 A 
BRANCH  84  86
ATOM     86  C   UNL A   1      41.079  29.073  30.008  1.00  0.00     0.074 C 
ATOM     87  C   UNL A   1      40.465  28.352  31.219  1.00  0.00     0.020 C 
ATOM     88  C   UNL A   1      40.429  30.458  29.796  1.00  0.00     0.270 C 
ATOM     89  C   UNL A   1      38.944  28.470  31.314  1.00  0.00     0.062 C 
ATOM     90  N   UNL A   1      38.955  30.465  29.822  1.00  0.00    -0.331 N 
ATOM     91  C   UNL A   1      38.446  29.897  31.078  1.00  0.00     0.262 C 
ATOM     92  H   UNL A   1      38.638  29.860  29.064  1.00  0.00     0.348 HD
BRANCH  90  93
ATOM     93  C   UNL A   1      38.384  31.803  29.532  1.00  0.00     0.299 C 
BRANCH  93  94
ATOM     94  C   UNL A   1      36.976  31.832  28.969  1.00  0.00     0.010 A 
ATOM     95  C   UNL A   1      36.537  30.848  28.073  1.00  0.00     0.010 A 
ATOM     96  C   UNL A   1      36.062  32.811  29.391  1.00  0.00     0.056 A 
ATOM     97  C   UNL A   1      35.207  30.821  27.654  1.00  0.00     0.004 A 
ATOM     98  C   UNL A   1      34.710  32.724  29.068  1.00  0.00     0.119 A 
ATOM     99  C   UNL A   1      34.293  31.742  28.169  1.00  0.00     0.046 A 
BRANCH  98 100
ATOM    100  O   UNL A   1      33.714  33.499  29.593  1.00  0.00    -0.491 OA
BRANCH 100 101
ATOM    101  C   UNL A   1      34.048  34.766  30.173  1.00  0.00     0.257 C 
BRANCH 101 102
ATOM    102  C   UNL A   1      33.087  35.877  29.737  1.00  0.00     0.197 C 
BRANCH 102 103
ATOM    103  O   UNL A   1      32.489  35.633  28.468  1.00  0.00    -0.393 OA
ATOM    104  H   UNL A   1      32.346  34.680  28.356  1.00  0.00     0.210 HD
ENDBRANCH 102 103
ENDBRANCH 101 102
ENDBRANCH 100 101
ENDBRANCH  98 100
ENDBRANCH  93  94
ENDBRANCH  90  93
ENDBRANCH  84  86
ENDBRANCH  77  80
ENDBRANCH  75  76
ENDBRANCH   1  75
TORSDOF 23
ENDMDL
MODEL 3
REMARK VINA RESULT:      -7.2      1.771      2.252
REMARK SMILES O=C(NCCCCCCNC(=O)c1cccc([C@@H]2CCC[N@@H+](Cc3cccc(OCCO)c3)C2)c1)c1ccc(-c2c3nc(c(-c4cccc(S(=O)(=O)[O-])c4F)c4ccc([nH]4)c(-c4cccc(S(=O)(=O)[O-])c4F)c4nc(c(-c5cccc(S(=O)(=O)[O-])c5F)c5ccc2[nH]5)C=C4)C=C3)cc1
REMARK SMILES IDX 8 1 7 2 6 3 5 4 4 5 3 6 1 7 2 8 36 10 37 11 98 12 38 13
REMARK SMILES IDX 97 14 39 15 40 16 41 17 91 18 42 19 96 20 90 21 92 22 43 23
REMARK SMILES IDX 95 24 89 25 88 26 44 28 76 29 56 30 75 31 57 32 60 33 74 34
REMARK SMILES IDX 93 35 58 36 59 37 73 39 94 40 61 41 45 42 46 43 54 44 47 45
REMARK SMILES IDX 49 46 55 47 48 48 50 49 51 50 52 51 53 52 77 53 78 54 86 55
REMARK SMILES IDX 79 56 81 57 87 58 80 59 82 60 83 61 84 62 85 63 62 64 63 65
REMARK SMILES IDX 71 66 64 67 66 68 72 69 65 70 67 71 68 72 69 73 70 74 9 75
REMARK SMILES IDX 10 76 11 77 12 79 13 80 14 81 35 82 15 83 17 84 16 85 18 86
REMARK SMILES IDX 19 87 34 88 20 89 22 90 21 91 23 93 24 94 25 95 33 96 26 97
REMARK SMILES IDX 28 98 27 99 29 100 30 101 31 102 32 103
REMARK H PARENT 3 9 92 27 60 38 10 78 22 92 32 104
REMARK Flexibility Score: inf
ROOT
ATOM      1  C   UNL A   1      44.928  25.437  28.485  1.00  0.00     0.021 C 
ENDROOT
BRANCH   1   2
ATOM      2  C   UNL A   1      45.817  24.225  28.193  1.00  0.00     0.002 C 
BRANCH   2   3
ATOM      3  C   UNL A   1      45.726  23.663  26.771  1.00  0.00     0.002 C 
BRANCH   3   4
ATOM      4  C   UNL A   1      46.533  24.414  25.712  1.00  0.00     0.021 C 
BRANCH   4   5
ATOM      5  C   UNL A   1      47.813  25.074  26.209  1.00  0.00     0.116 C 
BRANCH   5   6
ATOM      6  N   UNL A   1      48.342  26.060  25.282  1.00  0.00    -0.352 N 
ATOM      7  O   UNL A   1      48.632  28.097  24.367  1.00  0.00    -0.269 OA
ATOM      8  C   UNL A   1      48.228  27.431  25.311  1.00  0.00     0.251 C 
ATOM      9  H   UNL A   1      48.855  25.694  24.525  1.00  0.00     0.163 HD
BRANCH   8  10
ATOM     10  C   UNL A   1      47.585  28.089  26.472  1.00  0.00     0.039 A 
ATOM     11  C   UNL A   1      48.339  28.500  27.573  1.00  0.00     0.014 A 
ATOM     12  C   UNL A   1      46.201  28.289  26.460  1.00  0.00     0.014 A 
ATOM     13  C   UNL A   1      47.698  28.966  28.716  1.00  0.00     0.010 A 
ATOM     14  C   UNL A   1      45.567  28.837  27.579  1.00  0.00     0.010 A 
ATOM     15  C   UNL A   1      46.304  29.145  28.732  1.00  0.00    -0.014 A 
BRANCH  15  16
ATOM     16  C   UNL A   1      45.656  29.707  29.945  1.00  0.00     0.031 A 
ATOM     17  C   UNL A   1      45.326  31.172  30.052  1.00  0.00     0.074 A 
ATOM     18  C   UNL A   1      45.354  28.874  30.961  1.00  0.00     0.049 A 
ATOM     19  N   UNL A   1      44.709  31.806  31.016  1.00  0.00    -0.248 NA
ATOM     20  C   UNL A   1      45.747  32.041  28.942  1.00  0.00     0.031 C 
ATOM     21  C   UNL A   1      45.669  27.444  30.995  1.00  0.00     0.029 A 
ATOM     22  N   UNL A   1      44.712  29.100  32.150  1.00  0.00    -0.354 N 
ATOM     23  C   UNL A   1      44.703  33.148  30.653  1.00  0.00     0.074 A 
ATOM     24  C   UNL A   1      45.387  33.240  29.381  1.00  0.00     0.031 C 
ATOM     25  C   UNL A   1      45.185  26.913  32.126  1.00  0.00     0.029 A 
ATOM     26  C   UNL A   1      44.569  27.969  32.920  1.00  0.00     0.049 A 
ATOM     27  H   UNL A   1      44.385  29.987  32.428  1.00  0.00     0.167 HD
ATOM     28  C   UNL A   1      44.164  34.202  31.311  1.00  0.00     0.034 A 
ATOM     29  C   UNL A   1      44.004  27.798  34.131  1.00  0.00     0.034 A 
ATOM     30  C   UNL A   1      43.446  34.099  32.555  1.00  0.00     0.049 A 
ATOM     31  C   UNL A   1      43.383  28.980  34.817  1.00  0.00     0.074 A 
ATOM     32  C   UNL A   1      42.799  35.101  33.261  1.00  0.00     0.029 A 
ATOM     33  N   UNL A   1      43.286  32.931  33.284  1.00  0.00    -0.354 N 
ATOM     34  N   UNL A   1      43.265  30.213  34.390  1.00  0.00    -0.248 NA
ATOM     35  C   UNL A   1      42.793  28.741  36.141  1.00  0.00     0.031 C 
ATOM     36  C   UNL A   1      42.261  34.539  34.424  1.00  0.00     0.029 A 
ATOM     37  C   UNL A   1      42.560  33.185  34.436  1.00  0.00     0.049 A 
ATOM     38  H   UNL A   1      43.637  32.050  33.022  1.00  0.00     0.167 HD
ATOM     39  C   UNL A   1      42.565  30.893  35.379  1.00  0.00     0.074 A 
ATOM     40  C   UNL A   1      42.263  29.925  36.415  1.00  0.00     0.031 C 
ATOM     41  C   UNL A   1      42.221  32.203  35.434  1.00  0.00     0.034 A 
BRANCH  28  42
ATOM     42  C   UNL A   1      44.288  35.564  30.677  1.00  0.00     0.023 A 
ATOM     43  C   UNL A   1      45.364  36.402  31.034  1.00  0.00     0.012 A 
ATOM     44  C   UNL A   1      43.385  35.988  29.681  1.00  0.00     0.148 A 
ATOM     45  C   UNL A   1      45.522  37.651  30.433  1.00  0.00     0.002 A 
ATOM     46  C   UNL A   1      43.572  37.218  29.059  1.00  0.00     0.091 A 
ATOM     47  F   UNL A   1      42.355  35.189  29.369  1.00  0.00    -0.205 F 
ATOM     48  C   UNL A   1      44.633  38.054  29.441  1.00  0.00     0.022 A 
BRANCH  46  49
ATOM     49  S   UNL A   1      42.520  37.787  27.718  1.00  0.00     0.127 S 
ATOM     50  O   UNL A   1      41.866  36.546  27.309  1.00  0.00    -0.237 OA
ATOM     51  O   UNL A   1      41.642  38.744  28.395  1.00  0.00    -0.237 OA
ATOM     52  O   UNL A   1      43.417  38.383  26.738  1.00  0.00    -0.744 OA
ENDBRANCH  46  49
ENDBRANCH  28  42
BRANCH  29  53
ATOM     53  C   UNL A   1      43.943  26.436  34.729  1.00  0.00     0.023 A 
ATOM     54  C   UNL A   1      42.789  25.651  34.539  1.00  0.00     0.012 A 
ATOM     55  C   UNL A   1      45.035  25.893  35.433  1.00  0.00     0.148 A 
ATOM     56  C   UNL A   1      42.717  24.358  35.056  1.00  0.00     0.002 A 
ATOM     57  C   UNL A   1      44.978  24.583  35.895  1.00  0.00     0.091 A 
ATOM     58  F   UNL A   1      46.117  26.663  35.620  1.00  0.00    -0.205 F 
ATOM     59  C   UNL A   1      43.815  23.820  35.722  1.00  0.00     0.022 A 
BRANCH  57  60
ATOM     60  S   UNL A   1      46.400  23.768  36.632  1.00  0.00     0.127 S 
ATOM     61  O   UNL A   1      45.861  22.447  36.937  1.00  0.00    -0.237 OA
ATOM     62  O   UNL A   1      47.371  23.801  35.537  1.00  0.00    -0.237 OA
ATOM     63  O   UNL A   1      46.766  24.589  37.778  1.00  0.00    -0.744 OA
ENDBRANCH  57  60
ENDBRANCH  29  53
BRANCH  41  64
ATOM     64  C   UNL A   1      41.459  32.666  36.647  1.00  0.00     0.023 A 
ATOM     65  C   UNL A   1      42.122  33.407  37.645  1.00  0.00     0.012 A 
ATOM     66  C   UNL A   1      40.078  32.416  36.771  1.00  0.00     0.148 A 
ATOM     67  C   UNL A   1      41.429  33.863  38.766  1.00  0.00     0.002 A 
ATOM     68  C   UNL A   1      39.385  32.913  37.869  1.00  0.00     0.091 A 
ATOM     69  F   UNL A   1      39.470  31.689  35.823  1.00  0.00    -0.205 F 
ATOM     70  C   UNL A   1      40.060  33.626  38.873  1.00  0.00     0.022 A 
BRANCH  68  71
ATOM     71  S   UNL A   1      37.607  32.729  38.037  1.00  0.00     0.127 S 
ATOM     72  O   UNL A   1      37.499  31.411  38.658  1.00  0.00    -0.237 OA
ATOM     73  O   UNL A   1      37.256  33.846  38.914  1.00  0.00    -0.237 OA
ATOM     74  O   UNL A   1      37.069  32.835  36.687  1.00  0.00    -0.744 OA
ENDBRANCH  68  71
ENDBRANCH  41  64
ENDBRANCH  15  16
ENDBRANCH   8  10
ENDBRANCH   5   6
ENDBRANCH   4   5
ENDBRANCH   3   4
ENDBRANCH   2   3
ENDBRANCH   1   2
BRANCH   1  75
ATOM     75  C   UNL A   1      43.598  25.119  29.159  1.00  0.00     0.116 C 
BRANCH  75  76
ATOM     76  N   UNL A   1      42.486  25.141  28.219  1.00  0.00    -0.352 N 
ATOM     77  C   UNL A   1      41.541  26.118  28.017  1.00  0.00     0.251 C 
ATOM     78  H   UNL A   1      42.399  24.342  27.649  1.00  0.00     0.163 HD
ATOM     79  O   UNL A   1      40.568  25.900  27.298  1.00  0.00    -0.269 OA
BRANCH  77  80
ATOM     80  C   UNL A   1      41.690  27.436  28.668  1.00  0.00     0.040 A 
ATOM     81  C   UNL A   1      42.112  28.534  27.918  1.00  0.00     0.014 A 
ATOM     82  C   UNL A   1      41.418  27.580  30.031  1.00  0.00     0.018 A 
ATOM     83  C   UNL A   1      42.201  29.785  28.526  1.00  0.00     0.001 A 
ATOM     84  C   UNL A   1      41.471  28.831  30.649  1.00  0.00    -0.039 A 
ATOM     85  C   UNL A   1      41.871  29.934  29.877  1.00  0.00     0.004 A 
BRANCH  84  86
ATOM     86  C   UNL A   1      41.016  29.025  32.086  1.00  0.00     0.074 C 
ATOM     87  C   UNL A   1      40.222  27.852  32.686  1.00  0.00     0.020 C 
ATOM     88  C   UNL A   1      40.264  30.360  32.274  1.00  0.00     0.270 C 
ATOM     89  C   UNL A   1      38.722  27.897  32.395  1.00  0.00     0.062 C 
ATOM     90  N   UNL A   1      38.841  30.334  31.891  1.00  0.00    -0.331 N 
ATOM     91  C   UNL A   1      38.117  29.284  32.621  1.00  0.00     0.262 C 
ATOM     92  H   UNL A   1      38.801  30.098  30.899  1.00  0.00     0.348 HD
BRANCH  90  93
ATOM     93  C   UNL A   1      38.191  31.661  32.015  1.00  0.00     0.299 C 
BRANCH  93  94
ATOM     94  C   UNL A   1      37.089  31.972  31.019  1.00  0.00     0.010 A 
ATOM     95  C   UNL A   1      36.993  31.272  29.809  1.00  0.00     0.010 A 
ATOM     96  C   UNL A   1      36.103  32.924  31.324  1.00  0.00     0.056 A 
ATOM     97  C   UNL A   1      35.910  31.487  28.956  1.00  0.00     0.004 A 
ATOM     98  C   UNL A   1      34.963  33.062  30.535  1.00  0.00     0.119 A 
ATOM     99  C   UNL A   1      34.889  32.362  29.331  1.00  0.00     0.046 A 
BRANCH  98 100
ATOM    100  O   UNL A   1      33.860  33.803  30.853  1.00  0.00    -0.491 OA
BRANCH 100 101
ATOM    101  C   UNL A   1      33.716  35.114  30.295  1.00  0.00     0.257 C 
BRANCH 101 102
ATOM    102  C   UNL A   1      33.019  35.092  28.930  1.00  0.00     0.197 C 
BRANCH 102 103
ATOM    103  O   UNL A   1      32.390  36.328  28.604  1.00  0.00    -0.393 OA
ATOM    104  H   UNL A   1      31.721  36.179  27.918  1.00  0.00     0.210 HD
ENDBRANCH 102 103
ENDBRANCH 101 102
ENDBRANCH 100 101
ENDBRANCH  98 100
ENDBRANCH  93  94
ENDBRANCH  90  93
ENDBRANCH  84  86
ENDBRANCH  77  80
ENDBRANCH  75  76
ENDBRANCH   1  75
TORSDOF 23
ENDMDL
