MODEL 1
REMARK VINA RESULT:     -12.0      0.000      0.000
REMARK SMILES C[C@H](C(=O)NCCCCCCNC(=O)c1ccc(-c2c3nc(c(-c4cccc(S(=O)(=O)[O-])c4F)c4ccc([nH]4)c(-c4cccc(S(=O)(=O)[O-])c4F)c4nc(c(-c5cccc(S(=O)(=O)[O-])c5F)c5ccc2[nH]5)C=C4)C=C3)cc1)c1ccc(-c2ccccc2)c(F)c1
REMARK SMILES IDX 9 1 8 2 7 3 6 4 5 5 3 6 4 7 2 9 1 10 78 11 79 12 90 13 80 14
REMARK SMILES IDX 88 15 81 16 89 17 82 18 83 19 87 20 84 21 86 22 85 23 10 24
REMARK SMILES IDX 11 25 12 26 13 27 14 29 15 30 16 31 77 32 17 33 76 34 18 35
REMARK SMILES IDX 19 36 20 37 70 38 21 39 75 40 69 41 71 42 22 43 74 44 68 45
REMARK SMILES IDX 67 46 23 48 55 49 35 50 54 51 36 52 39 53 53 54 72 55 37 56
REMARK SMILES IDX 38 57 52 59 73 60 40 61 24 62 25 63 33 64 26 65 28 66 34 67
REMARK SMILES IDX 27 68 29 69 30 70 31 71 32 72 56 73 57 74 65 75 58 76 60 77
REMARK SMILES IDX 66 78 59 79 61 80 62 81 63 82 64 83 41 84 42 85 50 86 43 87
REMARK SMILES IDX 45 88 51 89 44 90 46 91 47 92 48 93 49 94
REMARK H PARENT 5 8 12 28 71 47 39 58
REMARK Flexibility Score: inf
ROOT
ATOM      1  C   UNL A   1      31.809  27.852  26.726  1.00  0.00     0.002 C 
ENDROOT
BRANCH   1   2
ATOM      2  C   UNL A   1      32.076  26.344  26.693  1.00  0.00     0.002 C 
BRANCH   2   3
ATOM      3  C   UNL A   1      33.388  25.936  26.010  1.00  0.00     0.021 C 
BRANCH   3   4
ATOM      4  C   UNL A   1      33.456  24.454  25.638  1.00  0.00     0.116 C 
BRANCH   4   5
ATOM      5  N   UNL A   1      34.143  24.268  24.375  1.00  0.00    -0.356 N 
ATOM      6  C   UNL A   1      33.675  23.806  23.179  1.00  0.00     0.227 C 
ATOM      7  O   UNL A   1      34.496  23.640  22.272  1.00  0.00    -0.274 OA
ATOM      8  H   UNL A   1      35.097  24.513  24.381  1.00  0.00     0.163 HD
BRANCH   6   9
ATOM      9  C   UNL A   1      32.179  23.524  22.990  1.00  0.00     0.105 C 
ATOM     10  C   UNL A   1      31.735  22.484  24.028  1.00  0.00     0.023 C 
BRANCH   9  11
ATOM     11  C   UNL A   1      31.356  24.806  23.027  1.00  0.00    -0.033 A 
ATOM     12  C   UNL A   1      31.700  25.878  22.194  1.00  0.00     0.005 A 
ATOM     13  C   UNL A   1      30.273  24.982  23.896  1.00  0.00     0.044 A 
ATOM     14  C   UNL A   1      31.015  27.096  22.253  1.00  0.00     0.012 A 
ATOM     15  C   UNL A   1      29.568  26.192  23.925  1.00  0.00     0.131 A 
ATOM     16  C   UNL A   1      29.926  27.281  23.117  1.00  0.00     0.017 A 
ATOM     17  F   UNL A   1      28.518  26.281  24.757  1.00  0.00    -0.206 F 
BRANCH  16  18
ATOM     18  C   UNL A   1      29.221  28.575  23.159  1.00  0.00    -0.015 A 
ATOM     19  C   UNL A   1      29.905  29.760  23.491  1.00  0.00     0.009 A 
ATOM     20  C   UNL A   1      27.841  28.668  22.913  1.00  0.00     0.009 A 
ATOM     21  C   UNL A   1      29.236  30.982  23.589  1.00  0.00     0.001 A 
ATOM     22  C   UNL A   1      27.170  29.891  23.006  1.00  0.00     0.001 A 
ATOM     23  C   UNL A   1      27.867  31.047  23.347  1.00  0.00     0.000 A 
ENDBRANCH  16  18
ENDBRANCH   9  11
ENDBRANCH   6   9
ENDBRANCH   4   5
ENDBRANCH   3   4
ENDBRANCH   2   3
ENDBRANCH   1   2
BRANCH   1  24
ATOM     24  C   UNL A   1      32.117  28.590  25.421  1.00  0.00     0.021 C 
BRANCH  24  25
ATOM     25  C   UNL A   1      33.283  29.566  25.512  1.00  0.00     0.116 C 
BRANCH  25  26
ATOM     26  N   UNL A   1      32.859  30.877  25.980  1.00  0.00    -0.352 N 
ATOM     27  C   UNL A   1      33.303  31.592  27.060  1.00  0.00     0.251 C 
ATOM     28  H   UNL A   1      32.155  31.309  25.445  1.00  0.00     0.163 HD
ATOM     29  O   UNL A   1      32.682  32.588  27.432  1.00  0.00    -0.269 OA
BRANCH  27  30
ATOM     30  C   UNL A   1      34.521  31.165  27.779  1.00  0.00     0.039 A 
ATOM     31  C   UNL A   1      35.557  32.083  27.971  1.00  0.00     0.014 A 
ATOM     32  C   UNL A   1      34.648  29.853  28.248  1.00  0.00     0.014 A 
ATOM     33  C   UNL A   1      36.708  31.691  28.657  1.00  0.00     0.010 A 
ATOM     34  C   UNL A   1      35.758  29.492  29.004  1.00  0.00     0.010 A 
ATOM     35  C   UNL A   1      36.812  30.397  29.192  1.00  0.00    -0.014 A 
BRANCH  35  36
ATOM     36  C   UNL A   1      38.033  29.957  29.914  1.00  0.00     0.031 A 
ATOM     37  C   UNL A   1      38.291  30.441  31.316  1.00  0.00     0.074 A 
ATOM     38  C   UNL A   1      38.942  29.186  29.288  1.00  0.00     0.049 A 
ATOM     39  N   UNL A   1      39.310  30.198  32.100  1.00  0.00    -0.248 NA
ATOM     40  C   UNL A   1      37.287  31.343  31.907  1.00  0.00     0.031 C 
ATOM     41  C   UNL A   1      38.843  28.710  27.906  1.00  0.00     0.029 A 
ATOM     42  N   UNL A   1      40.140  28.680  29.728  1.00  0.00    -0.354 N 
ATOM     43  C   UNL A   1      39.094  30.950  33.249  1.00  0.00     0.074 A 
ATOM     44  C   UNL A   1      37.867  31.687  33.046  1.00  0.00     0.031 C 
ATOM     45  C   UNL A   1      39.924  27.968  27.618  1.00  0.00     0.029 A 
ATOM     46  C   UNL A   1      40.808  27.938  28.781  1.00  0.00     0.049 A 
ATOM     47  H   UNL A   1      40.489  28.834  30.636  1.00  0.00     0.167 HD
ATOM     48  C   UNL A   1      39.833  31.004  34.381  1.00  0.00     0.034 A 
ATOM     49  C   UNL A   1      41.995  27.306  28.844  1.00  0.00     0.034 A 
ATOM     50  C   UNL A   1      41.026  30.232  34.596  1.00  0.00     0.049 A 
ATOM     51  C   UNL A   1      42.774  27.341  30.132  1.00  0.00     0.074 A 
ATOM     52  C   UNL A   1      41.795  30.135  35.743  1.00  0.00     0.029 A 
ATOM     53  N   UNL A   1      41.630  29.428  33.641  1.00  0.00    -0.354 N 
ATOM     54  N   UNL A   1      42.475  27.932  31.263  1.00  0.00    -0.248 NA
ATOM     55  C   UNL A   1      44.035  26.587  30.164  1.00  0.00     0.031 C 
ATOM     56  C   UNL A   1      42.884  29.301  35.468  1.00  0.00     0.029 A 
ATOM     57  C   UNL A   1      42.769  28.843  34.165  1.00  0.00     0.049 A 
ATOM     58  H   UNL A   1      41.298  29.295  32.724  1.00  0.00     0.167 HD
ATOM     59  C   UNL A   1      43.481  27.579  32.156  1.00  0.00     0.074 A 
ATOM     60  C   UNL A   1      44.394  26.716  31.434  1.00  0.00     0.031 C 
ATOM     61  C   UNL A   1      43.637  27.940  33.454  1.00  0.00     0.034 A 
BRANCH  48  62
ATOM     62  C   UNL A   1      39.352  31.908  35.488  1.00  0.00     0.023 A 
ATOM     63  C   UNL A   1      38.431  31.426  36.442  1.00  0.00     0.012 A 
ATOM     64  C   UNL A   1      39.840  33.225  35.606  1.00  0.00     0.148 A 
ATOM     65  C   UNL A   1      37.965  32.253  37.463  1.00  0.00     0.002 A 
ATOM     66  C   UNL A   1      39.411  34.026  36.658  1.00  0.00     0.091 A 
ATOM     67  F   UNL A   1      40.698  33.675  34.680  1.00  0.00    -0.205 F 
ATOM     68  C   UNL A   1      38.462  33.549  37.576  1.00  0.00     0.022 A 
BRANCH  66  69
ATOM     69  S   UNL A   1      40.059  35.677  36.939  1.00  0.00     0.127 S 
ATOM     70  O   UNL A   1      41.497  35.422  37.007  1.00  0.00    -0.237 OA
ATOM     71  O   UNL A   1      39.623  36.388  35.736  1.00  0.00    -0.237 OA
ATOM     72  O   UNL A   1      39.446  36.143  38.174  1.00  0.00    -0.744 OA
ENDBRANCH  66  69
ENDBRANCH  48  62
BRANCH  49  73
ATOM     73  C   UNL A   1      42.478  26.508  27.681  1.00  0.00     0.023 A 
ATOM     74  C   UNL A   1      43.330  27.115  26.738  1.00  0.00     0.012 A 
ATOM     75  C   UNL A   1      42.122  25.156  27.517  1.00  0.00     0.148 A 
ATOM     76  C   UNL A   1      43.793  26.401  25.633  1.00  0.00     0.002 A 
ATOM     77  C   UNL A   1      42.631  24.434  26.443  1.00  0.00     0.091 A 
ATOM     78  F   UNL A   1      41.308  24.599  28.424  1.00  0.00    -0.205 F 
ATOM     79  C   UNL A   1      43.450  25.059  25.490  1.00  0.00     0.022 A 
BRANCH  77  80
ATOM     80  S   UNL A   1      42.347  22.672  26.242  1.00  0.00     0.127 S 
ATOM     81  O   UNL A   1      42.984  22.411  24.954  1.00  0.00    -0.237 OA
ATOM     82  O   UNL A   1      43.051  22.122  27.401  1.00  0.00    -0.237 OA
ATOM     83  O   UNL A   1      40.901  22.497  26.276  1.00  0.00    -0.744 OA
ENDBRANCH  77  80
ENDBRANCH  49  73
BRANCH  61  84
ATOM     84  C   UNL A   1      44.803  27.355  34.209  1.00  0.00     0.023 A 
ATOM     85  C   UNL A   1      46.047  28.018  34.221  1.00  0.00     0.012 A 
ATOM     86  C   UNL A   1      44.638  26.179  34.967  1.00  0.00     0.148 A 
ATOM     87  C   UNL A   1      47.119  27.496  34.946  1.00  0.00     0.002 A 
ATOM     88  C   UNL A   1      45.694  25.697  35.730  1.00  0.00     0.091 A 
ATOM     89  F   UNL A   1      43.454  25.553  34.927  1.00  0.00    -0.205 F 
ATOM     90  C   UNL A   1      46.939  26.344  35.708  1.00  0.00     0.022 A 
BRANCH  88  91
ATOM     91  S   UNL A   1      45.519  24.282  36.823  1.00  0.00     0.127 S 
ATOM     92  O   UNL A   1      44.443  24.721  37.708  1.00  0.00    -0.237 OA
ATOM     93  O   UNL A   1      45.148  23.214  35.893  1.00  0.00    -0.237 OA
ATOM     94  O   UNL A   1      46.819  24.102  37.456  1.00  0.00    -0.744 OA
ENDBRANCH  88  91
ENDBRANCH  61  84
ENDBRANCH  35  36
ENDBRANCH  27  30
ENDBRANCH  25  26
ENDBRANCH  24  25
ENDBRANCH   1  24
TORSDOF 18
ENDMDL
MODEL 2
REMARK VINA RESULT:     -11.9      5.180     10.409
REMARK SMILES C[C@H](C(=O)NCCCCCCNC(=O)c1ccc(-c2c3nc(c(-c4cccc(S(=O)(=O)[O-])c4F)c4ccc([nH]4)c(-c4cccc(S(=O)(=O)[O-])c4F)c4nc(c(-c5cccc(S(=O)(=O)[O-])c5F)c5ccc2[nH]5)C=C4)C=C3)cc1)c1ccc(-c2ccccc2)c(F)c1
REMARK SMILES IDX 9 1 8 2 7 3 6 4 5 5 3 6 4 7 2 9 1 10 78 11 79 12 90 13 80 14
REMARK SMILES IDX 88 15 81 16 89 17 82 18 83 19 87 20 84 21 86 22 85 23 10 24
REMARK SMILES IDX 11 25 12 26 13 27 14 29 15 30 16 31 77 32 17 33 76 34 18 35
REMARK SMILES IDX 19 36 20 37 70 38 21 39 75 40 69 41 71 42 22 43 74 44 68 45
REMARK SMILES IDX 67 46 23 48 55 49 35 50 54 51 36 52 39 53 53 54 72 55 37 56
REMARK SMILES IDX 38 57 52 59 73 60 40 61 24 62 25 63 33 64 26 65 28 66 34 67
REMARK SMILES IDX 27 68 29 69 30 70 31 71 32 72 56 73 57 74 65 75 58 76 60 77
REMARK SMILES IDX 66 78 59 79 61 80 62 81 63 82 64 83 41 84 42 85 50 86 43 87
REMARK SMILES IDX 45 88 51 89 44 90 46 91 47 92 48 93 49 94
REMARK H PARENT 5 8 12 28 71 47 39 58
REMARK Flexibility Score: inf
ROOT
ATOM      1  C   UNL A   1      36.337  23.032  23.407  1.00  0.00     0.002 C 
ENDROOT
BRANCH   1   2
ATOM      2  C   UNL A   1      34.921  23.579  23.614  1.00  0.00     0.002 C 
BRANCH   2   3
ATOM      3  C   UNL A   1      34.787  24.617  24.735  1.00  0.00     0.021 C 
BRANCH   3   4
ATOM      4  C   UNL A   1      33.700  25.662  24.484  1.00  0.00     0.116 C 
BRANCH   4   5
ATOM      5  N   UNL A   1      32.873  25.843  25.661  1.00  0.00    -0.356 N 
ATOM      6  C   UNL A   1      31.549  25.577  25.856  1.00  0.00     0.227 C 
ATOM      7  O   UNL A   1      31.050  25.923  26.930  1.00  0.00    -0.274 OA
ATOM      8  H   UNL A   1      33.340  26.218  26.443  1.00  0.00     0.163 HD
BRANCH   6   9
ATOM      9  C   UNL A   1      30.736  24.860  24.770  1.00  0.00     0.105 C 
ATOM     10  C   UNL A   1      30.680  25.752  23.521  1.00  0.00     0.023 C 
BRANCH   9  11
ATOM     11  C   UNL A   1      31.277  23.463  24.492  1.00  0.00    -0.033 A 
ATOM     12  C   UNL A   1      31.646  22.635  25.561  1.00  0.00     0.005 A 
ATOM     13  C   UNL A   1      31.461  22.969  23.196  1.00  0.00     0.044 A 
ATOM     14  C   UNL A   1      32.215  21.376  25.344  1.00  0.00     0.012 A 
ATOM     15  C   UNL A   1      31.998  21.692  22.985  1.00  0.00     0.131 A 
ATOM     16  C   UNL A   1      32.399  20.871  24.048  1.00  0.00     0.017 A 
ATOM     17  F   UNL A   1      32.115  21.267  21.717  1.00  0.00    -0.206 F 
BRANCH  16  18
ATOM     18  C   UNL A   1      33.002  19.540  23.848  1.00  0.00    -0.015 A 
ATOM     19  C   UNL A   1      32.413  18.603  22.979  1.00  0.00     0.009 A 
ATOM     20  C   UNL A   1      34.155  19.144  24.546  1.00  0.00     0.009 A 
ATOM     21  C   UNL A   1      32.944  17.320  22.824  1.00  0.00     0.001 A 
ATOM     22  C   UNL A   1      34.692  17.862  24.390  1.00  0.00     0.001 A 
ATOM     23  C   UNL A   1      34.084  16.950  23.532  1.00  0.00     0.000 A 
ENDBRANCH  16  18
ENDBRANCH   9  11
ENDBRANCH   6   9
ENDBRANCH   4   5
ENDBRANCH   3   4
ENDBRANCH   2   3
ENDBRANCH   1   2
BRANCH   1  24
ATOM     24  C   UNL A   1      36.703  21.839  24.295  1.00  0.00     0.021 C 
BRANCH  24  25
ATOM     25  C   UNL A   1      37.365  22.219  25.613  1.00  0.00     0.116 C 
BRANCH  25  26
ATOM     26  N   UNL A   1      38.310  21.205  26.056  1.00  0.00    -0.352 N 
ATOM     27  C   UNL A   1      39.586  21.363  26.531  1.00  0.00     0.251 C 
ATOM     28  H   UNL A   1      37.988  20.276  26.009  1.00  0.00     0.163 HD
ATOM     29  O   UNL A   1      40.319  20.381  26.656  1.00  0.00    -0.269 OA
BRANCH  27  30
ATOM     30  C   UNL A   1      40.082  22.709  26.883  1.00  0.00     0.039 A 
ATOM     31  C   UNL A   1      41.011  22.844  27.917  1.00  0.00     0.014 A 
ATOM     32  C   UNL A   1      39.615  23.840  26.205  1.00  0.00     0.014 A 
ATOM     33  C   UNL A   1      41.492  24.112  28.253  1.00  0.00     0.010 A 
ATOM     34  C   UNL A   1      40.160  25.089  26.484  1.00  0.00     0.010 A 
ATOM     35  C   UNL A   1      41.081  25.243  27.529  1.00  0.00    -0.014 A 
BRANCH  35  36
ATOM     36  C   UNL A   1      41.571  26.601  27.877  1.00  0.00     0.031 A 
ATOM     37  C   UNL A   1      42.986  26.996  27.545  1.00  0.00     0.074 A 
ATOM     38  C   UNL A   1      40.775  27.449  28.555  1.00  0.00     0.049 A 
ATOM     39  N   UNL A   1      43.610  28.118  27.794  1.00  0.00    -0.248 NA
ATOM     40  C   UNL A   1      43.820  25.987  26.870  1.00  0.00     0.031 C 
ATOM     41  C   UNL A   1      39.409  27.159  28.998  1.00  0.00     0.029 A 
ATOM     42  N   UNL A   1      41.005  28.725  29.004  1.00  0.00    -0.354 N 
ATOM     43  C   UNL A   1      44.916  27.933  27.353  1.00  0.00     0.074 A 
ATOM     44  C   UNL A   1      45.005  26.579  26.855  1.00  0.00     0.031 C 
ATOM     45  C   UNL A   1      38.918  28.231  29.639  1.00  0.00     0.029 A 
ATOM     46  C   UNL A   1      39.940  29.273  29.681  1.00  0.00     0.049 A 
ATOM     47  H   UNL A   1      41.853  29.204  28.857  1.00  0.00     0.167 HD
ATOM     48  C   UNL A   1      45.941  28.817  27.338  1.00  0.00     0.034 A 
ATOM     49  C   UNL A   1      39.803  30.479  30.265  1.00  0.00     0.034 A 
ATOM     50  C   UNL A   1      45.833  30.177  27.789  1.00  0.00     0.049 A 
ATOM     51  C   UNL A   1      40.942  31.461  30.191  1.00  0.00     0.074 A 
ATOM     52  C   UNL A   1      46.781  31.184  27.725  1.00  0.00     0.029 A 
ATOM     53  N   UNL A   1      44.712  30.722  28.396  1.00  0.00    -0.354 N 
ATOM     54  N   UNL A   1      42.118  31.321  29.630  1.00  0.00    -0.248 NA
ATOM     55  C   UNL A   1      40.719  32.781  30.795  1.00  0.00     0.031 C 
ATOM     56  C   UNL A   1      46.243  32.327  28.326  1.00  0.00     0.029 A 
ATOM     57  C   UNL A   1      44.946  32.045  28.725  1.00  0.00     0.049 A 
ATOM     58  H   UNL A   1      43.873  30.237  28.569  1.00  0.00     0.167 HD
ATOM     59  C   UNL A   1      42.755  32.550  29.767  1.00  0.00     0.074 A 
ATOM     60  C   UNL A   1      41.828  33.424  30.457  1.00  0.00     0.031 C 
ATOM     61  C   UNL A   1      43.995  32.920  29.361  1.00  0.00     0.034 A 
BRANCH  48  62
ATOM     62  C   UNL A   1      47.262  28.345  26.785  1.00  0.00     0.023 A 
ATOM     63  C   UNL A   1      48.343  28.096  27.657  1.00  0.00     0.012 A 
ATOM     64  C   UNL A   1      47.423  28.111  25.405  1.00  0.00     0.148 A 
ATOM     65  C   UNL A   1      49.575  27.673  27.160  1.00  0.00     0.002 A 
ATOM     66  C   UNL A   1      48.638  27.639  24.924  1.00  0.00     0.091 A 
ATOM     67  F   UNL A   1      46.394  28.373  24.587  1.00  0.00    -0.205 F 
ATOM     68  C   UNL A   1      49.720  27.435  25.796  1.00  0.00     0.022 A 
BRANCH  66  69
ATOM     69  S   UNL A   1      48.895  27.220  23.196  1.00  0.00     0.127 S 
ATOM     70  O   UNL A   1      50.348  27.056  23.146  1.00  0.00    -0.237 OA
ATOM     71  O   UNL A   1      48.136  25.976  23.064  1.00  0.00    -0.237 OA
ATOM     72  O   UNL A   1      48.364  28.338  22.430  1.00  0.00    -0.744 OA
ENDBRANCH  66  69
ENDBRANCH  48  62
BRANCH  49  73
ATOM     73  C   UNL A   1      38.506  30.860  30.893  1.00  0.00     0.023 A 
ATOM     74  C   UNL A   1      38.301  30.599  32.262  1.00  0.00     0.012 A 
ATOM     75  C   UNL A   1      37.491  31.498  30.156  1.00  0.00     0.148 A 
ATOM     76  C   UNL A   1      37.097  30.935  32.879  1.00  0.00     0.002 A 
ATOM     77  C   UNL A   1      36.313  31.879  30.789  1.00  0.00     0.091 A 
ATOM     78  F   UNL A   1      37.704  31.734  28.854  1.00  0.00    -0.205 F 
ATOM     79  C   UNL A   1      36.106  31.582  32.145  1.00  0.00     0.022 A 
BRANCH  77  80
ATOM     80  S   UNL A   1      35.032  32.826  29.959  1.00  0.00     0.127 S 
ATOM     81  O   UNL A   1      34.110  33.110  31.057  1.00  0.00    -0.237 OA
ATOM     82  O   UNL A   1      35.784  33.982  29.471  1.00  0.00    -0.237 OA
ATOM     83  O   UNL A   1      34.514  31.958  28.910  1.00  0.00    -0.744 OA
ENDBRANCH  77  80
ENDBRANCH  49  73
BRANCH  61  84
ATOM     84  C   UNL A   1      44.410  34.350  29.590  1.00  0.00     0.023 A 
ATOM     85  C   UNL A   1      45.124  34.706  30.752  1.00  0.00     0.012 A 
ATOM     86  C   UNL A   1      44.150  35.330  28.611  1.00  0.00     0.148 A 
ATOM     87  C   UNL A   1      45.538  36.024  30.952  1.00  0.00     0.002 A 
ATOM     88  C   UNL A   1      44.614  36.626  28.792  1.00  0.00     0.091 A 
ATOM     89  F   UNL A   1      43.453  34.976  27.522  1.00  0.00    -0.205 F 
ATOM     90  C   UNL A   1      45.294  36.979  29.968  1.00  0.00     0.022 A 
BRANCH  88  91
ATOM     91  S   UNL A   1      44.437  37.893  27.530  1.00  0.00     0.127 S 
ATOM     92  O   UNL A   1      44.377  39.110  28.336  1.00  0.00    -0.237 OA
ATOM     93  O   UNL A   1      45.668  37.733  26.754  1.00  0.00    -0.237 OA
ATOM     94  O   UNL A   1      43.219  37.563  26.800  1.00  0.00    -0.744 OA
ENDBRANCH  88  91
ENDBRANCH  61  84
ENDBRANCH  35  36
ENDBRANCH  27  30
ENDBRANCH  25  26
ENDBRANCH  24  25
ENDBRANCH   1  24
TORSDOF 18
ENDMDL
MODEL 3
REMARK VINA RESULT:     -11.6      5.840     11.953
REMARK SMILES C[C@H](C(=O)NCCCCCCNC(=O)c1ccc(-c2c3nc(c(-c4cccc(S(=O)(=O)[O-])c4F)c4ccc([nH]4)c(-c4cccc(S(=O)(=O)[O-])c4F)c4nc(c(-c5cccc(S(=O)(=O)[O-])c5F)c5ccc2[nH]5)C=C4)C=C3)cc1)c1ccc(-c2ccccc2)c(F)c1
REMARK SMILES IDX 9 1 8 2 7 3 6 4 5 5 3 6 4 7 2 9 1 10 78 11 79 12 90 13 80 14
REMARK SMILES IDX 88 15 81 16 89 17 82 18 83 19 87 20 84 21 86 22 85 23 10 24
REMARK SMILES IDX 11 25 12 26 13 27 14 29 15 30 16 31 77 32 17 33 76 34 18 35
REMARK SMILES IDX 19 36 20 37 70 38 21 39 75 40 69 41 71 42 22 43 74 44 68 45
REMARK SMILES IDX 67 46 23 48 55 49 35 50 54 51 36 52 39 53 53 54 72 55 37 56
REMARK SMILES IDX 38 57 52 59 73 60 40 61 24 62 25 63 33 64 26 65 28 66 34 67
REMARK SMILES IDX 27 68 29 69 30 70 31 71 32 72 56 73 57 74 65 75 58 76 60 77
REMARK SMILES IDX 66 78 59 79 61 80 62 81 63 82 64 83 41 84 42 85 50 86 43 87
REMARK SMILES IDX 45 88 51 89 44 90 46 91 47 92 48 93 49 94
REMARK H PARENT 5 8 12 28 71 47 39 58
REMARK Flexibility Score: inf
ROOT
ATOM      1  C   UNL A   1      42.575  19.491  27.147  1.00  0.00     0.002 C 
ENDROOT
BRANCH   1   2
ATOM      2  C   UNL A   1      42.842  19.083  25.695  1.00  0.00     0.002 C 
BRANCH   2   3
ATOM      3  C   UNL A   1      44.300  18.721  25.384  1.00  0.00     0.021 C 
BRANCH   3   4
ATOM      4  C   UNL A   1      45.028  19.765  24.535  1.00  0.00     0.116 C 
BRANCH   4   5
ATOM      5  N   UNL A   1      44.177  20.912  24.282  1.00  0.00    -0.356 N 
ATOM      6  C   UNL A   1      44.304  22.207  24.690  1.00  0.00     0.227 C 
ATOM      7  O   UNL A   1      43.379  22.981  24.426  1.00  0.00    -0.274 OA
ATOM      8  H   UNL A   1      43.383  20.726  23.729  1.00  0.00     0.163 HD
BRANCH   6   9
ATOM      9  C   UNL A   1      45.564  22.664  25.435  1.00  0.00     0.105 C 
ATOM     10  C   UNL A   1      46.348  23.633  24.538  1.00  0.00     0.023 C 
BRANCH   9  11
ATOM     11  C   UNL A   1      45.230  23.244  26.804  1.00  0.00    -0.033 A 
ATOM     12  C   UNL A   1      46.177  24.025  27.480  1.00  0.00     0.005 A 
ATOM     13  C   UNL A   1      44.011  23.001  27.449  1.00  0.00     0.044 A 
ATOM     14  C   UNL A   1      45.935  24.511  28.769  1.00  0.00     0.012 A 
ATOM     15  C   UNL A   1      43.761  23.521  28.725  1.00  0.00     0.131 A 
ATOM     16  C   UNL A   1      44.716  24.276  29.421  1.00  0.00     0.017 A 
ATOM     17  F   UNL A   1      42.558  23.278  29.272  1.00  0.00    -0.206 F 
BRANCH  16  18
ATOM     18  C   UNL A   1      44.487  24.800  30.780  1.00  0.00    -0.015 A 
ATOM     19  C   UNL A   1      44.546  23.952  31.902  1.00  0.00     0.009 A 
ATOM     20  C   UNL A   1      44.160  26.149  31.001  1.00  0.00     0.009 A 
ATOM     21  C   UNL A   1      44.275  24.427  33.187  1.00  0.00     0.001 A 
ATOM     22  C   UNL A   1      43.893  26.627  32.287  1.00  0.00     0.001 A 
ATOM     23  C   UNL A   1      43.947  25.766  33.379  1.00  0.00     0.000 A 
ENDBRANCH  16  18
ENDBRANCH   9  11
ENDBRANCH   6   9
ENDBRANCH   4   5
ENDBRANCH   3   4
ENDBRANCH   2   3
ENDBRANCH   1   2
BRANCH   1  24
ATOM     24  C   UNL A   1      41.159  20.001  27.423  1.00  0.00     0.021 C 
BRANCH  24  25
ATOM     25  C   UNL A   1      40.901  21.426  26.947  1.00  0.00     0.116 C 
BRANCH  25  26
ATOM     26  N   UNL A   1      39.616  21.548  26.274  1.00  0.00    -0.352 N 
ATOM     27  C   UNL A   1      38.771  22.625  26.219  1.00  0.00     0.251 C 
ATOM     28  H   UNL A   1      39.314  20.746  25.791  1.00  0.00     0.163 HD
ATOM     29  O   UNL A   1      37.626  22.482  25.786  1.00  0.00    -0.269 OA
BRANCH  27  30
ATOM     30  C   UNL A   1      39.229  23.949  26.685  1.00  0.00     0.039 A 
ATOM     31  C   UNL A   1      38.957  24.341  27.998  1.00  0.00     0.014 A 
ATOM     32  C   UNL A   1      39.910  24.812  25.821  1.00  0.00     0.014 A 
ATOM     33  C   UNL A   1      39.393  25.588  28.452  1.00  0.00     0.010 A 
ATOM     34  C   UNL A   1      40.418  26.015  26.300  1.00  0.00     0.010 A 
ATOM     35  C   UNL A   1      40.140  26.429  27.610  1.00  0.00    -0.014 A 
BRANCH  35  36
ATOM     36  C   UNL A   1      40.602  27.764  28.069  1.00  0.00     0.031 A 
ATOM     37  C   UNL A   1      42.070  28.098  28.046  1.00  0.00     0.074 A 
ATOM     38  C   UNL A   1      39.717  28.645  28.572  1.00  0.00     0.049 A 
ATOM     39  N   UNL A   1      42.675  29.191  28.432  1.00  0.00    -0.248 NA
ATOM     40  C   UNL A   1      42.985  27.054  27.551  1.00  0.00     0.031 C 
ATOM     41  C   UNL A   1      38.278  28.414  28.714  1.00  0.00     0.029 A 
ATOM     42  N   UNL A   1      39.902  29.909  29.074  1.00  0.00    -0.354 N 
ATOM     43  C   UNL A   1      44.035  28.950  28.274  1.00  0.00     0.074 A 
ATOM     44  C   UNL A   1      44.170  27.594  27.792  1.00  0.00     0.031 C 
ATOM     45  C   UNL A   1      37.709  29.506  29.250  1.00  0.00     0.029 A 
ATOM     46  C   UNL A   1      38.742  30.502  29.517  1.00  0.00     0.049 A 
ATOM     47  H   UNL A   1      40.781  30.350  29.114  1.00  0.00     0.167 HD
ATOM     48  C   UNL A   1      45.078  29.787  28.485  1.00  0.00     0.034 A 
ATOM     49  C   UNL A   1      38.536  31.712  30.072  1.00  0.00     0.034 A 
ATOM     50  C   UNL A   1      44.935  31.151  28.917  1.00  0.00     0.049 A 
ATOM     51  C   UNL A   1      39.706  32.643  30.249  1.00  0.00     0.074 A 
ATOM     52  C   UNL A   1      45.916  32.115  29.064  1.00  0.00     0.029 A 
ATOM     53  N   UNL A   1      43.735  31.743  29.280  1.00  0.00    -0.354 N 
ATOM     54  N   UNL A   1      40.967  32.453  29.947  1.00  0.00    -0.248 NA
ATOM     55  C   UNL A   1      39.416  33.971  30.807  1.00  0.00     0.031 C 
ATOM     56  C   UNL A   1      45.313  33.280  29.551  1.00  0.00     0.029 A 
ATOM     57  C   UNL A   1      43.950  33.054  29.665  1.00  0.00     0.049 A 
ATOM     58  H   UNL A   1      42.858  31.295  29.268  1.00  0.00     0.167 HD
ATOM     59  C   UNL A   1      41.612  33.653  30.228  1.00  0.00     0.074 A 
ATOM     60  C   UNL A   1      40.598  34.566  30.717  1.00  0.00     0.031 C 
ATOM     61  C   UNL A   1      42.925  33.969  30.096  1.00  0.00     0.034 A 
BRANCH  48  62
ATOM     62  C   UNL A   1      46.464  29.259  28.217  1.00  0.00     0.023 A 
ATOM     63  C   UNL A   1      47.085  29.505  26.975  1.00  0.00     0.012 A 
ATOM     64  C   UNL A   1      47.168  28.549  29.210  1.00  0.00     0.148 A 
ATOM     65  C   UNL A   1      48.361  29.011  26.707  1.00  0.00     0.002 A 
ATOM     66  C   UNL A   1      48.460  28.106  28.955  1.00  0.00     0.091 A 
ATOM     67  F   UNL A   1      46.557  28.306  30.378  1.00  0.00    -0.205 F 
ATOM     68  C   UNL A   1      49.052  28.321  27.699  1.00  0.00     0.022 A 
BRANCH  66  69
ATOM     69  S   UNL A   1      49.463  27.285  30.198  1.00  0.00     0.127 S 
ATOM     70  O   UNL A   1      48.721  26.040  30.399  1.00  0.00    -0.237 OA
ATOM     71  O   UNL A   1      50.743  27.127  29.507  1.00  0.00    -0.237 OA
ATOM     72  O   UNL A   1      49.499  28.185  31.342  1.00  0.00    -0.744 OA
ENDBRANCH  66  69
ENDBRANCH  48  62
BRANCH  49  73
ATOM     73  C   UNL A   1      37.153  32.148  30.416  1.00  0.00     0.023 A 
ATOM     74  C   UNL A   1      36.682  31.965  31.731  1.00  0.00     0.012 A 
ATOM     75  C   UNL A   1      36.317  32.763  29.466  1.00  0.00     0.148 A 
ATOM     76  C   UNL A   1      35.390  32.354  32.086  1.00  0.00     0.002 A 
ATOM     77  C   UNL A   1      35.050  33.197  29.839  1.00  0.00     0.091 A 
ATOM     78  F   UNL A   1      36.783  32.924  28.220  1.00  0.00    -0.205 F 
ATOM     79  C   UNL A   1      34.578  32.977  31.142  1.00  0.00     0.022 A 
BRANCH  77  80
ATOM     80  S   UNL A   1      33.979  34.119  28.731  1.00  0.00     0.127 S 
ATOM     81  O   UNL A   1      32.851  34.440  29.602  1.00  0.00    -0.237 OA
ATOM     82  O   UNL A   1      34.826  35.258  28.375  1.00  0.00    -0.237 OA
ATOM     83  O   UNL A   1      33.684  33.219  27.624  1.00  0.00    -0.744 OA
ENDBRANCH  77  80
ENDBRANCH  49  73
BRANCH  61  84
ATOM     84  C   UNL A   1      43.342  35.380  30.423  1.00  0.00     0.023 A 
ATOM     85  C   UNL A   1      43.798  35.705  31.716  1.00  0.00     0.012 A 
ATOM     86  C   UNL A   1      43.347  36.368  29.418  1.00  0.00     0.148 A 
ATOM     87  C   UNL A   1      44.215  37.003  32.013  1.00  0.00     0.002 A 
ATOM     88  C   UNL A   1      43.817  37.642  29.707  1.00  0.00     0.091 A 
ATOM     89  F   UNL A   1      42.893  36.044  28.199  1.00  0.00    -0.205 F 
ATOM     90  C   UNL A   1      44.236  37.966  31.007  1.00  0.00     0.022 A 
BRANCH  88  91
ATOM     91  S   UNL A   1      43.979  38.913  28.448  1.00  0.00     0.127 S 
ATOM     92  O   UNL A   1      43.913  40.135  29.247  1.00  0.00    -0.237 OA
ATOM     93  O   UNL A   1      45.298  38.624  27.882  1.00  0.00    -0.237 OA
ATOM     94  O   UNL A   1      42.871  38.706  27.525  1.00  0.00    -0.744 OA
ENDBRANCH  88  91
ENDBRANCH  61  84
ENDBRANCH  35  36
ENDBRANCH  27  30
ENDBRANCH  25  26
ENDBRANCH  24  25
ENDBRANCH   1  24
TORSDOF 18
ENDMDL
