MODEL 1
REMARK VINA RESULT:     -10.8      0.000      0.000
REMARK SMILES CC[C@@](C)([NH2+][C@H]1CC[C@H](C)[C@H](C)C1)C(=O)NCCCCCCNC(=O)c1ccc(-c2c3nc(c(-c4cccc(S(=O)(=O)[O-])c4F)c4ccc([nH]4)c(-c4cccc(S(=O)(=O)[O-])c4F)c4nc(c(-c5cccc(S(=O)(=O)[O-])c5F)c5ccc2[nH]5)C=C4)C=C3)cc1
REMARK SMILES IDX 20 1 19 2 18 3 17 4 16 5 14 6 15 7 3 9 4 10 2 11 1 12 5 13
REMARK SMILES IDX 6 16 7 17 13 18 8 19 11 20 9 21 12 22 10 23 21 24 22 25
REMARK SMILES IDX 23 26 24 27 25 29 26 30 27 31 88 32 28 33 87 34 29 35 30 36
REMARK SMILES IDX 31 37 81 38 32 39 86 40 80 41 82 42 33 43 85 44 79 45 78 46
REMARK SMILES IDX 34 48 66 49 46 50 65 51 47 52 50 53 64 54 83 55 48 56 49 57
REMARK SMILES IDX 63 59 84 60 51 61 35 62 36 63 44 64 37 65 39 66 45 67 38 68
REMARK SMILES IDX 40 69 41 70 42 71 43 72 67 73 68 74 76 75 69 76 71 77 77 78
REMARK SMILES IDX 70 79 72 80 73 81 74 82 75 83 52 84 53 85 61 86 54 87 56 88
REMARK SMILES IDX 62 89 55 90 57 91 58 92 59 93 60 94
REMARK H PARENT 16 8 5 14 5 15 23 28 82 47 50 58
REMARK Flexibility Score: inf
ROOT
ATOM      1  C   UNL A   1      37.186  21.475  24.283  1.00  0.00     0.002 C 
ENDROOT
BRANCH   1   2
ATOM      2  C   UNL A   1      37.542  22.715  25.117  1.00  0.00     0.002 C 
BRANCH   2   3
ATOM      3  C   UNL A   1      36.454  23.794  25.156  1.00  0.00     0.021 C 
BRANCH   3   4
ATOM      4  C   UNL A   1      35.045  23.412  24.721  1.00  0.00     0.116 C 
BRANCH   4   5
ATOM      5  N   UNL A   1      34.055  24.060  25.566  1.00  0.00    -0.351 N 
ATOM      6  C   UNL A   1      32.694  24.074  25.610  1.00  0.00     0.281 C 
ATOM      7  O   UNL A   1      32.239  24.995  26.312  1.00  0.00    -0.268 OA
ATOM      8  H   UNL A   1      34.462  24.618  26.268  1.00  0.00     0.163 HD
BRANCH   6   9
ATOM      9  C   UNL A   1      31.721  23.040  24.922  1.00  0.00     0.172 C 
ATOM     10  C   UNL A   1      30.723  22.302  25.821  1.00  0.00     0.090 C 
BRANCH   9  11
ATOM     11  C   UNL A   1      30.830  23.931  23.951  1.00  0.00     0.075 C 
ATOM     12  C   UNL A   1      31.595  24.828  22.976  1.00  0.00     0.011 C 
ENDBRANCH   9  11
BRANCH   9  13
ATOM     13  N   UNL A   1      32.404  22.141  23.935  1.00  0.00    -0.331 N 
ATOM     14  H   UNL A   1      33.372  22.463  23.908  1.00  0.00     0.347 HD
ATOM     15  H   UNL A   1      31.767  22.239  23.145  1.00  0.00     0.347 HD
BRANCH  13  16
ATOM     16  C   UNL A   1      32.488  20.676  24.007  1.00  0.00     0.183 C 
ATOM     17  C   UNL A   1      32.209  19.998  22.659  1.00  0.00     0.065 C 
ATOM     18  C   UNL A   1      33.681  20.100  24.773  1.00  0.00     0.068 C 
ATOM     19  C   UNL A   1      32.321  18.468  22.698  1.00  0.00     0.010 C 
ATOM     20  C   UNL A   1      33.723  18.563  24.847  1.00  0.00    -0.006 C 
ATOM     21  C   UNL A   1      33.543  17.925  23.453  1.00  0.00    -0.011 C 
ATOM     22  C   UNL A   1      32.745  18.020  25.891  1.00  0.00     0.008 C 
ATOM     23  C   UNL A   1      33.530  16.395  23.488  1.00  0.00     0.008 C 
ENDBRANCH  13  16
ENDBRANCH   9  13
ENDBRANCH   6   9
ENDBRANCH   4   5
ENDBRANCH   3   4
ENDBRANCH   2   3
ENDBRANCH   1   2
BRANCH   1  24
ATOM     24  C   UNL A   1      37.728  20.123  24.783  1.00  0.00     0.021 C 
BRANCH  24  25
ATOM     25  C   UNL A   1      38.594  20.154  26.046  1.00  0.00     0.116 C 
BRANCH  25  26
ATOM     26  N   UNL A   1      39.739  19.261  25.982  1.00  0.00    -0.352 N 
ATOM     27  C   UNL A   1      41.078  19.524  26.157  1.00  0.00     0.251 C 
ATOM     28  H   UNL A   1      39.524  18.322  25.781  1.00  0.00     0.163 HD
ATOM     29  O   UNL A   1      41.895  18.620  25.994  1.00  0.00    -0.269 OA
BRANCH  27  30
ATOM     30  C   UNL A   1      41.564  20.885  26.499  1.00  0.00     0.039 A 
ATOM     31  C   UNL A   1      41.760  21.798  25.458  1.00  0.00     0.014 A 
ATOM     32  C   UNL A   1      41.880  21.259  27.809  1.00  0.00     0.014 A 
ATOM     33  C   UNL A   1      42.214  23.094  25.730  1.00  0.00     0.010 A 
ATOM     34  C   UNL A   1      42.294  22.571  28.084  1.00  0.00     0.010 A 
ATOM     35  C   UNL A   1      42.463  23.507  27.049  1.00  0.00    -0.014 A 
BRANCH  35  36
ATOM     36  C   UNL A   1      42.877  24.912  27.340  1.00  0.00     0.031 A 
ATOM     37  C   UNL A   1      41.924  25.885  27.986  1.00  0.00     0.074 A 
ATOM     38  C   UNL A   1      44.110  25.336  26.987  1.00  0.00     0.049 A 
ATOM     39  N   UNL A   1      42.120  27.141  28.305  1.00  0.00    -0.248 NA
ATOM     40  C   UNL A   1      40.576  25.392  28.310  1.00  0.00     0.031 C 
ATOM     41  C   UNL A   1      45.122  24.521  26.310  1.00  0.00     0.029 A 
ATOM     42  N   UNL A   1      44.716  26.563  27.126  1.00  0.00    -0.354 N 
ATOM     43  C   UNL A   1      40.916  27.597  28.832  1.00  0.00     0.074 A 
ATOM     44  C   UNL A   1      39.990  26.485  28.780  1.00  0.00     0.031 C 
ATOM     45  C   UNL A   1      46.217  25.268  26.092  1.00  0.00     0.029 A 
ATOM     46  C   UNL A   1      45.980  26.624  26.582  1.00  0.00     0.049 A 
ATOM     47  H   UNL A   1      44.287  27.327  27.575  1.00  0.00     0.167 HD
ATOM     48  C   UNL A   1      40.613  28.820  29.329  1.00  0.00     0.034 A 
ATOM     49  C   UNL A   1      46.847  27.652  26.474  1.00  0.00     0.034 A 
ATOM     50  C   UNL A   1      41.539  29.917  29.424  1.00  0.00     0.049 A 
ATOM     51  C   UNL A   1      46.482  28.997  27.049  1.00  0.00     0.074 A 
ATOM     52  C   UNL A   1      41.337  31.162  30.000  1.00  0.00     0.029 A 
ATOM     53  N   UNL A   1      42.828  29.917  28.920  1.00  0.00    -0.354 N 
ATOM     54  N   UNL A   1      45.397  29.352  27.693  1.00  0.00    -0.248 NA
ATOM     55  C   UNL A   1      47.475  30.075  26.916  1.00  0.00     0.031 C 
ATOM     56  C   UNL A   1      42.490  31.926  29.809  1.00  0.00     0.029 A 
ATOM     57  C   UNL A   1      43.426  31.144  29.155  1.00  0.00     0.049 A 
ATOM     58  H   UNL A   1      43.256  29.158  28.464  1.00  0.00     0.167 HD
ATOM     59  C   UNL A   1      45.600  30.672  28.083  1.00  0.00     0.074 A 
ATOM     60  C   UNL A   1      46.916  31.051  27.617  1.00  0.00     0.031 C 
ATOM     61  C   UNL A   1      44.763  31.498  28.757  1.00  0.00     0.034 A 
BRANCH  48  62
ATOM     62  C   UNL A   1      39.220  29.053  29.855  1.00  0.00     0.023 A 
ATOM     63  C   UNL A   1      38.899  28.674  31.174  1.00  0.00     0.012 A 
ATOM     64  C   UNL A   1      38.272  29.757  29.086  1.00  0.00     0.148 A 
ATOM     65  C   UNL A   1      37.649  28.978  31.713  1.00  0.00     0.002 A 
ATOM     66  C   UNL A   1      37.045  30.094  29.646  1.00  0.00     0.091 A 
ATOM     67  F   UNL A   1      38.594  30.098  27.830  1.00  0.00    -0.205 F 
ATOM     68  C   UNL A   1      36.729  29.697  30.955  1.00  0.00     0.022 A 
BRANCH  66  69
ATOM     69  S   UNL A   1      35.828  31.095  28.783  1.00  0.00     0.127 S 
ATOM     70  O   UNL A   1      34.969  31.528  29.888  1.00  0.00    -0.237 OA
ATOM     71  O   UNL A   1      36.657  32.157  28.208  1.00  0.00    -0.237 OA
ATOM     72  O   UNL A   1      35.194  30.219  27.813  1.00  0.00    -0.744 OA
ENDBRANCH  66  69
ENDBRANCH  48  62
BRANCH  49  73
ATOM     73  C   UNL A   1      48.174  27.459  25.816  1.00  0.00     0.023 A 
ATOM     74  C   UNL A   1      49.313  27.202  26.606  1.00  0.00     0.012 A 
ATOM     75  C   UNL A   1      48.319  27.562  24.420  1.00  0.00     0.148 A 
ATOM     76  C   UNL A   1      50.576  27.103  26.023  1.00  0.00     0.002 A 
ATOM     77  C   UNL A   1      49.572  27.400  23.839  1.00  0.00     0.091 A 
ATOM     78  F   UNL A   1      47.230  27.822  23.684  1.00  0.00    -0.205 F 
ATOM     79  C   UNL A   1      50.705  27.194  24.640  1.00  0.00     0.022 A 
BRANCH  77  80
ATOM     80  S   UNL A   1      49.805  27.374  22.058  1.00  0.00     0.127 S 
ATOM     81  O   UNL A   1      51.223  27.042  21.946  1.00  0.00    -0.237 OA
ATOM     82  O   UNL A   1      48.888  26.311  21.647  1.00  0.00    -0.237 OA
ATOM     83  O   UNL A   1      49.423  28.701  21.596  1.00  0.00    -0.744 OA
ENDBRANCH  77  80
ENDBRANCH  49  73
BRANCH  61  84
ATOM     84  C   UNL A   1      45.252  32.881  29.104  1.00  0.00     0.023 A 
ATOM     85  C   UNL A   1      45.975  33.100  30.294  1.00  0.00     0.012 A 
ATOM     86  C   UNL A   1      45.073  33.947  28.199  1.00  0.00     0.148 A 
ATOM     87  C   UNL A   1      46.486  34.364  30.589  1.00  0.00     0.002 A 
ATOM     88  C   UNL A   1      45.629  35.189  28.476  1.00  0.00     0.091 A 
ATOM     89  F   UNL A   1      44.367  33.723  27.081  1.00  0.00    -0.205 F 
ATOM     90  C   UNL A   1      46.326  35.404  29.676  1.00  0.00     0.022 A 
BRANCH  88  91
ATOM     91  S   UNL A   1      45.562  36.559  27.313  1.00  0.00     0.127 S 
ATOM     92  O   UNL A   1      46.279  37.603  28.043  1.00  0.00    -0.237 OA
ATOM     93  O   UNL A   1      46.280  36.019  26.158  1.00  0.00    -0.237 OA
ATOM     94  O   UNL A   1      44.148  36.821  27.080  1.00  0.00    -0.744 OA
ENDBRANCH  88  91
ENDBRANCH  61  84
ENDBRANCH  35  36
ENDBRANCH  27  30
ENDBRANCH  25  26
ENDBRANCH  24  25
ENDBRANCH   1  24
TORSDOF 19
ENDMDL
MODEL 2
REMARK VINA RESULT:     -10.7      1.389      3.068
REMARK SMILES CC[C@@](C)([NH2+][C@H]1CC[C@H](C)[C@H](C)C1)C(=O)NCCCCCCNC(=O)c1ccc(-c2c3nc(c(-c4cccc(S(=O)(=O)[O-])c4F)c4ccc([nH]4)c(-c4cccc(S(=O)(=O)[O-])c4F)c4nc(c(-c5cccc(S(=O)(=O)[O-])c5F)c5ccc2[nH]5)C=C4)C=C3)cc1
REMARK SMILES IDX 20 1 19 2 18 3 17 4 16 5 14 6 15 7 3 9 4 10 2 11 1 12 5 13
REMARK SMILES IDX 6 16 7 17 13 18 8 19 11 20 9 21 12 22 10 23 21 24 22 25
REMARK SMILES IDX 23 26 24 27 25 29 26 30 27 31 88 32 28 33 87 34 29 35 30 36
REMARK SMILES IDX 31 37 81 38 32 39 86 40 80 41 82 42 33 43 85 44 79 45 78 46
REMARK SMILES IDX 34 48 66 49 46 50 65 51 47 52 50 53 64 54 83 55 48 56 49 57
REMARK SMILES IDX 63 59 84 60 51 61 35 62 36 63 44 64 37 65 39 66 45 67 38 68
REMARK SMILES IDX 40 69 41 70 42 71 43 72 67 73 68 74 76 75 69 76 71 77 77 78
REMARK SMILES IDX 70 79 72 80 73 81 74 82 75 83 52 84 53 85 61 86 54 87 56 88
REMARK SMILES IDX 62 89 55 90 57 91 58 92 59 93 60 94
REMARK H PARENT 16 8 5 14 5 15 23 28 82 47 50 58
REMARK Flexibility Score: inf
ROOT
ATOM      1  C   UNL A   1      36.796  20.416  24.891  1.00  0.00     0.002 C 
ENDROOT
BRANCH   1   2
ATOM      2  C   UNL A   1      37.029  21.868  24.446  1.00  0.00     0.002 C 
BRANCH   2   3
ATOM      3  C   UNL A   1      36.821  22.916  25.544  1.00  0.00     0.021 C 
BRANCH   3   4
ATOM      4  C   UNL A   1      35.786  24.009  25.310  1.00  0.00     0.116 C 
BRANCH   4   5
ATOM      5  N   UNL A   1      35.287  23.957  23.945  1.00  0.00    -0.351 N 
ATOM      6  C   UNL A   1      34.158  23.475  23.354  1.00  0.00     0.281 C 
ATOM      7  O   UNL A   1      34.261  23.373  22.119  1.00  0.00    -0.268 OA
ATOM      8  H   UNL A   1      35.908  24.364  23.299  1.00  0.00     0.163 HD
BRANCH   6   9
ATOM      9  C   UNL A   1      32.803  23.113  24.075  1.00  0.00     0.172 C 
ATOM     10  C   UNL A   1      31.641  22.633  23.198  1.00  0.00     0.090 C 
BRANCH   9  11
ATOM     11  C   UNL A   1      33.173  21.868  24.996  1.00  0.00     0.075 C 
ATOM     12  C   UNL A   1      32.295  20.627  24.826  1.00  0.00     0.011 C 
ENDBRANCH   9  11
BRANCH   9  13
ATOM     13  N   UNL A   1      32.388  24.116  25.109  1.00  0.00    -0.331 N 
ATOM     14  H   UNL A   1      33.041  23.989  25.881  1.00  0.00     0.347 HD
ATOM     15  H   UNL A   1      31.396  23.888  25.181  1.00  0.00     0.347 HD
BRANCH  13  16
ATOM     16  C   UNL A   1      32.294  25.571  24.920  1.00  0.00     0.183 C 
ATOM     17  C   UNL A   1      30.844  26.068  24.847  1.00  0.00     0.065 C 
ATOM     18  C   UNL A   1      33.218  26.429  25.787  1.00  0.00     0.068 C 
ATOM     19  C   UNL A   1      30.717  27.589  24.682  1.00  0.00     0.010 C 
ATOM     20  C   UNL A   1      33.109  27.946  25.546  1.00  0.00    -0.006 C 
ATOM     21  C   UNL A   1      31.641  28.420  25.585  1.00  0.00    -0.011 C 
ATOM     22  C   UNL A   1      33.847  28.370  24.275  1.00  0.00     0.008 C 
ATOM     23  C   UNL A   1      31.483  29.916  25.301  1.00  0.00     0.008 C 
ENDBRANCH  13  16
ENDBRANCH   9  13
ENDBRANCH   6   9
ENDBRANCH   4   5
ENDBRANCH   3   4
ENDBRANCH   2   3
ENDBRANCH   1   2
BRANCH   1  24
ATOM     24  C   UNL A   1      38.028  19.492  24.921  1.00  0.00     0.021 C 
BRANCH  24  25
ATOM     25  C   UNL A   1      39.053  19.749  26.029  1.00  0.00     0.116 C 
BRANCH  25  26
ATOM     26  N   UNL A   1      40.225  18.894  25.938  1.00  0.00    -0.352 N 
ATOM     27  C   UNL A   1      41.559  19.201  26.087  1.00  0.00     0.251 C 
ATOM     28  H   UNL A   1      40.037  17.949  25.739  1.00  0.00     0.163 HD
ATOM     29  O   UNL A   1      42.402  18.325  25.903  1.00  0.00    -0.269 OA
BRANCH  27  30
ATOM     30  C   UNL A   1      42.006  20.576  26.423  1.00  0.00     0.039 A 
ATOM     31  C   UNL A   1      42.244  21.469  25.373  1.00  0.00     0.014 A 
ATOM     32  C   UNL A   1      42.248  20.984  27.739  1.00  0.00     0.014 A 
ATOM     33  C   UNL A   1      42.665  22.778  25.640  1.00  0.00     0.010 A 
ATOM     34  C   UNL A   1      42.628  22.307  28.006  1.00  0.00     0.010 A 
ATOM     35  C   UNL A   1      42.838  23.223  26.961  1.00  0.00    -0.014 A 
BRANCH  35  36
ATOM     36  C   UNL A   1      43.216  24.640  27.241  1.00  0.00     0.031 A 
ATOM     37  C   UNL A   1      42.228  25.602  27.852  1.00  0.00     0.074 A 
ATOM     38  C   UNL A   1      44.448  25.085  26.910  1.00  0.00     0.049 A 
ATOM     39  N   UNL A   1      42.390  26.865  28.157  1.00  0.00    -0.248 NA
ATOM     40  C   UNL A   1      40.883  25.085  28.151  1.00  0.00     0.031 C 
ATOM     41  C   UNL A   1      45.492  24.283  26.269  1.00  0.00     0.029 A 
ATOM     42  N   UNL A   1      45.025  26.326  27.046  1.00  0.00    -0.354 N 
ATOM     43  C   UNL A   1      41.166  27.304  28.649  1.00  0.00     0.074 A 
ATOM     44  C   UNL A   1      40.264  26.172  28.592  1.00  0.00     0.031 C 
ATOM     45  C   UNL A   1      46.576  25.050  26.066  1.00  0.00     0.029 A 
ATOM     46  C   UNL A   1      46.300  26.407  26.531  1.00  0.00     0.049 A 
ATOM     47  H   UNL A   1      44.570  27.087  27.474  1.00  0.00     0.167 HD
ATOM     48  C   UNL A   1      40.826  28.527  29.123  1.00  0.00     0.034 A 
ATOM     49  C   UNL A   1      47.147  27.451  26.428  1.00  0.00     0.034 A 
ATOM     50  C   UNL A   1      41.726  29.644  29.223  1.00  0.00     0.049 A 
ATOM     51  C   UNL A   1      46.741  28.795  26.976  1.00  0.00     0.074 A 
ATOM     52  C   UNL A   1      41.485  30.892  29.777  1.00  0.00     0.029 A 
ATOM     53  N   UNL A   1      43.027  29.664  28.750  1.00  0.00    -0.354 N 
ATOM     54  N   UNL A   1      45.635  29.136  27.590  1.00  0.00    -0.248 NA
ATOM     55  C   UNL A   1      47.715  29.892  26.851  1.00  0.00     0.031 C 
ATOM     56  C   UNL A   1      42.627  31.678  29.602  1.00  0.00     0.029 A 
ATOM     57  C   UNL A   1      43.594  30.907  28.981  1.00  0.00     0.049 A 
ATOM     58  H   UNL A   1      43.481  28.908  28.313  1.00  0.00     0.167 HD
ATOM     59  C   UNL A   1      45.801  30.466  27.966  1.00  0.00     0.074 A 
ATOM     60  C   UNL A   1      47.120  30.866  27.525  1.00  0.00     0.031 C 
ATOM     61  C   UNL A   1      44.932  31.283  28.608  1.00  0.00     0.034 A 
BRANCH  48  62
ATOM     62  C   UNL A   1      39.416  28.737  29.613  1.00  0.00     0.023 A 
ATOM     63  C   UNL A   1      39.087  28.427  30.947  1.00  0.00     0.012 A 
ATOM     64  C   UNL A   1      38.456  29.357  28.789  1.00  0.00     0.148 A 
ATOM     65  C   UNL A   1      37.819  28.715  31.449  1.00  0.00     0.002 A 
ATOM     66  C   UNL A   1      37.208  29.680  29.309  1.00  0.00     0.091 A 
ATOM     67  F   UNL A   1      38.787  29.633  27.519  1.00  0.00    -0.205 F 
ATOM     68  C   UNL A   1      36.885  29.351  30.635  1.00  0.00     0.022 A 
BRANCH  66  69
ATOM     69  S   UNL A   1      35.969  30.580  28.369  1.00  0.00     0.127 S 
ATOM     70  O   UNL A   1      35.053  31.009  29.428  1.00  0.00    -0.237 OA
ATOM     71  O   UNL A   1      36.760  31.660  27.776  1.00  0.00    -0.237 OA
ATOM     72  O   UNL A   1      35.414  29.633  27.417  1.00  0.00    -0.744 OA
ENDBRANCH  66  69
ENDBRANCH  48  62
BRANCH  49  73
ATOM     73  C   UNL A   1      48.493  27.277  25.804  1.00  0.00     0.023 A 
ATOM     74  C   UNL A   1      49.589  26.897  26.605  1.00  0.00     0.012 A 
ATOM     75  C   UNL A   1      48.699  27.517  24.433  1.00  0.00     0.148 A 
ATOM     76  C   UNL A   1      50.872  26.811  26.062  1.00  0.00     0.002 A 
ATOM     77  C   UNL A   1      49.968  27.369  23.885  1.00  0.00     0.091 A 
ATOM     78  F   UNL A   1      47.650  27.893  23.688  1.00  0.00    -0.205 F 
ATOM     79  C   UNL A   1      51.060  27.040  24.702  1.00  0.00     0.022 A 
BRANCH  77  80
ATOM     80  S   UNL A   1      50.273  27.518  22.122  1.00  0.00     0.127 S 
ATOM     81  O   UNL A   1      51.719  27.319  22.049  1.00  0.00    -0.237 OA
ATOM     82  O   UNL A   1      49.472  26.420  21.581  1.00  0.00    -0.237 OA
ATOM     83  O   UNL A   1      49.793  28.843  21.754  1.00  0.00    -0.744 OA
ENDBRANCH  77  80
ENDBRANCH  49  73
BRANCH  61  84
ATOM     84  C   UNL A   1      45.385  32.680  28.948  1.00  0.00     0.023 A 
ATOM     85  C   UNL A   1      46.074  32.931  30.151  1.00  0.00     0.012 A 
ATOM     86  C   UNL A   1      45.205  33.730  28.024  1.00  0.00     0.148 A 
ATOM     87  C   UNL A   1      46.552  34.209  30.440  1.00  0.00     0.002 A 
ATOM     88  C   UNL A   1      45.729  34.987  28.296  1.00  0.00     0.091 A 
ATOM     89  F   UNL A   1      44.530  33.476  26.893  1.00  0.00    -0.205 F 
ATOM     90  C   UNL A   1      46.392  35.233  29.509  1.00  0.00     0.022 A 
BRANCH  88  91
ATOM     91  S   UNL A   1      45.660  36.339  27.113  1.00  0.00     0.127 S 
ATOM     92  O   UNL A   1      46.380  35.773  25.973  1.00  0.00    -0.237 OA
ATOM     93  O   UNL A   1      44.220  36.498  26.908  1.00  0.00    -0.237 OA
ATOM     94  O   UNL A   1      46.309  37.473  27.758  1.00  0.00    -0.744 OA
ENDBRANCH  88  91
ENDBRANCH  61  84
ENDBRANCH  35  36
ENDBRANCH  27  30
ENDBRANCH  25  26
ENDBRANCH  24  25
ENDBRANCH   1  24
TORSDOF 19
ENDMDL
MODEL 3
REMARK VINA RESULT:     -10.6      6.216      9.566
REMARK SMILES CC[C@@](C)([NH2+][C@H]1CC[C@H](C)[C@H](C)C1)C(=O)NCCCCCCNC(=O)c1ccc(-c2c3nc(c(-c4cccc(S(=O)(=O)[O-])c4F)c4ccc([nH]4)c(-c4cccc(S(=O)(=O)[O-])c4F)c4nc(c(-c5cccc(S(=O)(=O)[O-])c5F)c5ccc2[nH]5)C=C4)C=C3)cc1
REMARK SMILES IDX 20 1 19 2 18 3 17 4 16 5 14 6 15 7 3 9 4 10 2 11 1 12 5 13
REMARK SMILES IDX 6 16 7 17 13 18 8 19 11 20 9 21 12 22 10 23 21 24 22 25
REMARK SMILES IDX 23 26 24 27 25 29 26 30 27 31 88 32 28 33 87 34 29 35 30 36
REMARK SMILES IDX 31 37 81 38 32 39 86 40 80 41 82 42 33 43 85 44 79 45 78 46
REMARK SMILES IDX 34 48 66 49 46 50 65 51 47 52 50 53 64 54 83 55 48 56 49 57
REMARK SMILES IDX 63 59 84 60 51 61 35 62 36 63 44 64 37 65 39 66 45 67 38 68
REMARK SMILES IDX 40 69 41 70 42 71 43 72 67 73 68 74 76 75 69 76 71 77 77 78
REMARK SMILES IDX 70 79 72 80 73 81 74 82 75 83 52 84 53 85 61 86 54 87 56 88
REMARK SMILES IDX 62 89 55 90 57 91 58 92 59 93 60 94
REMARK H PARENT 16 8 5 14 5 15 23 28 82 47 50 58
REMARK Flexibility Score: inf
ROOT
ATOM      1  C   UNL A   1      31.689  30.559  26.217  1.00  0.00     0.002 C 
ENDROOT
BRANCH   1   2
ATOM      2  C   UNL A   1      32.091  29.551  27.304  1.00  0.00     0.002 C 
BRANCH   2   3
ATOM      3  C   UNL A   1      31.419  28.179  27.184  1.00  0.00     0.021 C 
BRANCH   3   4
ATOM      4  C   UNL A   1      32.292  26.975  26.857  1.00  0.00     0.116 C 
BRANCH   4   5
ATOM      5  N   UNL A   1      31.513  25.748  26.905  1.00  0.00    -0.351 N 
ATOM      6  C   UNL A   1      30.945  24.936  25.970  1.00  0.00     0.281 C 
ATOM      7  O   UNL A   1      30.115  24.146  26.453  1.00  0.00    -0.268 OA
ATOM      8  H   UNL A   1      31.360  25.432  27.824  1.00  0.00     0.163 HD
BRANCH   6   9
ATOM      9  C   UNL A   1      31.285  24.895  24.431  1.00  0.00     0.172 C 
ATOM     10  C   UNL A   1      30.627  23.795  23.590  1.00  0.00     0.090 C 
BRANCH   9  11
ATOM     11  C   UNL A   1      30.695  26.261  23.866  1.00  0.00     0.075 C 
ATOM     12  C   UNL A   1      31.714  27.234  23.271  1.00  0.00     0.011 C 
ENDBRANCH   9  11
BRANCH   9  13
ATOM     13  N   UNL A   1      32.744  25.073  24.135  1.00  0.00    -0.331 N 
ATOM     14  H   UNL A   1      33.015  25.922  24.631  1.00  0.00     0.347 HD
ATOM     15  H   UNL A   1      32.721  25.010  23.117  1.00  0.00     0.347 HD
BRANCH  13  16
ATOM     16  C   UNL A   1      33.812  24.104  24.418  1.00  0.00     0.183 C 
ATOM     17  C   UNL A   1      34.694  23.817  23.195  1.00  0.00     0.065 C 
ATOM     18  C   UNL A   1      34.584  24.307  25.724  1.00  0.00     0.068 C 
ATOM     19  C   UNL A   1      35.838  22.833  23.472  1.00  0.00     0.010 C 
ATOM     20  C   UNL A   1      35.680  23.260  25.999  1.00  0.00    -0.006 C 
ATOM     21  C   UNL A   1      36.607  23.080  24.778  1.00  0.00    -0.011 C 
ATOM     22  C   UNL A   1      35.089  21.945  26.509  1.00  0.00     0.008 C 
ATOM     23  C   UNL A   1      37.683  22.012  24.991  1.00  0.00     0.008 C 
ENDBRANCH  13  16
ENDBRANCH   9  13
ENDBRANCH   6   9
ENDBRANCH   4   5
ENDBRANCH   3   4
ENDBRANCH   2   3
ENDBRANCH   1   2
BRANCH   1  24
ATOM     24  C   UNL A   1      31.523  32.026  26.657  1.00  0.00     0.021 C 
BRANCH  24  25
ATOM     25  C   UNL A   1      32.792  32.759  27.101  1.00  0.00     0.116 C 
BRANCH  25  26
ATOM     26  N   UNL A   1      32.525  34.035  27.743  1.00  0.00    -0.352 N 
ATOM     27  C   UNL A   1      33.195  34.670  28.765  1.00  0.00     0.251 C 
ATOM     28  H   UNL A   1      31.744  34.522  27.395  1.00  0.00     0.163 HD
ATOM     29  O   UNL A   1      32.755  35.730  29.205  1.00  0.00    -0.269 OA
BRANCH  27  30
ATOM     30  C   UNL A   1      34.414  34.083  29.376  1.00  0.00     0.039 A 
ATOM     31  C   UNL A   1      34.258  33.235  30.478  1.00  0.00     0.014 A 
ATOM     32  C   UNL A   1      35.700  34.393  28.925  1.00  0.00     0.014 A 
ATOM     33  C   UNL A   1      35.378  32.655  31.087  1.00  0.00     0.010 A 
ATOM     34  C   UNL A   1      36.817  33.778  29.510  1.00  0.00     0.010 A 
ATOM     35  C   UNL A   1      36.671  32.898  30.596  1.00  0.00    -0.014 A 
BRANCH  35  36
ATOM     36  C   UNL A   1      37.854  32.219  31.204  1.00  0.00     0.031 A 
ATOM     37  C   UNL A   1      38.480  32.739  32.474  1.00  0.00     0.074 A 
ATOM     38  C   UNL A   1      38.400  31.145  30.595  1.00  0.00     0.049 A 
ATOM     39  N   UNL A   1      39.510  32.274  33.135  1.00  0.00    -0.248 NA
ATOM     40  C   UNL A   1      37.879  33.941  33.076  1.00  0.00     0.031 C 
ATOM     41  C   UNL A   1      37.933  30.559  29.337  1.00  0.00     0.029 A 
ATOM     42  N   UNL A   1      39.481  30.367  30.938  1.00  0.00    -0.354 N 
ATOM     43  C   UNL A   1      39.705  33.139  34.206  1.00  0.00     0.074 A 
ATOM     44  C   UNL A   1      38.690  34.167  34.101  1.00  0.00     0.031 C 
ATOM     45  C   UNL A   1      38.721  29.520  29.014  1.00  0.00     0.029 A 
ATOM     46  C   UNL A   1      39.770  29.381  30.020  1.00  0.00     0.049 A 
ATOM     47  H   UNL A   1      40.001  30.501  31.763  1.00  0.00     0.167 HD
ATOM     48  C   UNL A   1      40.628  33.077  35.195  1.00  0.00     0.034 A 
ATOM     49  C   UNL A   1      40.770  28.476  29.980  1.00  0.00     0.034 A 
ATOM     50  C   UNL A   1      41.613  32.036  35.330  1.00  0.00     0.049 A 
ATOM     51  C   UNL A   1      41.774  28.427  31.104  1.00  0.00     0.074 A 
ATOM     52  C   UNL A   1      42.527  31.850  36.356  1.00  0.00     0.029 A 
ATOM     53  N   UNL A   1      41.830  31.021  34.415  1.00  0.00    -0.354 N 
ATOM     54  N   UNL A   1      41.831  29.155  32.192  1.00  0.00    -0.248 NA
ATOM     55  C   UNL A   1      42.832  27.407  31.013  1.00  0.00     0.031 C 
ATOM     56  C   UNL A   1      43.321  30.745  36.040  1.00  0.00     0.029 A 
ATOM     57  C   UNL A   1      42.874  30.217  34.841  1.00  0.00     0.049 A 
ATOM     58  H   UNL A   1      41.318  30.890  33.584  1.00  0.00     0.167 HD
ATOM     59  C   UNL A   1      42.894  28.648  32.934  1.00  0.00     0.074 A 
ATOM     60  C   UNL A   1      43.445  27.543  32.181  1.00  0.00     0.031 C 
ATOM     61  C   UNL A   1      43.375  29.072  34.128  1.00  0.00     0.034 A 
BRANCH  48  62
ATOM     62  C   UNL A   1      40.615  34.149  36.254  1.00  0.00     0.023 A 
ATOM     63  C   UNL A   1      41.079  35.443  35.944  1.00  0.00     0.012 A 
ATOM     64  C   UNL A   1      40.028  33.907  37.512  1.00  0.00     0.148 A 
ATOM     65  C   UNL A   1      40.975  36.475  36.876  1.00  0.00     0.002 A 
ATOM     66  C   UNL A   1      39.888  34.950  38.419  1.00  0.00     0.091 A 
ATOM     67  F   UNL A   1      39.603  32.665  37.790  1.00  0.00    -0.205 F 
ATOM     68  C   UNL A   1      40.370  36.232  38.107  1.00  0.00     0.022 A 
BRANCH  66  69
ATOM     69  S   UNL A   1      39.043  34.761  39.993  1.00  0.00     0.127 S 
ATOM     70  O   UNL A   1      40.058  34.066  40.789  1.00  0.00    -0.237 OA
ATOM     71  O   UNL A   1      38.813  36.153  40.386  1.00  0.00    -0.237 OA
ATOM     72  O   UNL A   1      37.839  33.995  39.719  1.00  0.00    -0.744 OA
ENDBRANCH  66  69
ENDBRANCH  48  62
BRANCH  49  73
ATOM     73  C   UNL A   1      40.871  27.507  28.848  1.00  0.00     0.023 A 
ATOM     74  C   UNL A   1      40.051  26.361  28.837  1.00  0.00     0.012 A 
ATOM     75  C   UNL A   1      41.796  27.696  27.804  1.00  0.00     0.148 A 
ATOM     76  C   UNL A   1      40.186  25.398  27.836  1.00  0.00     0.002 A 
ATOM     77  C   UNL A   1      41.883  26.764  26.777  1.00  0.00     0.091 A 
ATOM     78  F   UNL A   1      42.580  28.783  27.838  1.00  0.00    -0.205 F 
ATOM     79  C   UNL A   1      41.096  25.603  26.803  1.00  0.00     0.022 A 
BRANCH  77  80
ATOM     80  S   UNL A   1      42.935  27.016  25.343  1.00  0.00     0.127 S 
ATOM     81  O   UNL A   1      42.749  25.764  24.612  1.00  0.00    -0.237 OA
ATOM     82  O   UNL A   1      42.324  28.190  24.720  1.00  0.00    -0.237 OA
ATOM     83  O   UNL A   1      44.269  27.250  25.875  1.00  0.00    -0.744 OA
ENDBRANCH  77  80
ENDBRANCH  49  73
BRANCH  61  84
ATOM     84  C   UNL A   1      44.516  28.307  34.749  1.00  0.00     0.023 A 
ATOM     85  C   UNL A   1      45.847  28.704  34.518  1.00  0.00     0.012 A 
ATOM     86  C   UNL A   1      44.257  27.246  35.641  1.00  0.00     0.148 A 
ATOM     87  C   UNL A   1      46.903  28.040  35.142  1.00  0.00     0.002 A 
ATOM     88  C   UNL A   1      45.311  26.623  36.299  1.00  0.00     0.091 A 
ATOM     89  F   UNL A   1      42.984  26.870  35.835  1.00  0.00    -0.205 F 
ATOM     90  C   UNL A   1      46.636  27.011  36.042  1.00  0.00     0.022 A 
BRANCH  88  91
ATOM     91  S   UNL A   1      45.057  25.358  37.550  1.00  0.00     0.127 S 
ATOM     92  O   UNL A   1      44.208  26.057  38.512  1.00  0.00    -0.237 OA
ATOM     93  O   UNL A   1      44.380  24.305  36.791  1.00  0.00    -0.237 OA
ATOM     94  O   UNL A   1      46.383  24.998  38.035  1.00  0.00    -0.744 OA
ENDBRANCH  88  91
ENDBRANCH  61  84
ENDBRANCH  35  36
ENDBRANCH  27  30
ENDBRANCH  25  26
ENDBRANCH  24  25
ENDBRANCH   1  24
TORSDOF 19
ENDMDL
