MODEL 1
REMARK VINA RESULT:     -12.7      0.000      0.000
REMARK SMILES COc1cc2ccccc2cc1C(=O)Nc1cc(C(=O)NCCCCCCNC(=O)c2ccc(-c3c4nc(c(-c5cccc(S(=O)(=O)[O-])c5F)c5ccc([nH]5)c(-c5cccc(S(=O)(=O)[O-])c5F)c5nc(c(-c6cccc(S(=O)(=O)[O-])c6F)c6ccc3[nH]6)C=C5)C=C4)cc2)ccc1C
REMARK SMILES IDX 24 1 23 2 22 3 21 4 19 5 20 6 18 8 16 9 17 10 96 11 95 12
REMARK SMILES IDX 97 13 94 14 15 15 13 16 14 17 12 19 3 20 4 21 5 22 11 23
REMARK SMILES IDX 6 24 10 25 7 26 9 27 8 28 2 29 1 30 25 31 26 32 27 33 28 34
REMARK SMILES IDX 29 35 30 37 31 38 32 39 93 40 33 41 92 42 34 43 35 44 36 45
REMARK SMILES IDX 86 46 37 47 91 48 85 49 87 50 38 51 90 52 84 53 83 54 39 56
REMARK SMILES IDX 71 57 51 58 70 59 52 60 55 61 69 62 88 63 53 64 54 65 68 67
REMARK SMILES IDX 89 68 56 69 40 70 41 71 49 72 42 73 44 74 50 75 43 76 45 77
REMARK SMILES IDX 46 78 47 79 48 80 72 81 73 82 81 83 74 84 76 85 82 86 75 87
REMARK SMILES IDX 77 88 78 89 79 90 80 91 57 92 58 93 66 94 59 95 61 96 67 97
REMARK SMILES IDX 60 98 62 99 63 100 64 101 65 102
REMARK H PARENT 21 7 15 18 28 36 87 55 55 66
REMARK Flexibility Score: inf
ROOT
ATOM      1  C   UNL A   1      37.298  19.655  24.879  1.00  0.00     0.002 C 
ENDROOT
BRANCH   1   2
ATOM      2  C   UNL A   1      36.341  20.850  24.772  1.00  0.00     0.021 C 
BRANCH   2   3
ATOM      3  C   UNL A   1      34.896  20.493  25.119  1.00  0.00     0.116 C 
BRANCH   3   4
ATOM      4  N   UNL A   1      34.376  21.364  26.152  1.00  0.00    -0.352 N 
ATOM      5  C   UNL A   1      33.651  22.527  26.141  1.00  0.00     0.251 C 
ATOM      6  O   UNL A   1      33.369  23.005  27.244  1.00  0.00    -0.269 OA
ATOM      7  H   UNL A   1      34.588  21.052  27.061  1.00  0.00     0.163 HD
BRANCH   5   8
ATOM      8  C   UNL A   1      33.127  23.200  24.912  1.00  0.00     0.041 A 
ATOM      9  C   UNL A   1      31.399  24.268  23.579  1.00  0.00     0.045 A 
ATOM     10  C   UNL A   1      31.781  23.394  24.604  1.00  0.00     0.040 A 
ATOM     11  C   UNL A   1      32.348  24.741  22.657  1.00  0.00    -0.027 A 
ATOM     12  C   UNL A   1      33.698  24.470  22.908  1.00  0.00     0.006 A 
ATOM     13  C   UNL A   1      32.019  25.666  21.517  1.00  0.00     0.046 C 
ATOM     14  C   UNL A   1      34.081  23.745  24.040  1.00  0.00     0.014 A 
BRANCH   9  15
ATOM     15  N   UNL A   1      30.083  24.756  23.528  1.00  0.00    -0.322 N 
ATOM     16  C   UNL A   1      29.562  25.975  23.918  1.00  0.00     0.259 C 
ATOM     17  O   UNL A   1      28.338  26.119  23.837  1.00  0.00    -0.269 OA
ATOM     18  H   UNL A   1      29.425  24.126  23.155  1.00  0.00     0.170 HD
BRANCH  16  19
ATOM     19  C   UNL A   1      30.368  27.164  24.351  1.00  0.00     0.082 A 
ATOM     20  C   UNL A   1      30.379  28.431  23.757  1.00  0.00     0.132 A 
ATOM     21  C   UNL A   1      31.270  29.422  24.194  1.00  0.00     0.056 A 
ATOM     22  C   UNL A   1      32.056  29.232  25.336  1.00  0.00    -0.015 A 
ATOM     23  C   UNL A   1      31.123  26.996  25.531  1.00  0.00     0.026 A 
ATOM     24  C   UNL A   1      32.929  30.231  25.796  1.00  0.00     0.009 A 
ATOM     25  C   UNL A   1      31.940  28.022  26.049  1.00  0.00    -0.017 A 
ATOM     26  C   UNL A   1      33.636  30.062  26.986  1.00  0.00     0.001 A 
ATOM     27  C   UNL A   1      32.645  27.875  27.255  1.00  0.00     0.009 A 
ATOM     28  C   UNL A   1      33.477  28.894  27.726  1.00  0.00     0.001 A 
BRANCH  20  29
ATOM     29  O   UNL A   1      29.592  28.814  22.706  1.00  0.00    -0.496 OA
ATOM     30  C   UNL A   1      28.931  30.047  22.974  1.00  0.00     0.278 C 
ENDBRANCH  20  29
ENDBRANCH  16  19
ENDBRANCH   9  15
ENDBRANCH   5   8
ENDBRANCH   3   4
ENDBRANCH   2   3
ENDBRANCH   1   2
BRANCH   1  31
ATOM     31  C   UNL A   1      38.725  19.983  25.356  1.00  0.00     0.002 C 
BRANCH  31  32
ATOM     32  C   UNL A   1      38.976  21.439  25.750  1.00  0.00     0.021 C 
BRANCH  32  33
ATOM     33  C   UNL A   1      40.002  21.600  26.860  1.00  0.00     0.116 C 
BRANCH  33  34
ATOM     34  N   UNL A   1      41.294  22.052  26.368  1.00  0.00    -0.352 N 
ATOM     35  C   UNL A   1      41.709  23.320  26.016  1.00  0.00     0.251 C 
ATOM     36  H   UNL A   1      41.975  21.346  26.273  1.00  0.00     0.163 HD
ATOM     37  O   UNL A   1      42.751  23.444  25.373  1.00  0.00    -0.269 OA
BRANCH  35  38
ATOM     38  C   UNL A   1      40.990  24.501  26.548  1.00  0.00     0.039 A 
ATOM     39  C   UNL A   1      41.186  25.719  25.884  1.00  0.00     0.014 A 
ATOM     40  C   UNL A   1      40.383  24.475  27.800  1.00  0.00     0.014 A 
ATOM     41  C   UNL A   1      41.034  26.915  26.581  1.00  0.00     0.010 A 
ATOM     42  C   UNL A   1      40.311  25.646  28.518  1.00  0.00     0.010 A 
ATOM     43  C   UNL A   1      40.712  26.852  27.931  1.00  0.00    -0.014 A 
BRANCH  43  44
ATOM     44  C   UNL A   1      40.819  27.962  28.858  1.00  0.00     0.031 A 
ATOM     45  C   UNL A   1      39.857  29.072  28.793  1.00  0.00     0.074 A 
ATOM     46  C   UNL A   1      41.647  27.833  29.918  1.00  0.00     0.049 A 
ATOM     47  N   UNL A   1      39.999  30.176  29.438  1.00  0.00    -0.248 NA
ATOM     48  C   UNL A   1      38.648  29.016  27.985  1.00  0.00     0.031 C 
ATOM     49  C   UNL A   1      41.594  28.563  31.178  1.00  0.00     0.029 A 
ATOM     50  N   UNL A   1      42.855  27.132  29.983  1.00  0.00    -0.354 N 
ATOM     51  C   UNL A   1      38.803  30.851  29.365  1.00  0.00     0.074 A 
ATOM     52  C   UNL A   1      38.017  30.120  28.396  1.00  0.00     0.031 C 
ATOM     53  C   UNL A   1      42.803  28.511  31.756  1.00  0.00     0.029 A 
ATOM     54  C   UNL A   1      43.706  27.901  30.798  1.00  0.00     0.049 A 
ATOM     55  H   UNL A   1      43.066  26.274  29.547  1.00  0.00     0.167 HD
ATOM     56  C   UNL A   1      38.566  31.864  30.244  1.00  0.00     0.034 A 
ATOM     57  C   UNL A   1      44.879  28.442  30.353  1.00  0.00     0.034 A 
ATOM     58  C   UNL A   1      39.736  32.117  31.099  1.00  0.00     0.049 A 
ATOM     59  C   UNL A   1      44.912  29.966  30.439  1.00  0.00     0.074 A 
ATOM     60  C   UNL A   1      40.100  31.780  32.394  1.00  0.00     0.029 A 
ATOM     61  N   UNL A   1      40.886  32.591  30.499  1.00  0.00    -0.354 N 
ATOM     62  N   UNL A   1      43.981  30.706  30.978  1.00  0.00    -0.248 NA
ATOM     63  C   UNL A   1      45.965  30.774  29.823  1.00  0.00     0.031 C 
ATOM     64  C   UNL A   1      41.493  32.055  32.550  1.00  0.00     0.029 A 
ATOM     65  C   UNL A   1      41.968  32.573  31.359  1.00  0.00     0.049 A 
ATOM     66  H   UNL A   1      40.930  32.906  29.567  1.00  0.00     0.167 HD
ATOM     67  C   UNL A   1      44.185  32.020  30.630  1.00  0.00     0.074 A 
ATOM     68  C   UNL A   1      45.470  32.016  29.952  1.00  0.00     0.031 C 
ATOM     69  C   UNL A   1      43.258  33.007  30.841  1.00  0.00     0.034 A 
BRANCH  56  70
ATOM     70  C   UNL A   1      37.196  32.449  30.515  1.00  0.00     0.023 A 
ATOM     71  C   UNL A   1      36.552  32.066  31.713  1.00  0.00     0.012 A 
ATOM     72  C   UNL A   1      36.466  33.305  29.662  1.00  0.00     0.148 A 
ATOM     73  C   UNL A   1      35.228  32.411  31.996  1.00  0.00     0.002 A 
ATOM     74  C   UNL A   1      35.116  33.582  29.901  1.00  0.00     0.091 A 
ATOM     75  F   UNL A   1      37.089  33.928  28.655  1.00  0.00    -0.205 F 
ATOM     76  C   UNL A   1      34.495  33.134  31.069  1.00  0.00     0.022 A 
BRANCH  74  77
ATOM     77  S   UNL A   1      34.070  34.410  28.692  1.00  0.00     0.127 S 
ATOM     78  O   UNL A   1      34.771  35.681  28.498  1.00  0.00    -0.237 OA
ATOM     79  O   UNL A   1      34.129  33.505  27.548  1.00  0.00    -0.237 OA
ATOM     80  O   UNL A   1      32.763  34.550  29.324  1.00  0.00    -0.744 OA
ENDBRANCH  74  77
ENDBRANCH  56  70
BRANCH  57  81
ATOM     81  C   UNL A   1      45.531  27.619  29.289  1.00  0.00     0.023 A 
ATOM     82  C   UNL A   1      45.989  26.332  29.666  1.00  0.00     0.012 A 
ATOM     83  C   UNL A   1      45.342  27.897  27.925  1.00  0.00     0.148 A 
ATOM     84  C   UNL A   1      46.113  25.311  28.723  1.00  0.00     0.002 A 
ATOM     85  C   UNL A   1      45.478  26.874  26.989  1.00  0.00     0.091 A 
ATOM     86  F   UNL A   1      44.947  29.124  27.568  1.00  0.00    -0.205 F 
ATOM     87  C   UNL A   1      45.823  25.573  27.389  1.00  0.00     0.022 A 
BRANCH  85  88
ATOM     88  S   UNL A   1      45.086  27.142  25.256  1.00  0.00     0.127 S 
ATOM     89  O   UNL A   1      45.013  25.771  24.760  1.00  0.00    -0.237 OA
ATOM     90  O   UNL A   1      43.805  27.841  25.327  1.00  0.00    -0.237 OA
ATOM     91  O   UNL A   1      46.182  27.956  24.751  1.00  0.00    -0.744 OA
ENDBRANCH  85  88
ENDBRANCH  57  81
BRANCH  69  92
ATOM     92  C   UNL A   1      43.494  34.477  30.527  1.00  0.00     0.023 A 
ATOM     93  C   UNL A   1      43.676  35.409  31.568  1.00  0.00     0.012 A 
ATOM     94  C   UNL A   1      43.402  35.004  29.211  1.00  0.00     0.148 A 
ATOM     95  C   UNL A   1      43.837  36.777  31.314  1.00  0.00     0.002 A 
ATOM     96  C   UNL A   1      43.475  36.372  28.971  1.00  0.00     0.091 A 
ATOM     97  F   UNL A   1      43.273  34.179  28.168  1.00  0.00    -0.205 F 
ATOM     98  C   UNL A   1      43.724  37.260  30.018  1.00  0.00     0.022 A 
BRANCH  96  99
ATOM     99  S   UNL A   1      43.166  37.091  27.348  1.00  0.00     0.127 S 
ATOM    100  O   UNL A   1      43.936  36.197  26.481  1.00  0.00    -0.237 OA
ATOM    101  O   UNL A   1      41.716  36.952  27.231  1.00  0.00    -0.237 OA
ATOM    102  O   UNL A   1      43.664  38.456  27.405  1.00  0.00    -0.744 OA
ENDBRANCH  96  99
ENDBRANCH  69  92
ENDBRANCH  43  44
ENDBRANCH  35  38
ENDBRANCH  33  34
ENDBRANCH  32  33
ENDBRANCH  31  32
ENDBRANCH   1  31
TORSDOF 19
ENDMDL
MODEL 2
REMARK VINA RESULT:     -12.6      4.571      9.904
REMARK SMILES COc1cc2ccccc2cc1C(=O)Nc1cc(C(=O)NCCCCCCNC(=O)c2ccc(-c3c4nc(c(-c5cccc(S(=O)(=O)[O-])c5F)c5ccc([nH]5)c(-c5cccc(S(=O)(=O)[O-])c5F)c5nc(c(-c6cccc(S(=O)(=O)[O-])c6F)c6ccc3[nH]6)C=C5)C=C4)cc2)ccc1C
REMARK SMILES IDX 24 1 23 2 22 3 21 4 19 5 20 6 18 8 16 9 17 10 96 11 95 12
REMARK SMILES IDX 97 13 94 14 15 15 13 16 14 17 12 19 3 20 4 21 5 22 11 23
REMARK SMILES IDX 6 24 10 25 7 26 9 27 8 28 2 29 1 30 25 31 26 32 27 33 28 34
REMARK SMILES IDX 29 35 30 37 31 38 32 39 93 40 33 41 92 42 34 43 35 44 36 45
REMARK SMILES IDX 86 46 37 47 91 48 85 49 87 50 38 51 90 52 84 53 83 54 39 56
REMARK SMILES IDX 71 57 51 58 70 59 52 60 55 61 69 62 88 63 53 64 54 65 68 67
REMARK SMILES IDX 89 68 56 69 40 70 41 71 49 72 42 73 44 74 50 75 43 76 45 77
REMARK SMILES IDX 46 78 47 79 48 80 72 81 73 82 81 83 74 84 76 85 82 86 75 87
REMARK SMILES IDX 77 88 78 89 79 90 80 91 57 92 58 93 66 94 59 95 61 96 67 97
REMARK SMILES IDX 60 98 62 99 63 100 64 101 65 102
REMARK H PARENT 21 7 15 18 28 36 87 55 55 66
REMARK Flexibility Score: inf
ROOT
ATOM      1  C   UNL A   1      34.492  30.969  27.934  1.00  0.00     0.002 C 
ENDROOT
BRANCH   1   2
ATOM      2  C   UNL A   1      35.352  29.806  27.422  1.00  0.00     0.021 C 
BRANCH   2   3
ATOM      3  C   UNL A   1      34.610  28.897  26.443  1.00  0.00     0.116 C 
BRANCH   3   4
ATOM      4  N   UNL A   1      33.427  29.546  25.919  1.00  0.00    -0.352 N 
ATOM      5  C   UNL A   1      32.323  29.106  25.238  1.00  0.00     0.251 C 
ATOM      6  O   UNL A   1      31.483  29.964  24.947  1.00  0.00    -0.269 OA
ATOM      7  H   UNL A   1      33.413  30.515  26.090  1.00  0.00     0.163 HD
BRANCH   5   8
ATOM      8  C   UNL A   1      32.036  27.678  24.897  1.00  0.00     0.041 A 
ATOM      9  C   UNL A   1      31.439  25.385  25.433  1.00  0.00     0.045 A 
ATOM     10  C   UNL A   1      31.980  26.622  25.805  1.00  0.00     0.040 A 
ATOM     11  C   UNL A   1      31.212  25.086  24.079  1.00  0.00    -0.027 A 
ATOM     12  C   UNL A   1      31.358  26.120  23.146  1.00  0.00     0.006 A 
ATOM     13  C   UNL A   1      30.653  23.777  23.593  1.00  0.00     0.046 C 
ATOM     14  C   UNL A   1      31.725  27.404  23.556  1.00  0.00     0.014 A 
BRANCH   9  15
ATOM     15  N   UNL A   1      31.028  24.475  26.420  1.00  0.00    -0.322 N 
ATOM     16  C   UNL A   1      31.526  23.230  26.758  1.00  0.00     0.259 C 
ATOM     17  O   UNL A   1      30.920  22.595  27.626  1.00  0.00    -0.269 OA
ATOM     18  H   UNL A   1      30.259  24.772  26.959  1.00  0.00     0.170 HD
BRANCH  16  19
ATOM     19  C   UNL A   1      32.788  22.626  26.217  1.00  0.00     0.082 A 
ATOM     20  C   UNL A   1      32.900  21.447  25.470  1.00  0.00     0.132 A 
ATOM     21  C   UNL A   1      34.158  20.932  25.125  1.00  0.00     0.056 A 
ATOM     22  C   UNL A   1      35.327  21.658  25.372  1.00  0.00    -0.015 A 
ATOM     23  C   UNL A   1      33.964  23.378  26.419  1.00  0.00     0.026 A 
ATOM     24  C   UNL A   1      36.587  21.161  25.004  1.00  0.00     0.009 A 
ATOM     25  C   UNL A   1      35.225  22.926  25.978  1.00  0.00    -0.017 A 
ATOM     26  C   UNL A   1      37.733  21.937  25.174  1.00  0.00     0.001 A 
ATOM     27  C   UNL A   1      36.387  23.703  26.126  1.00  0.00     0.009 A 
ATOM     28  C   UNL A   1      37.630  23.215  25.715  1.00  0.00     0.001 A 
BRANCH  20  29
ATOM     29  O   UNL A   1      31.848  20.681  25.049  1.00  0.00    -0.496 OA
ATOM     30  C   UNL A   1      32.284  19.615  24.209  1.00  0.00     0.278 C 
ENDBRANCH  20  29
ENDBRANCH  16  19
ENDBRANCH   9  15
ENDBRANCH   5   8
ENDBRANCH   3   4
ENDBRANCH   2   3
ENDBRANCH   1   2
BRANCH   1  31
ATOM     31  C   UNL A   1      35.232  32.300  28.156  1.00  0.00     0.002 C 
BRANCH  31  32
ATOM     32  C   UNL A   1      34.385  33.565  27.999  1.00  0.00     0.021 C 
BRANCH  32  33
ATOM     33  C   UNL A   1      34.920  34.755  28.779  1.00  0.00     0.116 C 
BRANCH  33  34
ATOM     34  N   UNL A   1      33.946  35.297  29.713  1.00  0.00    -0.352 N 
ATOM     35  C   UNL A   1      33.657  34.915  31.007  1.00  0.00     0.251 C 
ATOM     36  H   UNL A   1      33.413  36.051  29.369  1.00  0.00     0.163 HD
ATOM     37  O   UNL A   1      32.620  35.323  31.527  1.00  0.00    -0.269 OA
BRANCH  35  38
ATOM     38  C   UNL A   1      34.665  34.163  31.791  1.00  0.00     0.039 A 
ATOM     39  C   UNL A   1      35.736  34.895  32.322  1.00  0.00     0.014 A 
ATOM     40  C   UNL A   1      34.710  32.772  31.767  1.00  0.00     0.014 A 
ATOM     41  C   UNL A   1      36.950  34.259  32.565  1.00  0.00     0.010 A 
ATOM     42  C   UNL A   1      35.929  32.153  31.926  1.00  0.00     0.010 A 
ATOM     43  C   UNL A   1      37.060  32.911  32.247  1.00  0.00    -0.014 A 
BRANCH  43  44
ATOM     44  C   UNL A   1      38.313  32.186  32.147  1.00  0.00     0.031 A 
ATOM     45  C   UNL A   1      38.372  30.915  31.411  1.00  0.00     0.074 A 
ATOM     46  C   UNL A   1      39.449  32.816  32.520  1.00  0.00     0.049 A 
ATOM     47  N   UNL A   1      39.382  30.119  31.445  1.00  0.00    -0.248 NA
ATOM     48  C   UNL A   1      37.280  30.442  30.573  1.00  0.00     0.031 C 
ATOM     49  C   UNL A   1      40.812  32.504  32.108  1.00  0.00     0.029 A 
ATOM     50  N   UNL A   1      39.609  33.767  33.532  1.00  0.00    -0.354 N 
ATOM     51  C   UNL A   1      39.208  29.193  30.443  1.00  0.00     0.074 A 
ATOM     52  C   UNL A   1      37.856  29.395  29.974  1.00  0.00     0.031 C 
ATOM     53  C   UNL A   1      41.660  33.009  33.016  1.00  0.00     0.029 A 
ATOM     54  C   UNL A   1      40.858  33.498  34.121  1.00  0.00     0.049 A 
ATOM     55  H   UNL A   1      38.977  34.479  33.781  1.00  0.00     0.167 HD
ATOM     56  C   UNL A   1      40.282  28.463  30.030  1.00  0.00     0.034 A 
ATOM     57  C   UNL A   1      41.005  33.139  35.431  1.00  0.00     0.034 A 
ATOM     58  C   UNL A   1      41.474  28.758  30.839  1.00  0.00     0.049 A 
ATOM     59  C   UNL A   1      41.640  31.763  35.613  1.00  0.00     0.074 A 
ATOM     60  C   UNL A   1      42.606  29.541  30.674  1.00  0.00     0.029 A 
ATOM     61  N   UNL A   1      41.453  28.409  32.176  1.00  0.00    -0.354 N 
ATOM     62  N   UNL A   1      42.109  31.021  34.647  1.00  0.00    -0.248 NA
ATOM     63  C   UNL A   1      41.696  31.078  36.906  1.00  0.00     0.031 C 
ATOM     64  C   UNL A   1      43.254  29.660  31.941  1.00  0.00     0.029 A 
ATOM     65  C   UNL A   1      42.526  28.936  32.868  1.00  0.00     0.049 A 
ATOM     66  H   UNL A   1      40.754  27.850  32.586  1.00  0.00     0.167 HD
ATOM     67  C   UNL A   1      42.335  29.750  35.116  1.00  0.00     0.074 A 
ATOM     68  C   UNL A   1      42.112  29.852  36.549  1.00  0.00     0.031 C 
ATOM     69  C   UNL A   1      42.604  28.683  34.300  1.00  0.00     0.034 A 
BRANCH  56  70
ATOM     70  C   UNL A   1      40.328  27.681  28.734  1.00  0.00     0.023 A 
ATOM     71  C   UNL A   1      39.441  26.590  28.603  1.00  0.00     0.012 A 
ATOM     72  C   UNL A   1      41.211  27.898  27.654  1.00  0.00     0.148 A 
ATOM     73  C   UNL A   1      39.499  25.700  27.527  1.00  0.00     0.002 A 
ATOM     74  C   UNL A   1      41.329  26.964  26.620  1.00  0.00     0.091 A 
ATOM     75  F   UNL A   1      41.886  29.050  27.570  1.00  0.00    -0.205 F 
ATOM     76  C   UNL A   1      40.473  25.862  26.556  1.00  0.00     0.022 A 
BRANCH  74  77
ATOM     77  S   UNL A   1      42.644  27.043  25.392  1.00  0.00     0.127 S 
ATOM     78  O   UNL A   1      42.278  28.237  24.626  1.00  0.00    -0.237 OA
ATOM     79  O   UNL A   1      43.840  27.195  26.215  1.00  0.00    -0.237 OA
ATOM     80  O   UNL A   1      42.552  25.804  24.628  1.00  0.00    -0.744 OA
ENDBRANCH  74  77
ENDBRANCH  56  70
BRANCH  57  81
ATOM     81  C   UNL A   1      39.960  33.736  36.318  1.00  0.00     0.023 A 
ATOM     82  C   UNL A   1      38.833  32.929  36.612  1.00  0.00     0.012 A 
ATOM     83  C   UNL A   1      40.239  34.835  37.147  1.00  0.00     0.148 A 
ATOM     84  C   UNL A   1      38.094  33.127  37.780  1.00  0.00     0.002 A 
ATOM     85  C   UNL A   1      39.491  35.031  38.306  1.00  0.00     0.091 A 
ATOM     86  F   UNL A   1      41.281  35.619  36.847  1.00  0.00    -0.205 F 
ATOM     87  C   UNL A   1      38.446  34.156  38.644  1.00  0.00     0.022 A 
BRANCH  85  88
ATOM     88  S   UNL A   1      39.916  36.323  39.480  1.00  0.00     0.127 S 
ATOM     89  O   UNL A   1      38.996  36.034  40.575  1.00  0.00    -0.237 OA
ATOM     90  O   UNL A   1      41.321  36.041  39.765  1.00  0.00    -0.237 OA
ATOM     91  O   UNL A   1      39.693  37.566  38.758  1.00  0.00    -0.744 OA
ENDBRANCH  85  88
ENDBRANCH  57  81
BRANCH  69  92
ATOM     92  C   UNL A   1      42.926  27.284  34.806  1.00  0.00     0.023 A 
ATOM     93  C   UNL A   1      41.890  26.373  35.094  1.00  0.00     0.012 A 
ATOM     94  C   UNL A   1      44.243  26.876  35.147  1.00  0.00     0.148 A 
ATOM     95  C   UNL A   1      42.149  25.100  35.617  1.00  0.00     0.002 A 
ATOM     96  C   UNL A   1      44.489  25.645  35.747  1.00  0.00     0.091 A 
ATOM     97  F   UNL A   1      45.282  27.667  34.865  1.00  0.00    -0.205 F 
ATOM     98  C   UNL A   1      43.447  24.740  35.954  1.00  0.00     0.022 A 
BRANCH  96  99
ATOM     99  S   UNL A   1      46.112  25.176  36.371  1.00  0.00     0.127 S 
ATOM    100  O   UNL A   1      46.898  25.128  35.137  1.00  0.00    -0.237 OA
ATOM    101  O   UNL A   1      46.429  26.298  37.252  1.00  0.00    -0.237 OA
ATOM    102  O   UNL A   1      45.941  23.890  37.030  1.00  0.00    -0.744 OA
ENDBRANCH  96  99
ENDBRANCH  69  92
ENDBRANCH  43  44
ENDBRANCH  35  38
ENDBRANCH  33  34
ENDBRANCH  32  33
ENDBRANCH  31  32
ENDBRANCH   1  31
TORSDOF 19
ENDMDL
MODEL 3
REMARK VINA RESULT:     -12.5      4.098      8.274
REMARK SMILES COc1cc2ccccc2cc1C(=O)Nc1cc(C(=O)NCCCCCCNC(=O)c2ccc(-c3c4nc(c(-c5cccc(S(=O)(=O)[O-])c5F)c5ccc([nH]5)c(-c5cccc(S(=O)(=O)[O-])c5F)c5nc(c(-c6cccc(S(=O)(=O)[O-])c6F)c6ccc3[nH]6)C=C5)C=C4)cc2)ccc1C
REMARK SMILES IDX 24 1 23 2 22 3 21 4 19 5 20 6 18 8 16 9 17 10 96 11 95 12
REMARK SMILES IDX 97 13 94 14 15 15 13 16 14 17 12 19 3 20 4 21 5 22 11 23
REMARK SMILES IDX 6 24 10 25 7 26 9 27 8 28 2 29 1 30 25 31 26 32 27 33 28 34
REMARK SMILES IDX 29 35 30 37 31 38 32 39 93 40 33 41 92 42 34 43 35 44 36 45
REMARK SMILES IDX 86 46 37 47 91 48 85 49 87 50 38 51 90 52 84 53 83 54 39 56
REMARK SMILES IDX 71 57 51 58 70 59 52 60 55 61 69 62 88 63 53 64 54 65 68 67
REMARK SMILES IDX 89 68 56 69 40 70 41 71 49 72 42 73 44 74 50 75 43 76 45 77
REMARK SMILES IDX 46 78 47 79 48 80 72 81 73 82 81 83 74 84 76 85 82 86 75 87
REMARK SMILES IDX 77 88 78 89 79 90 80 91 57 92 58 93 66 94 59 95 61 96 67 97
REMARK SMILES IDX 60 98 62 99 63 100 64 101 65 102
REMARK H PARENT 21 7 15 18 28 36 87 55 55 66
REMARK Flexibility Score: inf
ROOT
ATOM      1  C   UNL A   1      38.524  24.047  26.352  1.00  0.00     0.002 C 
ENDROOT
BRANCH   1   2
ATOM      2  C   UNL A   1      38.220  22.613  25.903  1.00  0.00     0.021 C 
BRANCH   2   3
ATOM      3  C   UNL A   1      36.782  22.428  25.418  1.00  0.00     0.116 C 
BRANCH   3   4
ATOM      4  N   UNL A   1      35.932  21.931  26.478  1.00  0.00    -0.352 N 
ATOM      5  C   UNL A   1      34.597  22.051  26.763  1.00  0.00     0.251 C 
ATOM      6  O   UNL A   1      34.201  21.471  27.778  1.00  0.00    -0.269 OA
ATOM      7  H   UNL A   1      36.419  21.388  27.139  1.00  0.00     0.163 HD
BRANCH   5   8
ATOM      8  C   UNL A   1      33.596  22.757  25.905  1.00  0.00     0.041 A 
ATOM      9  C   UNL A   1      32.923  24.131  24.017  1.00  0.00     0.045 A 
ATOM     10  C   UNL A   1      33.886  23.732  24.952  1.00  0.00     0.040 A 
ATOM     11  C   UNL A   1      31.573  23.781  24.193  1.00  0.00    -0.027 A 
ATOM     12  C   UNL A   1      31.259  22.872  25.211  1.00  0.00     0.006 A 
ATOM     13  C   UNL A   1      30.474  24.183  23.248  1.00  0.00     0.046 C 
ATOM     14  C   UNL A   1      32.261  22.340  26.025  1.00  0.00     0.014 A 
BRANCH   9  15
ATOM     15  N   UNL A   1      33.317  24.797  22.846  1.00  0.00    -0.322 N 
ATOM     16  C   UNL A   1      33.231  26.133  22.500  1.00  0.00     0.259 C 
ATOM     17  O   UNL A   1      33.584  26.446  21.359  1.00  0.00    -0.269 OA
ATOM     18  H   UNL A   1      33.721  24.219  22.159  1.00  0.00     0.170 HD
BRANCH  16  19
ATOM     19  C   UNL A   1      32.823  27.243  23.423  1.00  0.00     0.082 A 
ATOM     20  C   UNL A   1      31.605  27.933  23.417  1.00  0.00     0.132 A 
ATOM     21  C   UNL A   1      31.398  29.031  24.264  1.00  0.00     0.056 A 
ATOM     22  C   UNL A   1      32.332  29.369  25.249  1.00  0.00    -0.015 A 
ATOM     23  C   UNL A   1      33.738  27.554  24.450  1.00  0.00     0.026 A 
ATOM     24  C   UNL A   1      32.118  30.450  26.119  1.00  0.00     0.009 A 
ATOM     25  C   UNL A   1      33.495  28.584  25.382  1.00  0.00    -0.017 A 
ATOM     26  C   UNL A   1      33.014  30.717  27.153  1.00  0.00     0.001 A 
ATOM     27  C   UNL A   1      34.378  28.854  26.441  1.00  0.00     0.009 A 
ATOM     28  C   UNL A   1      34.132  29.906  27.327  1.00  0.00     0.001 A 
BRANCH  20  29
ATOM     29  O   UNL A   1      30.547  27.654  22.596  1.00  0.00    -0.496 OA
ATOM     30  C   UNL A   1      29.586  28.706  22.610  1.00  0.00     0.278 C 
ENDBRANCH  20  29
ENDBRANCH  16  19
ENDBRANCH   9  15
ENDBRANCH   5   8
ENDBRANCH   3   4
ENDBRANCH   2   3
ENDBRANCH   1   2
BRANCH   1  31
ATOM     31  C   UNL A   1      39.233  24.186  27.712  1.00  0.00     0.002 C 
BRANCH  31  32
ATOM     32  C   UNL A   1      40.049  25.465  27.908  1.00  0.00     0.021 C 
BRANCH  32  33
ATOM     33  C   UNL A   1      39.530  26.350  29.031  1.00  0.00     0.116 C 
BRANCH  33  34
ATOM     34  N   UNL A   1      38.494  27.269  28.586  1.00  0.00    -0.352 N 
ATOM     35  C   UNL A   1      38.571  28.621  28.318  1.00  0.00     0.251 C 
ATOM     36  H   UNL A   1      37.605  26.866  28.457  1.00  0.00     0.163 HD
ATOM     37  O   UNL A   1      37.527  29.264  28.214  1.00  0.00    -0.269 OA
BRANCH  35  38
ATOM     38  C   UNL A   1      39.883  29.233  28.005  1.00  0.00     0.039 A 
ATOM     39  C   UNL A   1      40.446  28.930  26.757  1.00  0.00     0.014 A 
ATOM     40  C   UNL A   1      40.653  29.840  28.992  1.00  0.00     0.014 A 
ATOM     41  C   UNL A   1      41.828  28.976  26.597  1.00  0.00     0.010 A 
ATOM     42  C   UNL A   1      42.023  29.808  28.868  1.00  0.00     0.010 A 
ATOM     43  C   UNL A   1      42.607  29.302  27.701  1.00  0.00    -0.014 A 
BRANCH  43  44
ATOM     44  C   UNL A   1      44.040  29.097  27.790  1.00  0.00     0.031 A 
ATOM     45  C   UNL A   1      44.964  30.147  27.337  1.00  0.00     0.074 A 
ATOM     46  C   UNL A   1      44.493  28.050  28.513  1.00  0.00     0.049 A 
ATOM     47  N   UNL A   1      46.231  29.969  27.196  1.00  0.00    -0.248 NA
ATOM     48  C   UNL A   1      44.520  31.493  27.004  1.00  0.00     0.031 C 
ATOM     49  C   UNL A   1      45.811  27.893  29.117  1.00  0.00     0.029 A 
ATOM     50  N   UNL A   1      43.893  26.798  28.680  1.00  0.00    -0.354 N 
ATOM     51  C   UNL A   1      46.804  31.208  27.035  1.00  0.00     0.074 A 
ATOM     52  C   UNL A   1      45.693  32.116  26.857  1.00  0.00     0.031 C 
ATOM     53  C   UNL A   1      46.035  26.588  29.326  1.00  0.00     0.029 A 
ATOM     54  C   UNL A   1      44.945  25.864  28.700  1.00  0.00     0.049 A 
ATOM     55  H   UNL A   1      42.930  26.610  28.766  1.00  0.00     0.167 HD
ATOM     56  C   UNL A   1      48.147  31.340  27.220  1.00  0.00     0.034 A 
ATOM     57  C   UNL A   1      45.080  24.870  27.772  1.00  0.00     0.034 A 
ATOM     58  C   UNL A   1      48.781  30.040  27.487  1.00  0.00     0.049 A 
ATOM     59  C   UNL A   1      46.379  24.958  26.977  1.00  0.00     0.074 A 
ATOM     60  C   UNL A   1      49.220  29.373  28.621  1.00  0.00     0.029 A 
ATOM     61  N   UNL A   1      48.774  29.096  26.478  1.00  0.00    -0.354 N 
ATOM     62  N   UNL A   1      47.340  25.812  27.204  1.00  0.00    -0.248 NA
ATOM     63  C   UNL A   1      46.642  24.142  25.790  1.00  0.00     0.031 C 
ATOM     64  C   UNL A   1      49.465  28.010  28.270  1.00  0.00     0.029 A 
ATOM     65  C   UNL A   1      49.192  27.855  26.923  1.00  0.00     0.049 A 
ATOM     66  H   UNL A   1      48.502  29.285  25.551  1.00  0.00     0.167 HD
ATOM     67  C   UNL A   1      48.213  25.810  26.143  1.00  0.00     0.074 A 
ATOM     68  C   UNL A   1      47.762  24.708  25.310  1.00  0.00     0.031 C 
ATOM     69  C   UNL A   1      49.191  26.754  25.970  1.00  0.00     0.034 A 
BRANCH  56  70
ATOM     70  C   UNL A   1      48.850  32.665  27.422  1.00  0.00     0.023 A 
ATOM     71  C   UNL A   1      49.710  33.107  26.392  1.00  0.00     0.012 A 
ATOM     72  C   UNL A   1      48.777  33.489  28.567  1.00  0.00     0.148 A 
ATOM     73  C   UNL A   1      50.533  34.228  26.529  1.00  0.00     0.002 A 
ATOM     74  C   UNL A   1      49.658  34.560  28.742  1.00  0.00     0.091 A 
ATOM     75  F   UNL A   1      47.800  33.296  29.460  1.00  0.00    -0.205 F 
ATOM     76  C   UNL A   1      50.539  34.931  27.723  1.00  0.00     0.022 A 
BRANCH  74  77
ATOM     77  S   UNL A   1      49.807  35.444  30.304  1.00  0.00     0.127 S 
ATOM     78  O   UNL A   1      50.986  36.281  30.072  1.00  0.00    -0.237 OA
ATOM     79  O   UNL A   1      48.548  36.178  30.376  1.00  0.00    -0.237 OA
ATOM     80  O   UNL A   1      50.005  34.420  31.325  1.00  0.00    -0.744 OA
ENDBRANCH  74  77
ENDBRANCH  56  70
BRANCH  57  81
ATOM     81  C   UNL A   1      43.767  24.393  27.238  1.00  0.00     0.023 A 
ATOM     82  C   UNL A   1      43.329  24.958  26.015  1.00  0.00     0.012 A 
ATOM     83  C   UNL A   1      43.197  23.182  27.666  1.00  0.00     0.148 A 
ATOM     84  C   UNL A   1      42.456  24.264  25.176  1.00  0.00     0.002 A 
ATOM     85  C   UNL A   1      42.318  22.501  26.827  1.00  0.00     0.091 A 
ATOM     86  F   UNL A   1      43.582  22.669  28.840  1.00  0.00    -0.205 F 
ATOM     87  C   UNL A   1      41.978  23.019  25.566  1.00  0.00     0.022 A 
BRANCH  85  88
ATOM     88  S   UNL A   1      41.692  20.873  27.260  1.00  0.00     0.127 S 
ATOM     89  O   UNL A   1      40.806  21.189  28.375  1.00  0.00    -0.237 OA
ATOM     90  O   UNL A   1      41.015  20.458  26.033  1.00  0.00    -0.237 OA
ATOM     91  O   UNL A   1      42.879  20.093  27.577  1.00  0.00    -0.744 OA
ENDBRANCH  85  88
ENDBRANCH  57  81
BRANCH  69  92
ATOM     92  C   UNL A   1      50.210  26.727  24.841  1.00  0.00     0.023 A 
ATOM     93  C   UNL A   1      51.555  26.398  25.100  1.00  0.00     0.012 A 
ATOM     94  C   UNL A   1      49.906  27.160  23.523  1.00  0.00     0.148 A 
ATOM     95  C   UNL A   1      52.529  26.421  24.094  1.00  0.00     0.002 A 
ATOM     96  C   UNL A   1      50.893  27.266  22.547  1.00  0.00     0.091 A 
ATOM     97  F   UNL A   1      48.645  27.448  23.188  1.00  0.00    -0.205 F 
ATOM     98  C   UNL A   1      52.201  26.866  22.821  1.00  0.00     0.022 A 
BRANCH  96  99
ATOM     99  S   UNL A   1      50.584  27.996  20.930  1.00  0.00     0.127 S 
ATOM    100  O   UNL A   1      50.359  29.400  21.280  1.00  0.00    -0.237 OA
ATOM    101  O   UNL A   1      51.847  27.736  20.240  1.00  0.00    -0.237 OA
ATOM    102  O   UNL A   1      49.421  27.312  20.388  1.00  0.00    -0.744 OA
ENDBRANCH  96  99
ENDBRANCH  69  92
ENDBRANCH  43  44
ENDBRANCH  35  38
ENDBRANCH  33  34
ENDBRANCH  32  33
ENDBRANCH  31  32
ENDBRANCH   1  31
TORSDOF 19
ENDMDL
