MODEL 1
REMARK VINA RESULT:     -12.4      0.000      0.000
REMARK SMILES O=C(NCCCCCCNC(=O)c1ccc(-c2c3nc(c(-c4cccc(S(=O)(=O)[O-])c4F)c4ccc([nH]4)c(-c4cccc(S(=O)(=O)[O-])c4F)c4nc(c(-c5cccc(S(=O)(=O)[O-])c5F)c5ccc2[nH]5)C=C4)C=C3)cc1)C1=Cc2cc(C(F)(F)F)ccc2O[C@@H]1C(F)(F)F
REMARK SMILES IDX 7 1 6 2 5 3 4 4 3 5 1 6 2 7 76 9 77 10 89 11 78 12 88 13
REMARK SMILES IDX 79 14 87 15 80 16 86 17 85 18 90 19 91 20 92 21 93 22 81 23
REMARK SMILES IDX 82 24 83 25 84 26 8 27 9 28 10 29 11 30 12 32 13 33 14 34
REMARK SMILES IDX 75 35 15 36 74 37 16 38 17 39 18 40 68 41 19 42 73 43 67 44
REMARK SMILES IDX 69 45 20 46 72 47 66 48 65 49 21 51 53 52 33 53 52 54 34 55
REMARK SMILES IDX 37 56 51 57 70 58 35 59 36 60 50 62 71 63 38 64 22 65 23 66
REMARK SMILES IDX 31 67 24 68 26 69 32 70 25 71 27 72 28 73 29 74 30 75 54 76
REMARK SMILES IDX 55 77 63 78 56 79 58 80 64 81 57 82 59 83 60 84 61 85 62 86
REMARK SMILES IDX 39 87 40 88 48 89 41 90 43 91 49 92 42 93 44 94 45 95 46 96
REMARK SMILES IDX 47 97
REMARK H PARENT 3 8 10 31 69 50 37 61
REMARK Flexibility Score: inf
ROOT
ATOM      1  C   UNL A   1      31.213  29.198  24.680  1.00  0.00     0.002 C 
ENDROOT
BRANCH   1   2
ATOM      2  C   UNL A   1      31.103  28.897  23.181  1.00  0.00     0.002 C 
BRANCH   2   3
ATOM      3  C   UNL A   1      32.076  27.862  22.622  1.00  0.00     0.021 C 
BRANCH   3   4
ATOM      4  C   UNL A   1      31.448  26.634  21.974  1.00  0.00     0.116 C 
BRANCH   4   5
ATOM      5  N   UNL A   1      32.383  25.652  21.456  1.00  0.00    -0.352 N 
ATOM      6  O   UNL A   1      33.498  23.704  21.358  1.00  0.00    -0.270 OA
ATOM      7  C   UNL A   1      32.822  24.487  22.025  1.00  0.00     0.251 C 
ATOM      8  H   UNL A   1      32.756  25.852  20.567  1.00  0.00     0.163 HD
BRANCH   7   9
ATOM      9  C   UNL A   1      32.435  24.079  23.409  1.00  0.00     0.067 C 
ATOM     10  C   UNL A   1      31.763  22.940  23.650  1.00  0.00     0.025 C 
ATOM     11  C   UNL A   1      33.369  24.618  24.468  1.00  0.00     0.314 C 
ATOM     12  C   UNL A   1      32.633  21.933  24.315  1.00  0.00     0.018 A 
ATOM     13  O   UNL A   1      34.310  23.606  24.919  1.00  0.00    -0.475 OA
ATOM     14  C   UNL A   1      32.315  20.580  24.140  1.00  0.00     0.025 A 
ATOM     15  C   UNL A   1      33.893  22.302  24.810  1.00  0.00     0.128 A 
ATOM     16  C   UNL A   1      33.296  19.597  24.338  1.00  0.00     0.056 A 
ATOM     17  C   UNL A   1      34.844  21.323  25.085  1.00  0.00     0.048 A 
ATOM     18  C   UNL A   1      34.556  19.979  24.829  1.00  0.00     0.017 A 
BRANCH  11  19
ATOM     19  C   UNL A   1      32.612  25.245  25.649  1.00  0.00     0.429 C 
ATOM     20  F   UNL A   1      31.421  25.756  25.254  1.00  0.00    -0.167 F 
ATOM     21  F   UNL A   1      32.341  24.328  26.610  1.00  0.00    -0.167 F 
ATOM     22  F   UNL A   1      33.304  26.245  26.241  1.00  0.00    -0.167 F 
ENDBRANCH  11  19
BRANCH  16  23
ATOM     23  C   UNL A   1      33.015  18.165  23.941  1.00  0.00     0.416 C 
ATOM     24  F   UNL A   1      32.610  18.041  22.655  1.00  0.00    -0.166 F 
ATOM     25  F   UNL A   1      34.126  17.380  24.069  1.00  0.00    -0.166 F 
ATOM     26  F   UNL A   1      32.070  17.574  24.722  1.00  0.00    -0.166 F 
ENDBRANCH  16  23
ENDBRANCH   7   9
ENDBRANCH   4   5
ENDBRANCH   3   4
ENDBRANCH   2   3
ENDBRANCH   1   2
BRANCH   1  27
ATOM     27  C   UNL A   1      32.616  29.475  25.231  1.00  0.00     0.021 C 
BRANCH  27  28
ATOM     28  C   UNL A   1      32.696  29.902  26.695  1.00  0.00     0.116 C 
BRANCH  28  29
ATOM     29  N   UNL A   1      32.734  31.346  26.859  1.00  0.00    -0.352 N 
ATOM     30  C   UNL A   1      33.626  32.136  27.542  1.00  0.00     0.251 C 
ATOM     31  H   UNL A   1      32.007  31.834  26.409  1.00  0.00     0.163 HD
ATOM     32  O   UNL A   1      33.392  33.333  27.674  1.00  0.00    -0.269 OA
BRANCH  30  33
ATOM     33  C   UNL A   1      34.853  31.554  28.135  1.00  0.00     0.039 A 
ATOM     34  C   UNL A   1      36.002  32.347  28.207  1.00  0.00     0.014 A 
ATOM     35  C   UNL A   1      34.891  30.233  28.587  1.00  0.00     0.014 A 
ATOM     36  C   UNL A   1      37.169  31.834  28.778  1.00  0.00     0.010 A 
ATOM     37  C   UNL A   1      36.032  29.747  29.225  1.00  0.00     0.010 A 
ATOM     38  C   UNL A   1      37.186  30.538  29.318  1.00  0.00    -0.014 A 
BRANCH  38  39
ATOM     39  C   UNL A   1      38.402  30.000  29.983  1.00  0.00     0.031 A 
ATOM     40  C   UNL A   1      38.810  30.494  31.345  1.00  0.00     0.074 A 
ATOM     41  C   UNL A   1      39.184  29.119  29.328  1.00  0.00     0.049 A 
ATOM     42  N   UNL A   1      39.858  30.174  32.060  1.00  0.00    -0.248 NA
ATOM     43  C   UNL A   1      37.940  31.499  31.978  1.00  0.00     0.031 C 
ATOM     44  C   UNL A   1      38.943  28.623  27.972  1.00  0.00     0.029 A 
ATOM     45  N   UNL A   1      40.353  28.505  29.703  1.00  0.00    -0.354 N 
ATOM     46  C   UNL A   1      39.790  30.955  33.207  1.00  0.00     0.074 A 
ATOM     47  C   UNL A   1      38.621  31.797  33.074  1.00  0.00     0.031 C 
ATOM     48  C   UNL A   1      39.932  27.784  27.628  1.00  0.00     0.029 A 
ATOM     49  C   UNL A   1      40.894  27.706  28.723  1.00  0.00     0.049 A 
ATOM     50  H   UNL A   1      40.766  28.626  30.589  1.00  0.00     0.167 HD
ATOM     51  C   UNL A   1      40.607  30.955  34.288  1.00  0.00     0.034 A 
ATOM     52  C   UNL A   1      42.041  26.998  28.701  1.00  0.00     0.034 A 
ATOM     53  C   UNL A   1      41.755  30.098  34.428  1.00  0.00     0.049 A 
ATOM     54  C   UNL A   1      42.917  26.987  29.924  1.00  0.00     0.074 A 
ATOM     55  C   UNL A   1      42.602  29.964  35.515  1.00  0.00     0.029 A 
ATOM     56  N   UNL A   1      42.225  29.237  33.448  1.00  0.00    -0.354 N 
ATOM     57  N   UNL A   1      42.753  27.617  31.062  1.00  0.00    -0.248 NA
ATOM     58  C   UNL A   1      44.116  26.138  29.875  1.00  0.00     0.031 C 
ATOM     59  C   UNL A   1      43.602  29.045  35.179  1.00  0.00     0.029 A 
ATOM     60  C   UNL A   1      43.356  28.577  33.899  1.00  0.00     0.049 A 
ATOM     61  H   UNL A   1      41.814  29.113  32.562  1.00  0.00     0.167 HD
ATOM     62  C   UNL A   1      43.806  27.217  31.875  1.00  0.00     0.074 A 
ATOM     63  C   UNL A   1      44.592  26.274  31.106  1.00  0.00     0.031 C 
ATOM     64  C   UNL A   1      44.105  27.606  33.140  1.00  0.00     0.034 A 
BRANCH  51  65
ATOM     65  C   UNL A   1      40.258  31.880  35.427  1.00  0.00     0.023 A 
ATOM     66  C   UNL A   1      40.991  33.072  35.606  1.00  0.00     0.012 A 
ATOM     67  C   UNL A   1      39.185  31.596  36.295  1.00  0.00     0.148 A 
ATOM     68  C   UNL A   1      40.695  33.941  36.653  1.00  0.00     0.002 A 
ATOM     69  C   UNL A   1      38.864  32.492  37.308  1.00  0.00     0.091 A 
ATOM     70  F   UNL A   1      38.509  30.451  36.124  1.00  0.00    -0.205 F 
ATOM     71  C   UNL A   1      39.626  33.656  37.498  1.00  0.00     0.022 A 
BRANCH  69  72
ATOM     72  S   UNL A   1      37.455  32.258  38.398  1.00  0.00     0.127 S 
ATOM     73  O   UNL A   1      36.417  33.021  37.705  1.00  0.00    -0.237 OA
ATOM     74  O   UNL A   1      37.272  30.806  38.358  1.00  0.00    -0.237 OA
ATOM     75  O   UNL A   1      37.859  32.784  39.694  1.00  0.00    -0.744 OA
ENDBRANCH  69  72
ENDBRANCH  51  65
BRANCH  52  76
ATOM     76  C   UNL A   1      42.393  26.201  27.492  1.00  0.00     0.023 A 
ATOM     77  C   UNL A   1      43.137  26.798  26.456  1.00  0.00     0.012 A 
ATOM     78  C   UNL A   1      42.034  24.843  27.386  1.00  0.00     0.148 A 
ATOM     79  C   UNL A   1      43.492  26.065  25.323  1.00  0.00     0.002 A 
ATOM     80  C   UNL A   1      42.441  24.103  26.283  1.00  0.00     0.091 A 
ATOM     81  F   UNL A   1      41.318  24.296  28.380  1.00  0.00    -0.205 F 
ATOM     82  C   UNL A   1      43.154  24.716  25.242  1.00  0.00     0.022 A 
BRANCH  80  83
ATOM     83  S   UNL A   1      42.174  22.332  26.158  1.00  0.00     0.127 S 
ATOM     84  O   UNL A   1      40.718  22.253  26.072  1.00  0.00    -0.237 OA
ATOM     85  O   UNL A   1      42.884  22.007  24.920  1.00  0.00    -0.237 OA
ATOM     86  O   UNL A   1      42.768  21.756  27.358  1.00  0.00    -0.744 OA
ENDBRANCH  80  83
ENDBRANCH  52  76
BRANCH  64  87
ATOM     87  C   UNL A   1      45.313  26.988  33.795  1.00  0.00     0.023 A 
ATOM     88  C   UNL A   1      46.563  27.635  33.720  1.00  0.00     0.012 A 
ATOM     89  C   UNL A   1      45.192  25.803  34.548  1.00  0.00     0.148 A 
ATOM     90  C   UNL A   1      47.680  27.092  34.354  1.00  0.00     0.002 A 
ATOM     91  C   UNL A   1      46.298  25.297  35.220  1.00  0.00     0.091 A 
ATOM     92  F   UNL A   1      43.998  25.194  34.593  1.00  0.00    -0.205 F 
ATOM     93  C   UNL A   1      47.546  25.932  35.114  1.00  0.00     0.022 A 
BRANCH  91  94
ATOM     94  S   UNL A   1      46.197  23.864  36.299  1.00  0.00     0.127 S 
ATOM     95  O   UNL A   1      45.879  22.798  35.350  1.00  0.00    -0.237 OA
ATOM     96  O   UNL A   1      47.548  23.802  36.857  1.00  0.00    -0.237 OA
ATOM     97  O   UNL A   1      45.155  24.164  37.271  1.00  0.00    -0.744 OA
ENDBRANCH  91  94
ENDBRANCH  64  87
ENDBRANCH  38  39
ENDBRANCH  30  33
ENDBRANCH  28  29
ENDBRANCH  27  28
ENDBRANCH   1  27
TORSDOF 18
ENDMDL
MODEL 2
REMARK VINA RESULT:     -12.3      5.062      9.970
REMARK SMILES O=C(NCCCCCCNC(=O)c1ccc(-c2c3nc(c(-c4cccc(S(=O)(=O)[O-])c4F)c4ccc([nH]4)c(-c4cccc(S(=O)(=O)[O-])c4F)c4nc(c(-c5cccc(S(=O)(=O)[O-])c5F)c5ccc2[nH]5)C=C4)C=C3)cc1)C1=Cc2cc(C(F)(F)F)ccc2O[C@@H]1C(F)(F)F
REMARK SMILES IDX 7 1 6 2 5 3 4 4 3 5 1 6 2 7 76 9 77 10 89 11 78 12 88 13
REMARK SMILES IDX 79 14 87 15 80 16 86 17 85 18 90 19 91 20 92 21 93 22 81 23
REMARK SMILES IDX 82 24 83 25 84 26 8 27 9 28 10 29 11 30 12 32 13 33 14 34
REMARK SMILES IDX 75 35 15 36 74 37 16 38 17 39 18 40 68 41 19 42 73 43 67 44
REMARK SMILES IDX 69 45 20 46 72 47 66 48 65 49 21 51 53 52 33 53 52 54 34 55
REMARK SMILES IDX 37 56 51 57 70 58 35 59 36 60 50 62 71 63 38 64 22 65 23 66
REMARK SMILES IDX 31 67 24 68 26 69 32 70 25 71 27 72 28 73 29 74 30 75 54 76
REMARK SMILES IDX 55 77 63 78 56 79 58 80 64 81 57 82 59 83 60 84 61 85 62 86
REMARK SMILES IDX 39 87 40 88 48 89 41 90 43 91 49 92 42 93 44 94 45 95 46 96
REMARK SMILES IDX 47 97
REMARK H PARENT 3 8 10 31 69 50 37 61
REMARK Flexibility Score: inf
ROOT
ATOM      1  C   UNL A   1      35.002  22.060  26.195  1.00  0.00     0.002 C 
ENDROOT
BRANCH   1   2
ATOM      2  C   UNL A   1      33.617  21.951  26.846  1.00  0.00     0.002 C 
BRANCH   2   3
ATOM      3  C   UNL A   1      32.415  22.076  25.912  1.00  0.00     0.021 C 
BRANCH   3   4
ATOM      4  C   UNL A   1      31.191  22.776  26.490  1.00  0.00     0.116 C 
BRANCH   4   5
ATOM      5  N   UNL A   1      31.399  24.147  26.920  1.00  0.00    -0.352 N 
ATOM      6  O   UNL A   1      31.424  26.387  26.758  1.00  0.00    -0.270 OA
ATOM      7  C   UNL A   1      31.383  25.300  26.184  1.00  0.00     0.251 C 
ATOM      8  H   UNL A   1      31.576  24.264  27.882  1.00  0.00     0.163 HD
BRANCH   7   9
ATOM      9  C   UNL A   1      31.227  25.296  24.698  1.00  0.00     0.067 C 
ATOM     10  C   UNL A   1      30.059  25.606  24.108  1.00  0.00     0.025 C 
ATOM     11  C   UNL A   1      32.518  25.581  23.966  1.00  0.00     0.314 C 
ATOM     12  C   UNL A   1      30.135  26.926  23.427  1.00  0.00     0.018 A 
ATOM     13  O   UNL A   1      32.579  26.957  23.502  1.00  0.00    -0.475 OA
ATOM     14  C   UNL A   1      28.943  27.642  23.259  1.00  0.00     0.025 A 
ATOM     15  C   UNL A   1      31.372  27.568  23.262  1.00  0.00     0.128 A 
ATOM     16  C   UNL A   1      28.981  29.030  23.052  1.00  0.00     0.056 A 
ATOM     17  C   UNL A   1      31.413  28.930  22.977  1.00  0.00     0.048 A 
ATOM     18  C   UNL A   1      30.225  29.662  22.895  1.00  0.00     0.017 A 
BRANCH  11  19
ATOM     19  C   UNL A   1      32.768  24.592  22.817  1.00  0.00     0.429 C 
ATOM     20  F   UNL A   1      32.282  25.066  21.645  1.00  0.00    -0.167 F 
ATOM     21  F   UNL A   1      34.092  24.372  22.628  1.00  0.00    -0.167 F 
ATOM     22  F   UNL A   1      32.194  23.386  23.033  1.00  0.00    -0.167 F 
ENDBRANCH  11  19
BRANCH  16  23
ATOM     23  C   UNL A   1      27.697  29.828  23.088  1.00  0.00     0.416 C 
ATOM     24  F   UNL A   1      27.764  30.904  23.909  1.00  0.00    -0.166 F 
ATOM     25  F   UNL A   1      27.371  30.312  21.852  1.00  0.00    -0.166 F 
ATOM     26  F   UNL A   1      26.623  29.090  23.475  1.00  0.00    -0.166 F 
ENDBRANCH  16  23
ENDBRANCH   7   9
ENDBRANCH   4   5
ENDBRANCH   3   4
ENDBRANCH   2   3
ENDBRANCH   1   2
BRANCH   1  27
ATOM     27  C   UNL A   1      35.312  23.353  25.434  1.00  0.00     0.021 C 
BRANCH  27  28
ATOM     28  C   UNL A   1      36.789  23.705  25.270  1.00  0.00     0.116 C 
BRANCH  28  29
ATOM     29  N   UNL A   1      37.674  22.655  25.746  1.00  0.00    -0.352 N 
ATOM     30  C   UNL A   1      38.870  22.742  26.415  1.00  0.00     0.251 C 
ATOM     31  H   UNL A   1      37.368  21.738  25.560  1.00  0.00     0.163 HD
ATOM     32  O   UNL A   1      39.532  21.726  26.600  1.00  0.00    -0.269 OA
BRANCH  30  33
ATOM     33  C   UNL A   1      39.375  24.049  26.896  1.00  0.00     0.039 A 
ATOM     34  C   UNL A   1      40.031  24.888  25.990  1.00  0.00     0.014 A 
ATOM     35  C   UNL A   1      39.236  24.441  28.229  1.00  0.00     0.014 A 
ATOM     36  C   UNL A   1      40.501  26.135  26.407  1.00  0.00     0.010 A 
ATOM     37  C   UNL A   1      39.638  25.716  28.627  1.00  0.00     0.010 A 
ATOM     38  C   UNL A   1      40.284  26.573  27.723  1.00  0.00    -0.014 A 
BRANCH  38  39
ATOM     39  C   UNL A   1      40.724  27.922  28.167  1.00  0.00     0.031 A 
ATOM     40  C   UNL A   1      42.187  28.271  28.212  1.00  0.00     0.074 A 
ATOM     41  C   UNL A   1      39.809  28.810  28.601  1.00  0.00     0.049 A 
ATOM     42  N   UNL A   1      42.759  29.379  28.610  1.00  0.00    -0.248 NA
ATOM     43  C   UNL A   1      43.134  27.232  27.776  1.00  0.00     0.031 C 
ATOM     44  C   UNL A   1      38.367  28.565  28.684  1.00  0.00     0.029 A 
ATOM     45  N   UNL A   1      39.956  30.089  29.081  1.00  0.00    -0.354 N 
ATOM     46  C   UNL A   1      44.127  29.161  28.502  1.00  0.00     0.074 A 
ATOM     47  C   UNL A   1      44.301  27.800  28.041  1.00  0.00     0.031 C 
ATOM     48  C   UNL A   1      37.764  29.654  29.185  1.00  0.00     0.029 A 
ATOM     49  C   UNL A   1      38.774  30.662  29.489  1.00  0.00     0.049 A 
ATOM     50  H   UNL A   1      40.824  30.550  29.129  1.00  0.00     0.167 HD
ATOM     51  C   UNL A   1      45.148  30.021  28.735  1.00  0.00     0.034 A 
ATOM     52  C   UNL A   1      38.531  31.861  30.056  1.00  0.00     0.034 A 
ATOM     53  C   UNL A   1      44.971  31.381  29.168  1.00  0.00     0.049 A 
ATOM     54  C   UNL A   1      39.675  32.812  30.277  1.00  0.00     0.074 A 
ATOM     55  C   UNL A   1      45.934  32.357  29.358  1.00  0.00     0.029 A 
ATOM     56  N   UNL A   1      43.750  31.957  29.490  1.00  0.00    -0.354 N 
ATOM     57  N   UNL A   1      40.950  32.642  30.023  1.00  0.00    -0.248 NA
ATOM     58  C   UNL A   1      39.344  34.135  30.826  1.00  0.00     0.031 C 
ATOM     59  C   UNL A   1      45.299  33.513  29.825  1.00  0.00     0.029 A 
ATOM     60  C   UNL A   1      43.936  33.271  29.890  1.00  0.00     0.049 A 
ATOM     61  H   UNL A   1      42.881  31.499  29.443  1.00  0.00     0.167 HD
ATOM     62  C   UNL A   1      41.569  33.842  30.349  1.00  0.00     0.074 A 
ATOM     63  C   UNL A   1      40.524  34.740  30.800  1.00  0.00     0.031 C 
ATOM     64  C   UNL A   1      42.884  34.169  30.294  1.00  0.00     0.034 A 
BRANCH  51  65
ATOM     65  C   UNL A   1      46.550  29.526  28.478  1.00  0.00     0.023 A 
ATOM     66  C   UNL A   1      47.136  29.722  27.210  1.00  0.00     0.012 A 
ATOM     67  C   UNL A   1      47.301  28.903  29.494  1.00  0.00     0.148 A 
ATOM     68  C   UNL A   1      48.426  29.268  26.943  1.00  0.00     0.002 A 
ATOM     69  C   UNL A   1      48.605  28.497  29.235  1.00  0.00     0.091 A 
ATOM     70  F   UNL A   1      46.724  28.707  30.689  1.00  0.00    -0.205 F 
ATOM     71  C   UNL A   1      49.163  28.664  27.957  1.00  0.00     0.022 A 
BRANCH  69  72
ATOM     72  S   UNL A   1      49.667  27.784  30.497  1.00  0.00     0.127 S 
ATOM     73  O   UNL A   1      49.627  28.816  31.533  1.00  0.00    -0.237 OA
ATOM     74  O   UNL A   1      48.955  26.551  30.838  1.00  0.00    -0.237 OA
ATOM     75  O   UNL A   1      50.963  27.582  29.864  1.00  0.00    -0.744 OA
ENDBRANCH  69  72
ENDBRANCH  51  65
BRANCH  52  76
ATOM     76  C   UNL A   1      37.133  32.242  30.403  1.00  0.00     0.023 A 
ATOM     77  C   UNL A   1      36.655  32.023  31.710  1.00  0.00     0.012 A 
ATOM     78  C   UNL A   1      36.291  32.862  29.458  1.00  0.00     0.148 A 
ATOM     79  C   UNL A   1      35.355  32.388  32.061  1.00  0.00     0.002 A 
ATOM     80  C   UNL A   1      35.019  33.277  29.832  1.00  0.00     0.091 A 
ATOM     81  F   UNL A   1      36.763  33.054  28.218  1.00  0.00    -0.205 F 
ATOM     82  C   UNL A   1      34.541  33.024  31.126  1.00  0.00     0.022 A 
BRANCH  80  83
ATOM     83  S   UNL A   1      33.956  34.227  28.739  1.00  0.00     0.127 S 
ATOM     84  O   UNL A   1      33.607  33.237  27.724  1.00  0.00    -0.237 OA
ATOM     85  O   UNL A   1      32.862  34.603  29.637  1.00  0.00    -0.237 OA
ATOM     86  O   UNL A   1      34.763  35.348  28.278  1.00  0.00    -0.744 OA
ENDBRANCH  80  83
ENDBRANCH  52  76
BRANCH  64  87
ATOM     87  C   UNL A   1      43.275  35.568  30.696  1.00  0.00     0.023 A 
ATOM     88  C   UNL A   1      43.688  35.831  32.017  1.00  0.00     0.012 A 
ATOM     89  C   UNL A   1      43.303  36.605  29.743  1.00  0.00     0.148 A 
ATOM     90  C   UNL A   1      44.089  37.113  32.392  1.00  0.00     0.002 A 
ATOM     91  C   UNL A   1      43.752  37.867  30.110  1.00  0.00     0.091 A 
ATOM     92  F   UNL A   1      42.890  36.338  28.495  1.00  0.00    -0.205 F 
ATOM     93  C   UNL A   1      44.133  38.127  31.437  1.00  0.00     0.022 A 
BRANCH  91  94
ATOM     94  S   UNL A   1      43.936  39.207  28.928  1.00  0.00     0.127 S 
ATOM     95  O   UNL A   1      44.614  40.223  29.733  1.00  0.00    -0.237 OA
ATOM     96  O   UNL A   1      44.769  38.594  27.893  1.00  0.00    -0.237 OA
ATOM     97  O   UNL A   1      42.589  39.551  28.496  1.00  0.00    -0.744 OA
ENDBRANCH  91  94
ENDBRANCH  64  87
ENDBRANCH  38  39
ENDBRANCH  30  33
ENDBRANCH  28  29
ENDBRANCH  27  28
ENDBRANCH   1  27
TORSDOF 18
ENDMDL
MODEL 3
REMARK VINA RESULT:     -12.2      2.117      8.075
REMARK SMILES O=C(NCCCCCCNC(=O)c1ccc(-c2c3nc(c(-c4cccc(S(=O)(=O)[O-])c4F)c4ccc([nH]4)c(-c4cccc(S(=O)(=O)[O-])c4F)c4nc(c(-c5cccc(S(=O)(=O)[O-])c5F)c5ccc2[nH]5)C=C4)C=C3)cc1)C1=Cc2cc(C(F)(F)F)ccc2O[C@@H]1C(F)(F)F
REMARK SMILES IDX 7 1 6 2 5 3 4 4 3 5 1 6 2 7 76 9 77 10 89 11 78 12 88 13
REMARK SMILES IDX 79 14 87 15 80 16 86 17 85 18 90 19 91 20 92 21 93 22 81 23
REMARK SMILES IDX 82 24 83 25 84 26 8 27 9 28 10 29 11 30 12 32 13 33 14 34
REMARK SMILES IDX 75 35 15 36 74 37 16 38 17 39 18 40 68 41 19 42 73 43 67 44
REMARK SMILES IDX 69 45 20 46 72 47 66 48 65 49 21 51 53 52 33 53 52 54 34 55
REMARK SMILES IDX 37 56 51 57 70 58 35 59 36 60 50 62 71 63 38 64 22 65 23 66
REMARK SMILES IDX 31 67 24 68 26 69 32 70 25 71 27 72 28 73 29 74 30 75 54 76
REMARK SMILES IDX 55 77 63 78 56 79 58 80 64 81 57 82 59 83 60 84 61 85 62 86
REMARK SMILES IDX 39 87 40 88 48 89 41 90 43 91 49 92 42 93 44 94 45 95 46 96
REMARK SMILES IDX 47 97
REMARK H PARENT 3 8 10 31 69 50 37 61
REMARK Flexibility Score: inf
ROOT
ATOM      1  C   UNL A   1      31.357  28.253  24.107  1.00  0.00     0.002 C 
ENDROOT
BRANCH   1   2
ATOM      2  C   UNL A   1      30.372  27.213  24.654  1.00  0.00     0.002 C 
BRANCH   2   3
ATOM      3  C   UNL A   1      30.848  26.385  25.845  1.00  0.00     0.021 C 
BRANCH   3   4
ATOM      4  C   UNL A   1      30.306  24.963  25.931  1.00  0.00     0.116 C 
BRANCH   4   5
ATOM      5  N   UNL A   1      31.053  24.060  26.787  1.00  0.00    -0.352 N 
ATOM      6  O   UNL A   1      32.833  22.906  27.529  1.00  0.00    -0.270 OA
ATOM      7  C   UNL A   1      32.302  23.529  26.610  1.00  0.00     0.251 C 
ATOM      8  H   UNL A   1      30.596  23.790  27.617  1.00  0.00     0.163 HD
BRANCH   7   9
ATOM      9  C   UNL A   1      33.096  23.755  25.364  1.00  0.00     0.067 C 
ATOM     10  C   UNL A   1      34.187  24.539  25.352  1.00  0.00     0.025 C 
ATOM     11  C   UNL A   1      33.009  22.602  24.390  1.00  0.00     0.314 C 
ATOM     12  C   UNL A   1      35.427  23.733  25.197  1.00  0.00     0.018 A 
ATOM     13  O   UNL A   1      34.191  21.760  24.450  1.00  0.00    -0.475 OA
ATOM     14  C   UNL A   1      36.619  24.265  25.704  1.00  0.00     0.025 A 
ATOM     15  C   UNL A   1      35.349  22.372  24.863  1.00  0.00     0.128 A 
ATOM     16  C   UNL A   1      37.697  23.417  26.000  1.00  0.00     0.056 A 
ATOM     17  C   UNL A   1      36.445  21.541  25.080  1.00  0.00     0.048 A 
ATOM     18  C   UNL A   1      37.606  22.056  25.666  1.00  0.00     0.017 A 
BRANCH  11  19
ATOM     19  C   UNL A   1      32.728  23.072  22.954  1.00  0.00     0.429 C 
ATOM     20  F   UNL A   1      33.771  23.777  22.455  1.00  0.00    -0.167 F 
ATOM     21  F   UNL A   1      32.531  22.024  22.117  1.00  0.00    -0.167 F 
ATOM     22  F   UNL A   1      31.630  23.858  22.867  1.00  0.00    -0.167 F 
ENDBRANCH  11  19
BRANCH  16  23
ATOM     23  C   UNL A   1      38.896  23.960  26.746  1.00  0.00     0.416 C 
ATOM     24  F   UNL A   1      39.628  24.831  26.011  1.00  0.00    -0.166 F 
ATOM     25  F   UNL A   1      38.523  24.633  27.875  1.00  0.00    -0.166 F 
ATOM     26  F   UNL A   1      39.740  22.984  27.176  1.00  0.00    -0.166 F 
ENDBRANCH  16  23
ENDBRANCH   7   9
ENDBRANCH   4   5
ENDBRANCH   3   4
ENDBRANCH   2   3
ENDBRANCH   1   2
BRANCH   1  27
ATOM     27  C   UNL A   1      32.847  27.908  24.190  1.00  0.00     0.021 C 
BRANCH  27  28
ATOM     28  C   UNL A   1      33.726  28.885  24.967  1.00  0.00     0.116 C 
BRANCH  28  29
ATOM     29  N   UNL A   1      32.979  30.008  25.508  1.00  0.00    -0.352 N 
ATOM     30  C   UNL A   1      33.210  30.768  26.629  1.00  0.00     0.251 C 
ATOM     31  H   UNL A   1      32.183  30.266  24.990  1.00  0.00     0.163 HD
ATOM     32  O   UNL A   1      32.368  31.586  26.987  1.00  0.00    -0.269 OA
BRANCH  30  33
ATOM     33  C   UNL A   1      34.453  30.595  27.416  1.00  0.00     0.039 A 
ATOM     34  C   UNL A   1      34.698  29.356  28.017  1.00  0.00     0.014 A 
ATOM     35  C   UNL A   1      35.358  31.644  27.595  1.00  0.00     0.014 A 
ATOM     36  C   UNL A   1      35.870  29.155  28.749  1.00  0.00     0.010 A 
ATOM     37  C   UNL A   1      36.562  31.421  28.262  1.00  0.00     0.010 A 
ATOM     38  C   UNL A   1      36.827  30.178  28.855  1.00  0.00    -0.014 A 
BRANCH  38  39
ATOM     39  C   UNL A   1      38.107  29.960  29.580  1.00  0.00     0.031 A 
ATOM     40  C   UNL A   1      39.172  29.071  28.998  1.00  0.00     0.074 A 
ATOM     41  C   UNL A   1      38.280  30.503  30.801  1.00  0.00     0.049 A 
ATOM     42  N   UNL A   1      40.330  28.731  29.504  1.00  0.00    -0.248 NA
ATOM     43  C   UNL A   1      38.892  28.465  27.686  1.00  0.00     0.031 C 
ATOM     44  C   UNL A   1      37.291  31.318  31.511  1.00  0.00     0.029 A 
ATOM     45  N   UNL A   1      39.337  30.431  31.674  1.00  0.00    -0.354 N 
ATOM     46  C   UNL A   1      40.901  27.851  28.592  1.00  0.00     0.074 A 
ATOM     47  C   UNL A   1      39.943  27.677  27.520  1.00  0.00     0.031 C 
ATOM     48  C   UNL A   1      37.786  31.667  32.708  1.00  0.00     0.029 A 
ATOM     49  C   UNL A   1      39.112  31.078  32.866  1.00  0.00     0.049 A 
ATOM     50  H   UNL A   1      40.177  29.960  31.465  1.00  0.00     0.167 HD
ATOM     51  C   UNL A   1      42.121  27.263  28.624  1.00  0.00     0.034 A 
ATOM     52  C   UNL A   1      39.880  31.178  33.969  1.00  0.00     0.034 A 
ATOM     53  C   UNL A   1      43.080  27.459  29.678  1.00  0.00     0.049 A 
ATOM     54  C   UNL A   1      41.244  30.544  33.971  1.00  0.00     0.074 A 
ATOM     55  C   UNL A   1      44.373  26.972  29.767  1.00  0.00     0.029 A 
ATOM     56  N   UNL A   1      42.850  28.192  30.832  1.00  0.00    -0.354 N 
ATOM     57  N   UNL A   1      41.828  29.841  33.031  1.00  0.00    -0.248 NA
ATOM     58  C   UNL A   1      42.071  30.747  35.169  1.00  0.00     0.031 C 
ATOM     59  C   UNL A   1      44.913  27.385  30.990  1.00  0.00     0.029 A 
ATOM     60  C   UNL A   1      43.971  28.161  31.646  1.00  0.00     0.049 A 
ATOM     61  H   UNL A   1      42.013  28.664  31.043  1.00  0.00     0.167 HD
ATOM     62  C   UNL A   1      43.100  29.547  33.507  1.00  0.00     0.074 A 
ATOM     63  C   UNL A   1      43.209  30.166  34.813  1.00  0.00     0.031 C 
ATOM     64  C   UNL A   1      44.084  28.818  32.924  1.00  0.00     0.034 A 
BRANCH  51  65
ATOM     65  C   UNL A   1      42.504  26.388  27.456  1.00  0.00     0.023 A 
ATOM     66  C   UNL A   1      42.932  26.984  26.251  1.00  0.00     0.012 A 
ATOM     67  C   UNL A   1      42.480  24.984  27.559  1.00  0.00     0.148 A 
ATOM     68  C   UNL A   1      43.285  26.200  25.154  1.00  0.00     0.002 A 
ATOM     69  C   UNL A   1      42.880  24.208  26.477  1.00  0.00     0.091 A 
ATOM     70  F   UNL A   1      42.054  24.432  28.704  1.00  0.00    -0.205 F 
ATOM     71  C   UNL A   1      43.268  24.813  25.270  1.00  0.00     0.022 A 
BRANCH  69  72
ATOM     72  S   UNL A   1      42.973  22.415  26.550  1.00  0.00     0.127 S 
ATOM     73  O   UNL A   1      44.376  22.179  26.211  1.00  0.00    -0.237 OA
ATOM     74  O   UNL A   1      42.631  22.146  27.948  1.00  0.00    -0.237 OA
ATOM     75  O   UNL A   1      42.003  21.923  25.583  1.00  0.00    -0.744 OA
ENDBRANCH  69  72
ENDBRANCH  51  65
BRANCH  52  76
ATOM     76  C   UNL A   1      39.389  31.955  35.143  1.00  0.00     0.023 A 
ATOM     77  C   UNL A   1      38.563  31.329  36.097  1.00  0.00     0.012 A 
ATOM     78  C   UNL A   1      39.774  33.295  35.340  1.00  0.00     0.148 A 
ATOM     79  C   UNL A   1      38.107  32.033  37.211  1.00  0.00     0.002 A 
ATOM     80  C   UNL A   1      39.364  33.972  36.482  1.00  0.00     0.091 A 
ATOM     81  F   UNL A   1      40.553  33.875  34.415  1.00  0.00    -0.205 F 
ATOM     82  C   UNL A   1      38.515  33.350  37.410  1.00  0.00     0.022 A 
BRANCH  80  83
ATOM     83  S   UNL A   1      39.953  35.619  36.890  1.00  0.00     0.127 S 
ATOM     84  O   UNL A   1      39.258  35.883  38.148  1.00  0.00    -0.237 OA
ATOM     85  O   UNL A   1      41.395  35.400  37.016  1.00  0.00    -0.237 OA
ATOM     86  O   UNL A   1      39.572  36.466  35.768  1.00  0.00    -0.744 OA
ENDBRANCH  80  83
ENDBRANCH  52  76
BRANCH  64  87
ATOM     87  C   UNL A   1      45.385  28.675  33.671  1.00  0.00     0.023 A 
ATOM     88  C   UNL A   1      46.407  29.630  33.496  1.00  0.00     0.012 A 
ATOM     89  C   UNL A   1      45.565  27.633  34.602  1.00  0.00     0.148 A 
ATOM     90  C   UNL A   1      47.600  29.529  34.209  1.00  0.00     0.002 A 
ATOM     91  C   UNL A   1      46.736  27.568  35.346  1.00  0.00     0.091 A 
ATOM     92  F   UNL A   1      44.588  26.724  34.741  1.00  0.00    -0.205 F 
ATOM     93  C   UNL A   1      47.761  28.508  35.142  1.00  0.00     0.022 A 
BRANCH  91  94
ATOM     94  S   UNL A   1      46.991  26.347  36.639  1.00  0.00     0.127 S 
ATOM     95  O   UNL A   1      48.285  26.755  37.184  1.00  0.00    -0.237 OA
ATOM     96  O   UNL A   1      45.851  26.592  37.524  1.00  0.00    -0.237 OA
ATOM     97  O   UNL A   1      46.974  25.051  35.977  1.00  0.00    -0.744 OA
ENDBRANCH  91  94
ENDBRANCH  64  87
ENDBRANCH  38  39
ENDBRANCH  30  33
ENDBRANCH  28  29
ENDBRANCH  27  28
ENDBRANCH   1  27
TORSDOF 18
ENDMDL
