MODEL 1
REMARK VINA RESULT:      -9.4      0.000      0.000
REMARK SMILES COc1ccc(-n2c(SCc3cn(-c4ccc(C(=O)NCCCCCCNC(=O)c5ccc(-c6c7nc(c(-c8cccc(S(=O)(=O)[O-])c8F)c8ccc([nH]8)c(-c8cccc(S(=O)(=O)[O-])c8F)c8nc(c(-c9cccc(S(=O)(=O)[O-])c9F)c9ccc6[nH]9)C=C8)C=C7)cc5)cc4)nn3)nc3ccccc3c2=O)cc1
REMARK SMILES IDX 22 1 21 2 20 3 18 4 19 5 17 7 14 8 15 9 94 10 16 11 93 12
REMARK SMILES IDX 13 13 11 14 12 15 96 16 95 17 10 18 9 19 8 20 7 21 104 22
REMARK SMILES IDX 97 23 103 24 105 25 98 26 102 27 99 28 101 29 100 30 6 31
REMARK SMILES IDX 3 32 4 33 107 34 5 35 106 36 2 37 1 38 23 39 24 40 25 41
REMARK SMILES IDX 26 42 27 43 28 44 29 46 30 47 31 48 92 49 32 50 91 51 33 52
REMARK SMILES IDX 34 53 35 54 85 55 36 56 90 57 84 58 86 59 37 60 89 61 83 62
REMARK SMILES IDX 82 63 38 65 70 66 50 67 69 68 51 69 54 70 68 71 87 72 52 73
REMARK SMILES IDX 53 74 67 76 88 77 55 78 39 79 40 80 48 81 41 82 43 83 49 84
REMARK SMILES IDX 42 85 44 86 45 87 46 88 47 89 71 90 72 91 80 92 73 93 75 94
REMARK SMILES IDX 81 95 74 96 76 97 77 98 78 99 79 100 56 101 57 102 65 103
REMARK SMILES IDX 58 104 60 105 66 106 59 107 61 108 62 109 63 110 64 111
REMARK H PARENT 20 6 27 45 86 64 54 75
REMARK Flexibility Score: inf
ROOT
ATOM      1  C   UNL A   1      39.022  33.344  32.105  1.00  0.00     0.021 C 
ENDROOT
BRANCH   1   2
ATOM      2  C   UNL A   1      39.381  34.182  33.336  1.00  0.00     0.116 C 
BRANCH   2   3
ATOM      3  N   UNL A   1      40.587  33.676  33.965  1.00  0.00    -0.352 N 
ATOM      4  C   UNL A   1      40.815  33.168  35.220  1.00  0.00     0.251 C 
ATOM      5  O   UNL A   1      41.939  32.742  35.482  1.00  0.00    -0.269 OA
ATOM      6  H   UNL A   1      41.385  33.703  33.390  1.00  0.00     0.163 HD
BRANCH   4   7
ATOM      7  C   UNL A   1      39.728  33.035  36.222  1.00  0.00     0.039 A 
ATOM      8  C   UNL A   1      37.899  32.731  38.269  1.00  0.00     0.066 A 
ATOM      9  C   UNL A   1      38.687  33.882  38.239  1.00  0.00     0.029 A 
ATOM     10  C   UNL A   1      37.954  31.774  37.265  1.00  0.00     0.029 A 
ATOM     11  C   UNL A   1      39.634  34.010  37.227  1.00  0.00     0.016 A 
ATOM     12  C   UNL A   1      38.809  31.984  36.204  1.00  0.00     0.016 A 
BRANCH   8  13
ATOM     13  N   UNL A   1      36.958  32.541  39.273  1.00  0.00    -0.220 N 
ATOM     14  C   UNL A   1      36.006  32.237  41.179  1.00  0.00     0.093 A 
ATOM     15  C   UNL A   1      37.121  32.786  40.609  1.00  0.00     0.141 A 
ATOM     16  N   UNL A   1      35.228  31.698  40.188  1.00  0.00    -0.134 NA
ATOM     17  N   UNL A   1      35.758  32.004  39.022  1.00  0.00    -0.062 NA
BRANCH  14  18
ATOM     18  C   UNL A   1      35.607  32.259  42.593  1.00  0.00     0.138 C 
BRANCH  18  19
ATOM     19  S   UNL A   1      36.359  30.989  43.589  1.00  0.00    -0.081 SA
BRANCH  19  20
ATOM     20  C   UNL A   1      36.563  31.772  45.214  1.00  0.00     0.176 A 
ATOM     21  N   UNL A   1      37.520  31.140  45.987  1.00  0.00    -0.255 N 
ATOM     22  C   UNL A   1      37.050  30.128  46.816  1.00  0.00     0.266 A 
ATOM     23  N   UNL A   1      35.454  32.134  45.791  1.00  0.00    -0.223 NA
ATOM     24  C   UNL A   1      35.570  29.889  46.684  1.00  0.00     0.066 A 
ATOM     25  O   UNL A   1      37.720  29.429  47.568  1.00  0.00    -0.268 OA
ATOM     26  C   UNL A   1      34.793  30.977  46.237  1.00  0.00     0.079 A 
ATOM     27  C   UNL A   1      35.036  28.605  46.682  1.00  0.00     0.016 A 
ATOM     28  C   UNL A   1      33.458  30.801  45.878  1.00  0.00     0.029 A 
ATOM     29  C   UNL A   1      33.724  28.421  46.228  1.00  0.00     0.001 A 
ATOM     30  C   UNL A   1      32.932  29.514  45.850  1.00  0.00     0.002 A 
BRANCH  21  31
ATOM     31  C   UNL A   1      38.870  31.575  45.949  1.00  0.00     0.052 A 
ATOM     32  C   UNL A   1      41.396  32.549  45.199  1.00  0.00     0.119 A 
ATOM     33  C   UNL A   1      40.458  33.416  45.753  1.00  0.00     0.048 A 
ATOM     34  C   UNL A   1      41.123  31.182  45.138  1.00  0.00     0.048 A 
ATOM     35  C   UNL A   1      39.186  32.935  46.099  1.00  0.00     0.030 A 
ATOM     36  C   UNL A   1      39.872  30.691  45.540  1.00  0.00     0.030 A 
BRANCH  32  37
ATOM     37  O   UNL A   1      42.596  33.066  44.792  1.00  0.00    -0.497 OA
ATOM     38  C   UNL A   1      43.228  32.278  43.777  1.00  0.00     0.278 C 
ENDBRANCH  32  37
ENDBRANCH  21  31
ENDBRANCH  19  20
ENDBRANCH  18  19
ENDBRANCH  14  18
ENDBRANCH   8  13
ENDBRANCH   4   7
ENDBRANCH   2   3
ENDBRANCH   1   2
BRANCH   1  39
ATOM     39  C   UNL A   1      38.041  32.214  32.420  1.00  0.00     0.002 C 
BRANCH  39  40
ATOM     40  C   UNL A   1      36.795  32.648  33.205  1.00  0.00     0.002 C 
BRANCH  40  41
ATOM     41  C   UNL A   1      35.450  32.372  32.518  1.00  0.00     0.021 C 
BRANCH  41  42
ATOM     42  C   UNL A   1      35.244  33.210  31.265  1.00  0.00     0.116 C 
BRANCH  42  43
ATOM     43  N   UNL A   1      34.385  32.517  30.307  1.00  0.00    -0.352 N 
ATOM     44  C   UNL A   1      34.742  31.723  29.238  1.00  0.00     0.251 C 
ATOM     45  H   UNL A   1      33.417  32.632  30.446  1.00  0.00     0.163 HD
ATOM     46  O   UNL A   1      33.954  31.514  28.332  1.00  0.00    -0.269 OA
BRANCH  44  47
ATOM     47  C   UNL A   1      36.090  31.132  29.215  1.00  0.00     0.039 A 
ATOM     48  C   UNL A   1      37.196  31.908  28.863  1.00  0.00     0.014 A 
ATOM     49  C   UNL A   1      36.234  29.788  29.557  1.00  0.00     0.014 A 
ATOM     50  C   UNL A   1      38.462  31.336  28.927  1.00  0.00     0.010 A 
ATOM     51  C   UNL A   1      37.486  29.268  29.757  1.00  0.00     0.010 A 
ATOM     52  C   UNL A   1      38.600  30.018  29.394  1.00  0.00    -0.014 A 
BRANCH  52  53
ATOM     53  C   UNL A   1      39.923  29.468  29.652  1.00  0.00     0.031 A 
ATOM     54  C   UNL A   1      40.322  29.518  31.084  1.00  0.00     0.074 A 
ATOM     55  C   UNL A   1      40.623  28.777  28.726  1.00  0.00     0.049 A 
ATOM     56  N   UNL A   1      41.257  30.236  31.611  1.00  0.00    -0.248 NA
ATOM     57  C   UNL A   1      39.476  28.827  32.073  1.00  0.00     0.031 C 
ATOM     58  C   UNL A   1      40.191  28.384  27.380  1.00  0.00     0.029 A 
ATOM     59  N   UNL A   1      41.814  28.129  28.855  1.00  0.00    -0.354 N 
ATOM     60  C   UNL A   1      41.293  29.869  32.953  1.00  0.00     0.074 A 
ATOM     61  C   UNL A   1      40.045  29.207  33.219  1.00  0.00     0.031 C 
ATOM     62  C   UNL A   1      40.955  27.359  26.946  1.00  0.00     0.029 A 
ATOM     63  C   UNL A   1      42.019  27.130  27.905  1.00  0.00     0.049 A 
ATOM     64  H   UNL A   1      42.471  28.347  29.556  1.00  0.00     0.167 HD
ATOM     65  C   UNL A   1      42.468  29.869  33.643  1.00  0.00     0.034 A 
ATOM     66  C   UNL A   1      42.949  26.142  27.953  1.00  0.00     0.034 A 
ATOM     67  C   UNL A   1      43.480  30.633  32.953  1.00  0.00     0.049 A 
ATOM     68  C   UNL A   1      44.006  26.588  28.891  1.00  0.00     0.074 A 
ATOM     69  C   UNL A   1      43.544  31.913  32.433  1.00  0.00     0.029 A 
ATOM     70  N   UNL A   1      44.490  29.931  32.339  1.00  0.00    -0.354 N 
ATOM     71  N   UNL A   1      44.791  27.601  28.656  1.00  0.00    -0.248 NA
ATOM     72  C   UNL A   1      43.879  26.199  30.286  1.00  0.00     0.031 C 
ATOM     73  C   UNL A   1      44.217  31.760  31.184  1.00  0.00     0.029 A 
ATOM     74  C   UNL A   1      44.608  30.426  31.067  1.00  0.00     0.049 A 
ATOM     75  H   UNL A   1      45.027  29.209  32.738  1.00  0.00     0.167 HD
ATOM     76  C   UNL A   1      44.858  28.264  29.873  1.00  0.00     0.074 A 
ATOM     77  C   UNL A   1      44.368  27.302  30.860  1.00  0.00     0.031 C 
ATOM     78  C   UNL A   1      45.004  29.621  29.934  1.00  0.00     0.034 A 
BRANCH  65  79
ATOM     79  C   UNL A   1      42.838  28.859  34.711  1.00  0.00     0.023 A 
ATOM     80  C   UNL A   1      43.416  29.362  35.898  1.00  0.00     0.012 A 
ATOM     81  C   UNL A   1      42.920  27.462  34.506  1.00  0.00     0.148 A 
ATOM     82  C   UNL A   1      44.105  28.533  36.790  1.00  0.00     0.002 A 
ATOM     83  C   UNL A   1      43.526  26.630  35.439  1.00  0.00     0.091 A 
ATOM     84  F   UNL A   1      42.539  26.924  33.346  1.00  0.00    -0.205 F 
ATOM     85  C   UNL A   1      44.155  27.164  36.565  1.00  0.00     0.022 A 
BRANCH  83  86
ATOM     86  S   UNL A   1      43.563  24.845  35.221  1.00  0.00     0.127 S 
ATOM     87  O   UNL A   1      42.205  24.475  35.604  1.00  0.00    -0.237 OA
ATOM     88  O   UNL A   1      43.863  24.726  33.794  1.00  0.00    -0.237 OA
ATOM     89  O   UNL A   1      44.628  24.363  36.093  1.00  0.00    -0.744 OA
ENDBRANCH  83  86
ENDBRANCH  65  79
BRANCH  66  90
ATOM     90  C   UNL A   1      42.873  24.740  27.467  1.00  0.00     0.023 A 
ATOM     91  C   UNL A   1      41.657  24.032  27.575  1.00  0.00     0.012 A 
ATOM     92  C   UNL A   1      43.884  24.189  26.648  1.00  0.00     0.148 A 
ATOM     93  C   UNL A   1      41.440  22.847  26.859  1.00  0.00     0.002 A 
ATOM     94  C   UNL A   1      43.668  23.005  25.946  1.00  0.00     0.091 A 
ATOM     95  F   UNL A   1      45.020  24.872  26.471  1.00  0.00    -0.205 F 
ATOM     96  C   UNL A   1      42.442  22.338  26.038  1.00  0.00     0.022 A 
BRANCH  94  97
ATOM     97  S   UNL A   1      44.916  22.320  24.847  1.00  0.00     0.127 S 
ATOM     98  O   UNL A   1      45.988  21.975  25.779  1.00  0.00    -0.237 OA
ATOM     99  O   UNL A   1      44.213  21.180  24.266  1.00  0.00    -0.237 OA
ATOM    100  O   UNL A   1      45.255  23.393  23.918  1.00  0.00    -0.744 OA
ENDBRANCH  94  97
ENDBRANCH  66  90
BRANCH  78 101
ATOM    101  C   UNL A   1      45.352  30.377  28.677  1.00  0.00     0.023 A 
ATOM    102  C   UNL A   1      44.381  30.997  27.863  1.00  0.00     0.012 A 
ATOM    103  C   UNL A   1      46.711  30.633  28.424  1.00  0.00     0.148 A 
ATOM    104  C   UNL A   1      44.759  31.839  26.813  1.00  0.00     0.002 A 
ATOM    105  C   UNL A   1      47.081  31.511  27.413  1.00  0.00     0.091 A 
ATOM    106  F   UNL A   1      47.624  30.035  29.206  1.00  0.00    -0.205 F 
ATOM    107  C   UNL A   1      46.109  32.109  26.598  1.00  0.00     0.022 A 
BRANCH 105 108
ATOM    108  S   UNL A   1      48.792  31.994  27.180  1.00  0.00     0.127 S 
ATOM    109  O   UNL A   1      49.403  30.748  26.722  1.00  0.00    -0.237 OA
ATOM    110  O   UNL A   1      48.688  33.038  26.158  1.00  0.00    -0.237 OA
ATOM    111  O   UNL A   1      49.252  32.479  28.476  1.00  0.00    -0.744 OA
ENDBRANCH 105 108
ENDBRANCH  78 101
ENDBRANCH  52  53
ENDBRANCH  44  47
ENDBRANCH  42  43
ENDBRANCH  41  42
ENDBRANCH  40  41
ENDBRANCH  39  40
ENDBRANCH   1  39
TORSDOF 22
ENDMDL
MODEL 2
REMARK VINA RESULT:      -9.3      6.016     11.311
REMARK SMILES COc1ccc(-n2c(SCc3cn(-c4ccc(C(=O)NCCCCCCNC(=O)c5ccc(-c6c7nc(c(-c8cccc(S(=O)(=O)[O-])c8F)c8ccc([nH]8)c(-c8cccc(S(=O)(=O)[O-])c8F)c8nc(c(-c9cccc(S(=O)(=O)[O-])c9F)c9ccc6[nH]9)C=C8)C=C7)cc5)cc4)nn3)nc3ccccc3c2=O)cc1
REMARK SMILES IDX 22 1 21 2 20 3 18 4 19 5 17 7 14 8 15 9 94 10 16 11 93 12
REMARK SMILES IDX 13 13 11 14 12 15 96 16 95 17 10 18 9 19 8 20 7 21 104 22
REMARK SMILES IDX 97 23 103 24 105 25 98 26 102 27 99 28 101 29 100 30 6 31
REMARK SMILES IDX 3 32 4 33 107 34 5 35 106 36 2 37 1 38 23 39 24 40 25 41
REMARK SMILES IDX 26 42 27 43 28 44 29 46 30 47 31 48 92 49 32 50 91 51 33 52
REMARK SMILES IDX 34 53 35 54 85 55 36 56 90 57 84 58 86 59 37 60 89 61 83 62
REMARK SMILES IDX 82 63 38 65 70 66 50 67 69 68 51 69 54 70 68 71 87 72 52 73
REMARK SMILES IDX 53 74 67 76 88 77 55 78 39 79 40 80 48 81 41 82 43 83 49 84
REMARK SMILES IDX 42 85 44 86 45 87 46 88 47 89 71 90 72 91 80 92 73 93 75 94
REMARK SMILES IDX 81 95 74 96 76 97 77 98 78 99 79 100 56 101 57 102 65 103
REMARK SMILES IDX 58 104 60 105 66 106 59 107 61 108 62 109 63 110 64 111
REMARK H PARENT 20 6 27 45 86 64 54 75
REMARK Flexibility Score: inf
ROOT
ATOM      1  C   UNL A   1      43.794  27.585  26.668  1.00  0.00     0.021 C 
ENDROOT
BRANCH   1   2
ATOM      2  C   UNL A   1      44.364  29.007  26.705  1.00  0.00     0.116 C 
BRANCH   2   3
ATOM      3  N   UNL A   1      45.642  29.064  26.019  1.00  0.00    -0.352 N 
ATOM      4  C   UNL A   1      46.912  28.743  26.432  1.00  0.00     0.251 C 
ATOM      5  O   UNL A   1      47.829  28.824  25.616  1.00  0.00    -0.269 OA
ATOM      6  H   UNL A   1      45.590  29.391  25.093  1.00  0.00     0.163 HD
BRANCH   4   7
ATOM      7  C   UNL A   1      47.184  28.218  27.794  1.00  0.00     0.039 A 
ATOM      8  C   UNL A   1      47.428  27.165  30.335  1.00  0.00     0.066 A 
ATOM      9  C   UNL A   1      47.345  26.290  29.251  1.00  0.00     0.029 A 
ATOM     10  C   UNL A   1      47.467  28.542  30.168  1.00  0.00     0.029 A 
ATOM     11  C   UNL A   1      47.182  26.827  27.977  1.00  0.00     0.016 A 
ATOM     12  C   UNL A   1      47.434  29.050  28.887  1.00  0.00     0.016 A 
BRANCH   8  13
ATOM     13  N   UNL A   1      47.564  26.679  31.629  1.00  0.00    -0.220 N 
ATOM     14  C   UNL A   1      47.747  25.388  33.341  1.00  0.00     0.093 A 
ATOM     15  C   UNL A   1      48.010  25.440  32.000  1.00  0.00     0.141 A 
ATOM     16  N   UNL A   1      47.168  26.570  33.720  1.00  0.00    -0.134 NA
ATOM     17  N   UNL A   1      47.181  27.395  32.694  1.00  0.00    -0.062 NA
BRANCH  14  18
ATOM     18  C   UNL A   1      48.076  24.313  34.287  1.00  0.00     0.138 C 
BRANCH  18  19
ATOM     19  S   UNL A   1      47.623  24.654  35.974  1.00  0.00    -0.081 SA
BRANCH  19  20
ATOM     20  C   UNL A   1      47.166  23.029  36.641  1.00  0.00     0.176 A 
ATOM     21  N   UNL A   1      47.642  21.988  35.865  1.00  0.00    -0.255 N 
ATOM     22  C   UNL A   1      46.782  21.539  34.870  1.00  0.00     0.266 A 
ATOM     23  N   UNL A   1      45.949  22.944  37.095  1.00  0.00    -0.223 NA
ATOM     24  C   UNL A   1      45.490  22.309  34.807  1.00  0.00     0.066 A 
ATOM     25  O   UNL A   1      47.004  20.645  34.060  1.00  0.00    -0.268 OA
ATOM     26  C   UNL A   1      45.071  22.936  35.998  1.00  0.00     0.079 A 
ATOM     27  C   UNL A   1      44.909  22.661  33.594  1.00  0.00     0.016 A 
ATOM     28  C   UNL A   1      44.013  23.842  35.994  1.00  0.00     0.029 A 
ATOM     29  C   UNL A   1      43.913  23.644  33.584  1.00  0.00     0.001 A 
ATOM     30  C   UNL A   1      43.451  24.215  34.778  1.00  0.00     0.002 A 
BRANCH  21  31
ATOM     31  C   UNL A   1      48.907  21.407  36.146  1.00  0.00     0.052 A 
ATOM     32  C   UNL A   1      51.204  19.793  36.217  1.00  0.00     0.119 A 
ATOM     33  C   UNL A   1      51.186  20.933  35.418  1.00  0.00     0.048 A 
ATOM     34  C   UNL A   1      50.134  19.531  37.072  1.00  0.00     0.048 A 
ATOM     35  C   UNL A   1      50.027  21.721  35.359  1.00  0.00     0.030 A 
ATOM     36  C   UNL A   1      48.997  20.353  37.058  1.00  0.00     0.030 A 
BRANCH  32  37
ATOM     37  O   UNL A   1      52.318  18.998  36.186  1.00  0.00    -0.497 OA
ATOM     38  C   UNL A   1      53.292  19.438  35.234  1.00  0.00     0.278 C 
ENDBRANCH  32  37
ENDBRANCH  21  31
ENDBRANCH  19  20
ENDBRANCH  18  19
ENDBRANCH  14  18
ENDBRANCH   8  13
ENDBRANCH   4   7
ENDBRANCH   2   3
ENDBRANCH   1   2
BRANCH   1  39
ATOM     39  C   UNL A   1      44.090  26.860  25.354  1.00  0.00     0.002 C 
BRANCH  39  40
ATOM     40  C   UNL A   1      44.327  25.351  25.496  1.00  0.00     0.002 C 
BRANCH  40  41
ATOM     41  C   UNL A   1      43.115  24.458  25.190  1.00  0.00     0.021 C 
BRANCH  41  42
ATOM     42  C   UNL A   1      42.270  24.167  26.420  1.00  0.00     0.116 C 
BRANCH  42  43
ATOM     43  N   UNL A   1      40.845  24.244  26.107  1.00  0.00    -0.352 N 
ATOM     44  C   UNL A   1      39.873  25.037  26.677  1.00  0.00     0.251 C 
ATOM     45  H   UNL A   1      40.537  23.647  25.386  1.00  0.00     0.163 HD
ATOM     46  O   UNL A   1      38.694  24.744  26.573  1.00  0.00    -0.269 OA
BRANCH  44  47
ATOM     47  C   UNL A   1      40.285  26.244  27.411  1.00  0.00     0.039 A 
ATOM     48  C   UNL A   1      40.172  27.505  26.820  1.00  0.00     0.014 A 
ATOM     49  C   UNL A   1      40.784  26.101  28.705  1.00  0.00     0.014 A 
ATOM     50  C   UNL A   1      40.500  28.628  27.570  1.00  0.00     0.010 A 
ATOM     51  C   UNL A   1      40.969  27.209  29.490  1.00  0.00     0.010 A 
ATOM     52  C   UNL A   1      40.880  28.472  28.913  1.00  0.00    -0.014 A 
BRANCH  52  53
ATOM     53  C   UNL A   1      41.039  29.639  29.769  1.00  0.00     0.031 A 
ATOM     54  C   UNL A   1      39.752  30.192  30.271  1.00  0.00     0.074 A 
ATOM     55  C   UNL A   1      42.237  30.043  30.245  1.00  0.00     0.049 A 
ATOM     56  N   UNL A   1      39.216  31.326  29.965  1.00  0.00    -0.248 NA
ATOM     57  C   UNL A   1      38.873  29.315  31.064  1.00  0.00     0.031 C 
ATOM     58  C   UNL A   1      43.538  29.384  30.081  1.00  0.00     0.029 A 
ATOM     59  N   UNL A   1      42.521  31.045  31.122  1.00  0.00    -0.354 N 
ATOM     60  C   UNL A   1      38.070  31.417  30.749  1.00  0.00     0.074 A 
ATOM     61  C   UNL A   1      37.788  30.081  31.200  1.00  0.00     0.031 C 
ATOM     62  C   UNL A   1      44.384  29.821  31.039  1.00  0.00     0.029 A 
ATOM     63  C   UNL A   1      43.743  30.894  31.775  1.00  0.00     0.049 A 
ATOM     64  H   UNL A   1      41.918  31.808  31.280  1.00  0.00     0.167 HD
ATOM     65  C   UNL A   1      37.634  32.623  31.209  1.00  0.00     0.034 A 
ATOM     66  C   UNL A   1      44.156  31.552  32.888  1.00  0.00     0.034 A 
ATOM     67  C   UNL A   1      38.241  33.711  30.479  1.00  0.00     0.049 A 
ATOM     68  C   UNL A   1      43.336  32.781  32.993  1.00  0.00     0.074 A 
ATOM     69  C   UNL A   1      38.366  34.031  29.139  1.00  0.00     0.029 A 
ATOM     70  N   UNL A   1      39.206  34.444  31.127  1.00  0.00    -0.354 N 
ATOM     71  N   UNL A   1      43.401  33.762  32.136  1.00  0.00    -0.248 NA
ATOM     72  C   UNL A   1      42.117  32.715  33.783  1.00  0.00     0.031 C 
ATOM     73  C   UNL A   1      39.704  34.506  29.006  1.00  0.00     0.029 A 
ATOM     74  C   UNL A   1      40.276  34.542  30.278  1.00  0.00     0.049 A 
ATOM     75  H   UNL A   1      39.141  34.828  32.031  1.00  0.00     0.167 HD
ATOM     76  C   UNL A   1      42.076  34.122  31.935  1.00  0.00     0.074 A 
ATOM     77  C   UNL A   1      41.343  33.521  33.049  1.00  0.00     0.031 C 
ATOM     78  C   UNL A   1      41.647  34.602  30.730  1.00  0.00     0.034 A 
BRANCH  65  79
ATOM     79  C   UNL A   1      36.995  32.848  32.565  1.00  0.00     0.023 A 
ATOM     80  C   UNL A   1      35.878  33.713  32.614  1.00  0.00     0.012 A 
ATOM     81  C   UNL A   1      37.586  32.502  33.803  1.00  0.00     0.148 A 
ATOM     82  C   UNL A   1      35.427  34.265  33.817  1.00  0.00     0.002 A 
ATOM     83  C   UNL A   1      37.077  32.981  35.004  1.00  0.00     0.091 A 
ATOM     84  F   UNL A   1      38.731  31.819  33.839  1.00  0.00    -0.205 F 
ATOM     85  C   UNL A   1      36.022  33.893  35.015  1.00  0.00     0.022 A 
BRANCH  83  86
ATOM     86  S   UNL A   1      37.777  32.482  36.584  1.00  0.00     0.127 S 
ATOM     87  O   UNL A   1      39.089  33.117  36.536  1.00  0.00    -0.237 OA
ATOM     88  O   UNL A   1      36.831  33.076  37.529  1.00  0.00    -0.237 OA
ATOM     89  O   UNL A   1      37.769  31.024  36.575  1.00  0.00    -0.744 OA
ENDBRANCH  83  86
ENDBRANCH  65  79
BRANCH  66  90
ATOM     90  C   UNL A   1      45.009  31.081  34.010  1.00  0.00     0.023 A 
ATOM     91  C   UNL A   1      46.037  31.916  34.498  1.00  0.00     0.012 A 
ATOM     92  C   UNL A   1      44.648  29.959  34.788  1.00  0.00     0.148 A 
ATOM     93  C   UNL A   1      46.649  31.667  35.735  1.00  0.00     0.002 A 
ATOM     94  C   UNL A   1      45.267  29.709  36.012  1.00  0.00     0.091 A 
ATOM     95  F   UNL A   1      43.631  29.189  34.386  1.00  0.00    -0.205 F 
ATOM     96  C   UNL A   1      46.259  30.569  36.495  1.00  0.00     0.022 A 
BRANCH  94  97
ATOM     97  S   UNL A   1      44.780  28.323  37.049  1.00  0.00     0.127 S 
ATOM     98  O   UNL A   1      45.699  28.449  38.179  1.00  0.00    -0.237 OA
ATOM     99  O   UNL A   1      43.388  28.645  37.348  1.00  0.00    -0.237 OA
ATOM    100  O   UNL A   1      44.991  27.130  36.237  1.00  0.00    -0.744 OA
ENDBRANCH  94  97
ENDBRANCH  66  90
BRANCH  78 101
ATOM    101  C   UNL A   1      42.669  34.986  29.689  1.00  0.00     0.023 A 
ATOM    102  C   UNL A   1      43.250  36.270  29.625  1.00  0.00     0.012 A 
ATOM    103  C   UNL A   1      43.199  33.963  28.885  1.00  0.00     0.148 A 
ATOM    104  C   UNL A   1      44.322  36.529  28.766  1.00  0.00     0.002 A 
ATOM    105  C   UNL A   1      44.297  34.210  28.071  1.00  0.00     0.091 A 
ATOM    106  F   UNL A   1      42.635  32.747  28.956  1.00  0.00    -0.205 F 
ATOM    107  C   UNL A   1      44.856  35.494  28.001  1.00  0.00     0.022 A 
BRANCH 105 108
ATOM    108  S   UNL A   1      45.104  32.887  27.169  1.00  0.00     0.127 S 
ATOM    109  O   UNL A   1      46.292  33.556  26.643  1.00  0.00    -0.237 OA
ATOM    110  O   UNL A   1      45.370  31.904  28.222  1.00  0.00    -0.237 OA
ATOM    111  O   UNL A   1      44.142  32.437  26.170  1.00  0.00    -0.744 OA
ENDBRANCH 105 108
ENDBRANCH  78 101
ENDBRANCH  52  53
ENDBRANCH  44  47
ENDBRANCH  42  43
ENDBRANCH  41  42
ENDBRANCH  40  41
ENDBRANCH  39  40
ENDBRANCH   1  39
TORSDOF 22
ENDMDL
MODEL 3
REMARK VINA RESULT:      -9.2      8.269     12.593
REMARK SMILES COc1ccc(-n2c(SCc3cn(-c4ccc(C(=O)NCCCCCCNC(=O)c5ccc(-c6c7nc(c(-c8cccc(S(=O)(=O)[O-])c8F)c8ccc([nH]8)c(-c8cccc(S(=O)(=O)[O-])c8F)c8nc(c(-c9cccc(S(=O)(=O)[O-])c9F)c9ccc6[nH]9)C=C8)C=C7)cc5)cc4)nn3)nc3ccccc3c2=O)cc1
REMARK SMILES IDX 22 1 21 2 20 3 18 4 19 5 17 7 14 8 15 9 94 10 16 11 93 12
REMARK SMILES IDX 13 13 11 14 12 15 96 16 95 17 10 18 9 19 8 20 7 21 104 22
REMARK SMILES IDX 97 23 103 24 105 25 98 26 102 27 99 28 101 29 100 30 6 31
REMARK SMILES IDX 3 32 4 33 107 34 5 35 106 36 2 37 1 38 23 39 24 40 25 41
REMARK SMILES IDX 26 42 27 43 28 44 29 46 30 47 31 48 92 49 32 50 91 51 33 52
REMARK SMILES IDX 34 53 35 54 85 55 36 56 90 57 84 58 86 59 37 60 89 61 83 62
REMARK SMILES IDX 82 63 38 65 70 66 50 67 69 68 51 69 54 70 68 71 87 72 52 73
REMARK SMILES IDX 53 74 67 76 88 77 55 78 39 79 40 80 48 81 41 82 43 83 49 84
REMARK SMILES IDX 42 85 44 86 45 87 46 88 47 89 71 90 72 91 80 92 73 93 75 94
REMARK SMILES IDX 81 95 74 96 76 97 77 98 78 99 79 100 56 101 57 102 65 103
REMARK SMILES IDX 58 104 60 105 66 106 59 107 61 108 62 109 63 110 64 111
REMARK H PARENT 20 6 27 45 86 64 54 75
REMARK Flexibility Score: inf
ROOT
ATOM      1  C   UNL A   1      50.746  24.377  32.309  1.00  0.00     0.021 C 
ENDROOT
BRANCH   1   2
ATOM      2  C   UNL A   1      52.169  24.116  32.812  1.00  0.00     0.116 C 
BRANCH   2   3
ATOM      3  N   UNL A   1      52.680  22.866  32.279  1.00  0.00    -0.352 N 
ATOM      4  C   UNL A   1      52.811  21.621  32.843  1.00  0.00     0.251 C 
ATOM      5  O   UNL A   1      53.221  20.701  32.138  1.00  0.00    -0.269 OA
ATOM      6  H   UNL A   1      52.988  22.920  31.346  1.00  0.00     0.163 HD
BRANCH   4   7
ATOM      7  C   UNL A   1      52.385  21.345  34.238  1.00  0.00     0.039 A 
ATOM      8  C   UNL A   1      51.384  21.001  36.789  1.00  0.00     0.066 A 
ATOM      9  C   UNL A   1      50.724  20.391  35.721  1.00  0.00     0.029 A 
ATOM     10  C   UNL A   1      52.565  21.708  36.617  1.00  0.00     0.029 A 
ATOM     11  C   UNL A   1      51.210  20.602  34.434  1.00  0.00     0.016 A 
ATOM     12  C   UNL A   1      53.100  21.796  35.349  1.00  0.00     0.016 A 
BRANCH   8  13
ATOM     13  N   UNL A   1      50.923  20.845  38.089  1.00  0.00    -0.220 N 
ATOM     14  C   UNL A   1      49.773  20.277  39.818  1.00  0.00     0.093 A 
ATOM     15  C   UNL A   1      50.094  19.861  38.556  1.00  0.00     0.141 A 
ATOM     16  N   UNL A   1      50.407  21.467  40.061  1.00  0.00    -0.134 NA
ATOM     17  N   UNL A   1      51.204  21.736  39.048  1.00  0.00    -0.062 NA
BRANCH  14  18
ATOM     18  C   UNL A   1      48.960  19.578  40.823  1.00  0.00     0.138 C 
BRANCH  18  19
ATOM     19  S   UNL A   1      48.749  17.837  40.516  1.00  0.00    -0.081 SA
BRANCH  19  20
ATOM     20  C   UNL A   1      46.986  17.676  40.114  1.00  0.00     0.176 A 
ATOM     21  N   UNL A   1      46.341  18.898  40.073  1.00  0.00    -0.255 N 
ATOM     22  C   UNL A   1      45.769  19.316  41.269  1.00  0.00     0.266 A 
ATOM     23  N   UNL A   1      46.378  16.685  40.700  1.00  0.00    -0.223 NA
ATOM     24  C   UNL A   1      45.997  18.356  42.406  1.00  0.00     0.066 A 
ATOM     25  O   UNL A   1      45.168  20.367  41.464  1.00  0.00    -0.268 OA
ATOM     26  C   UNL A   1      46.218  17.008  42.058  1.00  0.00     0.079 A 
ATOM     27  C   UNL A   1      46.297  18.802  43.688  1.00  0.00     0.016 A 
ATOM     28  C   UNL A   1      46.649  16.086  43.009  1.00  0.00     0.029 A 
ATOM     29  C   UNL A   1      46.821  17.891  44.613  1.00  0.00     0.001 A 
ATOM     30  C   UNL A   1      46.976  16.537  44.284  1.00  0.00     0.002 A 
BRANCH  21  31
ATOM     31  C   UNL A   1      46.240  19.612  38.850  1.00  0.00     0.052 A 
ATOM     32  C   UNL A   1      46.723  20.878  36.390  1.00  0.00     0.119 A 
ATOM     33  C   UNL A   1      46.240  19.573  36.412  1.00  0.00     0.048 A 
ATOM     34  C   UNL A   1      46.842  21.591  37.583  1.00  0.00     0.048 A 
ATOM     35  C   UNL A   1      46.028  18.931  37.641  1.00  0.00     0.030 A 
ATOM     36  C   UNL A   1      46.574  20.968  38.811  1.00  0.00     0.030 A 
BRANCH  32  37
ATOM     37  O   UNL A   1      47.002  21.446  35.176  1.00  0.00    -0.497 OA
ATOM     38  C   UNL A   1      47.412  20.489  34.194  1.00  0.00     0.278 C 
ENDBRANCH  32  37
ENDBRANCH  21  31
ENDBRANCH  19  20
ENDBRANCH  18  19
ENDBRANCH  14  18
ENDBRANCH   8  13
ENDBRANCH   4   7
ENDBRANCH   2   3
ENDBRANCH   1   2
BRANCH   1  39
ATOM     39  C   UNL A   1      49.700  24.315  33.423  1.00  0.00     0.002 C 
BRANCH  39  40
ATOM     40  C   UNL A   1      50.281  24.244  34.842  1.00  0.00     0.002 C 
BRANCH  40  41
ATOM     41  C   UNL A   1      49.249  24.237  35.980  1.00  0.00     0.021 C 
BRANCH  41  42
ATOM     42  C   UNL A   1      48.890  25.635  36.460  1.00  0.00     0.116 C 
BRANCH  42  43
ATOM     43  N   UNL A   1      47.501  25.694  36.909  1.00  0.00    -0.352 N 
ATOM     44  C   UNL A   1      46.373  26.038  36.196  1.00  0.00     0.251 C 
ATOM     45  H   UNL A   1      47.350  25.453  37.852  1.00  0.00     0.163 HD
ATOM     46  O   UNL A   1      45.358  26.389  36.773  1.00  0.00    -0.269 OA
BRANCH  44  47
ATOM     47  C   UNL A   1      46.417  25.971  34.726  1.00  0.00     0.039 A 
ATOM     48  C   UNL A   1      46.196  24.760  34.067  1.00  0.00     0.014 A 
ATOM     49  C   UNL A   1      46.678  27.140  34.013  1.00  0.00     0.014 A 
ATOM     50  C   UNL A   1      46.169  24.750  32.677  1.00  0.00     0.010 A 
ATOM     51  C   UNL A   1      46.510  27.158  32.652  1.00  0.00     0.010 A 
ATOM     52  C   UNL A   1      46.309  25.959  31.977  1.00  0.00    -0.014 A 
BRANCH  52  53
ATOM     53  C   UNL A   1      46.092  26.001  30.537  1.00  0.00     0.031 A 
ATOM     54  C   UNL A   1      47.225  26.598  29.780  1.00  0.00     0.074 A 
ATOM     55  C   UNL A   1      45.070  25.359  29.930  1.00  0.00     0.049 A 
ATOM     56  N   UNL A   1      47.230  27.715  29.133  1.00  0.00    -0.248 NA
ATOM     57  C   UNL A   1      48.554  25.975  29.897  1.00  0.00     0.031 C 
ATOM     58  C   UNL A   1      44.076  24.469  30.542  1.00  0.00     0.029 A 
ATOM     59  N   UNL A   1      44.803  25.231  28.601  1.00  0.00    -0.354 N 
ATOM     60  C   UNL A   1      48.483  27.789  28.532  1.00  0.00     0.074 A 
ATOM     61  C   UNL A   1      49.314  26.842  29.226  1.00  0.00     0.031 C 
ATOM     62  C   UNL A   1      43.522  23.694  29.586  1.00  0.00     0.029 A 
ATOM     63  C   UNL A   1      43.998  24.136  28.290  1.00  0.00     0.049 A 
ATOM     64  H   UNL A   1      45.146  25.856  27.921  1.00  0.00     0.167 HD
ATOM     65  C   UNL A   1      48.641  28.395  27.322  1.00  0.00     0.034 A 
ATOM     66  C   UNL A   1      43.809  23.590  27.062  1.00  0.00     0.034 A 
ATOM     67  C   UNL A   1      47.506  29.228  27.002  1.00  0.00     0.049 A 
ATOM     68  C   UNL A   1      44.176  24.626  26.067  1.00  0.00     0.074 A 
ATOM     69  C   UNL A   1      46.830  30.242  27.657  1.00  0.00     0.029 A 
ATOM     70  N   UNL A   1      46.644  28.775  26.032  1.00  0.00    -0.354 N 
ATOM     71  N   UNL A   1      43.509  25.735  25.908  1.00  0.00    -0.248 NA
ATOM     72  C   UNL A   1      45.546  24.639  25.579  1.00  0.00     0.031 C 
ATOM     73  C   UNL A   1      45.451  29.978  27.404  1.00  0.00     0.029 A 
ATOM     74  C   UNL A   1      45.375  28.889  26.535  1.00  0.00     0.049 A 
ATOM     75  H   UNL A   1      46.892  28.432  25.144  1.00  0.00     0.167 HD
ATOM     76  C   UNL A   1      44.494  26.702  25.761  1.00  0.00     0.074 A 
ATOM     77  C   UNL A   1      45.718  25.959  25.461  1.00  0.00     0.031 C 
ATOM     78  C   UNL A   1      44.302  27.981  26.201  1.00  0.00     0.034 A 
BRANCH  65  79
ATOM     79  C   UNL A   1      49.602  27.932  26.246  1.00  0.00     0.023 A 
ATOM     80  C   UNL A   1      49.587  26.557  25.919  1.00  0.00     0.012 A 
ATOM     81  C   UNL A   1      50.693  28.689  25.757  1.00  0.00     0.148 A 
ATOM     82  C   UNL A   1      50.636  25.956  25.215  1.00  0.00     0.002 A 
ATOM     83  C   UNL A   1      51.687  28.105  24.982  1.00  0.00     0.091 A 
ATOM     84  F   UNL A   1      50.866  29.953  26.146  1.00  0.00    -0.205 F 
ATOM     85  C   UNL A   1      51.684  26.731  24.740  1.00  0.00     0.022 A 
BRANCH  83  86
ATOM     86  S   UNL A   1      53.033  29.080  24.294  1.00  0.00     0.127 S 
ATOM     87  O   UNL A   1      53.954  28.036  23.855  1.00  0.00    -0.237 OA
ATOM     88  O   UNL A   1      52.356  29.806  23.220  1.00  0.00    -0.237 OA
ATOM     89  O   UNL A   1      53.500  29.930  25.382  1.00  0.00    -0.744 OA
ENDBRANCH  83  86
ENDBRANCH  65  79
BRANCH  66  90
ATOM     90  C   UNL A   1      43.594  22.173  26.673  1.00  0.00     0.023 A 
ATOM     91  C   UNL A   1      42.282  21.657  26.624  1.00  0.00     0.012 A 
ATOM     92  C   UNL A   1      44.624  21.409  26.079  1.00  0.00     0.148 A 
ATOM     93  C   UNL A   1      41.999  20.451  25.968  1.00  0.00     0.002 A 
ATOM     94  C   UNL A   1      44.340  20.205  25.438  1.00  0.00     0.091 A 
ATOM     95  F   UNL A   1      45.866  21.904  26.048  1.00  0.00    -0.205 F 
ATOM     96  C   UNL A   1      43.026  19.729  25.369  1.00  0.00     0.022 A 
BRANCH  94  97
ATOM     97  S   UNL A   1      45.624  19.247  24.619  1.00  0.00     0.127 S 
ATOM     98  O   UNL A   1      45.030  18.999  23.305  1.00  0.00    -0.237 OA
ATOM     99  O   UNL A   1      46.744  20.182  24.622  1.00  0.00    -0.237 OA
ATOM    100  O   UNL A   1      45.799  18.048  25.430  1.00  0.00    -0.744 OA
ENDBRANCH  94  97
ENDBRANCH  66  90
BRANCH  78 101
ATOM    101  C   UNL A   1      42.918  28.412  26.617  1.00  0.00     0.023 A 
ATOM    102  C   UNL A   1      41.899  28.710  25.688  1.00  0.00     0.012 A 
ATOM    103  C   UNL A   1      42.587  28.320  27.980  1.00  0.00     0.148 A 
ATOM    104  C   UNL A   1      40.585  28.926  26.113  1.00  0.00     0.002 A 
ATOM    105  C   UNL A   1      41.271  28.484  28.392  1.00  0.00     0.091 A 
ATOM    106  F   UNL A   1      43.568  28.037  28.851  1.00  0.00    -0.205 F 
ATOM    107  C   UNL A   1      40.268  28.797  27.464  1.00  0.00     0.022 A 
BRANCH 105 108
ATOM    108  S   UNL A   1      40.787  28.199  30.095  1.00  0.00     0.127 S 
ATOM    109  O   UNL A   1      41.820  27.274  30.556  1.00  0.00    -0.237 OA
ATOM    110  O   UNL A   1      40.864  29.542  30.674  1.00  0.00    -0.237 OA
ATOM    111  O   UNL A   1      39.435  27.655  30.042  1.00  0.00    -0.744 OA
ENDBRANCH 105 108
ENDBRANCH  78 101
ENDBRANCH  52  53
ENDBRANCH  44  47
ENDBRANCH  42  43
ENDBRANCH  41  42
ENDBRANCH  40  41
ENDBRANCH  39  40
ENDBRANCH   1  39
TORSDOF 22
ENDMDL
