MODEL 1
REMARK VINA RESULT:     -13.6      0.000      0.000
REMARK SMILES O=C(NCCCCCCNC(=O)[C@@H]1CC=CC[C@H]1C(=O)N1CC[NH+](Cc2ccc3c(c2)OCO3)CC1)c1ccc(-c2c3nc(c(-c4cccc(S(=O)(=O)[O-])c4F)c4ccc([nH]4)c(-c4cccc(S(=O)(=O)[O-])c4F)c4nc(c(-c5cccc(S(=O)(=O)[O-])c5F)c5ccc2[nH]5)C=C4)C=C3)cc1
REMARK SMILES IDX 6 1 5 2 4 3 3 4 1 5 2 6 37 8 38 9 99 10 39 11 98 12 40 13
REMARK SMILES IDX 41 14 42 15 92 16 43 17 97 18 91 19 93 20 44 21 96 22 90 23
REMARK SMILES IDX 89 24 45 26 77 27 57 28 76 29 58 30 61 31 75 32 94 33 59 34
REMARK SMILES IDX 60 35 74 37 95 38 62 39 46 40 47 41 55 42 48 43 50 44 56 45
REMARK SMILES IDX 49 46 51 47 52 48 53 49 54 50 78 51 79 52 87 53 80 54 82 55
REMARK SMILES IDX 88 56 81 57 83 58 84 59 85 60 86 61 63 62 64 63 72 64 65 65
REMARK SMILES IDX 67 66 73 67 66 68 68 69 69 70 70 71 71 72 7 73 8 74 9 75
REMARK SMILES IDX 10 76 11 77 12 79 13 80 14 81 18 82 15 83 17 84 16 85 19 86
REMARK SMILES IDX 20 87 21 88 22 89 36 90 23 91 35 92 24 93 25 95 26 96 27 97
REMARK SMILES IDX 31 98 28 99 30 100 29 101 32 102 34 103 33 104
REMARK H PARENT 3 7 93 25 61 36 10 78 24 94
REMARK Flexibility Score: inf
ROOT
ATOM      1  C   UNL A   1      31.942  28.635  26.994  1.00  0.00     0.002 C 
ENDROOT
BRANCH   1   2
ATOM      2  C   UNL A   1      32.014  30.857  26.784  1.00  0.00     0.021 C 
BRANCH   2   3
ATOM      3  C   UNL A   1      33.185  31.937  27.288  1.00  0.00     0.116 C 
BRANCH   3   4
ATOM      4  N   UNL A   1      32.731  33.294  27.571  1.00  0.00    -0.352 N 
ATOM      5  O   UNL A   1      32.648  35.092  28.966  1.00  0.00    -0.269 OA
ATOM      6  C   UNL A   1      33.223  34.086  28.583  1.00  0.00     0.251 C 
ATOM      7  H   UNL A   1      32.024  33.670  26.998  1.00  0.00     0.163 HD
BRANCH   6   8
ATOM      8  C   UNL A   1      34.522  33.647  29.124  1.00  0.00     0.039 A 
ATOM      9  C   UNL A   1      34.465  32.825  30.256  1.00  0.00     0.014 A 
ATOM     10  C   UNL A   1      35.718  34.215  28.691  1.00  0.00     0.014 A 
ATOM     11  C   UNL A   1      35.591  32.662  31.034  1.00  0.00     0.010 A 
ATOM     12  C   UNL A   1      36.886  33.912  29.389  1.00  0.00     0.010 A 
ATOM     13  C   UNL A   1      36.826  33.116  30.549  1.00  0.00    -0.014 A 
BRANCH  13  14
ATOM     14  C   UNL A   1      38.044  32.506  31.122  1.00  0.00     0.031 A 
ATOM     15  C   UNL A   1      38.742  31.356  30.475  1.00  0.00     0.074 A 
ATOM     16  C   UNL A   1      38.459  33.019  32.299  1.00  0.00     0.049 A 
ATOM     17  N   UNL A   1      39.761  30.675  30.926  1.00  0.00    -0.248 NA
ATOM     18  C   UNL A   1      38.240  30.895  29.170  1.00  0.00     0.031 C 
ATOM     19  C   UNL A   1      37.797  34.118  33.019  1.00  0.00     0.029 A 
ATOM     20  N   UNL A   1      39.511  32.692  33.110  1.00  0.00    -0.354 N 
ATOM     21  C   UNL A   1      39.986  29.666  30.001  1.00  0.00     0.074 A 
ATOM     22  C   UNL A   1      39.016  29.842  28.940  1.00  0.00     0.031 C 
ATOM     23  C   UNL A   1      38.468  34.391  34.141  1.00  0.00     0.029 A 
ATOM     24  C   UNL A   1      39.529  33.412  34.283  1.00  0.00     0.049 A 
ATOM     25  H   UNL A   1      40.184  32.013  32.880  1.00  0.00     0.167 HD
ATOM     26  C   UNL A   1      40.915  28.683  30.057  1.00  0.00     0.034 A 
ATOM     27  C   UNL A   1      40.266  33.257  35.395  1.00  0.00     0.034 A 
ATOM     28  C   UNL A   1      41.878  28.555  31.120  1.00  0.00     0.049 A 
ATOM     29  C   UNL A   1      41.276  32.156  35.410  1.00  0.00     0.074 A 
ATOM     30  C   UNL A   1      42.921  27.653  31.227  1.00  0.00     0.029 A 
ATOM     31  N   UNL A   1      41.899  29.328  32.272  1.00  0.00    -0.354 N 
ATOM     32  N   UNL A   1      41.572  31.301  34.463  1.00  0.00    -0.248 NA
ATOM     33  C   UNL A   1      42.065  32.004  36.637  1.00  0.00     0.031 C 
ATOM     34  C   UNL A   1      43.540  27.847  32.465  1.00  0.00     0.029 A 
ATOM     35  C   UNL A   1      42.912  28.900  33.111  1.00  0.00     0.049 A 
ATOM     36  H   UNL A   1      41.283  30.073  32.464  1.00  0.00     0.167 HD
ATOM     37  C   UNL A   1      42.592  30.514  34.972  1.00  0.00     0.074 A 
ATOM     38  C   UNL A   1      42.890  31.026  36.296  1.00  0.00     0.031 C 
ATOM     39  C   UNL A   1      43.209  29.449  34.409  1.00  0.00     0.034 A 
BRANCH  26  40
ATOM     40  C   UNL A   1      40.952  27.659  28.955  1.00  0.00     0.023 A 
ATOM     41  C   UNL A   1      39.979  26.643  28.900  1.00  0.00     0.012 A 
ATOM     42  C   UNL A   1      41.879  27.790  27.899  1.00  0.00     0.148 A 
ATOM     43  C   UNL A   1      39.932  25.766  27.814  1.00  0.00     0.002 A 
ATOM     44  C   UNL A   1      41.798  26.941  26.803  1.00  0.00     0.091 A 
ATOM     45  F   UNL A   1      42.807  28.754  27.982  1.00  0.00    -0.205 F 
ATOM     46  C   UNL A   1      40.831  25.924  26.762  1.00  0.00     0.022 A 
BRANCH  44  47
ATOM     47  S   UNL A   1      42.854  27.113  25.359  1.00  0.00     0.127 S 
ATOM     48  O   UNL A   1      44.173  27.258  25.975  1.00  0.00    -0.237 OA
ATOM     49  O   UNL A   1      42.639  25.841  24.672  1.00  0.00    -0.237 OA
ATOM     50  O   UNL A   1      42.374  28.287  24.644  1.00  0.00    -0.744 OA
ENDBRANCH  44  47
ENDBRANCH  26  40
BRANCH  27  51
ATOM     51  C   UNL A   1      40.034  34.134  36.573  1.00  0.00     0.023 A 
ATOM     52  C   UNL A   1      40.370  35.498  36.502  1.00  0.00     0.012 A 
ATOM     53  C   UNL A   1      39.451  33.628  37.754  1.00  0.00     0.148 A 
ATOM     54  C   UNL A   1      40.168  36.334  37.601  1.00  0.00     0.002 A 
ATOM     55  C   UNL A   1      39.190  34.481  38.817  1.00  0.00     0.091 A 
ATOM     56  F   UNL A   1      39.142  32.324  37.806  1.00  0.00    -0.205 F 
ATOM     57  C   UNL A   1      39.570  35.829  38.752  1.00  0.00     0.022 A 
BRANCH  55  58
ATOM     58  S   UNL A   1      38.282  33.943  40.271  1.00  0.00     0.127 S 
ATOM     59  O   UNL A   1      37.073  33.381  39.677  1.00  0.00    -0.237 OA
ATOM     60  O   UNL A   1      39.197  32.960  40.855  1.00  0.00    -0.237 OA
ATOM     61  O   UNL A   1      38.100  35.140  41.081  1.00  0.00    -0.744 OA
ENDBRANCH  55  58
ENDBRANCH  27  51
BRANCH  39  62
ATOM     62  C   UNL A   1      44.282  28.783  35.223  1.00  0.00     0.023 A 
ATOM     63  C   UNL A   1      45.597  29.287  35.193  1.00  0.00     0.012 A 
ATOM     64  C   UNL A   1      43.974  27.689  36.053  1.00  0.00     0.148 A 
ATOM     65  C   UNL A   1      46.599  28.689  35.952  1.00  0.00     0.002 A 
ATOM     66  C   UNL A   1      44.964  27.133  36.849  1.00  0.00     0.091 A 
ATOM     67  F   UNL A   1      42.718  27.217  36.048  1.00  0.00    -0.205 F 
ATOM     68  C   UNL A   1      46.281  27.621  36.788  1.00  0.00     0.022 A 
BRANCH  66  69
ATOM     69  S   UNL A   1      44.630  25.822  38.027  1.00  0.00     0.127 S 
ATOM     70  O   UNL A   1      43.584  26.425  38.853  1.00  0.00    -0.237 OA
ATOM     71  O   UNL A   1      44.175  24.738  37.158  1.00  0.00    -0.237 OA
ATOM     72  O   UNL A   1      45.889  25.564  38.713  1.00  0.00    -0.744 OA
ENDBRANCH  66  69
ENDBRANCH  39  62
ENDBRANCH  13  14
ENDBRANCH   6   8
ENDBRANCH   3   4
ENDBRANCH   2   3
ENDBRANCH   1   2
BRANCH   1  73
ATOM     73  C   UNL A   1      33.123  27.445  26.543  1.00  0.00     0.002 C 
BRANCH  73  74
ATOM     74  C   UNL A   1      33.713  27.621  25.142  1.00  0.00     0.021 C 
BRANCH  74  75
ATOM     75  C   UNL A   1      33.113  26.711  24.084  1.00  0.00     0.116 C 
BRANCH  75  76
ATOM     76  N   UNL A   1      34.016  25.770  23.489  1.00  0.00    -0.356 N 
ATOM     77  C   UNL A   1      33.892  24.411  23.524  1.00  0.00     0.224 C 
ATOM     78  H   UNL A   1      34.795  26.137  23.012  1.00  0.00     0.163 HD
ATOM     79  O   UNL A   1      34.669  23.756  22.826  1.00  0.00    -0.275 OA
BRANCH  77  80
ATOM     80  C   UNL A   1      32.833  23.750  24.440  1.00  0.00     0.095 C 
ATOM     81  C   UNL A   1      31.581  24.655  24.371  1.00  0.00     0.041 C 
ATOM     82  C   UNL A   1      33.353  23.551  25.882  1.00  0.00     0.095 C 
ATOM     83  C   UNL A   1      30.588  24.456  25.466  1.00  0.00    -0.030 C 
ATOM     84  C   UNL A   1      32.274  23.432  26.984  1.00  0.00     0.041 C 
ATOM     85  C   UNL A   1      30.909  23.920  26.644  1.00  0.00    -0.030 C 
BRANCH  82  86
ATOM     86  C   UNL A   1      34.357  22.417  26.164  1.00  0.00     0.227 C 
ATOM     87  O   UNL A   1      33.934  21.348  26.619  1.00  0.00    -0.275 OA
ATOM     88  N   UNL A   1      35.680  22.534  25.714  1.00  0.00    -0.331 N 
ATOM     89  C   UNL A   1      36.297  21.286  25.256  1.00  0.00     0.181 C 
ATOM     90  C   UNL A   1      36.594  23.532  26.269  1.00  0.00     0.181 C 
ATOM     91  C   UNL A   1      37.731  21.415  24.704  1.00  0.00     0.284 C 
ATOM     92  C   UNL A   1      37.998  23.599  25.652  1.00  0.00     0.284 C 
ATOM     93  N   UNL A   1      38.635  22.302  25.440  1.00  0.00    -0.328 N 
ATOM     94  H   UNL A   1      39.442  22.465  24.836  1.00  0.00     0.348 HD
BRANCH  93  95
ATOM     95  C   UNL A   1      39.363  21.722  26.577  1.00  0.00     0.299 C 
BRANCH  95  96
ATOM     96  C   UNL A   1      40.802  22.189  26.835  1.00  0.00     0.010 A 
ATOM     97  C   UNL A   1      41.170  22.484  28.290  1.00  0.00     0.013 A 
ATOM     98  C   UNL A   1      41.692  22.281  25.722  1.00  0.00     0.060 A 
ATOM     99  C   UNL A   1      42.377  23.020  28.830  1.00  0.00     0.051 A 
ATOM    100  C   UNL A   1      42.871  22.804  26.141  1.00  0.00     0.166 A 
ATOM    101  C   UNL A   1      43.240  23.235  27.817  1.00  0.00     0.165 A 
ATOM    102  O   UNL A   1      44.433  22.655  25.183  1.00  0.00    -0.454 OA
ATOM    103  O   UNL A   1      45.027  23.409  28.038  1.00  0.00    -0.454 OA
ATOM    104  C   UNL A   1      45.924  23.053  26.362  1.00  0.00     0.468 C 
ENDBRANCH  95  96
ENDBRANCH  93  95
ENDBRANCH  82  86
ENDBRANCH  77  80
ENDBRANCH  75  76
ENDBRANCH  74  75
ENDBRANCH  73  74
ENDBRANCH   1  73
TORSDOF 19
ENDMDL
MODEL 2
REMARK VINA RESULT:     -12.9      1.711      2.092
REMARK SMILES O=C(NCCCCCCNC(=O)[C@@H]1CC=CC[C@H]1C(=O)N1CC[NH+](Cc2ccc3c(c2)OCO3)CC1)c1ccc(-c2c3nc(c(-c4cccc(S(=O)(=O)[O-])c4F)c4ccc([nH]4)c(-c4cccc(S(=O)(=O)[O-])c4F)c4nc(c(-c5cccc(S(=O)(=O)[O-])c5F)c5ccc2[nH]5)C=C4)C=C3)cc1
REMARK SMILES IDX 6 1 5 2 4 3 3 4 1 5 2 6 37 8 38 9 99 10 39 11 98 12 40 13
REMARK SMILES IDX 41 14 42 15 92 16 43 17 97 18 91 19 93 20 44 21 96 22 90 23
REMARK SMILES IDX 89 24 45 26 77 27 57 28 76 29 58 30 61 31 75 32 94 33 59 34
REMARK SMILES IDX 60 35 74 37 95 38 62 39 46 40 47 41 55 42 48 43 50 44 56 45
REMARK SMILES IDX 49 46 51 47 52 48 53 49 54 50 78 51 79 52 87 53 80 54 82 55
REMARK SMILES IDX 88 56 81 57 83 58 84 59 85 60 86 61 63 62 64 63 72 64 65 65
REMARK SMILES IDX 67 66 73 67 66 68 68 69 69 70 70 71 71 72 7 73 8 74 9 75
REMARK SMILES IDX 10 76 11 77 12 79 13 80 14 81 18 82 15 83 17 84 16 85 19 86
REMARK SMILES IDX 20 87 21 88 22 89 36 90 23 91 35 92 24 93 25 95 26 96 27 97
REMARK SMILES IDX 31 98 28 99 30 100 29 101 32 102 34 103 33 104
REMARK H PARENT 3 7 93 25 61 36 10 78 24 94
REMARK Flexibility Score: inf
ROOT
ATOM      1  C   UNL A   1      32.365  29.107  25.625  1.00  0.00     0.002 C 
ENDROOT
BRANCH   1   2
ATOM      2  C   UNL A   1      32.130  31.088  26.631  1.00  0.00     0.021 C 
BRANCH   2   3
ATOM      3  C   UNL A   1      33.273  32.037  27.394  1.00  0.00     0.116 C 
BRANCH   3   4
ATOM      4  N   UNL A   1      32.861  33.394  27.735  1.00  0.00    -0.352 N 
ATOM      5  O   UNL A   1      32.817  35.127  29.213  1.00  0.00    -0.269 OA
ATOM      6  C   UNL A   1      33.364  34.120  28.790  1.00  0.00     0.251 C 
ATOM      7  H   UNL A   1      32.175  33.820  27.171  1.00  0.00     0.163 HD
BRANCH   6   8
ATOM      8  C   UNL A   1      34.638  33.613  29.327  1.00  0.00     0.039 A 
ATOM      9  C   UNL A   1      34.537  32.748  30.424  1.00  0.00     0.014 A 
ATOM     10  C   UNL A   1      35.860  34.153  28.931  1.00  0.00     0.014 A 
ATOM     11  C   UNL A   1      35.647  32.513  31.207  1.00  0.00     0.010 A 
ATOM     12  C   UNL A   1      37.007  33.780  29.630  1.00  0.00     0.010 A 
ATOM     13  C   UNL A   1      36.903  32.941  30.755  1.00  0.00    -0.014 A 
BRANCH  13  14
ATOM     14  C   UNL A   1      38.091  32.263  31.316  1.00  0.00     0.031 A 
ATOM     15  C   UNL A   1      38.769  31.131  30.620  1.00  0.00     0.074 A 
ATOM     16  C   UNL A   1      38.496  32.698  32.528  1.00  0.00     0.049 A 
ATOM     17  N   UNL A   1      39.759  30.396  31.051  1.00  0.00    -0.248 NA
ATOM     18  C   UNL A   1      38.282  30.758  29.282  1.00  0.00     0.031 C 
ATOM     19  C   UNL A   1      37.851  33.775  33.296  1.00  0.00     0.029 A 
ATOM     20  N   UNL A   1      39.521  32.296  33.340  1.00  0.00    -0.354 N 
ATOM     21  C   UNL A   1      39.974  29.433  30.076  1.00  0.00     0.074 A 
ATOM     22  C   UNL A   1      39.032  29.696  29.008  1.00  0.00     0.031 C 
ATOM     23  C   UNL A   1      38.506  33.965  34.444  1.00  0.00     0.029 A 
ATOM     24  C   UNL A   1      39.535  32.949  34.551  1.00  0.00     0.049 A 
ATOM     25  H   UNL A   1      40.179  31.610  33.085  1.00  0.00     0.167 HD
ATOM     26  C   UNL A   1      40.873  28.422  30.095  1.00  0.00     0.034 A 
ATOM     27  C   UNL A   1      40.244  32.709  35.667  1.00  0.00     0.034 A 
ATOM     28  C   UNL A   1      41.809  28.206  31.167  1.00  0.00     0.049 A 
ATOM     29  C   UNL A   1      41.222  31.580  35.640  1.00  0.00     0.074 A 
ATOM     30  C   UNL A   1      42.823  27.268  31.244  1.00  0.00     0.029 A 
ATOM     31  N   UNL A   1      41.828  28.913  32.361  1.00  0.00    -0.354 N 
ATOM     32  N   UNL A   1      41.513  30.771  34.652  1.00  0.00    -0.248 NA
ATOM     33  C   UNL A   1      41.980  31.337  36.871  1.00  0.00     0.031 C 
ATOM     34  C   UNL A   1      43.422  27.375  32.503  1.00  0.00     0.029 A 
ATOM     35  C   UNL A   1      42.811  28.409  33.194  1.00  0.00     0.049 A 
ATOM     36  H   UNL A   1      41.230  29.664  32.583  1.00  0.00     0.167 HD
ATOM     37  C   UNL A   1      42.498  29.926  35.136  1.00  0.00     0.074 A 
ATOM     38  C   UNL A   1      42.784  30.355  36.492  1.00  0.00     0.031 C 
ATOM     39  C   UNL A   1      43.096  28.876  34.527  1.00  0.00     0.034 A 
BRANCH  26  40
ATOM     40  C   UNL A   1      40.904  27.459  28.938  1.00  0.00     0.023 A 
ATOM     41  C   UNL A   1      39.899  26.483  28.803  1.00  0.00     0.012 A 
ATOM     42  C   UNL A   1      41.861  27.616  27.914  1.00  0.00     0.148 A 
ATOM     43  C   UNL A   1      39.850  25.670  27.669  1.00  0.00     0.002 A 
ATOM     44  C   UNL A   1      41.780  26.832  26.770  1.00  0.00     0.091 A 
ATOM     45  F   UNL A   1      42.818  28.541  28.073  1.00  0.00    -0.205 F 
ATOM     46  C   UNL A   1      40.780  25.854  26.649  1.00  0.00     0.022 A 
BRANCH  44  47
ATOM     47  S   UNL A   1      42.877  27.048  25.363  1.00  0.00     0.127 S 
ATOM     48  O   UNL A   1      42.675  25.793  24.638  1.00  0.00    -0.237 OA
ATOM     49  O   UNL A   1      42.308  28.227  24.712  1.00  0.00    -0.237 OA
ATOM     50  O   UNL A   1      44.211  27.234  25.915  1.00  0.00    -0.744 OA
ENDBRANCH  44  47
ENDBRANCH  26  40
BRANCH  27  51
ATOM     51  C   UNL A   1      40.012  33.527  36.888  1.00  0.00     0.023 A 
ATOM     52  C   UNL A   1      38.871  33.295  37.675  1.00  0.00     0.012 A 
ATOM     53  C   UNL A   1      40.937  34.514  37.290  1.00  0.00     0.148 A 
ATOM     54  C   UNL A   1      38.632  34.058  38.818  1.00  0.00     0.002 A 
ATOM     55  C   UNL A   1      40.728  35.221  38.465  1.00  0.00     0.091 A 
ATOM     56  F   UNL A   1      42.018  34.726  36.524  1.00  0.00    -0.205 F 
ATOM     57  C   UNL A   1      39.564  35.012  39.218  1.00  0.00     0.022 A 
BRANCH  55  58
ATOM     58  S   UNL A   1      41.955  36.353  39.129  1.00  0.00     0.127 S 
ATOM     59  O   UNL A   1      43.079  35.458  39.384  1.00  0.00    -0.237 OA
ATOM     60  O   UNL A   1      42.147  37.282  38.014  1.00  0.00    -0.237 OA
ATOM     61  O   UNL A   1      41.335  36.953  40.303  1.00  0.00    -0.744 OA
ENDBRANCH  55  58
ENDBRANCH  27  51
BRANCH  39  62
ATOM     62  C   UNL A   1      44.132  28.135  35.323  1.00  0.00     0.023 A 
ATOM     63  C   UNL A   1      43.753  27.023  36.100  1.00  0.00     0.012 A 
ATOM     64  C   UNL A   1      45.486  28.513  35.261  1.00  0.00     0.148 A 
ATOM     65  C   UNL A   1      44.705  26.318  36.833  1.00  0.00     0.002 A 
ATOM     66  C   UNL A   1      46.436  27.772  35.948  1.00  0.00     0.091 A 
ATOM     67  F   UNL A   1      45.816  29.587  34.529  1.00  0.00    -0.205 F 
ATOM     68  C   UNL A   1      46.046  26.685  36.747  1.00  0.00     0.022 A 
BRANCH  66  69
ATOM     69  S   UNL A   1      48.194  28.107  35.823  1.00  0.00     0.127 S 
ATOM     70  O   UNL A   1      48.698  27.520  37.064  1.00  0.00    -0.237 OA
ATOM     71  O   UNL A   1      48.560  27.378  34.609  1.00  0.00    -0.237 OA
ATOM     72  O   UNL A   1      48.325  29.554  35.726  1.00  0.00    -0.744 OA
ENDBRANCH  66  69
ENDBRANCH  39  62
ENDBRANCH  13  14
ENDBRANCH   6   8
ENDBRANCH   3   4
ENDBRANCH   2   3
ENDBRANCH   1   2
BRANCH   1  73
ATOM     73  C   UNL A   1      32.692  27.550  26.318  1.00  0.00     0.002 C 
BRANCH  73  74
ATOM     74  C   UNL A   1      33.580  26.638  25.468  1.00  0.00     0.021 C 
BRANCH  74  75
ATOM     75  C   UNL A   1      32.883  26.010  24.275  1.00  0.00     0.116 C 
BRANCH  75  76
ATOM     76  N   UNL A   1      33.655  25.054  23.536  1.00  0.00    -0.356 N 
ATOM     77  C   UNL A   1      33.494  23.699  23.566  1.00  0.00     0.224 C 
ATOM     78  H   UNL A   1      34.366  25.408  22.954  1.00  0.00     0.163 HD
ATOM     79  O   UNL A   1      34.136  23.036  22.749  1.00  0.00    -0.275 OA
BRANCH  77  80
ATOM     80  C   UNL A   1      32.561  23.051  24.619  1.00  0.00     0.095 C 
ATOM     81  C   UNL A   1      31.197  23.767  24.483  1.00  0.00     0.041 C 
ATOM     82  C   UNL A   1      33.147  23.137  26.047  1.00  0.00     0.095 C 
ATOM     83  C   UNL A   1      30.275  23.607  25.644  1.00  0.00    -0.030 C 
ATOM     84  C   UNL A   1      32.128  23.045  27.207  1.00  0.00     0.041 C 
ATOM     85  C   UNL A   1      30.700  23.298  26.870  1.00  0.00    -0.030 C 
BRANCH  82  86
ATOM     86  C   UNL A   1      34.303  22.196  26.438  1.00  0.00     0.227 C 
ATOM     87  O   UNL A   1      34.051  21.199  27.122  1.00  0.00    -0.275 OA
ATOM     88  N   UNL A   1      35.565  22.366  25.850  1.00  0.00    -0.331 N 
ATOM     89  C   UNL A   1      36.298  21.128  25.576  1.00  0.00     0.181 C 
ATOM     90  C   UNL A   1      36.385  23.547  26.120  1.00  0.00     0.181 C 
ATOM     91  C   UNL A   1      37.661  21.301  24.875  1.00  0.00     0.284 C 
ATOM     92  C   UNL A   1      37.720  23.645  25.370  1.00  0.00     0.284 C 
ATOM     93  N   UNL A   1      38.498  22.409  25.343  1.00  0.00    -0.328 N 
ATOM     94  H   UNL A   1      39.232  22.536  24.645  1.00  0.00     0.348 HD
BRANCH  93  95
ATOM     95  C   UNL A   1      39.374  22.146  26.494  1.00  0.00     0.299 C 
BRANCH  95  96
ATOM     96  C   UNL A   1      40.744  21.506  26.234  1.00  0.00     0.010 A 
ATOM     97  C   UNL A   1      40.795  19.977  26.259  1.00  0.00     0.013 A 
ATOM     98  C   UNL A   1      41.850  22.366  25.957  1.00  0.00     0.060 A 
ATOM     99  C   UNL A   1      41.920  19.106  26.154  1.00  0.00     0.051 A 
ATOM    100  C   UNL A   1      42.977  21.619  25.859  1.00  0.00     0.166 A 
ATOM    101  C   UNL A   1      43.029  19.855  25.994  1.00  0.00     0.165 A 
ATOM    102  O   UNL A   1      44.515  22.222  25.052  1.00  0.00    -0.454 OA
ATOM    103  O   UNL A   1      44.582  19.222  25.315  1.00  0.00    -0.454 OA
ATOM    104  C   UNL A   1      45.652  20.696  24.664  1.00  0.00     0.468 C 
ENDBRANCH  95  96
ENDBRANCH  93  95
ENDBRANCH  82  86
ENDBRANCH  77  80
ENDBRANCH  75  76
ENDBRANCH  74  75
ENDBRANCH  73  74
ENDBRANCH   1  73
TORSDOF 19
ENDMDL
MODEL 3
REMARK VINA RESULT:     -12.7      4.070      9.460
REMARK SMILES O=C(NCCCCCCNC(=O)[C@@H]1CC=CC[C@H]1C(=O)N1CC[NH+](Cc2ccc3c(c2)OCO3)CC1)c1ccc(-c2c3nc(c(-c4cccc(S(=O)(=O)[O-])c4F)c4ccc([nH]4)c(-c4cccc(S(=O)(=O)[O-])c4F)c4nc(c(-c5cccc(S(=O)(=O)[O-])c5F)c5ccc2[nH]5)C=C4)C=C3)cc1
REMARK SMILES IDX 6 1 5 2 4 3 3 4 1 5 2 6 37 8 38 9 99 10 39 11 98 12 40 13
REMARK SMILES IDX 41 14 42 15 92 16 43 17 97 18 91 19 93 20 44 21 96 22 90 23
REMARK SMILES IDX 89 24 45 26 77 27 57 28 76 29 58 30 61 31 75 32 94 33 59 34
REMARK SMILES IDX 60 35 74 37 95 38 62 39 46 40 47 41 55 42 48 43 50 44 56 45
REMARK SMILES IDX 49 46 51 47 52 48 53 49 54 50 78 51 79 52 87 53 80 54 82 55
REMARK SMILES IDX 88 56 81 57 83 58 84 59 85 60 86 61 63 62 64 63 72 64 65 65
REMARK SMILES IDX 67 66 73 67 66 68 68 69 69 70 70 71 71 72 7 73 8 74 9 75
REMARK SMILES IDX 10 76 11 77 12 79 13 80 14 81 18 82 15 83 17 84 16 85 19 86
REMARK SMILES IDX 20 87 21 88 22 89 36 90 23 91 35 92 24 93 25 95 26 96 27 97
REMARK SMILES IDX 31 98 28 99 30 100 29 101 32 102 34 103 33 104
REMARK H PARENT 3 7 93 25 61 36 10 78 24 94
REMARK Flexibility Score: inf
ROOT
ATOM      1  C   UNL A   1      37.885  32.242  37.099  1.00  0.00     0.002 C 
ENDROOT
BRANCH   1   2
ATOM      2  C   UNL A   1      38.560  32.874  39.132  1.00  0.00     0.021 C 
BRANCH   2   3
ATOM      3  C   UNL A   1      40.043  33.465  39.625  1.00  0.00     0.116 C 
BRANCH   3   4
ATOM      4  N   UNL A   1      40.176  34.916  39.670  1.00  0.00    -0.352 N 
ATOM      5  O   UNL A   1      41.229  36.820  38.995  1.00  0.00    -0.269 OA
ATOM      6  C   UNL A   1      40.915  35.660  38.778  1.00  0.00     0.251 C 
ATOM      7  H   UNL A   1      39.705  35.398  40.388  1.00  0.00     0.163 HD
BRANCH   6   8
ATOM      8  C   UNL A   1      41.245  34.959  37.526  1.00  0.00     0.039 A 
ATOM      9  C   UNL A   1      42.602  34.678  37.323  1.00  0.00     0.014 A 
ATOM     10  C   UNL A   1      40.307  34.813  36.506  1.00  0.00     0.014 A 
ATOM     11  C   UNL A   1      43.048  34.362  36.057  1.00  0.00     0.010 A 
ATOM     12  C   UNL A   1      40.741  34.333  35.271  1.00  0.00     0.010 A 
ATOM     13  C   UNL A   1      42.109  34.086  35.053  1.00  0.00    -0.014 A 
BRANCH  13  14
ATOM     14  C   UNL A   1      42.567  33.282  33.901  1.00  0.00     0.031 A 
ATOM     15  C   UNL A   1      42.784  33.875  32.548  1.00  0.00     0.074 A 
ATOM     16  C   UNL A   1      42.727  31.962  34.133  1.00  0.00     0.049 A 
ATOM     17  N   UNL A   1      43.093  33.259  31.438  1.00  0.00    -0.248 NA
ATOM     18  C   UNL A   1      42.627  35.332  32.405  1.00  0.00     0.031 C 
ATOM     19  C   UNL A   1      42.487  31.299  35.424  1.00  0.00     0.029 A 
ATOM     20  N   UNL A   1      43.108  30.937  33.312  1.00  0.00    -0.354 N 
ATOM     21  C   UNL A   1      43.104  34.233  30.451  1.00  0.00     0.074 A 
ATOM     22  C   UNL A   1      42.803  35.494  31.098  1.00  0.00     0.031 C 
ATOM     23  C   UNL A   1      42.751  29.995  35.317  1.00  0.00     0.029 A 
ATOM     24  C   UNL A   1      43.057  29.707  33.928  1.00  0.00     0.049 A 
ATOM     25  H   UNL A   1      43.388  31.064  32.377  1.00  0.00     0.167 HD
ATOM     26  C   UNL A   1      43.334  34.069  29.128  1.00  0.00     0.034 A 
ATOM     27  C   UNL A   1      43.165  28.468  33.422  1.00  0.00     0.034 A 
ATOM     28  C   UNL A   1      43.652  32.800  28.525  1.00  0.00     0.049 A 
ATOM     29  C   UNL A   1      43.416  28.337  31.955  1.00  0.00     0.074 A 
ATOM     30  C   UNL A   1      43.994  32.537  27.210  1.00  0.00     0.029 A 
ATOM     31  N   UNL A   1      43.638  31.579  29.185  1.00  0.00    -0.354 N 
ATOM     32  N   UNL A   1      43.568  29.283  31.061  1.00  0.00    -0.248 NA
ATOM     33  C   UNL A   1      43.526  26.974  31.426  1.00  0.00     0.031 C 
ATOM     34  C   UNL A   1      44.136  31.154  27.065  1.00  0.00     0.029 A 
ATOM     35  C   UNL A   1      43.928  30.558  28.298  1.00  0.00     0.049 A 
ATOM     36  H   UNL A   1      43.448  31.458  30.145  1.00  0.00     0.167 HD
ATOM     37  C   UNL A   1      43.804  28.632  29.861  1.00  0.00     0.074 A 
ATOM     38  C   UNL A   1      43.819  27.211  30.156  1.00  0.00     0.031 C 
ATOM     39  C   UNL A   1      43.968  29.155  28.625  1.00  0.00     0.034 A 
BRANCH  26  40
ATOM     40  C   UNL A   1      43.253  35.269  28.224  1.00  0.00     0.023 A 
ATOM     41  C   UNL A   1      42.005  35.713  27.747  1.00  0.00     0.012 A 
ATOM     42  C   UNL A   1      44.409  36.033  27.958  1.00  0.00     0.148 A 
ATOM     43  C   UNL A   1      41.908  36.896  27.013  1.00  0.00     0.002 A 
ATOM     44  C   UNL A   1      44.298  37.231  27.263  1.00  0.00     0.091 A 
ATOM     45  F   UNL A   1      45.588  35.581  28.407  1.00  0.00    -0.205 F 
ATOM     46  C   UNL A   1      43.050  37.660  26.783  1.00  0.00     0.022 A 
BRANCH  44  47
ATOM     47  S   UNL A   1      45.693  38.329  26.988  1.00  0.00     0.127 S 
ATOM     48  O   UNL A   1      46.195  38.514  28.350  1.00  0.00    -0.237 OA
ATOM     49  O   UNL A   1      46.552  37.518  26.127  1.00  0.00    -0.237 OA
ATOM     50  O   UNL A   1      45.149  39.526  26.362  1.00  0.00    -0.744 OA
ENDBRANCH  44  47
ENDBRANCH  26  40
BRANCH  27  51
ATOM     51  C   UNL A   1      42.992  27.283  34.304  1.00  0.00     0.023 A 
ATOM     52  C   UNL A   1      41.698  26.833  34.619  1.00  0.00     0.012 A 
ATOM     53  C   UNL A   1      44.108  26.581  34.807  1.00  0.00     0.148 A 
ATOM     54  C   UNL A   1      41.516  25.729  35.453  1.00  0.00     0.002 A 
ATOM     55  C   UNL A   1      43.919  25.444  35.579  1.00  0.00     0.091 A 
ATOM     56  F   UNL A   1      45.335  27.028  34.502  1.00  0.00    -0.205 F 
ATOM     57  C   UNL A   1      42.624  25.029  35.923  1.00  0.00     0.022 A 
BRANCH  55  58
ATOM     58  S   UNL A   1      45.289  24.401  36.092  1.00  0.00     0.127 S 
ATOM     59  O   UNL A   1      46.018  25.288  36.993  1.00  0.00    -0.237 OA
ATOM     60  O   UNL A   1      44.597  23.290  36.748  1.00  0.00    -0.237 OA
ATOM     61  O   UNL A   1      45.977  24.031  34.863  1.00  0.00    -0.744 OA
ENDBRANCH  55  58
ENDBRANCH  27  51
BRANCH  39  62
ATOM     62  C   UNL A   1      44.197  28.181  27.504  1.00  0.00     0.023 A 
ATOM     63  C   UNL A   1      43.111  27.757  26.714  1.00  0.00     0.012 A 
ATOM     64  C   UNL A   1      45.495  27.726  27.208  1.00  0.00     0.148 A 
ATOM     65  C   UNL A   1      43.310  26.864  25.664  1.00  0.00     0.002 A 
ATOM     66  C   UNL A   1      45.694  26.882  26.125  1.00  0.00     0.091 A 
ATOM     67  F   UNL A   1      46.508  28.131  27.988  1.00  0.00    -0.205 F 
ATOM     68  C   UNL A   1      44.602  26.437  25.362  1.00  0.00     0.022 A 
BRANCH  66  69
ATOM     69  S   UNL A   1      47.327  26.357  25.601  1.00  0.00     0.127 S 
ATOM     70  O   UNL A   1      48.002  27.639  25.403  1.00  0.00    -0.237 OA
ATOM     71  O   UNL A   1      47.791  25.594  26.758  1.00  0.00    -0.237 OA
ATOM     72  O   UNL A   1      47.131  25.568  24.392  1.00  0.00    -0.744 OA
ENDBRANCH  66  69
ENDBRANCH  39  62
ENDBRANCH  13  14
ENDBRANCH   6   8
ENDBRANCH   3   4
ENDBRANCH   2   3
ENDBRANCH   1   2
BRANCH   1  73
ATOM     73  C   UNL A   1      38.254  30.795  36.214  1.00  0.00     0.002 C 
BRANCH  73  74
ATOM     74  C   UNL A   1      38.730  31.021  34.777  1.00  0.00     0.021 C 
BRANCH  74  75
ATOM     75  C   UNL A   1      37.837  30.410  33.711  1.00  0.00     0.116 C 
BRANCH  75  76
ATOM     76  N   UNL A   1      36.656  31.156  33.386  1.00  0.00    -0.356 N 
ATOM     77  C   UNL A   1      36.519  32.021  32.339  1.00  0.00     0.224 C 
ATOM     78  H   UNL A   1      35.875  31.033  33.971  1.00  0.00     0.163 HD
ATOM     79  O   UNL A   1      35.388  32.456  32.112  1.00  0.00    -0.275 OA
BRANCH  77  80
ATOM     80  C   UNL A   1      37.758  32.445  31.513  1.00  0.00     0.095 C 
ATOM     81  C   UNL A   1      38.242  33.782  32.121  1.00  0.00     0.041 C 
ATOM     82  C   UNL A   1      37.444  32.549  30.003  1.00  0.00     0.095 C 
ATOM     83  C   UNL A   1      39.156  34.583  31.255  1.00  0.00    -0.030 C 
ATOM     84  C   UNL A   1      38.381  33.459  29.175  1.00  0.00     0.041 C 
ATOM     85  C   UNL A   1      39.202  34.444  29.930  1.00  0.00    -0.030 C 
BRANCH  82  86
ATOM     86  C   UNL A   1      37.294  31.254  29.181  1.00  0.00     0.227 C 
ATOM     87  O   UNL A   1      36.290  31.113  28.475  1.00  0.00    -0.275 OA
ATOM     88  N   UNL A   1      38.373  30.364  29.085  1.00  0.00    -0.331 N 
ATOM     89  C   UNL A   1      38.520  29.698  27.788  1.00  0.00     0.181 C 
ATOM     90  C   UNL A   1      38.857  29.616  30.245  1.00  0.00     0.181 C 
ATOM     91  C   UNL A   1      39.739  28.763  27.653  1.00  0.00     0.284 C 
ATOM     92  C   UNL A   1      40.083  28.719  30.024  1.00  0.00     0.284 C 
ATOM     93  N   UNL A   1      40.038  27.912  28.807  1.00  0.00    -0.328 N 
ATOM     94  H   UNL A   1      40.978  27.542  28.663  1.00  0.00     0.348 HD
BRANCH  93  95
ATOM     95  C   UNL A   1      39.337  26.622  28.887  1.00  0.00     0.299 C 
BRANCH  95  96
ATOM     96  C   UNL A   1      39.966  25.408  28.191  1.00  0.00     0.010 A 
ATOM     97  C   UNL A   1      39.031  24.564  27.323  1.00  0.00     0.013 A 
ATOM     98  C   UNL A   1      41.364  25.175  28.370  1.00  0.00     0.060 A 
ATOM     99  C   UNL A   1      39.289  23.339  26.639  1.00  0.00     0.051 A 
ATOM    100  C   UNL A   1      41.698  24.010  27.762  1.00  0.00     0.166 A 
ATOM    101  C   UNL A   1      40.574  22.993  26.848  1.00  0.00     0.165 A 
ATOM    102  O   UNL A   1      43.428  23.565  27.326  1.00  0.00    -0.454 OA
ATOM    103  O   UNL A   1      41.490  21.837  25.800  1.00  0.00    -0.454 OA
ATOM    104  C   UNL A   1      43.389  22.117  26.033  1.00  0.00     0.468 C 
ENDBRANCH  95  96
ENDBRANCH  93  95
ENDBRANCH  82  86
ENDBRANCH  77  80
ENDBRANCH  75  76
ENDBRANCH  74  75
ENDBRANCH  73  74
ENDBRANCH   1  73
TORSDOF 19
ENDMDL
