MODEL 1
REMARK VINA RESULT:     -11.7      0.000      0.000
REMARK SMILES Cc1ccnc(C(=O)c2[nH]c3ccc(F)cc3c2CC(=O)NCCCCCCNC(=O)c2ccc(-c3c4nc(c(-c5cccc(S(=O)(=O)[O-])c5F)c5ccc([nH]5)c(-c5cccc(S(=O)(=O)[O-])c5F)c5nc(c(-c6cccc(S(=O)(=O)[O-])c6F)c6ccc3[nH]6)C=C5)C=C4)cc2)c1
REMARK SMILES IDX 25 1 24 2 23 3 22 4 20 5 21 6 19 8 18 9 9 10 10 11 11 12
REMARK SMILES IDX 17 14 12 15 16 16 13 17 14 18 15 19 7 20 8 21 6 22 1 23 2 24
REMARK SMILES IDX 3 25 95 26 4 27 5 28 26 29 27 30 28 31 29 32 30 33 31 35
REMARK SMILES IDX 32 36 33 37 94 38 34 39 93 40 35 41 36 42 37 43 87 44 38 45
REMARK SMILES IDX 92 46 86 47 88 48 39 49 91 50 85 51 84 52 40 54 72 55 52 56
REMARK SMILES IDX 71 57 53 58 56 59 70 60 89 61 54 62 55 63 69 65 90 66 57 67
REMARK SMILES IDX 41 68 42 69 50 70 43 71 45 72 51 73 44 74 46 75 47 76 48 77
REMARK SMILES IDX 49 78 73 79 74 80 82 81 75 82 77 83 83 84 76 85 78 86 79 87
REMARK SMILES IDX 80 88 81 89 58 90 59 91 67 92 60 93 62 94 68 95 61 96 63 97
REMARK SMILES IDX 64 98 65 99 66 100
REMARK H PARENT 22 7 10 13 29 34 88 53 56 64
REMARK Flexibility Score: inf
ROOT
ATOM      1  C   UNL A   1      32.186  26.023  26.457  1.00  0.00     0.002 C 
ENDROOT
BRANCH   1   2
ATOM      2  C   UNL A   1      30.682  26.305  26.539  1.00  0.00     0.021 C 
BRANCH   2   3
ATOM      3  C   UNL A   1      29.747  25.130  26.221  1.00  0.00     0.116 C 
BRANCH   3   4
ATOM      4  N   UNL A   1      30.425  23.896  25.875  1.00  0.00    -0.356 N 
ATOM      5  C   UNL A   1      30.823  23.400  24.671  1.00  0.00     0.224 C 
ATOM      6  O   UNL A   1      31.516  22.376  24.687  1.00  0.00    -0.275 OA
ATOM      7  H   UNL A   1      30.633  23.317  26.644  1.00  0.00     0.163 HD
BRANCH   5   8
ATOM      8  C   UNL A   1      30.505  24.082  23.353  1.00  0.00     0.138 C 
BRANCH   8   9
ATOM      9  C   UNL A   1      31.426  25.186  22.922  1.00  0.00    -0.002 A 
ATOM     10  C   UNL A   1      32.775  25.135  22.557  1.00  0.00     0.093 A 
ATOM     11  N   UNL A   1      33.182  26.446  22.379  1.00  0.00    -0.352 N 
ATOM     12  C   UNL A   1      32.140  27.326  22.505  1.00  0.00     0.046 A 
ATOM     13  H   UNL A   1      34.110  26.713  22.184  1.00  0.00     0.167 HD
ATOM     14  C   UNL A   1      31.041  26.582  22.919  1.00  0.00     0.007 A 
ATOM     15  C   UNL A   1      32.096  28.714  22.307  1.00  0.00     0.030 A 
ATOM     16  C   UNL A   1      29.844  27.274  23.208  1.00  0.00     0.049 A 
ATOM     17  C   UNL A   1      30.880  29.363  22.535  1.00  0.00     0.041 A 
ATOM     18  C   UNL A   1      29.781  28.650  22.988  1.00  0.00     0.123 A 
ATOM     19  F   UNL A   1      28.624  29.289  23.204  1.00  0.00    -0.207 F 
BRANCH  10  20
ATOM     20  C   UNL A   1      33.780  24.077  22.462  1.00  0.00     0.227 C 
ATOM     21  O   UNL A   1      33.773  23.334  21.479  1.00  0.00    -0.285 OA
BRANCH  20  22
ATOM     22  C   UNL A   1      34.744  23.762  23.579  1.00  0.00     0.113 A 
ATOM     23  C   UNL A   1      37.405  21.261  24.652  1.00  0.00     0.044 C 
ATOM     24  C   UNL A   1      36.498  22.454  24.601  1.00  0.00    -0.047 A 
ATOM     25  C   UNL A   1      36.508  23.365  25.654  1.00  0.00     0.023 A 
ATOM     26  C   UNL A   1      35.640  22.700  23.518  1.00  0.00     0.036 A 
ATOM     27  C   UNL A   1      35.633  24.435  25.609  1.00  0.00     0.112 A 
ATOM     28  N   UNL A   1      34.749  24.647  24.611  1.00  0.00    -0.253 NA
ENDBRANCH  20  22
ENDBRANCH  10  20
ENDBRANCH   8   9
ENDBRANCH   5   8
ENDBRANCH   3   4
ENDBRANCH   2   3
ENDBRANCH   1   2
BRANCH   1  29
ATOM     29  C   UNL A   1      33.077  27.253  26.309  1.00  0.00     0.002 C 
BRANCH  29  30
ATOM     30  C   UNL A   1      32.304  28.537  26.017  1.00  0.00     0.021 C 
BRANCH  30  31
ATOM     31  C   UNL A   1      33.176  29.676  25.509  1.00  0.00     0.116 C 
BRANCH  31  32
ATOM     32  N   UNL A   1      32.731  30.967  26.015  1.00  0.00    -0.352 N 
ATOM     33  C   UNL A   1      33.208  31.663  27.100  1.00  0.00     0.251 C 
ATOM     34  H   UNL A   1      31.998  31.395  25.517  1.00  0.00     0.163 HD
ATOM     35  O   UNL A   1      32.608  32.641  27.522  1.00  0.00    -0.269 OA
BRANCH  33  36
ATOM     36  C   UNL A   1      34.446  31.195  27.756  1.00  0.00     0.039 A 
ATOM     37  C   UNL A   1      35.539  32.058  27.836  1.00  0.00     0.014 A 
ATOM     38  C   UNL A   1      34.508  29.914  28.313  1.00  0.00     0.014 A 
ATOM     39  C   UNL A   1      36.689  31.644  28.511  1.00  0.00     0.010 A 
ATOM     40  C   UNL A   1      35.619  29.540  29.057  1.00  0.00     0.010 A 
ATOM     41  C   UNL A   1      36.731  30.391  29.144  1.00  0.00    -0.014 A 
BRANCH  41  42
ATOM     42  C   UNL A   1      37.941  29.938  29.873  1.00  0.00     0.031 A 
ATOM     43  C   UNL A   1      38.223  30.461  31.256  1.00  0.00     0.074 A 
ATOM     44  C   UNL A   1      38.818  29.112  29.270  1.00  0.00     0.049 A 
ATOM     45  N   UNL A   1      39.239  30.213  32.042  1.00  0.00    -0.248 NA
ATOM     46  C   UNL A   1      37.251  31.414  31.821  1.00  0.00     0.031 C 
ATOM     47  C   UNL A   1      38.696  28.599  27.903  1.00  0.00     0.029 A 
ATOM     48  N   UNL A   1      39.997  28.575  29.722  1.00  0.00    -0.354 N 
ATOM     49  C   UNL A   1      39.049  31.001  33.169  1.00  0.00     0.074 A 
ATOM     50  C   UNL A   1      37.845  31.770  32.951  1.00  0.00     0.031 C 
ATOM     51  C   UNL A   1      39.752  27.815  27.633  1.00  0.00     0.029 A 
ATOM     52  C   UNL A   1      40.639  27.792  28.792  1.00  0.00     0.049 A 
ATOM     53  H   UNL A   1      40.350  28.736  30.627  1.00  0.00     0.167 HD
ATOM     54  C   UNL A   1      39.790  31.059  34.301  1.00  0.00     0.034 A 
ATOM     55  C   UNL A   1      41.812  27.133  28.865  1.00  0.00     0.034 A 
ATOM     56  C   UNL A   1      40.965  30.264  34.530  1.00  0.00     0.049 A 
ATOM     57  C   UNL A   1      42.595  27.180  30.149  1.00  0.00     0.074 A 
ATOM     58  C   UNL A   1      41.742  30.185  35.672  1.00  0.00     0.029 A 
ATOM     59  N   UNL A   1      41.540  29.416  33.595  1.00  0.00    -0.354 N 
ATOM     60  N   UNL A   1      42.321  27.814  31.262  1.00  0.00    -0.248 NA
ATOM     61  C   UNL A   1      43.831  26.385  30.201  1.00  0.00     0.031 C 
ATOM     62  C   UNL A   1      42.806  29.313  35.416  1.00  0.00     0.029 A 
ATOM     63  C   UNL A   1      42.667  28.815  34.130  1.00  0.00     0.049 A 
ATOM     64  H   UNL A   1      41.198  29.264  32.685  1.00  0.00     0.167 HD
ATOM     65  C   UNL A   1      43.320  27.460  32.161  1.00  0.00     0.074 A 
ATOM     66  C   UNL A   1      44.198  26.541  31.465  1.00  0.00     0.031 C 
ATOM     67  C   UNL A   1      43.501  27.863  33.443  1.00  0.00     0.034 A 
BRANCH  54  68
ATOM     68  C   UNL A   1      39.325  31.986  35.394  1.00  0.00     0.023 A 
ATOM     69  C   UNL A   1      38.422  31.520  36.372  1.00  0.00     0.012 A 
ATOM     70  C   UNL A   1      39.814  33.305  35.481  1.00  0.00     0.148 A 
ATOM     71  C   UNL A   1      37.978  32.361  37.391  1.00  0.00     0.002 A 
ATOM     72  C   UNL A   1      39.407  34.121  36.529  1.00  0.00     0.091 A 
ATOM     73  F   UNL A   1      40.654  33.738  34.532  1.00  0.00    -0.205 F 
ATOM     74  C   UNL A   1      38.479  33.658  37.475  1.00  0.00     0.022 A 
BRANCH  72  75
ATOM     75  S   UNL A   1      40.057  35.777  36.774  1.00  0.00     0.127 S 
ATOM     76  O   UNL A   1      41.493  35.518  36.880  1.00  0.00    -0.237 OA
ATOM     77  O   UNL A   1      39.649  36.453  35.542  1.00  0.00    -0.237 OA
ATOM     78  O   UNL A   1      39.424  36.283  37.984  1.00  0.00    -0.744 OA
ENDBRANCH  72  75
ENDBRANCH  54  68
BRANCH  55  79
ATOM     79  C   UNL A   1      42.283  26.320  27.709  1.00  0.00     0.023 A 
ATOM     80  C   UNL A   1      43.156  26.896  26.764  1.00  0.00     0.012 A 
ATOM     81  C   UNL A   1      41.890  24.977  27.550  1.00  0.00     0.148 A 
ATOM     82  C   UNL A   1      43.597  26.162  25.663  1.00  0.00     0.002 A 
ATOM     83  C   UNL A   1      42.378  24.234  26.482  1.00  0.00     0.091 A 
ATOM     84  F   UNL A   1      41.054  24.451  28.457  1.00  0.00    -0.205 F 
ATOM     85  C   UNL A   1      43.216  24.830  25.526  1.00  0.00     0.022 A 
BRANCH  83  86
ATOM     86  S   UNL A   1      42.047  22.479  26.297  1.00  0.00     0.127 S 
ATOM     87  O   UNL A   1      40.587  22.450  26.281  1.00  0.00    -0.237 OA
ATOM     88  O   UNL A   1      42.683  22.188  25.012  1.00  0.00    -0.237 OA
ATOM     89  O   UNL A   1      42.679  21.836  27.441  1.00  0.00    -0.744 OA
ENDBRANCH  83  86
ENDBRANCH  55  79
BRANCH  67  90
ATOM     90  C   UNL A   1      44.659  27.273  34.205  1.00  0.00     0.023 A 
ATOM     91  C   UNL A   1      45.919  27.902  34.183  1.00  0.00     0.012 A 
ATOM     92  C   UNL A   1      44.475  26.121  34.997  1.00  0.00     0.148 A 
ATOM     93  C   UNL A   1      46.989  27.370  34.902  1.00  0.00     0.002 A 
ATOM     94  C   UNL A   1      45.531  25.629  35.754  1.00  0.00     0.091 A 
ATOM     95  F   UNL A   1      43.274  25.525  34.990  1.00  0.00    -0.205 F 
ATOM     96  C   UNL A   1      46.792  26.242  35.697  1.00  0.00     0.022 A 
BRANCH  94  97
ATOM     97  S   UNL A   1      45.337  24.245  36.883  1.00  0.00     0.127 S 
ATOM     98  O   UNL A   1      44.346  24.764  37.822  1.00  0.00    -0.237 OA
ATOM     99  O   UNL A   1      44.845  23.190  35.996  1.00  0.00    -0.237 OA
ATOM    100  O   UNL A   1      46.659  23.995  37.442  1.00  0.00    -0.744 OA
ENDBRANCH  94  97
ENDBRANCH  67  90
ENDBRANCH  41  42
ENDBRANCH  33  36
ENDBRANCH  31  32
ENDBRANCH  30  31
ENDBRANCH  29  30
ENDBRANCH   1  29
TORSDOF 19
ENDMDL
MODEL 2
REMARK VINA RESULT:     -11.4      2.657      8.210
REMARK SMILES Cc1ccnc(C(=O)c2[nH]c3ccc(F)cc3c2CC(=O)NCCCCCCNC(=O)c2ccc(-c3c4nc(c(-c5cccc(S(=O)(=O)[O-])c5F)c5ccc([nH]5)c(-c5cccc(S(=O)(=O)[O-])c5F)c5nc(c(-c6cccc(S(=O)(=O)[O-])c6F)c6ccc3[nH]6)C=C5)C=C4)cc2)c1
REMARK SMILES IDX 25 1 24 2 23 3 22 4 20 5 21 6 19 8 18 9 9 10 10 11 11 12
REMARK SMILES IDX 17 14 12 15 16 16 13 17 14 18 15 19 7 20 8 21 6 22 1 23 2 24
REMARK SMILES IDX 3 25 95 26 4 27 5 28 26 29 27 30 28 31 29 32 30 33 31 35
REMARK SMILES IDX 32 36 33 37 94 38 34 39 93 40 35 41 36 42 37 43 87 44 38 45
REMARK SMILES IDX 92 46 86 47 88 48 39 49 91 50 85 51 84 52 40 54 72 55 52 56
REMARK SMILES IDX 71 57 53 58 56 59 70 60 89 61 54 62 55 63 69 65 90 66 57 67
REMARK SMILES IDX 41 68 42 69 50 70 43 71 45 72 51 73 44 74 46 75 47 76 48 77
REMARK SMILES IDX 49 78 73 79 74 80 82 81 75 82 77 83 83 84 76 85 78 86 79 87
REMARK SMILES IDX 80 88 81 89 58 90 59 91 67 92 60 93 62 94 68 95 61 96 63 97
REMARK SMILES IDX 64 98 65 99 66 100
REMARK H PARENT 22 7 10 13 29 34 88 53 56 64
REMARK Flexibility Score: inf
ROOT
ATOM      1  C   UNL A   1      31.844  29.113  26.281  1.00  0.00     0.002 C 
ENDROOT
BRANCH   1   2
ATOM      2  C   UNL A   1      33.290  28.662  26.051  1.00  0.00     0.021 C 
BRANCH   2   3
ATOM      3  C   UNL A   1      33.539  27.149  26.029  1.00  0.00     0.116 C 
BRANCH   3   4
ATOM      4  N   UNL A   1      32.415  26.346  26.469  1.00  0.00    -0.356 N 
ATOM      5  C   UNL A   1      32.229  24.996  26.482  1.00  0.00     0.224 C 
ATOM      6  O   UNL A   1      31.217  24.575  27.053  1.00  0.00    -0.275 OA
ATOM      7  H   UNL A   1      31.656  26.866  26.820  1.00  0.00     0.163 HD
BRANCH   5   8
ATOM      8  C   UNL A   1      33.229  24.021  25.889  1.00  0.00     0.138 C 
BRANCH   8   9
ATOM      9  C   UNL A   1      32.882  23.419  24.558  1.00  0.00    -0.002 A 
ATOM     10  C   UNL A   1      32.638  24.043  23.330  1.00  0.00     0.093 A 
ATOM     11  N   UNL A   1      32.231  23.047  22.460  1.00  0.00    -0.352 N 
ATOM     12  C   UNL A   1      32.303  21.805  23.034  1.00  0.00     0.046 A 
ATOM     13  H   UNL A   1      31.925  23.211  21.538  1.00  0.00     0.167 HD
ATOM     14  C   UNL A   1      32.634  22.006  24.370  1.00  0.00     0.007 A 
ATOM     15  C   UNL A   1      32.080  20.536  22.482  1.00  0.00     0.030 A 
ATOM     16  C   UNL A   1      32.688  20.875  25.215  1.00  0.00     0.049 A 
ATOM     17  C   UNL A   1      32.208  19.430  23.326  1.00  0.00     0.041 A 
ATOM     18  C   UNL A   1      32.497  19.605  24.670  1.00  0.00     0.123 A 
ATOM     19  F   UNL A   1      32.611  18.534  25.465  1.00  0.00    -0.207 F 
BRANCH  10  20
ATOM     20  C   UNL A   1      32.608  25.428  22.863  1.00  0.00     0.227 C 
ATOM     21  O   UNL A   1      33.635  25.924  22.399  1.00  0.00    -0.285 OA
BRANCH  20  22
ATOM     22  C   UNL A   1      31.411  26.328  23.049  1.00  0.00     0.113 A 
ATOM     23  C   UNL A   1      30.037  29.753  22.117  1.00  0.00     0.044 C 
ATOM     24  C   UNL A   1      30.167  28.360  22.658  1.00  0.00    -0.047 A 
ATOM     25  C   UNL A   1      29.126  27.819  23.407  1.00  0.00     0.023 A 
ATOM     26  C   UNL A   1      31.302  27.567  22.429  1.00  0.00     0.036 A 
ATOM     27  C   UNL A   1      29.282  26.550  23.935  1.00  0.00     0.112 A 
ATOM     28  N   UNL A   1      30.397  25.802  23.787  1.00  0.00    -0.253 NA
ENDBRANCH  20  22
ENDBRANCH  10  20
ENDBRANCH   8   9
ENDBRANCH   5   8
ENDBRANCH   3   4
ENDBRANCH   2   3
ENDBRANCH   1   2
BRANCH   1  29
ATOM     29  C   UNL A   1      31.470  30.458  25.664  1.00  0.00     0.002 C 
BRANCH  29  30
ATOM     30  C   UNL A   1      31.388  31.595  26.680  1.00  0.00     0.021 C 
BRANCH  30  31
ATOM     31  C   UNL A   1      32.710  32.316  26.902  1.00  0.00     0.116 C 
BRANCH  31  32
ATOM     32  N   UNL A   1      32.513  33.690  27.340  1.00  0.00    -0.352 N 
ATOM     33  C   UNL A   1      33.138  34.350  28.371  1.00  0.00     0.251 C 
ATOM     34  H   UNL A   1      31.848  34.212  26.836  1.00  0.00     0.163 HD
ATOM     35  O   UNL A   1      32.731  35.440  28.748  1.00  0.00    -0.269 OA
BRANCH  33  36
ATOM     36  C   UNL A   1      34.299  33.710  29.024  1.00  0.00     0.039 A 
ATOM     37  C   UNL A   1      35.581  34.188  28.750  1.00  0.00     0.014 A 
ATOM     38  C   UNL A   1      34.109  32.659  29.926  1.00  0.00     0.014 A 
ATOM     39  C   UNL A   1      36.675  33.629  29.413  1.00  0.00     0.010 A 
ATOM     40  C   UNL A   1      35.188  32.166  30.647  1.00  0.00     0.010 A 
ATOM     41  C   UNL A   1      36.486  32.628  30.380  1.00  0.00    -0.014 A 
BRANCH  41  42
ATOM     42  C   UNL A   1      37.636  32.029  31.102  1.00  0.00     0.031 A 
ATOM     43  C   UNL A   1      38.414  30.906  30.471  1.00  0.00     0.074 A 
ATOM     44  C   UNL A   1      37.939  32.448  32.346  1.00  0.00     0.049 A 
ATOM     45  N   UNL A   1      39.427  30.232  30.952  1.00  0.00    -0.248 NA
ATOM     46  C   UNL A   1      37.980  30.458  29.136  1.00  0.00     0.031 C 
ATOM     47  C   UNL A   1      37.210  33.475  33.095  1.00  0.00     0.029 A 
ATOM     48  N   UNL A   1      38.927  32.046  33.209  1.00  0.00    -0.354 N 
ATOM     49  C   UNL A   1      39.724  29.263  30.002  1.00  0.00     0.074 A 
ATOM     50  C   UNL A   1      38.759  29.406  28.935  1.00  0.00     0.031 C 
ATOM     51  C   UNL A   1      37.782  33.628  34.300  1.00  0.00     0.029 A 
ATOM     52  C   UNL A   1      38.897  32.694  34.421  1.00  0.00     0.049 A 
ATOM     53  H   UNL A   1      39.594  31.358  32.981  1.00  0.00     0.167 HD
ATOM     54  C   UNL A   1      40.728  28.356  29.998  1.00  0.00     0.034 A 
ATOM     55  C   UNL A   1      39.678  32.547  35.510  1.00  0.00     0.034 A 
ATOM     56  C   UNL A   1      41.709  28.243  31.042  1.00  0.00     0.049 A 
ATOM     57  C   UNL A   1      40.814  31.561  35.464  1.00  0.00     0.074 A 
ATOM     58  C   UNL A   1      42.816  27.414  31.098  1.00  0.00     0.029 A 
ATOM     59  N   UNL A   1      41.697  28.975  32.220  1.00  0.00    -0.354 N 
ATOM     60  N   UNL A   1      41.171  30.757  34.493  1.00  0.00    -0.248 NA
ATOM     61  C   UNL A   1      41.680  31.493  36.649  1.00  0.00     0.031 C 
ATOM     62  C   UNL A   1      43.454  27.622  32.325  1.00  0.00     0.029 A 
ATOM     63  C   UNL A   1      42.771  28.612  33.014  1.00  0.00     0.049 A 
ATOM     64  H   UNL A   1      41.024  29.652  32.457  1.00  0.00     0.167 HD
ATOM     65  C   UNL A   1      42.328  30.121  34.929  1.00  0.00     0.074 A 
ATOM     66  C   UNL A   1      42.620  30.648  36.247  1.00  0.00     0.031 C 
ATOM     67  C   UNL A   1      43.078  29.182  34.301  1.00  0.00     0.034 A 
BRANCH  54  68
ATOM     68  C   UNL A   1      40.839  27.440  28.805  1.00  0.00     0.023 A 
ATOM     69  C   UNL A   1      39.944  26.360  28.666  1.00  0.00     0.012 A 
ATOM     70  C   UNL A   1      41.800  27.673  27.802  1.00  0.00     0.148 A 
ATOM     71  C   UNL A   1      40.031  25.499  27.572  1.00  0.00     0.002 A 
ATOM     72  C   UNL A   1      41.846  26.844  26.688  1.00  0.00     0.091 A 
ATOM     73  F   UNL A   1      42.656  28.692  27.961  1.00  0.00    -0.205 F 
ATOM     74  C   UNL A   1      40.974  25.748  26.579  1.00  0.00     0.022 A 
BRANCH  72  75
ATOM     75  S   UNL A   1      42.967  27.128  25.315  1.00  0.00     0.127 S 
ATOM     76  O   UNL A   1      42.912  25.843  24.618  1.00  0.00    -0.237 OA
ATOM     77  O   UNL A   1      42.315  28.232  24.610  1.00  0.00    -0.237 OA
ATOM     78  O   UNL A   1      44.255  27.460  25.908  1.00  0.00    -0.744 OA
ENDBRANCH  72  75
ENDBRANCH  54  68
BRANCH  55  79
ATOM     79  C   UNL A   1      39.453  33.401  36.709  1.00  0.00     0.023 A 
ATOM     80  C   UNL A   1      39.905  34.736  36.707  1.00  0.00     0.012 A 
ATOM     81  C   UNL A   1      38.778  32.908  37.842  1.00  0.00     0.148 A 
ATOM     82  C   UNL A   1      39.723  35.552  37.824  1.00  0.00     0.002 A 
ATOM     83  C   UNL A   1      38.550  33.742  38.930  1.00  0.00     0.091 A 
ATOM     84  F   UNL A   1      38.362  31.634  37.827  1.00  0.00    -0.205 F 
ATOM     85  C   UNL A   1      39.038  35.058  38.931  1.00  0.00     0.022 A 
BRANCH  83  86
ATOM     86  S   UNL A   1      37.565  33.236  40.345  1.00  0.00     0.127 S 
ATOM     87  O   UNL A   1      36.275  32.952  39.722  1.00  0.00    -0.237 OA
ATOM     88  O   UNL A   1      38.297  32.059  40.813  1.00  0.00    -0.237 OA
ATOM     89  O   UNL A   1      37.588  34.365  41.265  1.00  0.00    -0.744 OA
ENDBRANCH  83  86
ENDBRANCH  55  79
BRANCH  67  90
ATOM     90  C   UNL A   1      44.322  28.699  35.000  1.00  0.00     0.023 A 
ATOM     91  C   UNL A   1      45.517  29.440  34.917  1.00  0.00     0.012 A 
ATOM     92  C   UNL A   1      44.285  27.534  35.793  1.00  0.00     0.148 A 
ATOM     93  C   UNL A   1      46.666  29.008  35.578  1.00  0.00     0.002 A 
ATOM     94  C   UNL A   1      45.419  27.139  36.492  1.00  0.00     0.091 A 
ATOM     95  F   UNL A   1      43.144  26.831  35.844  1.00  0.00    -0.205 F 
ATOM     96  C   UNL A   1      46.614  27.865  36.375  1.00  0.00     0.022 A 
BRANCH  94  97
ATOM     97  S   UNL A   1      45.411  25.742  37.621  1.00  0.00     0.127 S 
ATOM     98  O   UNL A   1      46.454  26.122  38.572  1.00  0.00    -0.237 OA
ATOM     99  O   UNL A   1      44.050  25.787  38.159  1.00  0.00    -0.237 OA
ATOM    100  O   UNL A   1      45.700  24.568  36.809  1.00  0.00    -0.744 OA
ENDBRANCH  94  97
ENDBRANCH  67  90
ENDBRANCH  41  42
ENDBRANCH  33  36
ENDBRANCH  31  32
ENDBRANCH  30  31
ENDBRANCH  29  30
ENDBRANCH   1  29
TORSDOF 19
ENDMDL
MODEL 3
REMARK VINA RESULT:     -11.3      2.834      4.387
REMARK SMILES Cc1ccnc(C(=O)c2[nH]c3ccc(F)cc3c2CC(=O)NCCCCCCNC(=O)c2ccc(-c3c4nc(c(-c5cccc(S(=O)(=O)[O-])c5F)c5ccc([nH]5)c(-c5cccc(S(=O)(=O)[O-])c5F)c5nc(c(-c6cccc(S(=O)(=O)[O-])c6F)c6ccc3[nH]6)C=C5)C=C4)cc2)c1
REMARK SMILES IDX 25 1 24 2 23 3 22 4 20 5 21 6 19 8 18 9 9 10 10 11 11 12
REMARK SMILES IDX 17 14 12 15 16 16 13 17 14 18 15 19 7 20 8 21 6 22 1 23 2 24
REMARK SMILES IDX 3 25 95 26 4 27 5 28 26 29 27 30 28 31 29 32 30 33 31 35
REMARK SMILES IDX 32 36 33 37 94 38 34 39 93 40 35 41 36 42 37 43 87 44 38 45
REMARK SMILES IDX 92 46 86 47 88 48 39 49 91 50 85 51 84 52 40 54 72 55 52 56
REMARK SMILES IDX 71 57 53 58 56 59 70 60 89 61 54 62 55 63 69 65 90 66 57 67
REMARK SMILES IDX 41 68 42 69 50 70 43 71 45 72 51 73 44 74 46 75 47 76 48 77
REMARK SMILES IDX 49 78 73 79 74 80 82 81 75 82 77 83 83 84 76 85 78 86 79 87
REMARK SMILES IDX 80 88 81 89 58 90 59 91 67 92 60 93 62 94 68 95 61 96 63 97
REMARK SMILES IDX 64 98 65 99 66 100
REMARK H PARENT 22 7 10 13 29 34 88 53 56 64
REMARK Flexibility Score: inf
ROOT
ATOM      1  C   UNL A   1      30.887  26.971  25.232  1.00  0.00     0.002 C 
ENDROOT
BRANCH   1   2
ATOM      2  C   UNL A   1      30.701  26.094  26.474  1.00  0.00     0.021 C 
BRANCH   2   3
ATOM      3  C   UNL A   1      30.417  24.607  26.225  1.00  0.00     0.116 C 
BRANCH   3   4
ATOM      4  N   UNL A   1      31.141  23.700  27.094  1.00  0.00    -0.356 N 
ATOM      5  C   UNL A   1      32.352  23.095  26.946  1.00  0.00     0.224 C 
ATOM      6  O   UNL A   1      32.793  22.477  27.922  1.00  0.00    -0.275 OA
ATOM      7  H   UNL A   1      30.677  23.486  27.935  1.00  0.00     0.163 HD
BRANCH   5   8
ATOM      8  C   UNL A   1      33.180  23.206  25.680  1.00  0.00     0.138 C 
BRANCH   8   9
ATOM      9  C   UNL A   1      34.242  22.166  25.470  1.00  0.00    -0.002 A 
ATOM     10  C   UNL A   1      34.116  20.801  25.193  1.00  0.00     0.093 A 
ATOM     11  N   UNL A   1      35.395  20.275  25.228  1.00  0.00    -0.352 N 
ATOM     12  C   UNL A   1      36.343  21.247  25.407  1.00  0.00     0.046 A 
ATOM     13  H   UNL A   1      35.600  19.316  25.136  1.00  0.00     0.167 HD
ATOM     14  C   UNL A   1      35.655  22.433  25.638  1.00  0.00     0.007 A 
ATOM     15  C   UNL A   1      37.743  21.161  25.404  1.00  0.00     0.030 A 
ATOM     16  C   UNL A   1      36.410  23.588  25.941  1.00  0.00     0.049 A 
ATOM     17  C   UNL A   1      38.465  22.334  25.639  1.00  0.00     0.041 A 
ATOM     18  C   UNL A   1      37.803  23.520  25.912  1.00  0.00     0.123 A 
ATOM     19  F   UNL A   1      38.511  24.634  26.139  1.00  0.00    -0.207 F 
BRANCH  10  20
ATOM     20  C   UNL A   1      32.992  19.882  25.017  1.00  0.00     0.227 C 
ATOM     21  O   UNL A   1      31.844  20.314  25.135  1.00  0.00    -0.285 OA
BRANCH  20  22
ATOM     22  C   UNL A   1      33.171  18.396  24.833  1.00  0.00     0.113 A 
ATOM     23  C   UNL A   1      32.123  15.029  26.265  1.00  0.00     0.044 C 
ATOM     24  C   UNL A   1      32.724  16.090  25.392  1.00  0.00    -0.047 A 
ATOM     25  C   UNL A   1      33.529  15.716  24.320  1.00  0.00     0.023 A 
ATOM     26  C   UNL A   1      32.498  17.458  25.607  1.00  0.00     0.036 A 
ATOM     27  C   UNL A   1      34.111  16.709  23.553  1.00  0.00     0.112 A 
ATOM     28  N   UNL A   1      33.964  18.030  23.790  1.00  0.00    -0.253 NA
ENDBRANCH  20  22
ENDBRANCH  10  20
ENDBRANCH   8   9
ENDBRANCH   5   8
ENDBRANCH   3   4
ENDBRANCH   2   3
ENDBRANCH   1   2
BRANCH   1  29
ATOM     29  C   UNL A   1      32.044  27.964  25.297  1.00  0.00     0.002 C 
BRANCH  29  30
ATOM     30  C   UNL A   1      32.535  28.238  26.717  1.00  0.00     0.021 C 
BRANCH  30  31
ATOM     31  C   UNL A   1      33.876  28.956  26.775  1.00  0.00     0.116 C 
BRANCH  31  32
ATOM     32  N   UNL A   1      33.736  30.332  27.229  1.00  0.00    -0.352 N 
ATOM     33  C   UNL A   1      34.548  31.027  28.093  1.00  0.00     0.251 C 
ATOM     34  H   UNL A   1      32.963  30.826  26.874  1.00  0.00     0.163 HD
ATOM     35  O   UNL A   1      34.199  32.111  28.537  1.00  0.00    -0.269 OA
BRANCH  33  36
ATOM     36  C   UNL A   1      35.841  30.430  28.488  1.00  0.00     0.039 A 
ATOM     37  C   UNL A   1      36.975  30.697  27.719  1.00  0.00     0.014 A 
ATOM     38  C   UNL A   1      35.929  29.633  29.633  1.00  0.00     0.014 A 
ATOM     39  C   UNL A   1      38.210  30.189  28.124  1.00  0.00     0.010 A 
ATOM     40  C   UNL A   1      37.172  29.203  30.079  1.00  0.00     0.010 A 
ATOM     41  C   UNL A   1      38.322  29.455  29.317  1.00  0.00    -0.014 A 
BRANCH  41  42
ATOM     42  C   UNL A   1      39.629  28.915  29.767  1.00  0.00     0.031 A 
ATOM     43  C   UNL A   1      40.380  29.598  30.878  1.00  0.00     0.074 A 
ATOM     44  C   UNL A   1      40.170  27.855  29.136  1.00  0.00     0.049 A 
ATOM     45  N   UNL A   1      41.546  29.300  31.391  1.00  0.00    -0.248 NA
ATOM     46  C   UNL A   1      39.754  30.792  31.473  1.00  0.00     0.031 C 
ATOM     47  C   UNL A   1      39.576  27.155  27.994  1.00  0.00     0.029 A 
ATOM     48  N   UNL A   1      41.352  27.193  29.352  1.00  0.00    -0.354 N 
ATOM     49  C   UNL A   1      41.808  30.285  32.335  1.00  0.00     0.074 A 
ATOM     50  C   UNL A   1      40.702  31.215  32.297  1.00  0.00     0.031 C 
ATOM     51  C   UNL A   1      40.391  26.158  27.617  1.00  0.00     0.029 A 
ATOM     52  C   UNL A   1      41.577  26.164  28.468  1.00  0.00     0.049 A 
ATOM     53  H   UNL A   1      41.980  27.434  30.071  1.00  0.00     0.167 HD
ATOM     54  C   UNL A   1      42.857  30.391  33.183  1.00  0.00     0.034 A 
ATOM     55  C   UNL A   1      42.624  25.323  28.356  1.00  0.00     0.034 A 
ATOM     56  C   UNL A   1      43.936  29.443  33.246  1.00  0.00     0.049 A 
ATOM     57  C   UNL A   1      43.759  25.436  29.338  1.00  0.00     0.074 A 
ATOM     58  C   UNL A   1      45.005  29.412  34.123  1.00  0.00     0.029 A 
ATOM     59  N   UNL A   1      44.088  28.363  32.390  1.00  0.00    -0.354 N 
ATOM     60  N   UNL A   1      43.916  26.284  30.324  1.00  0.00    -0.248 NA
ATOM     61  C   UNL A   1      44.840  24.448  29.217  1.00  0.00     0.031 C 
ATOM     62  C   UNL A   1      45.822  28.331  33.776  1.00  0.00     0.029 A 
ATOM     63  C   UNL A   1      45.239  27.662  32.711  1.00  0.00     0.049 A 
ATOM     64  H   UNL A   1      43.471  28.128  31.661  1.00  0.00     0.167 HD
ATOM     65  C   UNL A   1      45.088  25.906  30.970  1.00  0.00     0.074 A 
ATOM     66  C   UNL A   1      45.590  24.740  30.271  1.00  0.00     0.031 C 
ATOM     67  C   UNL A   1      45.698  26.474  32.039  1.00  0.00     0.034 A 
BRANCH  54  68
ATOM     68  C   UNL A   1      42.867  31.555  34.142  1.00  0.00     0.023 A 
ATOM     69  C   UNL A   1      43.460  32.775  33.756  1.00  0.00     0.012 A 
ATOM     70  C   UNL A   1      42.253  31.456  35.406  1.00  0.00     0.148 A 
ATOM     71  C   UNL A   1      43.482  33.863  34.628  1.00  0.00     0.002 A 
ATOM     72  C   UNL A   1      42.232  32.560  36.248  1.00  0.00     0.091 A 
ATOM     73  F   UNL A   1      41.713  30.283  35.764  1.00  0.00    -0.205 F 
ATOM     74  C   UNL A   1      42.858  33.759  35.869  1.00  0.00     0.022 A 
BRANCH  72  75
ATOM     75  S   UNL A   1      41.384  32.555  37.831  1.00  0.00     0.127 S 
ATOM     76  O   UNL A   1      42.181  31.591  38.590  1.00  0.00    -0.237 OA
ATOM     77  O   UNL A   1      41.533  33.945  38.264  1.00  0.00    -0.237 OA
ATOM     78  O   UNL A   1      40.014  32.148  37.552  1.00  0.00    -0.744 OA
ENDBRANCH  72  75
ENDBRANCH  54  68
BRANCH  55  79
ATOM     79  C   UNL A   1      42.616  24.258  27.314  1.00  0.00     0.023 A 
ATOM     80  C   UNL A   1      43.166  24.525  26.044  1.00  0.00     0.012 A 
ATOM     81  C   UNL A   1      42.086  22.980  27.577  1.00  0.00     0.148 A 
ATOM     82  C   UNL A   1      43.154  23.552  25.044  1.00  0.00     0.002 A 
ATOM     83  C   UNL A   1      42.129  21.998  26.595  1.00  0.00     0.091 A 
ATOM     84  F   UNL A   1      41.563  22.749  28.789  1.00  0.00    -0.205 F 
ATOM     85  C   UNL A   1      42.645  22.287  25.322  1.00  0.00     0.022 A 
BRANCH  83  86
ATOM     86  S   UNL A   1      41.617  20.304  26.903  1.00  0.00     0.127 S 
ATOM     87  O   UNL A   1      42.778  19.765  27.607  1.00  0.00    -0.237 OA
ATOM     88  O   UNL A   1      40.428  20.496  27.733  1.00  0.00    -0.237 OA
ATOM     89  O   UNL A   1      41.350  19.728  25.592  1.00  0.00    -0.744 OA
ENDBRANCH  83  86
ENDBRANCH  55  79
BRANCH  67  90
ATOM     90  C   UNL A   1      46.947  25.815  32.564  1.00  0.00     0.023 A 
ATOM     91  C   UNL A   1      48.211  26.187  32.063  1.00  0.00     0.012 A 
ATOM     92  C   UNL A   1      46.868  24.866  33.603  1.00  0.00     0.148 A 
ATOM     93  C   UNL A   1      49.371  25.594  32.559  1.00  0.00     0.002 A 
ATOM     94  C   UNL A   1      48.032  24.321  34.130  1.00  0.00     0.091 A 
ATOM     95  F   UNL A   1      45.656  24.511  34.054  1.00  0.00    -0.205 F 
ATOM     96  C   UNL A   1      49.283  24.671  33.599  1.00  0.00     0.022 A 
BRANCH  94  97
ATOM     97  S   UNL A   1      48.017  23.206  35.538  1.00  0.00     0.127 S 
ATOM     98  O   UNL A   1      49.291  22.508  35.378  1.00  0.00    -0.237 OA
ATOM     99  O   UNL A   1      47.967  24.135  36.667  1.00  0.00    -0.237 OA
ATOM    100  O   UNL A   1      46.827  22.380  35.383  1.00  0.00    -0.744 OA
ENDBRANCH  94  97
ENDBRANCH  67  90
ENDBRANCH  41  42
ENDBRANCH  33  36
ENDBRANCH  31  32
ENDBRANCH  30  31
ENDBRANCH  29  30
ENDBRANCH   1  29
TORSDOF 19
ENDMDL
