MODEL 1
REMARK VINA RESULT:     -10.7      0.000      0.000
REMARK SMILES O=C(CSCc1nnnn1-c1ccc([N+](=O)[O-])cc1)NCCCCCCNC(=O)c1ccc(-c2c3nc(c(-c4cccc(S(=O)(=O)[O-])c4F)c4ccc([nH]4)c(-c4cccc(S(=O)(=O)[O-])c4F)c4nc(c(-c5cccc(S(=O)(=O)[O-])c5F)c5ccc2[nH]5)C=C4)C=C3)cc1
REMARK SMILES IDX 22 1 21 2 20 3 1 4 2 5 3 7 4 8 5 9 6 10 7 11 10 12 8 13 9 14
REMARK SMILES IDX 11 15 12 16 19 17 13 18 18 19 14 20 15 21 16 22 17 23 23 24
REMARK SMILES IDX 24 25 25 26 26 27 27 28 28 29 29 31 30 32 31 33 92 34 32 35
REMARK SMILES IDX 91 36 33 37 34 38 35 39 85 40 36 41 90 42 84 43 86 44 37 45
REMARK SMILES IDX 89 46 83 47 82 48 38 50 70 51 50 52 69 53 51 54 54 55 68 56
REMARK SMILES IDX 87 57 52 58 53 59 67 61 88 62 55 63 39 64 40 65 48 66 41 67
REMARK SMILES IDX 43 68 49 69 42 70 44 71 45 72 46 73 47 74 71 75 72 76 80 77
REMARK SMILES IDX 73 78 75 79 81 80 74 81 76 82 77 83 78 84 79 85 56 86 57 87
REMARK SMILES IDX 65 88 58 89 60 90 66 91 59 92 61 93 62 94 63 95 64 96
REMARK H PARENT 20 6 27 30 86 49 54 60
REMARK Flexibility Score: inf
ROOT
ATOM      1  C   UNL A   1      33.509  27.662  26.091  1.00  0.00     0.021 C 
ENDROOT
BRANCH   1   2
ATOM      2  C   UNL A   1      33.732  28.369  24.755  1.00  0.00     0.116 C 
BRANCH   2   3
ATOM      3  N   UNL A   1      32.923  27.778  23.710  1.00  0.00    -0.355 N 
ATOM      4  O   UNL A   1      31.215  29.312  23.794  1.00  0.00    -0.274 OA
ATOM      5  C   UNL A   1      31.681  28.263  23.364  1.00  0.00     0.230 C 
ATOM      6  H   UNL A   1      33.274  26.997  23.226  1.00  0.00     0.163 HD
BRANCH   5   7
ATOM      7  C   UNL A   1      30.952  27.403  22.347  1.00  0.00     0.169 C 
BRANCH   7   8
ATOM      8  S   UNL A   1      31.816  25.809  22.094  1.00  0.00    -0.144 SA
BRANCH   8   9
ATOM      9  C   UNL A   1      30.767  24.728  23.115  1.00  0.00     0.149 C 
BRANCH   9  10
ATOM     10  C   UNL A   1      30.833  25.048  24.562  1.00  0.00     0.166 A 
ATOM     11  N   UNL A   1      29.958  25.764  25.243  1.00  0.00    -0.113 NA
ATOM     12  N   UNL A   1      31.677  24.441  25.472  1.00  0.00    -0.196 N 
ATOM     13  N   UNL A   1      30.196  25.518  26.566  1.00  0.00    -0.023 NA
ATOM     14  N   UNL A   1      31.189  24.655  26.714  1.00  0.00    -0.040 NA
BRANCH  12  15
ATOM     15  C   UNL A   1      32.857  23.689  25.279  1.00  0.00     0.069 A 
ATOM     16  C   UNL A   1      32.892  22.357  25.714  1.00  0.00     0.035 A 
ATOM     17  C   UNL A   1      33.990  24.272  24.696  1.00  0.00     0.035 A 
ATOM     18  C   UNL A   1      34.042  21.589  25.517  1.00  0.00     0.088 A 
ATOM     19  C   UNL A   1      35.154  23.516  24.527  1.00  0.00     0.088 A 
ATOM     20  C   UNL A   1      35.172  22.173  24.927  1.00  0.00     0.269 A 
BRANCH  20  21
ATOM     21  N   UNL A   1      36.387  21.374  24.735  1.00  0.00     0.062 N 
ATOM     22  O   UNL A   1      36.342  20.174  25.044  1.00  0.00    -0.258 OA
ATOM     23  O   UNL A   1      37.386  21.944  24.274  1.00  0.00    -0.258 OA
ENDBRANCH  20  21
ENDBRANCH  12  15
ENDBRANCH   9  10
ENDBRANCH   8   9
ENDBRANCH   7   8
ENDBRANCH   5   7
ENDBRANCH   2   3
ENDBRANCH   1   2
BRANCH   1  24
ATOM     24  C   UNL A   1      33.324  28.598  27.293  1.00  0.00     0.002 C 
BRANCH  24  25
ATOM     25  C   UNL A   1      34.202  29.859  27.319  1.00  0.00     0.002 C 
BRANCH  25  26
ATOM     26  C   UNL A   1      33.480  31.205  27.473  1.00  0.00     0.021 C 
BRANCH  26  27
ATOM     27  C   UNL A   1      34.371  32.338  27.955  1.00  0.00     0.116 C 
BRANCH  27  28
ATOM     28  N   UNL A   1      34.099  32.744  29.343  1.00  0.00    -0.352 N 
ATOM     29  C   UNL A   1      34.780  32.369  30.496  1.00  0.00     0.251 C 
ATOM     30  H   UNL A   1      33.339  33.358  29.471  1.00  0.00     0.163 HD
ATOM     31  O   UNL A   1      34.263  32.453  31.597  1.00  0.00    -0.269 OA
BRANCH  29  32
ATOM     32  C   UNL A   1      36.168  31.896  30.346  1.00  0.00     0.039 A 
ATOM     33  C   UNL A   1      37.274  32.747  30.251  1.00  0.00     0.014 A 
ATOM     34  C   UNL A   1      36.332  30.520  30.357  1.00  0.00     0.014 A 
ATOM     35  C   UNL A   1      38.544  32.175  30.224  1.00  0.00     0.010 A 
ATOM     36  C   UNL A   1      37.552  30.000  30.647  1.00  0.00     0.010 A 
ATOM     37  C   UNL A   1      38.663  30.792  30.425  1.00  0.00    -0.014 A 
BRANCH  37  38
ATOM     38  C   UNL A   1      39.935  30.098  30.469  1.00  0.00     0.031 A 
ATOM     39  C   UNL A   1      40.531  30.019  31.823  1.00  0.00     0.074 A 
ATOM     40  C   UNL A   1      40.368  29.357  29.421  1.00  0.00     0.049 A 
ATOM     41  N   UNL A   1      41.576  30.641  32.250  1.00  0.00    -0.248 NA
ATOM     42  C   UNL A   1      39.783  29.316  32.877  1.00  0.00     0.031 C 
ATOM     43  C   UNL A   1      39.671  29.060  28.157  1.00  0.00     0.029 A 
ATOM     44  N   UNL A   1      41.458  28.554  29.341  1.00  0.00    -0.354 N 
ATOM     45  C   UNL A   1      41.769  30.186  33.550  1.00  0.00     0.074 A 
ATOM     46  C   UNL A   1      40.520  29.598  33.954  1.00  0.00     0.031 C 
ATOM     47  C   UNL A   1      40.205  27.953  27.598  1.00  0.00     0.029 A 
ATOM     48  C   UNL A   1      41.374  27.567  28.365  1.00  0.00     0.049 A 
ATOM     49  H   UNL A   1      42.243  28.663  29.926  1.00  0.00     0.167 HD
ATOM     50  C   UNL A   1      43.023  30.063  34.068  1.00  0.00     0.034 A 
ATOM     51  C   UNL A   1      42.166  26.471  28.258  1.00  0.00     0.034 A 
ATOM     52  C   UNL A   1      43.997  30.729  33.236  1.00  0.00     0.049 A 
ATOM     53  C   UNL A   1      43.405  26.763  29.022  1.00  0.00     0.074 A 
ATOM     54  C   UNL A   1      44.139  32.013  32.741  1.00  0.00     0.029 A 
ATOM     55  N   UNL A   1      44.781  29.932  32.433  1.00  0.00    -0.354 N 
ATOM     56  N   UNL A   1      44.237  27.714  28.691  1.00  0.00    -0.248 NA
ATOM     57  C   UNL A   1      43.444  26.352  30.417  1.00  0.00     0.031 C 
ATOM     58  C   UNL A   1      44.558  31.832  31.388  1.00  0.00     0.029 A 
ATOM     59  C   UNL A   1      44.741  30.465  31.169  1.00  0.00     0.049 A 
ATOM     60  H   UNL A   1      45.277  29.129  32.711  1.00  0.00     0.167 HD
ATOM     61  C   UNL A   1      44.544  28.335  29.896  1.00  0.00     0.074 A 
ATOM     62  C   UNL A   1      44.104  27.396  30.931  1.00  0.00     0.031 C 
ATOM     63  C   UNL A   1      44.827  29.672  29.962  1.00  0.00     0.034 A 
BRANCH  50  64
ATOM     64  C   UNL A   1      43.448  29.030  35.088  1.00  0.00     0.023 A 
ATOM     65  C   UNL A   1      44.250  29.487  36.158  1.00  0.00     0.012 A 
ATOM     66  C   UNL A   1      43.350  27.631  34.915  1.00  0.00     0.148 A 
ATOM     67  C   UNL A   1      44.970  28.602  36.967  1.00  0.00     0.002 A 
ATOM     68  C   UNL A   1      44.003  26.753  35.770  1.00  0.00     0.091 A 
ATOM     69  F   UNL A   1      42.737  27.127  33.842  1.00  0.00    -0.205 F 
ATOM     70  C   UNL A   1      44.843  27.232  36.776  1.00  0.00     0.022 A 
BRANCH  68  71
ATOM     71  S   UNL A   1      43.841  24.970  35.595  1.00  0.00     0.127 S 
ATOM     72  O   UNL A   1      44.565  24.496  36.769  1.00  0.00    -0.237 OA
ATOM     73  O   UNL A   1      42.388  24.798  35.647  1.00  0.00    -0.237 OA
ATOM     74  O   UNL A   1      44.433  24.648  34.303  1.00  0.00    -0.744 OA
ENDBRANCH  68  71
ENDBRANCH  50  64
BRANCH  51  75
ATOM     75  C   UNL A   1      41.783  25.100  27.832  1.00  0.00     0.023 A 
ATOM     76  C   UNL A   1      40.456  24.651  27.981  1.00  0.00     0.012 A 
ATOM     77  C   UNL A   1      42.659  24.317  27.044  1.00  0.00     0.148 A 
ATOM     78  C   UNL A   1      40.015  23.473  27.355  1.00  0.00     0.002 A 
ATOM     79  C   UNL A   1      42.224  23.140  26.442  1.00  0.00     0.091 A 
ATOM     80  F   UNL A   1      43.895  24.774  26.804  1.00  0.00    -0.205 F 
ATOM     81  C   UNL A   1      40.898  22.719  26.585  1.00  0.00     0.022 A 
BRANCH  79  82
ATOM     82  S   UNL A   1      43.323  22.127  25.439  1.00  0.00     0.127 S 
ATOM     83  O   UNL A   1      44.563  22.168  26.214  1.00  0.00    -0.237 OA
ATOM     84  O   UNL A   1      42.636  20.839  25.445  1.00  0.00    -0.237 OA
ATOM     85  O   UNL A   1      43.408  22.797  24.146  1.00  0.00    -0.744 OA
ENDBRANCH  79  82
ENDBRANCH  51  75
BRANCH  63  86
ATOM     86  C   UNL A   1      44.995  30.446  28.674  1.00  0.00     0.023 A 
ATOM     87  C   UNL A   1      43.899  30.873  27.895  1.00  0.00     0.012 A 
ATOM     88  C   UNL A   1      46.274  30.931  28.356  1.00  0.00     0.148 A 
ATOM     89  C   UNL A   1      44.075  31.747  26.818  1.00  0.00     0.002 A 
ATOM     90  C   UNL A   1      46.442  31.835  27.314  1.00  0.00     0.091 A 
ATOM     91  F   UNL A   1      47.308  30.528  29.112  1.00  0.00    -0.205 F 
ATOM     92  C   UNL A   1      45.346  32.240  26.536  1.00  0.00     0.022 A 
BRANCH  90  93
ATOM     93  S   UNL A   1      48.030  32.598  26.980  1.00  0.00     0.127 S 
ATOM     94  O   UNL A   1      48.366  33.179  28.279  1.00  0.00    -0.237 OA
ATOM     95  O   UNL A   1      48.855  31.453  26.591  1.00  0.00    -0.237 OA
ATOM     96  O   UNL A   1      47.798  33.557  25.907  1.00  0.00    -0.744 OA
ENDBRANCH  90  93
ENDBRANCH  63  86
ENDBRANCH  37  38
ENDBRANCH  29  32
ENDBRANCH  27  28
ENDBRANCH  26  27
ENDBRANCH  25  26
ENDBRANCH  24  25
ENDBRANCH   1  24
TORSDOF 21
ENDMDL
MODEL 2
REMARK VINA RESULT:     -10.4      2.299      2.813
REMARK SMILES O=C(CSCc1nnnn1-c1ccc([N+](=O)[O-])cc1)NCCCCCCNC(=O)c1ccc(-c2c3nc(c(-c4cccc(S(=O)(=O)[O-])c4F)c4ccc([nH]4)c(-c4cccc(S(=O)(=O)[O-])c4F)c4nc(c(-c5cccc(S(=O)(=O)[O-])c5F)c5ccc2[nH]5)C=C4)C=C3)cc1
REMARK SMILES IDX 22 1 21 2 20 3 1 4 2 5 3 7 4 8 5 9 6 10 7 11 10 12 8 13 9 14
REMARK SMILES IDX 11 15 12 16 19 17 13 18 18 19 14 20 15 21 16 22 17 23 23 24
REMARK SMILES IDX 24 25 25 26 26 27 27 28 28 29 29 31 30 32 31 33 92 34 32 35
REMARK SMILES IDX 91 36 33 37 34 38 35 39 85 40 36 41 90 42 84 43 86 44 37 45
REMARK SMILES IDX 89 46 83 47 82 48 38 50 70 51 50 52 69 53 51 54 54 55 68 56
REMARK SMILES IDX 87 57 52 58 53 59 67 61 88 62 55 63 39 64 40 65 48 66 41 67
REMARK SMILES IDX 43 68 49 69 42 70 44 71 45 72 46 73 47 74 71 75 72 76 80 77
REMARK SMILES IDX 73 78 75 79 81 80 74 81 76 82 77 83 78 84 79 85 56 86 57 87
REMARK SMILES IDX 65 88 58 89 60 90 66 91 59 92 61 93 62 94 63 95 64 96
REMARK H PARENT 20 6 27 30 86 49 54 60
REMARK Flexibility Score: inf
ROOT
ATOM      1  C   UNL A   1      33.364  27.112  25.550  1.00  0.00     0.021 C 
ENDROOT
BRANCH   1   2
ATOM      2  C   UNL A   1      33.344  27.297  24.034  1.00  0.00     0.116 C 
BRANCH   2   3
ATOM      3  N   UNL A   1      33.031  26.054  23.360  1.00  0.00    -0.355 N 
ATOM      4  O   UNL A   1      33.730  26.700  21.269  1.00  0.00    -0.274 OA
ATOM      5  C   UNL A   1      33.182  25.884  22.002  1.00  0.00     0.230 C 
ATOM      6  H   UNL A   1      32.695  25.300  23.895  1.00  0.00     0.163 HD
BRANCH   5   7
ATOM      7  C   UNL A   1      32.656  24.554  21.492  1.00  0.00     0.169 C 
BRANCH   7   8
ATOM      8  S   UNL A   1      33.435  23.155  22.378  1.00  0.00    -0.144 SA
BRANCH   8   9
ATOM      9  C   UNL A   1      32.128  22.798  23.595  1.00  0.00     0.149 C 
BRANCH   9  10
ATOM     10  C   UNL A   1      32.621  22.790  24.994  1.00  0.00     0.166 A 
ATOM     11  N   UNL A   1      32.543  23.789  25.853  1.00  0.00    -0.113 NA
ATOM     12  N   UNL A   1      33.005  21.663  25.694  1.00  0.00    -0.196 N 
ATOM     13  N   UNL A   1      32.778  23.259  27.091  1.00  0.00    -0.023 NA
ATOM     14  N   UNL A   1      32.982  21.953  27.014  1.00  0.00    -0.040 NA
BRANCH  12  15
ATOM     15  C   UNL A   1      33.365  20.374  25.244  1.00  0.00     0.069 A 
ATOM     16  C   UNL A   1      32.358  19.423  25.032  1.00  0.00     0.035 A 
ATOM     17  C   UNL A   1      34.710  20.034  25.047  1.00  0.00     0.035 A 
ATOM     18  C   UNL A   1      32.689  18.146  24.569  1.00  0.00     0.088 A 
ATOM     19  C   UNL A   1      35.048  18.748  24.615  1.00  0.00     0.088 A 
ATOM     20  C   UNL A   1      34.036  17.813  24.366  1.00  0.00     0.269 A 
BRANCH  20  21
ATOM     21  N   UNL A   1      34.388  16.467  23.897  1.00  0.00     0.062 N 
ATOM     22  O   UNL A   1      34.880  15.681  24.719  1.00  0.00    -0.258 OA
ATOM     23  O   UNL A   1      34.172  16.196  22.708  1.00  0.00    -0.258 OA
ENDBRANCH  20  21
ENDBRANCH  12  15
ENDBRANCH   9  10
ENDBRANCH   8   9
ENDBRANCH   7   8
ENDBRANCH   5   7
ENDBRANCH   2   3
ENDBRANCH   1   2
BRANCH   1  24
ATOM     24  C   UNL A   1      33.265  28.412  26.361  1.00  0.00     0.002 C 
BRANCH  24  25
ATOM     25  C   UNL A   1      34.595  29.067  26.767  1.00  0.00     0.002 C 
BRANCH  25  26
ATOM     26  C   UNL A   1      34.512  30.313  27.659  1.00  0.00     0.021 C 
BRANCH  26  27
ATOM     27  C   UNL A   1      35.815  30.670  28.355  1.00  0.00     0.116 C 
BRANCH  27  28
ATOM     28  N   UNL A   1      35.620  31.299  29.672  1.00  0.00    -0.352 N 
ATOM     29  C   UNL A   1      36.352  31.096  30.837  1.00  0.00     0.251 C 
ATOM     30  H   UNL A   1      34.878  31.944  29.735  1.00  0.00     0.163 HD
ATOM     31  O   UNL A   1      35.892  31.368  31.933  1.00  0.00    -0.269 OA
BRANCH  29  32
ATOM     32  C   UNL A   1      37.722  30.570  30.700  1.00  0.00     0.039 A 
ATOM     33  C   UNL A   1      38.846  31.375  30.486  1.00  0.00     0.014 A 
ATOM     34  C   UNL A   1      37.851  29.199  30.852  1.00  0.00     0.014 A 
ATOM     35  C   UNL A   1      40.100  30.767  30.485  1.00  0.00     0.010 A 
ATOM     36  C   UNL A   1      39.066  28.678  31.163  1.00  0.00     0.010 A 
ATOM     37  C   UNL A   1      40.190  29.410  30.828  1.00  0.00    -0.014 A 
BRANCH  37  38
ATOM     38  C   UNL A   1      41.444  28.689  30.911  1.00  0.00     0.031 A 
ATOM     39  C   UNL A   1      41.952  28.523  32.292  1.00  0.00     0.074 A 
ATOM     40  C   UNL A   1      41.928  27.998  29.852  1.00  0.00     0.049 A 
ATOM     41  N   UNL A   1      42.979  29.098  32.818  1.00  0.00    -0.248 NA
ATOM     42  C   UNL A   1      41.127  27.778  33.257  1.00  0.00     0.031 C 
ATOM     43  C   UNL A   1      41.307  27.786  28.532  1.00  0.00     0.029 A 
ATOM     44  N   UNL A   1      43.008  27.179  29.793  1.00  0.00    -0.354 N 
ATOM     45  C   UNL A   1      43.082  28.568  34.099  1.00  0.00     0.074 A 
ATOM     46  C   UNL A   1      41.801  27.984  34.391  1.00  0.00     0.031 C 
ATOM     47  C   UNL A   1      41.856  26.701  27.945  1.00  0.00     0.029 A 
ATOM     48  C   UNL A   1      42.968  26.250  28.759  1.00  0.00     0.049 A 
ATOM     49  H   UNL A   1      43.756  27.238  30.431  1.00  0.00     0.167 HD
ATOM     50  C   UNL A   1      44.299  28.390  34.685  1.00  0.00     0.034 A 
ATOM     51  C   UNL A   1      43.746  25.144  28.640  1.00  0.00     0.034 A 
ATOM     52  C   UNL A   1      45.335  29.081  33.954  1.00  0.00     0.049 A 
ATOM     53  C   UNL A   1      44.940  25.368  29.493  1.00  0.00     0.074 A 
ATOM     54  C   UNL A   1      45.529  30.387  33.542  1.00  0.00     0.029 A 
ATOM     55  N   UNL A   1      46.154  28.314  33.157  1.00  0.00    -0.354 N 
ATOM     56  N   UNL A   1      45.807  26.318  29.269  1.00  0.00    -0.248 NA
ATOM     57  C   UNL A   1      44.885  24.880  30.863  1.00  0.00     0.031 C 
ATOM     58  C   UNL A   1      46.029  30.273  32.210  1.00  0.00     0.029 A 
ATOM     59  C   UNL A   1      46.202  28.917  31.926  1.00  0.00     0.049 A 
ATOM     60  H   UNL A   1      46.617  27.487  33.419  1.00  0.00     0.167 HD
ATOM     61  C   UNL A   1      46.049  26.866  30.523  1.00  0.00     0.074 A 
ATOM     62  C   UNL A   1      45.529  25.879  31.474  1.00  0.00     0.031 C 
ATOM     63  C   UNL A   1      46.350  28.190  30.682  1.00  0.00     0.034 A 
BRANCH  50  64
ATOM     64  C   UNL A   1      44.642  27.294  35.669  1.00  0.00     0.023 A 
ATOM     65  C   UNL A   1      45.276  27.692  36.868  1.00  0.00     0.012 A 
ATOM     66  C   UNL A   1      44.638  25.912  35.377  1.00  0.00     0.148 A 
ATOM     67  C   UNL A   1      45.930  26.772  37.694  1.00  0.00     0.002 A 
ATOM     68  C   UNL A   1      45.220  24.991  36.240  1.00  0.00     0.091 A 
ATOM     69  F   UNL A   1      44.194  25.474  34.197  1.00  0.00    -0.205 F 
ATOM     70  C   UNL A   1      45.898  25.419  37.383  1.00  0.00     0.022 A 
BRANCH  68  71
ATOM     71  S   UNL A   1      45.171  23.225  35.908  1.00  0.00     0.127 S 
ATOM     72  O   UNL A   1      45.614  22.677  37.186  1.00  0.00    -0.237 OA
ATOM     73  O   UNL A   1      43.756  23.019  35.598  1.00  0.00    -0.237 OA
ATOM     74  O   UNL A   1      46.065  23.015  34.776  1.00  0.00    -0.744 OA
ENDBRANCH  68  71
ENDBRANCH  50  64
BRANCH  51  75
ATOM     75  C   UNL A   1      43.367  23.807  28.113  1.00  0.00     0.023 A 
ATOM     76  C   UNL A   1      42.154  23.205  28.502  1.00  0.00     0.012 A 
ATOM     77  C   UNL A   1      44.073  23.229  27.033  1.00  0.00     0.148 A 
ATOM     78  C   UNL A   1      41.656  22.079  27.827  1.00  0.00     0.002 A 
ATOM     79  C   UNL A   1      43.587  22.101  26.379  1.00  0.00     0.091 A 
ATOM     80  F   UNL A   1      45.175  23.842  26.579  1.00  0.00    -0.205 F 
ATOM     81  C   UNL A   1      42.371  21.527  26.766  1.00  0.00     0.022 A 
BRANCH  79  82
ATOM     82  S   UNL A   1      44.471  21.348  25.004  1.00  0.00     0.127 S 
ATOM     83  O   UNL A   1      44.259  22.327  23.937  1.00  0.00    -0.237 OA
ATOM     84  O   UNL A   1      45.835  21.287  25.519  1.00  0.00    -0.237 OA
ATOM     85  O   UNL A   1      43.820  20.064  24.771  1.00  0.00    -0.744 OA
ENDBRANCH  79  82
ENDBRANCH  51  75
BRANCH  63  86
ATOM     86  C   UNL A   1      46.612  29.031  29.453  1.00  0.00     0.023 A 
ATOM     87  C   UNL A   1      47.822  28.964  28.730  1.00  0.00     0.012 A 
ATOM     88  C   UNL A   1      45.538  29.746  28.901  1.00  0.00     0.148 A 
ATOM     89  C   UNL A   1      47.961  29.605  27.495  1.00  0.00     0.002 A 
ATOM     90  C   UNL A   1      45.664  30.347  27.654  1.00  0.00     0.091 A 
ATOM     91  F   UNL A   1      44.389  29.794  29.592  1.00  0.00    -0.205 F 
ATOM     92  C   UNL A   1      46.877  30.286  26.950  1.00  0.00     0.022 A 
BRANCH  90  93
ATOM     93  S   UNL A   1      44.268  31.131  26.845  1.00  0.00     0.127 S 
ATOM     94  O   UNL A   1      43.808  32.064  27.872  1.00  0.00    -0.237 OA
ATOM     95  O   UNL A   1      44.892  31.762  25.681  1.00  0.00    -0.237 OA
ATOM     96  O   UNL A   1      43.339  30.057  26.514  1.00  0.00    -0.744 OA
ENDBRANCH  90  93
ENDBRANCH  63  86
ENDBRANCH  37  38
ENDBRANCH  29  32
ENDBRANCH  27  28
ENDBRANCH  26  27
ENDBRANCH  25  26
ENDBRANCH  24  25
ENDBRANCH   1  24
TORSDOF 21
ENDMDL
MODEL 3
REMARK VINA RESULT:     -10.3      2.574      3.977
REMARK SMILES O=C(CSCc1nnnn1-c1ccc([N+](=O)[O-])cc1)NCCCCCCNC(=O)c1ccc(-c2c3nc(c(-c4cccc(S(=O)(=O)[O-])c4F)c4ccc([nH]4)c(-c4cccc(S(=O)(=O)[O-])c4F)c4nc(c(-c5cccc(S(=O)(=O)[O-])c5F)c5ccc2[nH]5)C=C4)C=C3)cc1
REMARK SMILES IDX 22 1 21 2 20 3 1 4 2 5 3 7 4 8 5 9 6 10 7 11 10 12 8 13 9 14
REMARK SMILES IDX 11 15 12 16 19 17 13 18 18 19 14 20 15 21 16 22 17 23 23 24
REMARK SMILES IDX 24 25 25 26 26 27 27 28 28 29 29 31 30 32 31 33 92 34 32 35
REMARK SMILES IDX 91 36 33 37 34 38 35 39 85 40 36 41 90 42 84 43 86 44 37 45
REMARK SMILES IDX 89 46 83 47 82 48 38 50 70 51 50 52 69 53 51 54 54 55 68 56
REMARK SMILES IDX 87 57 52 58 53 59 67 61 88 62 55 63 39 64 40 65 48 66 41 67
REMARK SMILES IDX 43 68 49 69 42 70 44 71 45 72 46 73 47 74 71 75 72 76 80 77
REMARK SMILES IDX 73 78 75 79 81 80 74 81 76 82 77 83 78 84 79 85 56 86 57 87
REMARK SMILES IDX 65 88 58 89 60 90 66 91 59 92 61 93 62 94 63 95 64 96
REMARK H PARENT 20 6 27 30 86 49 54 60
REMARK Flexibility Score: inf
ROOT
ATOM      1  C   UNL A   1      33.953  27.804  25.819  1.00  0.00     0.021 C 
ENDROOT
BRANCH   1   2
ATOM      2  C   UNL A   1      34.075  27.951  24.303  1.00  0.00     0.116 C 
BRANCH   2   3
ATOM      3  N   UNL A   1      33.456  26.836  23.618  1.00  0.00    -0.355 N 
ATOM      4  O   UNL A   1      34.016  27.487  21.487  1.00  0.00    -0.274 OA
ATOM      5  C   UNL A   1      33.413  26.735  22.245  1.00  0.00     0.230 C 
ATOM      6  H   UNL A   1      33.048  26.120  24.155  1.00  0.00     0.163 HD
BRANCH   5   7
ATOM      7  C   UNL A   1      32.589  25.562  21.745  1.00  0.00     0.169 C 
BRANCH   7   8
ATOM      8  S   UNL A   1      32.813  24.097  22.819  1.00  0.00    -0.144 SA
BRANCH   8   9
ATOM      9  C   UNL A   1      31.084  23.818  23.318  1.00  0.00     0.149 C 
BRANCH   9  10
ATOM     10  C   UNL A   1      30.820  24.179  24.732  1.00  0.00     0.166 A 
ATOM     11  N   UNL A   1      31.179  23.484  25.795  1.00  0.00    -0.113 NA
ATOM     12  N   UNL A   1      30.385  25.416  25.168  1.00  0.00    -0.196 N 
ATOM     13  N   UNL A   1      31.063  24.322  26.868  1.00  0.00    -0.023 NA
ATOM     14  N   UNL A   1      30.656  25.523  26.488  1.00  0.00    -0.040 NA
BRANCH  12  15
ATOM     15  C   UNL A   1      29.770  26.477  24.468  1.00  0.00     0.069 A 
ATOM     16  C   UNL A   1      30.526  27.617  24.161  1.00  0.00     0.035 A 
ATOM     17  C   UNL A   1      28.414  26.414  24.118  1.00  0.00     0.035 A 
ATOM     18  C   UNL A   1      29.943  28.672  23.454  1.00  0.00     0.088 A 
ATOM     19  C   UNL A   1      27.819  27.482  23.440  1.00  0.00     0.088 A 
ATOM     20  C   UNL A   1      28.589  28.601  23.099  1.00  0.00     0.269 A 
BRANCH  20  21
ATOM     21  N   UNL A   1      27.969  29.716  22.372  1.00  0.00     0.062 N 
ATOM     22  O   UNL A   1      27.158  30.423  22.985  1.00  0.00    -0.258 OA
ATOM     23  O   UNL A   1      28.295  29.884  21.188  1.00  0.00    -0.258 OA
ENDBRANCH  20  21
ENDBRANCH  12  15
ENDBRANCH   9  10
ENDBRANCH   8   9
ENDBRANCH   7   8
ENDBRANCH   5   7
ENDBRANCH   2   3
ENDBRANCH   1   2
BRANCH   1  24
ATOM     24  C   UNL A   1      33.671  29.110  26.574  1.00  0.00     0.002 C 
BRANCH  24  25
ATOM     25  C   UNL A   1      34.890  29.990  26.895  1.00  0.00     0.002 C 
BRANCH  25  26
ATOM     26  C   UNL A   1      34.734  31.002  28.039  1.00  0.00     0.021 C 
BRANCH  26  27
ATOM     27  C   UNL A   1      35.995  31.215  28.859  1.00  0.00     0.116 C 
BRANCH  27  28
ATOM     28  N   UNL A   1      35.727  31.495  30.279  1.00  0.00    -0.352 N 
ATOM     29  C   UNL A   1      36.378  30.979  31.394  1.00  0.00     0.251 C 
ATOM     30  H   UNL A   1      34.993  32.127  30.462  1.00  0.00     0.163 HD
ATOM     31  O   UNL A   1      35.854  30.978  32.495  1.00  0.00    -0.269 OA
BRANCH  29  32
ATOM     32  C   UNL A   1      37.746  30.461  31.207  1.00  0.00     0.039 A 
ATOM     33  C   UNL A   1      38.885  31.270  31.169  1.00  0.00     0.014 A 
ATOM     34  C   UNL A   1      37.853  29.082  31.122  1.00  0.00     0.014 A 
ATOM     35  C   UNL A   1      40.131  30.649  31.098  1.00  0.00     0.010 A 
ATOM     36  C   UNL A   1      39.050  28.493  31.371  1.00  0.00     0.010 A 
ATOM     37  C   UNL A   1      40.193  29.252  31.202  1.00  0.00    -0.014 A 
BRANCH  37  38
ATOM     38  C   UNL A   1      41.435  28.504  31.193  1.00  0.00     0.031 A 
ATOM     39  C   UNL A   1      41.998  28.258  32.541  1.00  0.00     0.074 A 
ATOM     40  C   UNL A   1      41.860  27.861  30.080  1.00  0.00     0.049 A 
ATOM     41  N   UNL A   1      43.058  28.788  33.050  1.00  0.00    -0.248 NA
ATOM     42  C   UNL A   1      41.200  27.480  33.501  1.00  0.00     0.031 C 
ATOM     43  C   UNL A   1      41.180  27.729  28.779  1.00  0.00     0.029 A 
ATOM     44  N   UNL A   1      42.919  27.027  29.934  1.00  0.00    -0.354 N 
ATOM     45  C   UNL A   1      43.204  28.190  34.298  1.00  0.00     0.074 A 
ATOM     46  C   UNL A   1      41.924  27.615  34.615  1.00  0.00     0.031 C 
ATOM     47  C   UNL A   1      41.681  26.665  28.116  1.00  0.00     0.029 A 
ATOM     48  C   UNL A   1      42.817  26.153  28.856  1.00  0.00     0.049 A 
ATOM     49  H   UNL A   1      43.695  27.039  30.540  1.00  0.00     0.167 HD
ATOM     50  C   UNL A   1      44.441  27.961  34.820  1.00  0.00     0.034 A 
ATOM     51  C   UNL A   1      43.567  25.041  28.648  1.00  0.00     0.034 A 
ATOM     52  C   UNL A   1      45.459  28.669  34.081  1.00  0.00     0.049 A 
ATOM     53  C   UNL A   1      44.800  25.199  29.459  1.00  0.00     0.074 A 
ATOM     54  C   UNL A   1      45.661  29.991  33.728  1.00  0.00     0.029 A 
ATOM     55  N   UNL A   1      46.227  27.930  33.211  1.00  0.00    -0.354 N 
ATOM     56  N   UNL A   1      45.675  26.144  29.246  1.00  0.00    -0.248 NA
ATOM     57  C   UNL A   1      44.793  24.642  30.803  1.00  0.00     0.031 C 
ATOM     58  C   UNL A   1      46.102  29.937  32.371  1.00  0.00     0.029 A 
ATOM     59  C   UNL A   1      46.235  28.594  32.011  1.00  0.00     0.049 A 
ATOM     60  H   UNL A   1      46.684  27.082  33.411  1.00  0.00     0.167 HD
ATOM     61  C   UNL A   1      45.982  26.621  30.515  1.00  0.00     0.074 A 
ATOM     62  C   UNL A   1      45.482  25.597  31.436  1.00  0.00     0.031 C 
ATOM     63  C   UNL A   1      46.316  27.930  30.727  1.00  0.00     0.034 A 
BRANCH  50  64
ATOM     64  C   UNL A   1      44.802  26.809  35.732  1.00  0.00     0.023 A 
ATOM     65  C   UNL A   1      44.731  25.512  35.175  1.00  0.00     0.012 A 
ATOM     66  C   UNL A   1      44.929  26.896  37.137  1.00  0.00     0.148 A 
ATOM     67  C   UNL A   1      44.716  24.367  35.979  1.00  0.00     0.002 A 
ATOM     68  C   UNL A   1      44.994  25.753  37.925  1.00  0.00     0.091 A 
ATOM     69  F   UNL A   1      44.851  28.079  37.749  1.00  0.00    -0.205 F 
ATOM     70  C   UNL A   1      44.853  24.487  37.355  1.00  0.00     0.022 A 
BRANCH  68  71
ATOM     71  S   UNL A   1      45.212  25.849  39.708  1.00  0.00     0.127 S 
ATOM     72  O   UNL A   1      46.508  26.512  39.807  1.00  0.00    -0.237 OA
ATOM     73  O   UNL A   1      44.063  26.664  40.104  1.00  0.00    -0.237 OA
ATOM     74  O   UNL A   1      45.158  24.472  40.183  1.00  0.00    -0.744 OA
ENDBRANCH  68  71
ENDBRANCH  50  64
BRANCH  51  75
ATOM     75  C   UNL A   1      43.139  23.740  28.071  1.00  0.00     0.023 A 
ATOM     76  C   UNL A   1      41.851  23.233  28.333  1.00  0.00     0.012 A 
ATOM     77  C   UNL A   1      43.900  23.114  27.056  1.00  0.00     0.148 A 
ATOM     78  C   UNL A   1      41.336  22.151  27.600  1.00  0.00     0.002 A 
ATOM     79  C   UNL A   1      43.394  22.030  26.345  1.00  0.00     0.091 A 
ATOM     80  F   UNL A   1      45.084  23.641  26.719  1.00  0.00    -0.205 F 
ATOM     81  C   UNL A   1      42.106  21.551  26.606  1.00  0.00     0.022 A 
BRANCH  79  82
ATOM     82  S   UNL A   1      44.347  21.217  25.053  1.00  0.00     0.127 S 
ATOM     83  O   UNL A   1      43.671  19.923  24.948  1.00  0.00    -0.237 OA
ATOM     84  O   UNL A   1      44.140  22.111  23.917  1.00  0.00    -0.237 OA
ATOM     85  O   UNL A   1      45.712  21.137  25.559  1.00  0.00    -0.744 OA
ENDBRANCH  79  82
ENDBRANCH  51  75
BRANCH  63  86
ATOM     86  C   UNL A   1      46.542  28.829  29.533  1.00  0.00     0.023 A 
ATOM     87  C   UNL A   1      47.719  28.776  28.754  1.00  0.00     0.012 A 
ATOM     88  C   UNL A   1      45.461  29.592  29.065  1.00  0.00     0.148 A 
ATOM     89  C   UNL A   1      47.819  29.478  27.549  1.00  0.00     0.002 A 
ATOM     90  C   UNL A   1      45.545  30.253  27.845  1.00  0.00     0.091 A 
ATOM     91  F   UNL A   1      44.344  29.625  29.808  1.00  0.00    -0.205 F 
ATOM     92  C   UNL A   1      46.726  30.206  27.088  1.00  0.00     0.022 A 
BRANCH  90  93
ATOM     93  S   UNL A   1      44.133  31.104  27.140  1.00  0.00     0.127 S 
ATOM     94  O   UNL A   1      43.171  30.016  26.983  1.00  0.00    -0.237 OA
ATOM     95  O   UNL A   1      43.796  32.073  28.183  1.00  0.00    -0.237 OA
ATOM     96  O   UNL A   1      44.605  31.706  25.898  1.00  0.00    -0.744 OA
ENDBRANCH  90  93
ENDBRANCH  63  86
ENDBRANCH  37  38
ENDBRANCH  29  32
ENDBRANCH  27  28
ENDBRANCH  26  27
ENDBRANCH  25  26
ENDBRANCH  24  25
ENDBRANCH   1  24
TORSDOF 21
ENDMDL
