MODEL 1
REMARK VINA RESULT:     -10.1      0.000      0.000
REMARK SMILES O=C(NCCCCCCNC(=O)[C@H]1[C@@H]2C[C@H]3C[C@@H](C2)C[C@]1(n1ncc(N2CCN(c4ccc(F)cc4)CC2)c(Cl)c1=O)C3)c1ccc(-c2c3nc(c(-c4cccc(S(=O)(=O)[O-])c4F)c4ccc([nH]4)c(-c4cccc(S(=O)(=O)[O-])c4F)c4nc(c(-c5cccc(S(=O)(=O)[O-])c5F)c5ccc2[nH]5)C=C4)C=C3)cc1
REMARK SMILES IDX 6 1 5 2 4 3 3 4 1 5 2 6 44 8 45 9 106 10 46 11 105 12 47 13
REMARK SMILES IDX 48 14 49 15 99 16 50 17 104 18 98 19 100 20 51 21 103 22
REMARK SMILES IDX 97 23 96 24 52 26 84 27 64 28 83 29 65 30 68 31 82 32 101 33
REMARK SMILES IDX 66 34 67 35 81 37 102 38 69 39 53 40 54 41 62 42 55 43 57 44
REMARK SMILES IDX 63 45 56 46 58 47 59 48 60 49 61 50 85 51 86 52 94 53 87 54
REMARK SMILES IDX 89 55 95 56 88 57 90 58 91 59 92 60 93 61 70 62 71 63 79 64
REMARK SMILES IDX 72 65 74 66 80 67 73 68 75 69 76 70 77 71 78 72 7 73 8 74
REMARK SMILES IDX 9 75 10 76 11 77 12 79 13 80 14 81 21 82 19 83 15 84 43 85
REMARK SMILES IDX 20 86 18 87 16 88 17 89 22 90 23 91 41 92 24 93 39 94 42 95
REMARK SMILES IDX 25 96 40 97 26 98 27 99 38 100 28 101 37 102 29 103 30 104
REMARK SMILES IDX 31 105 36 106 32 107 35 108 33 109 34 110
REMARK H PARENT 3 7 100 25 68 36 10 78
REMARK Flexibility Score: inf
ROOT
ATOM      1  C   UNL A   1      34.784  32.331  31.174  1.00  0.00     0.002 C 
ENDROOT
BRANCH   1   2
ATOM      2  C   UNL A   1      34.499  33.278  30.006  1.00  0.00     0.021 C 
BRANCH   2   3
ATOM      3  C   UNL A   1      34.885  32.731  28.636  1.00  0.00     0.116 C 
BRANCH   3   4
ATOM      4  N   UNL A   1      34.125  31.537  28.303  1.00  0.00    -0.352 N 
ATOM      5  O   UNL A   1      33.780  29.462  27.520  1.00  0.00    -0.269 OA
ATOM      6  C   UNL A   1      34.565  30.279  27.992  1.00  0.00     0.251 C 
ATOM      7  H   UNL A   1      33.148  31.651  28.300  1.00  0.00     0.163 HD
BRANCH   6   8
ATOM      8  C   UNL A   1      35.973  29.902  28.232  1.00  0.00     0.039 A 
ATOM      9  C   UNL A   1      36.339  29.452  29.504  1.00  0.00     0.014 A 
ATOM     10  C   UNL A   1      36.942  30.065  27.237  1.00  0.00     0.014 A 
ATOM     11  C   UNL A   1      37.674  29.157  29.777  1.00  0.00     0.010 A 
ATOM     12  C   UNL A   1      38.263  29.711  27.491  1.00  0.00     0.010 A 
ATOM     13  C   UNL A   1      38.646  29.286  28.771  1.00  0.00    -0.014 A 
BRANCH  13  14
ATOM     14  C   UNL A   1      40.081  29.055  29.056  1.00  0.00     0.031 A 
ATOM     15  C   UNL A   1      40.913  30.178  29.615  1.00  0.00     0.074 A 
ATOM     16  C   UNL A   1      40.644  27.866  28.768  1.00  0.00     0.049 A 
ATOM     17  N   UNL A   1      42.201  30.215  29.837  1.00  0.00    -0.248 NA
ATOM     18  C   UNL A   1      40.211  31.429  29.949  1.00  0.00     0.031 C 
ATOM     19  C   UNL A   1      39.945  26.715  28.197  1.00  0.00     0.029 A 
ATOM     20  N   UNL A   1      41.940  27.438  28.905  1.00  0.00    -0.354 N 
ATOM     21  C   UNL A   1      42.467  31.500  30.295  1.00  0.00     0.074 A 
ATOM     22  C   UNL A   1      41.213  32.220  30.304  1.00  0.00     0.031 C 
ATOM     23  C   UNL A   1      40.817  25.705  28.045  1.00  0.00     0.029 A 
ATOM     24  C   UNL A   1      42.140  26.147  28.478  1.00  0.00     0.049 A 
ATOM     25  H   UNL A   1      42.657  28.001  29.274  1.00  0.00     0.167 HD
ATOM     26  C   UNL A   1      43.646  32.023  30.702  1.00  0.00     0.034 A 
ATOM     27  C   UNL A   1      43.264  25.406  28.438  1.00  0.00     0.034 A 
ATOM     28  C   UNL A   1      44.876  31.286  30.760  1.00  0.00     0.049 A 
ATOM     29  C   UNL A   1      44.553  26.000  28.930  1.00  0.00     0.074 A 
ATOM     30  C   UNL A   1      46.112  31.714  31.211  1.00  0.00     0.029 A 
ATOM     31  N   UNL A   1      45.023  29.963  30.374  1.00  0.00    -0.354 N 
ATOM     32  N   UNL A   1      44.772  27.194  29.423  1.00  0.00    -0.248 NA
ATOM     33  C   UNL A   1      45.746  25.140  28.884  1.00  0.00     0.031 C 
ATOM     34  C   UNL A   1      47.008  30.647  31.100  1.00  0.00     0.029 A 
ATOM     35  C   UNL A   1      46.327  29.554  30.587  1.00  0.00     0.049 A 
ATOM     36  H   UNL A   1      44.306  29.398  30.003  1.00  0.00     0.167 HD
ATOM     37  C   UNL A   1      46.117  27.222  29.772  1.00  0.00     0.074 A 
ATOM     38  C   UNL A   1      46.662  25.922  29.442  1.00  0.00     0.031 C 
ATOM     39  C   UNL A   1      46.836  28.238  30.305  1.00  0.00     0.034 A 
BRANCH  26  40
ATOM     40  C   UNL A   1      43.657  33.444  31.189  1.00  0.00     0.023 A 
ATOM     41  C   UNL A   1      43.680  33.693  32.575  1.00  0.00     0.012 A 
ATOM     42  C   UNL A   1      43.744  34.520  30.286  1.00  0.00     0.148 A 
ATOM     43  C   UNL A   1      43.780  34.997  33.058  1.00  0.00     0.002 A 
ATOM     44  C   UNL A   1      43.876  35.815  30.775  1.00  0.00     0.091 A 
ATOM     45  F   UNL A   1      43.706  34.256  28.972  1.00  0.00    -0.205 F 
ATOM     46  C   UNL A   1      43.889  36.055  32.159  1.00  0.00     0.022 A 
BRANCH  44  47
ATOM     47  S   UNL A   1      44.079  37.245  29.706  1.00  0.00     0.127 S 
ATOM     48  O   UNL A   1      45.329  36.924  29.017  1.00  0.00    -0.237 OA
ATOM     49  O   UNL A   1      42.883  37.171  28.867  1.00  0.00    -0.237 OA
ATOM     50  O   UNL A   1      44.141  38.403  30.587  1.00  0.00    -0.744 OA
ENDBRANCH  44  47
ENDBRANCH  26  40
BRANCH  27  51
ATOM     51  C   UNL A   1      43.190  23.989  27.989  1.00  0.00     0.023 A 
ATOM     52  C   UNL A   1      42.397  23.084  28.719  1.00  0.00     0.012 A 
ATOM     53  C   UNL A   1      43.838  23.553  26.818  1.00  0.00     0.148 A 
ATOM     54  C   UNL A   1      42.256  21.763  28.297  1.00  0.00     0.002 A 
ATOM     55  C   UNL A   1      43.662  22.246  26.380  1.00  0.00     0.091 A 
ATOM     56  F   UNL A   1      44.588  24.435  26.142  1.00  0.00    -0.205 F 
ATOM     57  C   UNL A   1      42.881  21.346  27.124  1.00  0.00     0.022 A 
BRANCH  55  58
ATOM     58  S   UNL A   1      44.341  21.640  24.831  1.00  0.00     0.127 S 
ATOM     59  O   UNL A   1      43.816  20.277  24.787  1.00  0.00    -0.237 OA
ATOM     60  O   UNL A   1      43.743  22.561  23.863  1.00  0.00    -0.237 OA
ATOM     61  O   UNL A   1      45.787  21.751  24.959  1.00  0.00    -0.744 OA
ENDBRANCH  55  58
ENDBRANCH  27  51
BRANCH  39  62
ATOM     62  C   UNL A   1      48.291  27.998  30.597  1.00  0.00     0.023 A 
ATOM     63  C   UNL A   1      49.256  28.348  29.635  1.00  0.00     0.012 A 
ATOM     64  C   UNL A   1      48.700  27.547  31.868  1.00  0.00     0.148 A 
ATOM     65  C   UNL A   1      50.614  28.246  29.931  1.00  0.00     0.002 A 
ATOM     66  C   UNL A   1      50.055  27.480  32.166  1.00  0.00     0.091 A 
ATOM     67  F   UNL A   1      47.759  27.210  32.760  1.00  0.00    -0.205 F 
ATOM     68  C   UNL A   1      51.012  27.824  31.198  1.00  0.00     0.022 A 
BRANCH  66  69
ATOM     69  S   UNL A   1      50.664  27.023  33.794  1.00  0.00     0.127 S 
ATOM     70  O   UNL A   1      50.029  28.031  34.642  1.00  0.00    -0.237 OA
ATOM     71  O   UNL A   1      50.135  25.669  33.954  1.00  0.00    -0.237 OA
ATOM     72  O   UNL A   1      52.116  27.102  33.716  1.00  0.00    -0.744 OA
ENDBRANCH  66  69
ENDBRANCH  39  62
ENDBRANCH  13  14
ENDBRANCH   6   8
ENDBRANCH   3   4
ENDBRANCH   2   3
ENDBRANCH   1   2
BRANCH   1  73
ATOM     73  C   UNL A   1      36.244  32.295  31.657  1.00  0.00     0.002 C 
BRANCH  73  74
ATOM     74  C   UNL A   1      36.460  31.725  33.063  1.00  0.00     0.021 C 
BRANCH  74  75
ATOM     75  C   UNL A   1      37.498  30.611  33.081  1.00  0.00     0.116 C 
BRANCH  75  76
ATOM     76  N   UNL A   1      37.809  30.144  34.410  1.00  0.00    -0.356 N 
ATOM     77  C   UNL A   1      38.195  30.851  35.499  1.00  0.00     0.225 C 
ATOM     78  H   UNL A   1      37.729  29.172  34.545  1.00  0.00     0.163 HD
ATOM     79  O   UNL A   1      37.844  30.378  36.591  1.00  0.00    -0.275 OA
BRANCH  77  80
ATOM     80  C   UNL A   1      39.114  32.083  35.484  1.00  0.00     0.109 C 
ATOM     81  C   UNL A   1      38.434  33.408  35.952  1.00  0.00     0.004 C 
ATOM     82  C   UNL A   1      40.631  32.068  35.880  1.00  0.00     0.079 C 
ATOM     83  C   UNL A   1      38.674  33.750  37.433  1.00  0.00     0.008 C 
ATOM     84  C   UNL A   1      39.068  34.564  35.144  1.00  0.00     0.008 C 
ATOM     85  C   UNL A   1      41.245  33.290  35.071  1.00  0.00     0.035 C 
ATOM     86  C   UNL A   1      40.835  32.424  37.377  1.00  0.00     0.035 C 
ATOM     87  C   UNL A   1      40.175  33.763  37.749  1.00  0.00    -0.008 C 
ATOM     88  C   UNL A   1      40.580  34.627  35.434  1.00  0.00    -0.008 C 
ATOM     89  C   UNL A   1      40.822  34.887  36.926  1.00  0.00     0.007 C 
BRANCH  82  90
ATOM     90  N   UNL A   1      41.404  30.815  35.551  1.00  0.00    -0.222 N 
ATOM     91  N   UNL A   1      41.903  30.116  36.637  1.00  0.00    -0.175 NA
ATOM     92  C   UNL A   1      41.395  30.252  34.276  1.00  0.00     0.288 A 
ATOM     93  C   UNL A   1      42.366  28.927  36.445  1.00  0.00     0.161 A 
ATOM     94  C   UNL A   1      42.052  28.926  34.111  1.00  0.00     0.132 A 
ATOM     95  O   UNL A   1      40.831  30.759  33.312  1.00  0.00    -0.266 OA
ATOM     96  C   UNL A   1      42.478  28.207  35.157  1.00  0.00     0.082 A 
ATOM     97  Cl  UNL A   1      42.088  28.283  32.496  1.00  0.00    -0.076 Cl
BRANCH  96  98
ATOM     98  N   UNL A   1      43.033  26.930  35.167  1.00  0.00    -0.365 N 
ATOM     99  C   UNL A   1      44.323  26.599  34.513  1.00  0.00     0.138 C 
ATOM    100  C   UNL A   1      42.320  25.769  35.735  1.00  0.00     0.138 C 
ATOM    101  C   UNL A   1      45.233  25.733  35.431  1.00  0.00     0.138 C 
ATOM    102  C   UNL A   1      43.232  24.973  36.684  1.00  0.00     0.138 C 
ATOM    103  N   UNL A   1      44.468  24.604  35.979  1.00  0.00    -0.368 N 
BRANCH 103 104
ATOM    104  C   UNL A   1      44.924  23.309  36.003  1.00  0.00     0.037 A 
ATOM    105  C   UNL A   1      44.692  22.461  34.906  1.00  0.00     0.029 A 
ATOM    106  C   UNL A   1      45.620  22.784  37.099  1.00  0.00     0.029 A 
ATOM    107  C   UNL A   1      45.124  21.134  34.905  1.00  0.00     0.041 A 
ATOM    108  C   UNL A   1      46.042  21.450  37.112  1.00  0.00     0.041 A 
ATOM    109  C   UNL A   1      45.789  20.637  36.014  1.00  0.00     0.123 A 
ATOM    110  F   UNL A   1      46.191  19.360  36.025  1.00  0.00    -0.207 F 
ENDBRANCH 103 104
ENDBRANCH  96  98
ENDBRANCH  82  90
ENDBRANCH  77  80
ENDBRANCH  75  76
ENDBRANCH  74  75
ENDBRANCH  73  74
ENDBRANCH   1  73
TORSDOF 19
ENDMDL
MODEL 2
REMARK VINA RESULT:      -9.9      2.168      7.259
REMARK SMILES O=C(NCCCCCCNC(=O)[C@H]1[C@@H]2C[C@H]3C[C@@H](C2)C[C@]1(n1ncc(N2CCN(c4ccc(F)cc4)CC2)c(Cl)c1=O)C3)c1ccc(-c2c3nc(c(-c4cccc(S(=O)(=O)[O-])c4F)c4ccc([nH]4)c(-c4cccc(S(=O)(=O)[O-])c4F)c4nc(c(-c5cccc(S(=O)(=O)[O-])c5F)c5ccc2[nH]5)C=C4)C=C3)cc1
REMARK SMILES IDX 6 1 5 2 4 3 3 4 1 5 2 6 44 8 45 9 106 10 46 11 105 12 47 13
REMARK SMILES IDX 48 14 49 15 99 16 50 17 104 18 98 19 100 20 51 21 103 22
REMARK SMILES IDX 97 23 96 24 52 26 84 27 64 28 83 29 65 30 68 31 82 32 101 33
REMARK SMILES IDX 66 34 67 35 81 37 102 38 69 39 53 40 54 41 62 42 55 43 57 44
REMARK SMILES IDX 63 45 56 46 58 47 59 48 60 49 61 50 85 51 86 52 94 53 87 54
REMARK SMILES IDX 89 55 95 56 88 57 90 58 91 59 92 60 93 61 70 62 71 63 79 64
REMARK SMILES IDX 72 65 74 66 80 67 73 68 75 69 76 70 77 71 78 72 7 73 8 74
REMARK SMILES IDX 9 75 10 76 11 77 12 79 13 80 14 81 21 82 19 83 15 84 43 85
REMARK SMILES IDX 20 86 18 87 16 88 17 89 22 90 23 91 41 92 24 93 39 94 42 95
REMARK SMILES IDX 25 96 40 97 26 98 27 99 38 100 28 101 37 102 29 103 30 104
REMARK SMILES IDX 31 105 36 106 32 107 35 108 33 109 34 110
REMARK H PARENT 3 7 100 25 68 36 10 78
REMARK Flexibility Score: inf
ROOT
ATOM      1  C   UNL A   1      37.025  32.088  31.240  1.00  0.00     0.002 C 
ENDROOT
BRANCH   1   2
ATOM      2  C   UNL A   1      35.566  31.974  30.792  1.00  0.00     0.021 C 
BRANCH   2   3
ATOM      3  C   UNL A   1      35.347  32.141  29.293  1.00  0.00     0.116 C 
BRANCH   3   4
ATOM      4  N   UNL A   1      34.791  30.937  28.696  1.00  0.00    -0.352 N 
ATOM      5  O   UNL A   1      34.793  29.026  27.519  1.00  0.00    -0.269 OA
ATOM      6  C   UNL A   1      35.428  29.841  28.183  1.00  0.00     0.251 C 
ATOM      7  H   UNL A   1      33.808  30.907  28.655  1.00  0.00     0.163 HD
BRANCH   6   8
ATOM      8  C   UNL A   1      36.869  29.632  28.433  1.00  0.00     0.039 A 
ATOM      9  C   UNL A   1      37.785  30.047  27.462  1.00  0.00     0.014 A 
ATOM     10  C   UNL A   1      37.311  28.963  29.579  1.00  0.00     0.014 A 
ATOM     11  C   UNL A   1      39.145  29.798  27.642  1.00  0.00     0.010 A 
ATOM     12  C   UNL A   1      38.673  28.771  29.787  1.00  0.00     0.010 A 
ATOM     13  C   UNL A   1      39.598  29.157  28.807  1.00  0.00    -0.014 A 
BRANCH  13  14
ATOM     14  C   UNL A   1      41.027  28.811  28.987  1.00  0.00     0.031 A 
ATOM     15  C   UNL A   1      41.584  27.591  28.302  1.00  0.00     0.074 A 
ATOM     16  C   UNL A   1      41.805  29.553  29.796  1.00  0.00     0.049 A 
ATOM     17  N   UNL A   1      42.772  27.059  28.408  1.00  0.00    -0.248 NA
ATOM     18  C   UNL A   1      40.680  26.863  27.393  1.00  0.00     0.031 C 
ATOM     19  C   UNL A   1      41.370  30.738  30.536  1.00  0.00     0.029 A 
ATOM     20  N   UNL A   1      43.124  29.408  30.143  1.00  0.00    -0.354 N 
ATOM     21  C   UNL A   1      42.746  25.916  27.619  1.00  0.00     0.074 A 
ATOM     22  C   UNL A   1      41.420  25.818  27.051  1.00  0.00     0.031 C 
ATOM     23  C   UNL A   1      42.407  31.222  31.238  1.00  0.00     0.029 A 
ATOM     24  C   UNL A   1      43.569  30.364  31.024  1.00  0.00     0.049 A 
ATOM     25  H   UNL A   1      43.697  28.688  29.795  1.00  0.00     0.167 HD
ATOM     26  C   UNL A   1      43.747  25.043  27.365  1.00  0.00     0.034 A 
ATOM     27  C   UNL A   1      44.778  30.529  31.596  1.00  0.00     0.034 A 
ATOM     28  C   UNL A   1      45.083  25.180  27.873  1.00  0.00     0.049 A 
ATOM     29  C   UNL A   1      45.883  29.564  31.267  1.00  0.00     0.074 A 
ATOM     30  C   UNL A   1      46.181  24.376  27.625  1.00  0.00     0.029 A 
ATOM     31  N   UNL A   1      45.508  26.196  28.714  1.00  0.00    -0.354 N 
ATOM     32  N   UNL A   1      45.858  28.529  30.465  1.00  0.00    -0.248 NA
ATOM     33  C   UNL A   1      47.188  29.803  31.903  1.00  0.00     0.031 C 
ATOM     34  C   UNL A   1      47.273  24.908  28.316  1.00  0.00     0.029 A 
ATOM     35  C   UNL A   1      46.855  26.046  28.987  1.00  0.00     0.049 A 
ATOM     36  H   UNL A   1      44.935  26.916  29.065  1.00  0.00     0.167 HD
ATOM     37  C   UNL A   1      47.146  28.008  30.475  1.00  0.00     0.074 A 
ATOM     38  C   UNL A   1      47.930  28.847  31.358  1.00  0.00     0.031 C 
ATOM     39  C   UNL A   1      47.630  26.925  29.822  1.00  0.00     0.034 A 
BRANCH  26  40
ATOM     40  C   UNL A   1      43.465  23.895  26.438  1.00  0.00     0.023 A 
ATOM     41  C   UNL A   1      44.040  23.895  25.152  1.00  0.00     0.012 A 
ATOM     42  C   UNL A   1      42.720  22.781  26.868  1.00  0.00     0.148 A 
ATOM     43  C   UNL A   1      43.870  22.805  24.301  1.00  0.00     0.002 A 
ATOM     44  C   UNL A   1      42.581  21.684  26.026  1.00  0.00     0.091 A 
ATOM     45  F   UNL A   1      42.172  22.813  28.091  1.00  0.00    -0.205 F 
ATOM     46  C   UNL A   1      43.151  21.696  24.742  1.00  0.00     0.022 A 
BRANCH  44  47
ATOM     47  S   UNL A   1      41.722  20.183  26.512  1.00  0.00     0.127 S 
ATOM     48  O   UNL A   1      42.432  19.821  27.739  1.00  0.00    -0.237 OA
ATOM     49  O   UNL A   1      40.356  20.666  26.717  1.00  0.00    -0.237 OA
ATOM     50  O   UNL A   1      41.885  19.247  25.409  1.00  0.00    -0.744 OA
ENDBRANCH  44  47
ENDBRANCH  26  40
BRANCH  27  51
ATOM     51  C   UNL A   1      45.018  31.708  32.471  1.00  0.00     0.023 A 
ATOM     52  C   UNL A   1      45.335  32.943  31.877  1.00  0.00     0.012 A 
ATOM     53  C   UNL A   1      44.870  31.629  33.869  1.00  0.00     0.148 A 
ATOM     54  C   UNL A   1      45.510  34.083  32.661  1.00  0.00     0.002 A 
ATOM     55  C   UNL A   1      45.007  32.776  34.641  1.00  0.00     0.091 A 
ATOM     56  F   UNL A   1      44.569  30.440  34.409  1.00  0.00    -0.205 F 
ATOM     57  C   UNL A   1      45.338  34.002  34.040  1.00  0.00     0.022 A 
BRANCH  55  58
ATOM     58  S   UNL A   1      44.705  32.798  36.412  1.00  0.00     0.127 S 
ATOM     59  O   UNL A   1      45.380  34.029  36.815  1.00  0.00    -0.237 OA
ATOM     60  O   UNL A   1      43.244  32.851  36.465  1.00  0.00    -0.237 OA
ATOM     61  O   UNL A   1      45.286  31.567  36.930  1.00  0.00    -0.744 OA
ENDBRANCH  55  58
ENDBRANCH  27  51
BRANCH  39  62
ATOM     62  C   UNL A   1      49.082  26.581  30.003  1.00  0.00     0.023 A 
ATOM     63  C   UNL A   1      50.046  27.201  29.187  1.00  0.00     0.012 A 
ATOM     64  C   UNL A   1      49.493  25.746  31.061  1.00  0.00     0.148 A 
ATOM     65  C   UNL A   1      51.405  26.989  29.416  1.00  0.00     0.002 A 
ATOM     66  C   UNL A   1      50.849  25.566  31.304  1.00  0.00     0.091 A 
ATOM     67  F   UNL A   1      48.553  25.160  31.815  1.00  0.00    -0.205 F 
ATOM     68  C   UNL A   1      51.805  26.182  30.480  1.00  0.00     0.022 A 
BRANCH  66  69
ATOM     69  S   UNL A   1      51.462  24.610  32.696  1.00  0.00     0.127 S 
ATOM     70  O   UNL A   1      51.231  23.240  32.240  1.00  0.00    -0.237 OA
ATOM     71  O   UNL A   1      52.868  25.007  32.749  1.00  0.00    -0.237 OA
ATOM     72  O   UNL A   1      50.671  25.022  33.847  1.00  0.00    -0.744 OA
ENDBRANCH  66  69
ENDBRANCH  39  62
ENDBRANCH  13  14
ENDBRANCH   6   8
ENDBRANCH   3   4
ENDBRANCH   2   3
ENDBRANCH   1   2
BRANCH   1  73
ATOM     73  C   UNL A   1      37.996  32.665  30.196  1.00  0.00     0.002 C 
BRANCH  73  74
ATOM     74  C   UNL A   1      38.625  34.016  30.555  1.00  0.00     0.021 C 
BRANCH  74  75
ATOM     75  C   UNL A   1      38.766  34.205  32.060  1.00  0.00     0.116 C 
BRANCH  75  76
ATOM     76  N   UNL A   1      40.139  34.265  32.499  1.00  0.00    -0.356 N 
ATOM     77  C   UNL A   1      40.714  33.710  33.593  1.00  0.00     0.225 C 
ATOM     78  H   UNL A   1      40.744  34.783  31.921  1.00  0.00     0.163 HD
ATOM     79  O   UNL A   1      41.908  33.397  33.464  1.00  0.00    -0.275 OA
BRANCH  77  80
ATOM     80  C   UNL A   1      40.054  33.565  34.973  1.00  0.00     0.109 C 
ATOM     81  C   UNL A   1      39.094  34.732  35.361  1.00  0.00     0.004 C 
ATOM     82  C   UNL A   1      39.555  32.210  35.585  1.00  0.00     0.079 C 
ATOM     83  C   UNL A   1      37.609  34.450  35.072  1.00  0.00     0.008 C 
ATOM     84  C   UNL A   1      39.196  34.925  36.892  1.00  0.00     0.008 C 
ATOM     85  C   UNL A   1      39.629  32.453  37.153  1.00  0.00     0.035 C 
ATOM     86  C   UNL A   1      38.054  31.962  35.279  1.00  0.00     0.035 C 
ATOM     87  C   UNL A   1      37.169  33.137  35.731  1.00  0.00    -0.008 C 
ATOM     88  C   UNL A   1      38.754  33.633  37.606  1.00  0.00    -0.008 C 
ATOM     89  C   UNL A   1      37.297  33.305  37.253  1.00  0.00     0.007 C 
BRANCH  82  90
ATOM     90  N   UNL A   1      40.351  30.976  35.236  1.00  0.00    -0.222 N 
ATOM     91  N   UNL A   1      41.197  30.508  36.227  1.00  0.00    -0.175 NA
ATOM     92  C   UNL A   1      40.069  30.207  34.108  1.00  0.00     0.288 A 
ATOM     93  C   UNL A   1      41.726  29.340  36.085  1.00  0.00     0.161 A 
ATOM     94  C   UNL A   1      40.806  28.921  33.958  1.00  0.00     0.132 A 
ATOM     95  O   UNL A   1      39.215  30.502  33.280  1.00  0.00    -0.266 OA
ATOM     96  C   UNL A   1      41.573  28.422  34.935  1.00  0.00     0.082 A 
ATOM     97  Cl  UNL A   1      40.485  28.019  32.506  1.00  0.00    -0.076 Cl
BRANCH  96  98
ATOM     98  N   UNL A   1      42.253  27.208  34.971  1.00  0.00    -0.365 N 
ATOM     99  C   UNL A   1      43.550  26.981  34.287  1.00  0.00     0.138 C 
ATOM    100  C   UNL A   1      41.677  26.004  35.603  1.00  0.00     0.138 C 
ATOM    101  C   UNL A   1      44.569  26.244  35.205  1.00  0.00     0.138 C 
ATOM    102  C   UNL A   1      42.691  25.339  36.549  1.00  0.00     0.138 C 
ATOM    103  N   UNL A   1      43.936  25.067  35.818  1.00  0.00    -0.368 N 
BRANCH 103 104
ATOM    104  C   UNL A   1      44.521  23.826  35.872  1.00  0.00     0.037 A 
ATOM    105  C   UNL A   1      44.350  22.920  34.810  1.00  0.00     0.029 A 
ATOM    106  C   UNL A   1      45.289  23.411  36.966  1.00  0.00     0.029 A 
ATOM    107  C   UNL A   1      44.913  21.644  34.841  1.00  0.00     0.041 A 
ATOM    108  C   UNL A   1      45.843  22.126  37.013  1.00  0.00     0.041 A 
ATOM    109  C   UNL A   1      45.648  21.255  35.949  1.00  0.00     0.123 A 
ATOM    110  F   UNL A   1      46.176  20.025  35.991  1.00  0.00    -0.207 F 
ENDBRANCH 103 104
ENDBRANCH  96  98
ENDBRANCH  82  90
ENDBRANCH  77  80
ENDBRANCH  75  76
ENDBRANCH  74  75
ENDBRANCH  73  74
ENDBRANCH   1  73
TORSDOF 19
ENDMDL
MODEL 3
REMARK VINA RESULT:      -9.7      8.115     14.509
REMARK SMILES O=C(NCCCCCCNC(=O)[C@H]1[C@@H]2C[C@H]3C[C@@H](C2)C[C@]1(n1ncc(N2CCN(c4ccc(F)cc4)CC2)c(Cl)c1=O)C3)c1ccc(-c2c3nc(c(-c4cccc(S(=O)(=O)[O-])c4F)c4ccc([nH]4)c(-c4cccc(S(=O)(=O)[O-])c4F)c4nc(c(-c5cccc(S(=O)(=O)[O-])c5F)c5ccc2[nH]5)C=C4)C=C3)cc1
REMARK SMILES IDX 6 1 5 2 4 3 3 4 1 5 2 6 44 8 45 9 106 10 46 11 105 12 47 13
REMARK SMILES IDX 48 14 49 15 99 16 50 17 104 18 98 19 100 20 51 21 103 22
REMARK SMILES IDX 97 23 96 24 52 26 84 27 64 28 83 29 65 30 68 31 82 32 101 33
REMARK SMILES IDX 66 34 67 35 81 37 102 38 69 39 53 40 54 41 62 42 55 43 57 44
REMARK SMILES IDX 63 45 56 46 58 47 59 48 60 49 61 50 85 51 86 52 94 53 87 54
REMARK SMILES IDX 89 55 95 56 88 57 90 58 91 59 92 60 93 61 70 62 71 63 79 64
REMARK SMILES IDX 72 65 74 66 80 67 73 68 75 69 76 70 77 71 78 72 7 73 8 74
REMARK SMILES IDX 9 75 10 76 11 77 12 79 13 80 14 81 21 82 19 83 15 84 43 85
REMARK SMILES IDX 20 86 18 87 16 88 17 89 22 90 23 91 41 92 24 93 39 94 42 95
REMARK SMILES IDX 25 96 40 97 26 98 27 99 38 100 28 101 37 102 29 103 30 104
REMARK SMILES IDX 31 105 36 106 32 107 35 108 33 109 34 110
REMARK H PARENT 3 7 100 25 68 36 10 78
REMARK Flexibility Score: inf
ROOT
ATOM      1  C   UNL A   1      46.076  37.952  27.268  1.00  0.00     0.002 C 
ENDROOT
BRANCH   1   2
ATOM      2  C   UNL A   1      46.766  37.492  25.981  1.00  0.00     0.021 C 
BRANCH   2   3
ATOM      3  C   UNL A   1      47.070  36.000  25.921  1.00  0.00     0.116 C 
BRANCH   3   4
ATOM      4  N   UNL A   1      46.183  35.310  24.999  1.00  0.00    -0.352 N 
ATOM      5  O   UNL A   1      44.579  33.874  24.364  1.00  0.00    -0.269 OA
ATOM      6  C   UNL A   1      45.065  34.562  25.256  1.00  0.00     0.251 C 
ATOM      7  H   UNL A   1      46.421  35.392  24.048  1.00  0.00     0.163 HD
BRANCH   6   8
ATOM      8  C   UNL A   1      44.442  34.591  26.595  1.00  0.00     0.039 A 
ATOM      9  C   UNL A   1      43.568  35.637  26.904  1.00  0.00     0.014 A 
ATOM     10  C   UNL A   1      44.774  33.640  27.565  1.00  0.00     0.014 A 
ATOM     11  C   UNL A   1      43.021  35.726  28.184  1.00  0.00     0.010 A 
ATOM     12  C   UNL A   1      44.180  33.694  28.821  1.00  0.00     0.010 A 
ATOM     13  C   UNL A   1      43.324  34.755  29.152  1.00  0.00    -0.014 A 
BRANCH  13  14
ATOM     14  C   UNL A   1      42.820  34.869  30.539  1.00  0.00     0.031 A 
ATOM     15  C   UNL A   1      43.754  35.324  31.630  1.00  0.00     0.074 A 
ATOM     16  C   UNL A   1      41.552  34.520  30.829  1.00  0.00     0.049 A 
ATOM     17  N   UNL A   1      43.542  35.394  32.917  1.00  0.00    -0.248 NA
ATOM     18  C   UNL A   1      45.108  35.737  31.222  1.00  0.00     0.031 C 
ATOM     19  C   UNL A   1      40.566  34.036  29.862  1.00  0.00     0.029 A 
ATOM     20  N   UNL A   1      40.884  34.505  32.027  1.00  0.00    -0.354 N 
ATOM     21  C   UNL A   1      44.743  35.815  33.474  1.00  0.00     0.074 A 
ATOM     22  C   UNL A   1      45.687  35.969  32.391  1.00  0.00     0.031 C 
ATOM     23  C   UNL A   1      39.413  33.785  30.502  1.00  0.00     0.029 A 
ATOM     24  C   UNL A   1      39.587  34.059  31.926  1.00  0.00     0.049 A 
ATOM     25  H   UNL A   1      41.293  34.785  32.876  1.00  0.00     0.167 HD
ATOM     26  C   UNL A   1      45.025  36.080  34.770  1.00  0.00     0.034 A 
ATOM     27  C   UNL A   1      38.648  33.888  32.876  1.00  0.00     0.034 A 
ATOM     28  C   UNL A   1      44.067  35.994  35.836  1.00  0.00     0.049 A 
ATOM     29  C   UNL A   1      38.977  34.225  34.303  1.00  0.00     0.074 A 
ATOM     30  C   UNL A   1      44.244  36.297  37.175  1.00  0.00     0.029 A 
ATOM     31  N   UNL A   1      42.748  35.596  35.683  1.00  0.00    -0.354 N 
ATOM     32  N   UNL A   1      40.098  34.686  34.801  1.00  0.00    -0.248 NA
ATOM     33  C   UNL A   1      37.908  34.040  35.297  1.00  0.00     0.031 C 
ATOM     34  C   UNL A   1      43.029  36.083  37.832  1.00  0.00     0.029 A 
ATOM     35  C   UNL A   1      42.096  35.656  36.901  1.00  0.00     0.049 A 
ATOM     36  H   UNL A   1      42.338  35.313  34.834  1.00  0.00     0.167 HD
ATOM     37  C   UNL A   1      39.863  34.875  36.158  1.00  0.00     0.074 A 
ATOM     38  C   UNL A   1      38.490  34.485  36.403  1.00  0.00     0.031 C 
ATOM     39  C   UNL A   1      40.714  35.318  37.114  1.00  0.00     0.034 A 
BRANCH  26  40
ATOM     40  C   UNL A   1      46.408  36.559  35.109  1.00  0.00     0.023 A 
ATOM     41  C   UNL A   1      47.406  35.612  35.413  1.00  0.00     0.012 A 
ATOM     42  C   UNL A   1      46.742  37.924  35.031  1.00  0.00     0.148 A 
ATOM     43  C   UNL A   1      48.719  36.018  35.644  1.00  0.00     0.002 A 
ATOM     44  C   UNL A   1      48.060  38.318  35.232  1.00  0.00     0.091 A 
ATOM     45  F   UNL A   1      45.771  38.805  34.754  1.00  0.00    -0.205 F 
ATOM     46  C   UNL A   1      49.047  37.368  35.543  1.00  0.00     0.022 A 
BRANCH  44  47
ATOM     47  S   UNL A   1      48.604  40.023  35.071  1.00  0.00     0.127 S 
ATOM     48  O   UNL A   1      47.877  40.669  36.165  1.00  0.00    -0.237 OA
ATOM     49  O   UNL A   1      50.047  39.904  35.283  1.00  0.00    -0.237 OA
ATOM     50  O   UNL A   1      48.212  40.450  33.735  1.00  0.00    -0.744 OA
ENDBRANCH  44  47
ENDBRANCH  26  40
BRANCH  27  51
ATOM     51  C   UNL A   1      37.280  33.454  32.482  1.00  0.00     0.023 A 
ATOM     52  C   UNL A   1      37.020  32.079  32.331  1.00  0.00     0.012 A 
ATOM     53  C   UNL A   1      36.231  34.378  32.324  1.00  0.00     0.148 A 
ATOM     54  C   UNL A   1      35.738  31.630  32.019  1.00  0.00     0.002 A 
ATOM     55  C   UNL A   1      34.947  33.922  32.052  1.00  0.00     0.091 A 
ATOM     56  F   UNL A   1      36.507  35.682  32.471  1.00  0.00    -0.205 F 
ATOM     57  C   UNL A   1      34.700  32.549  31.888  1.00  0.00     0.022 A 
BRANCH  55  58
ATOM     58  S   UNL A   1      33.525  35.016  31.965  1.00  0.00     0.127 S 
ATOM     59  O   UNL A   1      34.089  36.279  32.438  1.00  0.00    -0.237 OA
ATOM     60  O   UNL A   1      33.207  34.981  30.537  1.00  0.00    -0.237 OA
ATOM     61  O   UNL A   1      32.511  34.422  32.825  1.00  0.00    -0.744 OA
ENDBRANCH  55  58
ENDBRANCH  27  51
BRANCH  39  62
ATOM     62  C   UNL A   1      40.196  35.438  38.520  1.00  0.00     0.023 A 
ATOM     63  C   UNL A   1      39.549  36.623  38.919  1.00  0.00     0.012 A 
ATOM     64  C   UNL A   1      40.238  34.335  39.395  1.00  0.00     0.148 A 
ATOM     65  C   UNL A   1      38.957  36.712  40.178  1.00  0.00     0.002 A 
ATOM     66  C   UNL A   1      39.616  34.419  40.633  1.00  0.00     0.091 A 
ATOM     67  F   UNL A   1      40.869  33.224  38.991  1.00  0.00    -0.205 F 
ATOM     68  C   UNL A   1      38.980  35.608  41.028  1.00  0.00     0.022 A 
BRANCH  66  69
ATOM     69  S   UNL A   1      39.524  33.027  41.765  1.00  0.00     0.127 S 
ATOM     70  O   UNL A   1      38.946  31.989  40.912  1.00  0.00    -0.237 OA
ATOM     71  O   UNL A   1      40.929  32.818  42.114  1.00  0.00    -0.237 OA
ATOM     72  O   UNL A   1      38.682  33.462  42.871  1.00  0.00    -0.744 OA
ENDBRANCH  66  69
ENDBRANCH  39  62
ENDBRANCH  13  14
ENDBRANCH   6   8
ENDBRANCH   3   4
ENDBRANCH   2   3
ENDBRANCH   1   2
BRANCH   1  73
ATOM     73  C   UNL A   1      46.730  37.477  28.576  1.00  0.00     0.002 C 
BRANCH  73  74
ATOM     74  C   UNL A   1      48.221  37.803  28.724  1.00  0.00     0.021 C 
BRANCH  74  75
ATOM     75  C   UNL A   1      48.470  38.923  29.724  1.00  0.00     0.116 C 
BRANCH  75  76
ATOM     76  N   UNL A   1      48.173  40.233  29.198  1.00  0.00    -0.356 N 
ATOM     77  C   UNL A   1      47.196  41.100  29.556  1.00  0.00     0.225 C 
ATOM     78  H   UNL A   1      48.765  40.541  28.474  1.00  0.00     0.163 HD
ATOM     79  O   UNL A   1      47.475  42.301  29.417  1.00  0.00    -0.275 OA
BRANCH  77  80
ATOM     80  C   UNL A   1      45.771  40.714  29.984  1.00  0.00     0.109 C 
ATOM     81  C   UNL A   1      45.598  40.456  31.513  1.00  0.00     0.004 C 
ATOM     82  C   UNL A   1      44.461  41.321  29.371  1.00  0.00     0.079 C 
ATOM     83  C   UNL A   1      45.070  41.668  32.301  1.00  0.00     0.008 C 
ATOM     84  C   UNL A   1      44.530  39.350  31.677  1.00  0.00     0.008 C 
ATOM     85  C   UNL A   1      43.377  40.182  29.594  1.00  0.00     0.035 C 
ATOM     86  C   UNL A   1      43.955  42.536  30.195  1.00  0.00     0.035 C 
ATOM     87  C   UNL A   1      43.767  42.190  31.682  1.00  0.00    -0.008 C 
ATOM     88  C   UNL A   1      43.194  39.828  31.079  1.00  0.00    -0.008 C 
ATOM     89  C   UNL A   1      42.707  41.086  31.810  1.00  0.00     0.007 C 
BRANCH  82  90
ATOM     90  N   UNL A   1      44.505  41.687  27.908  1.00  0.00    -0.222 N 
ATOM     91  N   UNL A   1      43.932  40.770  27.043  1.00  0.00    -0.175 NA
ATOM     92  C   UNL A   1      44.853  42.965  27.473  1.00  0.00     0.288 A 
ATOM     93  C   UNL A   1      43.728  41.121  25.819  1.00  0.00     0.161 A 
ATOM     94  C   UNL A   1      44.696  43.258  26.022  1.00  0.00     0.132 A 
ATOM     95  O   UNL A   1      45.219  43.863  28.224  1.00  0.00    -0.266 OA
ATOM     96  C   UNL A   1      44.082  42.410  25.187  1.00  0.00     0.082 A 
ATOM     97  Cl  UNL A   1      45.206  44.836  25.498  1.00  0.00    -0.076 Cl
BRANCH  96  98
ATOM     98  N   UNL A   1      43.793  42.579  23.835  1.00  0.00    -0.365 N 
ATOM     99  C   UNL A   1      42.469  42.269  23.242  1.00  0.00     0.138 C 
ATOM    100  C   UNL A   1      44.824  42.975  22.855  1.00  0.00     0.138 C 
ATOM    101  C   UNL A   1      41.981  43.398  22.288  1.00  0.00     0.138 C 
ATOM    102  C   UNL A   1      44.330  44.132  21.972  1.00  0.00     0.138 C 
ATOM    103  N   UNL A   1      43.052  43.761  21.348  1.00  0.00    -0.368 N 
BRANCH 103 104
ATOM    104  C   UNL A   1      42.863  43.919  19.997  1.00  0.00     0.037 A 
ATOM    105  C   UNL A   1      43.941  43.746  19.111  1.00  0.00     0.029 A 
ATOM    106  C   UNL A   1      41.619  44.258  19.453  1.00  0.00     0.029 A 
ATOM    107  C   UNL A   1      43.790  43.919  17.735  1.00  0.00     0.041 A 
ATOM    108  C   UNL A   1      41.463  44.450  18.075  1.00  0.00     0.041 A 
ATOM    109  C   UNL A   1      42.551  44.278  17.230  1.00  0.00     0.123 A 
ATOM    110  F   UNL A   1      42.404  44.461  15.911  1.00  0.00    -0.207 F 
ENDBRANCH 103 104
ENDBRANCH  96  98
ENDBRANCH  82  90
ENDBRANCH  77  80
ENDBRANCH  75  76
ENDBRANCH  74  75
ENDBRANCH  73  74
ENDBRANCH   1  73
TORSDOF 19
ENDMDL
