MODEL 1
REMARK VINA RESULT:      -8.3      0.000      0.000
REMARK SMILES Cc1ccc(S(=O)(=O)n2cc(C(=O)C(=O)N[C@@H](Cc3c[nH]c4ccccc34)C(=O)NCC(=O)NCCCCCCNC(=O)c3ccc(-c4c5nc(c(-c6cccc(S(=O)(=O)[O-])c6F)c6ccc([nH]6)c(-c6cccc(S(=O)(=O)[O-])c6F)c6nc(c(-c7cccc(S(=O)(=O)[O-])c7F)c7ccc4[nH]7)C=C6)C=C5)cc3)c3ccccc32)cc1
REMARK SMILES IDX 35 1 34 2 32 3 33 4 31 6 30 7 28 8 29 9 17 11 16 12 14 13
REMARK SMILES IDX 15 14 12 16 13 17 11 18 9 19 10 20 112 21 107 22 111 23
REMARK SMILES IDX 108 24 110 25 109 26 6 27 7 28 8 29 5 30 1 31 2 32 3 33
REMARK SMILES IDX 114 34 4 35 113 36 18 37 19 38 20 39 27 40 21 41 22 42 26 43
REMARK SMILES IDX 23 45 25 46 24 47 36 48 37 49 38 50 39 51 40 52 41 53 42 54
REMARK SMILES IDX 43 56 44 57 45 58 106 59 46 60 105 61 47 62 48 63 49 64
REMARK SMILES IDX 99 65 50 66 104 67 98 68 100 69 51 70 103 71 97 72 96 73
REMARK SMILES IDX 52 75 84 76 64 77 83 78 65 79 68 80 82 81 101 82 66 83 67 84
REMARK SMILES IDX 81 86 102 87 69 88 53 89 54 90 62 91 55 92 57 93 63 94 56 95
REMARK SMILES IDX 58 96 59 97 60 98 61 99 85 100 86 101 94 102 87 103 89 104
REMARK SMILES IDX 95 105 88 106 90 107 91 108 92 109 93 110 70 111 71 112
REMARK SMILES IDX 79 113 72 114 74 115 80 116 73 117 75 118 76 119 77 120
REMARK SMILES IDX 78 121
REMARK H PARENT 34 5 30 10 16 15 21 44 41 55 100 74 68 85
REMARK Flexibility Score: inf
ROOT
ATOM      1  C   UNL A   1      40.601  35.719  34.652  1.00  0.00     0.116 C 
ENDROOT
BRANCH   1   2
ATOM      2  N   UNL A   1      39.791  34.722  35.308  1.00  0.00    -0.355 N 
ATOM      3  C   UNL A   1      38.515  34.361  34.994  1.00  0.00     0.239 C 
ATOM      4  O   UNL A   1      38.002  33.412  35.592  1.00  0.00    -0.273 OA
ATOM      5  H   UNL A   1      40.205  34.251  36.067  1.00  0.00     0.163 HD
BRANCH   3   6
ATOM      6  C   UNL A   1      37.863  34.971  33.755  1.00  0.00     0.216 C 
BRANCH   6   7
ATOM      7  N   UNL A   1      38.275  34.595  32.416  1.00  0.00    -0.345 N 
ATOM      8  C   UNL A   1      37.925  33.506  31.667  1.00  0.00     0.243 C 
ATOM      9  O   UNL A   1      37.993  33.659  30.441  1.00  0.00    -0.273 OA
ATOM     10  H   UNL A   1      38.900  35.218  31.980  1.00  0.00     0.164 HD
BRANCH   8  11
ATOM     11  C   UNL A   1      37.330  32.174  32.239  1.00  0.00     0.176 C 
BRANCH  11  12
ATOM     12  N   UNL A   1      37.953  31.592  33.453  1.00  0.00    -0.337 N 
ATOM     13  C   UNL A   1      38.082  30.270  33.884  1.00  0.00     0.293 C 
ATOM     14  O   UNL A   1      38.389  30.043  35.052  1.00  0.00    -0.265 OA
ATOM     15  H   UNL A   1      38.346  32.256  34.065  1.00  0.00     0.164 HD
BRANCH  13  16
ATOM     16  C   UNL A   1      37.938  29.092  32.911  1.00  0.00     0.252 C 
ATOM     17  O   UNL A   1      37.051  28.291  33.207  1.00  0.00    -0.283 OA
BRANCH  16  18
ATOM     18  C   UNL A   1      38.840  28.857  31.756  1.00  0.00     0.054 A 
ATOM     19  N   UNL A   1      39.857  28.612  29.737  1.00  0.00    -0.240 N 
ATOM     20  C   UNL A   1      38.615  28.706  30.373  1.00  0.00     0.117 A 
ATOM     21  C   UNL A   1      40.846  28.845  30.712  1.00  0.00     0.065 A 
ATOM     22  C   UNL A   1      40.233  28.587  31.932  1.00  0.00     0.012 A 
ATOM     23  C   UNL A   1      42.250  28.929  30.594  1.00  0.00     0.028 A 
ATOM     24  C   UNL A   1      41.043  28.185  33.015  1.00  0.00     0.011 A 
ATOM     25  C   UNL A   1      43.021  28.448  31.649  1.00  0.00     0.002 A 
ATOM     26  C   UNL A   1      42.421  28.035  32.830  1.00  0.00     0.001 A 
BRANCH  19  27
ATOM     27  S   UNL A   1      40.440  27.494  28.535  1.00  0.00     0.268 S 
ATOM     28  O   UNL A   1      41.340  28.332  27.759  1.00  0.00    -0.201 OA
ATOM     29  O   UNL A   1      39.178  27.020  27.973  1.00  0.00    -0.201 OA
BRANCH  27  30
ATOM     30  C   UNL A   1      41.300  25.970  28.656  1.00  0.00     0.088 A 
ATOM     31  C   UNL A   1      44.415  22.961  28.622  1.00  0.00     0.044 C 
ATOM     32  C   UNL A   1      43.298  23.963  28.680  1.00  0.00    -0.051 A 
ATOM     33  C   UNL A   1      43.627  25.254  29.059  1.00  0.00     0.005 A 
ATOM     34  C   UNL A   1      41.957  23.677  28.329  1.00  0.00     0.005 A 
ATOM     35  C   UNL A   1      42.641  26.225  29.057  1.00  0.00     0.022 A 
ATOM     36  C   UNL A   1      40.946  24.680  28.305  1.00  0.00     0.022 A 
ENDBRANCH  27  30
ENDBRANCH  19  27
ENDBRANCH  16  18
ENDBRANCH  13  16
ENDBRANCH  11  12
BRANCH  11  37
ATOM     37  C   UNL A   1      35.763  32.199  32.316  1.00  0.00     0.072 C 
BRANCH  37  38
ATOM     38  C   UNL A   1      34.996  32.685  31.103  1.00  0.00    -0.020 A 
ATOM     39  C   UNL A   1      35.001  32.088  29.853  1.00  0.00     0.087 A 
ATOM     40  C   UNL A   1      34.201  33.881  30.969  1.00  0.00     0.003 A 
ATOM     41  N   UNL A   1      34.389  32.933  28.962  1.00  0.00    -0.361 N 
ATOM     42  C   UNL A   1      34.006  34.087  29.600  1.00  0.00     0.046 A 
ATOM     43  C   UNL A   1      33.779  34.891  31.857  1.00  0.00     0.010 A 
ATOM     44  H   UNL A   1      34.246  32.740  28.007  1.00  0.00     0.166 HD
ATOM     45  C   UNL A   1      33.554  35.304  29.073  1.00  0.00     0.026 A 
ATOM     46  C   UNL A   1      33.356  36.124  31.347  1.00  0.00     0.001 A 
ATOM     47  C   UNL A   1      33.276  36.335  29.975  1.00  0.00     0.002 A 
ENDBRANCH  37  38
ENDBRANCH  11  37
ENDBRANCH   8  11
ENDBRANCH   6   7
ENDBRANCH   3   6
ENDBRANCH   1   2
BRANCH   1  48
ATOM     48  C   UNL A   1      41.453  35.118  33.552  1.00  0.00     0.021 C 
BRANCH  48  49
ATOM     49  C   UNL A   1      42.942  35.435  33.686  1.00  0.00     0.002 C 
BRANCH  49  50
ATOM     50  C   UNL A   1      43.311  36.927  33.671  1.00  0.00     0.002 C 
BRANCH  50  51
ATOM     51  C   UNL A   1      44.674  37.277  33.072  1.00  0.00     0.021 C 
BRANCH  51  52
ATOM     52  C   UNL A   1      44.862  36.813  31.641  1.00  0.00     0.116 C 
BRANCH  52  53
ATOM     53  N   UNL A   1      43.850  37.315  30.735  1.00  0.00    -0.352 N 
ATOM     54  C   UNL A   1      43.338  36.747  29.586  1.00  0.00     0.251 C 
ATOM     55  H   UNL A   1      43.472  38.192  30.973  1.00  0.00     0.163 HD
ATOM     56  O   UNL A   1      42.675  37.461  28.835  1.00  0.00    -0.269 OA
BRANCH  54  57
ATOM     57  C   UNL A   1      43.442  35.280  29.365  1.00  0.00     0.039 A 
ATOM     58  C   UNL A   1      42.753  34.446  30.257  1.00  0.00     0.014 A 
ATOM     59  C   UNL A   1      44.395  34.734  28.511  1.00  0.00     0.014 A 
ATOM     60  C   UNL A   1      43.218  33.155  30.494  1.00  0.00     0.010 A 
ATOM     61  C   UNL A   1      44.927  33.505  28.817  1.00  0.00     0.010 A 
ATOM     62  C   UNL A   1      44.384  32.751  29.860  1.00  0.00    -0.014 A 
BRANCH  62  63
ATOM     63  C   UNL A   1      45.143  31.555  30.165  1.00  0.00     0.031 A 
ATOM     64  C   UNL A   1      45.079  30.418  29.230  1.00  0.00     0.074 A 
ATOM     65  C   UNL A   1      46.068  31.593  31.147  1.00  0.00     0.049 A 
ATOM     66  N   UNL A   1      45.687  29.302  29.416  1.00  0.00    -0.248 NA
ATOM     67  C   UNL A   1      44.303  30.460  27.998  1.00  0.00     0.031 C 
ATOM     68  C   UNL A   1      47.235  30.729  31.311  1.00  0.00     0.029 A 
ATOM     69  N   UNL A   1      46.118  32.365  32.290  1.00  0.00    -0.354 N 
ATOM     70  C   UNL A   1      45.595  28.571  28.255  1.00  0.00     0.074 A 
ATOM     71  C   UNL A   1      44.668  29.307  27.430  1.00  0.00     0.031 C 
ATOM     72  C   UNL A   1      47.680  30.831  32.575  1.00  0.00     0.029 A 
ATOM     73  C   UNL A   1      46.696  31.603  33.307  1.00  0.00     0.049 A 
ATOM     74  H   UNL A   1      45.802  33.294  32.372  1.00  0.00     0.167 HD
ATOM     75  C   UNL A   1      46.412  27.487  28.121  1.00  0.00     0.034 A 
ATOM     76  C   UNL A   1      45.958  31.118  34.358  1.00  0.00     0.034 A 
ATOM     77  C   UNL A   1      47.091  27.192  29.396  1.00  0.00     0.049 A 
ATOM     78  C   UNL A   1      45.867  29.587  34.404  1.00  0.00     0.074 A 
ATOM     79  C   UNL A   1      48.340  27.441  29.939  1.00  0.00     0.029 A 
ATOM     80  N   UNL A   1      46.300  26.779  30.453  1.00  0.00    -0.354 N 
ATOM     81  N   UNL A   1      46.457  28.776  33.566  1.00  0.00    -0.248 NA
ATOM     82  C   UNL A   1      45.037  28.859  35.367  1.00  0.00     0.031 C 
ATOM     83  C   UNL A   1      48.261  27.218  31.353  1.00  0.00     0.029 A 
ATOM     84  C   UNL A   1      46.976  26.804  31.657  1.00  0.00     0.049 A 
ATOM     85  H   UNL A   1      45.360  26.500  30.357  1.00  0.00     0.167 HD
ATOM     86  C   UNL A   1      45.972  27.503  33.734  1.00  0.00     0.074 A 
ATOM     87  C   UNL A   1      45.127  27.597  34.913  1.00  0.00     0.031 C 
ATOM     88  C   UNL A   1      46.228  26.475  32.866  1.00  0.00     0.034 A 
BRANCH  75  89
ATOM     89  C   UNL A   1      46.749  26.769  26.826  1.00  0.00     0.023 A 
ATOM     90  C   UNL A   1      46.668  25.359  26.841  1.00  0.00     0.012 A 
ATOM     91  C   UNL A   1      47.200  27.344  25.615  1.00  0.00     0.148 A 
ATOM     92  C   UNL A   1      47.073  24.567  25.761  1.00  0.00     0.002 A 
ATOM     93  C   UNL A   1      47.646  26.556  24.549  1.00  0.00     0.091 A 
ATOM     94  F   UNL A   1      47.162  28.662  25.442  1.00  0.00    -0.205 F 
ATOM     95  C   UNL A   1      47.585  25.164  24.621  1.00  0.00     0.022 A 
BRANCH  93  96
ATOM     96  S   UNL A   1      48.368  27.262  23.054  1.00  0.00     0.127 S 
ATOM     97  O   UNL A   1      49.559  27.934  23.581  1.00  0.00    -0.237 OA
ATOM     98  O   UNL A   1      48.649  26.074  22.250  1.00  0.00    -0.237 OA
ATOM     99  O   UNL A   1      47.370  28.166  22.495  1.00  0.00    -0.744 OA
ENDBRANCH  93  96
ENDBRANCH  75  89
BRANCH  76 100
ATOM    100  C   UNL A   1      44.873  32.067  34.768  1.00  0.00     0.023 A 
ATOM    101  C   UNL A   1      43.545  31.679  34.458  1.00  0.00     0.012 A 
ATOM    102  C   UNL A   1      45.075  33.049  35.752  1.00  0.00     0.148 A 
ATOM    103  C   UNL A   1      42.473  32.104  35.243  1.00  0.00     0.002 A 
ATOM    104  C   UNL A   1      43.992  33.500  36.506  1.00  0.00     0.091 A 
ATOM    105  F   UNL A   1      46.317  33.490  35.984  1.00  0.00    -0.205 F 
ATOM    106  C   UNL A   1      42.704  32.983  36.294  1.00  0.00     0.022 A 
BRANCH 104 107
ATOM    107  S   UNL A   1      44.210  34.678  37.846  1.00  0.00     0.127 S 
ATOM    108  O   UNL A   1      44.135  35.949  37.129  1.00  0.00    -0.237 OA
ATOM    109  O   UNL A   1      43.066  34.395  38.711  1.00  0.00    -0.237 OA
ATOM    110  O   UNL A   1      45.499  34.344  38.433  1.00  0.00    -0.744 OA
ENDBRANCH 104 107
ENDBRANCH  76 100
BRANCH  88 111
ATOM    111  C   UNL A   1      45.753  25.050  33.094  1.00  0.00     0.023 A 
ATOM    112  C   UNL A   1      44.536  24.610  32.535  1.00  0.00     0.012 A 
ATOM    113  C   UNL A   1      46.406  24.159  33.984  1.00  0.00     0.148 A 
ATOM    114  C   UNL A   1      44.022  23.335  32.800  1.00  0.00     0.002 A 
ATOM    115  C   UNL A   1      45.840  22.935  34.326  1.00  0.00     0.091 A 
ATOM    116  F   UNL A   1      47.614  24.465  34.470  1.00  0.00    -0.205 F 
ATOM    117  C   UNL A   1      44.663  22.506  33.712  1.00  0.00     0.022 A 
BRANCH 115 118
ATOM    118  S   UNL A   1      46.501  21.904  35.645  1.00  0.00     0.127 S 
ATOM    119  O   UNL A   1      45.426  20.926  35.828  1.00  0.00    -0.237 OA
ATOM    120  O   UNL A   1      47.713  21.368  35.028  1.00  0.00    -0.237 OA
ATOM    121  O   UNL A   1      46.705  22.790  36.783  1.00  0.00    -0.744 OA
ENDBRANCH 115 118
ENDBRANCH  88 111
ENDBRANCH  62  63
ENDBRANCH  54  57
ENDBRANCH  52  53
ENDBRANCH  51  52
ENDBRANCH  50  51
ENDBRANCH  49  50
ENDBRANCH  48  49
ENDBRANCH   1  48
TORSDOF 25
ENDMDL
MODEL 2
REMARK VINA RESULT:      -8.2      1.494      2.078
REMARK SMILES Cc1ccc(S(=O)(=O)n2cc(C(=O)C(=O)N[C@@H](Cc3c[nH]c4ccccc34)C(=O)NCC(=O)NCCCCCCNC(=O)c3ccc(-c4c5nc(c(-c6cccc(S(=O)(=O)[O-])c6F)c6ccc([nH]6)c(-c6cccc(S(=O)(=O)[O-])c6F)c6nc(c(-c7cccc(S(=O)(=O)[O-])c7F)c7ccc4[nH]7)C=C6)C=C5)cc3)c3ccccc32)cc1
REMARK SMILES IDX 35 1 34 2 32 3 33 4 31 6 30 7 28 8 29 9 17 11 16 12 14 13
REMARK SMILES IDX 15 14 12 16 13 17 11 18 9 19 10 20 112 21 107 22 111 23
REMARK SMILES IDX 108 24 110 25 109 26 6 27 7 28 8 29 5 30 1 31 2 32 3 33
REMARK SMILES IDX 114 34 4 35 113 36 18 37 19 38 20 39 27 40 21 41 22 42 26 43
REMARK SMILES IDX 23 45 25 46 24 47 36 48 37 49 38 50 39 51 40 52 41 53 42 54
REMARK SMILES IDX 43 56 44 57 45 58 106 59 46 60 105 61 47 62 48 63 49 64
REMARK SMILES IDX 99 65 50 66 104 67 98 68 100 69 51 70 103 71 97 72 96 73
REMARK SMILES IDX 52 75 84 76 64 77 83 78 65 79 68 80 82 81 101 82 66 83 67 84
REMARK SMILES IDX 81 86 102 87 69 88 53 89 54 90 62 91 55 92 57 93 63 94 56 95
REMARK SMILES IDX 58 96 59 97 60 98 61 99 85 100 86 101 94 102 87 103 89 104
REMARK SMILES IDX 95 105 88 106 90 107 91 108 92 109 93 110 70 111 71 112
REMARK SMILES IDX 79 113 72 114 74 115 80 116 73 117 75 118 76 119 77 120
REMARK SMILES IDX 78 121
REMARK H PARENT 34 5 30 10 16 15 21 44 41 55 100 74 68 85
REMARK Flexibility Score: inf
ROOT
ATOM      1  C   UNL A   1      40.752  35.778  34.273  1.00  0.00     0.116 C 
ENDROOT
BRANCH   1   2
ATOM      2  N   UNL A   1      39.726  34.919  34.810  1.00  0.00    -0.355 N 
ATOM      3  C   UNL A   1      38.587  34.507  34.185  1.00  0.00     0.239 C 
ATOM      4  O   UNL A   1      37.863  33.684  34.751  1.00  0.00    -0.273 OA
ATOM      5  H   UNL A   1      39.863  34.594  35.729  1.00  0.00     0.163 HD
BRANCH   3   6
ATOM      6  C   UNL A   1      38.377  34.882  32.719  1.00  0.00     0.216 C 
BRANCH   6   7
ATOM      7  N   UNL A   1      38.958  34.101  31.644  1.00  0.00    -0.345 N 
ATOM      8  C   UNL A   1      38.556  32.906  31.115  1.00  0.00     0.243 C 
ATOM      9  O   UNL A   1      38.887  32.706  29.939  1.00  0.00    -0.273 OA
ATOM     10  H   UNL A   1      39.764  34.490  31.233  1.00  0.00     0.164 HD
BRANCH   8  11
ATOM     11  C   UNL A   1      37.617  31.875  31.830  1.00  0.00     0.176 C 
BRANCH  11  12
ATOM     12  N   UNL A   1      38.043  31.334  33.145  1.00  0.00    -0.337 N 
ATOM     13  C   UNL A   1      38.162  30.023  33.611  1.00  0.00     0.293 C 
ATOM     14  O   UNL A   1      38.267  29.819  34.818  1.00  0.00    -0.265 OA
ATOM     15  H   UNL A   1      38.283  32.021  33.807  1.00  0.00     0.164 HD
BRANCH  13  16
ATOM     16  C   UNL A   1      38.258  28.834  32.644  1.00  0.00     0.252 C 
ATOM     17  O   UNL A   1      37.560  27.868  32.953  1.00  0.00    -0.283 OA
BRANCH  16  18
ATOM     18  C   UNL A   1      39.179  28.785  31.482  1.00  0.00     0.054 A 
ATOM     19  N   UNL A   1      40.223  28.846  29.462  1.00  0.00    -0.240 N 
ATOM     20  C   UNL A   1      38.972  28.815  30.087  1.00  0.00     0.117 A 
ATOM     21  C   UNL A   1      41.194  28.976  30.473  1.00  0.00     0.065 A 
ATOM     22  C   UNL A   1      40.578  28.538  31.639  1.00  0.00     0.012 A 
ATOM     23  C   UNL A   1      42.595  29.119  30.387  1.00  0.00     0.028 A 
ATOM     24  C   UNL A   1      41.389  28.019  32.670  1.00  0.00     0.011 A 
ATOM     25  C   UNL A   1      43.371  28.525  31.379  1.00  0.00     0.002 A 
ATOM     26  C   UNL A   1      42.774  27.939  32.485  1.00  0.00     0.001 A 
BRANCH  19  27
ATOM     27  S   UNL A   1      40.854  27.918  28.129  1.00  0.00     0.268 S 
ATOM     28  O   UNL A   1      41.013  28.937  27.104  1.00  0.00    -0.201 OA
ATOM     29  O   UNL A   1      39.830  26.883  28.013  1.00  0.00    -0.201 OA
BRANCH  27  30
ATOM     30  C   UNL A   1      42.293  26.930  27.952  1.00  0.00     0.088 A 
ATOM     31  C   UNL A   1      45.622  24.283  28.769  1.00  0.00     0.044 C 
ATOM     32  C   UNL A   1      44.471  25.181  28.417  1.00  0.00    -0.051 A 
ATOM     33  C   UNL A   1      43.288  24.993  29.113  1.00  0.00     0.005 A 
ATOM     34  C   UNL A   1      44.540  26.222  27.461  1.00  0.00     0.005 A 
ATOM     35  C   UNL A   1      42.225  25.844  28.870  1.00  0.00     0.022 A 
ATOM     36  C   UNL A   1      43.454  27.113  27.225  1.00  0.00     0.022 A 
ENDBRANCH  27  30
ENDBRANCH  19  27
ENDBRANCH  16  18
ENDBRANCH  13  16
ENDBRANCH  11  12
BRANCH  11  37
ATOM     37  C   UNL A   1      36.113  32.321  31.818  1.00  0.00     0.072 C 
BRANCH  37  38
ATOM     38  C   UNL A   1      35.433  32.505  30.476  1.00  0.00    -0.020 A 
ATOM     39  C   UNL A   1      34.610  33.564  30.128  1.00  0.00     0.087 A 
ATOM     40  C   UNL A   1      35.420  31.605  29.350  1.00  0.00     0.003 A 
ATOM     41  N   UNL A   1      33.999  33.270  28.936  1.00  0.00    -0.361 N 
ATOM     42  C   UNL A   1      34.385  32.023  28.508  1.00  0.00     0.046 A 
ATOM     43  C   UNL A   1      36.065  30.388  29.050  1.00  0.00     0.010 A 
ATOM     44  H   UNL A   1      33.375  33.864  28.458  1.00  0.00     0.166 HD
ATOM     45  C   UNL A   1      33.869  31.218  27.484  1.00  0.00     0.026 A 
ATOM     46  C   UNL A   1      35.543  29.558  28.052  1.00  0.00     0.001 A 
ATOM     47  C   UNL A   1      34.442  29.957  27.302  1.00  0.00     0.002 A 
ENDBRANCH  37  38
ENDBRANCH  11  37
ENDBRANCH   8  11
ENDBRANCH   6   7
ENDBRANCH   3   6
ENDBRANCH   1   2
BRANCH   1  48
ATOM     48  C   UNL A   1      41.862  34.987  33.612  1.00  0.00     0.021 C 
BRANCH  48  49
ATOM     49  C   UNL A   1      43.259  35.541  33.886  1.00  0.00     0.002 C 
BRANCH  49  50
ATOM     50  C   UNL A   1      43.449  37.041  33.605  1.00  0.00     0.002 C 
BRANCH  50  51
ATOM     51  C   UNL A   1      44.716  37.427  32.840  1.00  0.00     0.021 C 
BRANCH  51  52
ATOM     52  C   UNL A   1      44.861  36.745  31.494  1.00  0.00     0.116 C 
BRANCH  52  53
ATOM     53  N   UNL A   1      43.751  36.992  30.599  1.00  0.00    -0.352 N 
ATOM     54  C   UNL A   1      43.318  36.260  29.512  1.00  0.00     0.251 C 
ATOM     55  H   UNL A   1      43.228  37.803  30.794  1.00  0.00     0.163 HD
ATOM     56  O   UNL A   1      42.516  36.789  28.743  1.00  0.00    -0.269 OA
BRANCH  54  57
ATOM     57  C   UNL A   1      43.678  34.823  29.384  1.00  0.00     0.039 A 
ATOM     58  C   UNL A   1      42.888  33.899  30.082  1.00  0.00     0.014 A 
ATOM     59  C   UNL A   1      44.896  34.419  28.847  1.00  0.00     0.014 A 
ATOM     60  C   UNL A   1      43.441  32.686  30.488  1.00  0.00     0.010 A 
ATOM     61  C   UNL A   1      45.485  33.277  29.334  1.00  0.00     0.010 A 
ATOM     62  C   UNL A   1      44.781  32.453  30.216  1.00  0.00    -0.014 A 
BRANCH  62  63
ATOM     63  C   UNL A   1      45.581  31.375  30.763  1.00  0.00     0.031 A 
ATOM     64  C   UNL A   1      46.003  30.283  29.869  1.00  0.00     0.074 A 
ATOM     65  C   UNL A   1      46.122  31.514  31.991  1.00  0.00     0.049 A 
ATOM     66  N   UNL A   1      46.688  29.266  30.254  1.00  0.00    -0.248 NA
ATOM     67  C   UNL A   1      45.669  30.256  28.452  1.00  0.00     0.031 C 
ATOM     68  C   UNL A   1      47.295  30.834  32.534  1.00  0.00     0.029 A 
ATOM     69  N   UNL A   1      45.678  32.236  33.081  1.00  0.00    -0.354 N 
ATOM     70  C   UNL A   1      47.092  28.578  29.134  1.00  0.00     0.074 A 
ATOM     71  C   UNL A   1      46.376  29.198  28.046  1.00  0.00     0.031 C 
ATOM     72  C   UNL A   1      47.287  30.949  33.873  1.00  0.00     0.029 A 
ATOM     73  C   UNL A   1      46.010  31.530  34.238  1.00  0.00     0.049 A 
ATOM     74  H   UNL A   1      45.209  33.101  33.046  1.00  0.00     0.167 HD
ATOM     75  C   UNL A   1      48.069  27.640  29.284  1.00  0.00     0.034 A 
ATOM     76  C   UNL A   1      45.059  30.894  34.997  1.00  0.00     0.034 A 
ATOM     77  C   UNL A   1      48.339  27.399  30.714  1.00  0.00     0.049 A 
ATOM     78  C   UNL A   1      45.203  29.367  35.027  1.00  0.00     0.074 A 
ATOM     79  C   UNL A   1      49.291  27.814  31.630  1.00  0.00     0.029 A 
ATOM     80  N   UNL A   1      47.326  26.826  31.460  1.00  0.00    -0.354 N 
ATOM     81  N   UNL A   1      46.153  28.692  34.435  1.00  0.00    -0.248 NA
ATOM     82  C   UNL A   1      44.234  28.480  35.676  1.00  0.00     0.031 C 
ATOM     83  C   UNL A   1      48.797  27.523  32.944  1.00  0.00     0.029 A 
ATOM     84  C   UNL A   1      47.565  26.904  32.819  1.00  0.00     0.049 A 
ATOM     85  H   UNL A   1      46.524  26.411  31.068  1.00  0.00     0.167 HD
ATOM     86  C   UNL A   1      45.847  27.354  34.449  1.00  0.00     0.074 A 
ATOM     87  C   UNL A   1      44.664  27.267  35.289  1.00  0.00     0.031 C 
ATOM     88  C   UNL A   1      46.529  26.414  33.722  1.00  0.00     0.034 A 
BRANCH  75  89
ATOM     89  C   UNL A   1      48.915  27.037  28.177  1.00  0.00     0.023 A 
ATOM     90  C   UNL A   1      49.047  25.630  28.171  1.00  0.00     0.012 A 
ATOM     91  C   UNL A   1      49.646  27.725  27.179  1.00  0.00     0.148 A 
ATOM     92  C   UNL A   1      49.897  24.954  27.289  1.00  0.00     0.002 A 
ATOM     93  C   UNL A   1      50.528  27.058  26.324  1.00  0.00     0.091 A 
ATOM     94  F   UNL A   1      49.468  29.030  26.996  1.00  0.00    -0.205 F 
ATOM     95  C   UNL A   1      50.658  25.670  26.379  1.00  0.00     0.022 A 
BRANCH  93  96
ATOM     96  S   UNL A   1      51.585  27.927  25.147  1.00  0.00     0.127 S 
ATOM     97  O   UNL A   1      52.338  28.827  26.024  1.00  0.00    -0.237 OA
ATOM     98  O   UNL A   1      52.376  26.840  24.573  1.00  0.00    -0.237 OA
ATOM     99  O   UNL A   1      50.697  28.607  24.213  1.00  0.00    -0.744 OA
ENDBRANCH  93  96
ENDBRANCH  75  89
BRANCH  76 100
ATOM    100  C   UNL A   1      43.765  31.647  35.022  1.00  0.00     0.023 A 
ATOM    101  C   UNL A   1      42.830  31.329  34.006  1.00  0.00     0.012 A 
ATOM    102  C   UNL A   1      43.305  32.301  36.178  1.00  0.00     0.148 A 
ATOM    103  C   UNL A   1      41.459  31.471  34.222  1.00  0.00     0.002 A 
ATOM    104  C   UNL A   1      41.935  32.477  36.370  1.00  0.00     0.091 A 
ATOM    105  F   UNL A   1      44.194  32.691  37.101  1.00  0.00    -0.205 F 
ATOM    106  C   UNL A   1      41.011  32.008  35.423  1.00  0.00     0.022 A 
BRANCH 104 107
ATOM    107  S   UNL A   1      41.289  33.214  37.877  1.00  0.00     0.127 S 
ATOM    108  O   UNL A   1      39.882  33.397  37.530  1.00  0.00    -0.237 OA
ATOM    109  O   UNL A   1      41.542  32.176  38.876  1.00  0.00    -0.237 OA
ATOM    110  O   UNL A   1      42.070  34.427  38.066  1.00  0.00    -0.744 OA
ENDBRANCH 104 107
ENDBRANCH  76 100
BRANCH  88 111
ATOM    111  C   UNL A   1      46.239  24.925  33.798  1.00  0.00     0.023 A 
ATOM    112  C   UNL A   1      45.111  24.388  33.147  1.00  0.00     0.012 A 
ATOM    113  C   UNL A   1      46.973  24.044  34.634  1.00  0.00     0.148 A 
ATOM    114  C   UNL A   1      44.761  23.038  33.271  1.00  0.00     0.002 A 
ATOM    115  C   UNL A   1      46.562  22.730  34.837  1.00  0.00     0.091 A 
ATOM    116  F   UNL A   1      48.113  24.454  35.201  1.00  0.00    -0.205 F 
ATOM    117  C   UNL A   1      45.474  22.214  34.134  1.00  0.00     0.022 A 
BRANCH 115 118
ATOM    118  S   UNL A   1      47.308  21.671  36.088  1.00  0.00     0.127 S 
ATOM    119  O   UNL A   1      46.200  20.771  36.417  1.00  0.00    -0.237 OA
ATOM    120  O   UNL A   1      48.398  21.047  35.340  1.00  0.00    -0.237 OA
ATOM    121  O   UNL A   1      47.706  22.554  37.176  1.00  0.00    -0.744 OA
ENDBRANCH 115 118
ENDBRANCH  88 111
ENDBRANCH  62  63
ENDBRANCH  54  57
ENDBRANCH  52  53
ENDBRANCH  51  52
ENDBRANCH  50  51
ENDBRANCH  49  50
ENDBRANCH  48  49
ENDBRANCH   1  48
TORSDOF 25
ENDMDL
MODEL 3
REMARK VINA RESULT:      -8.2      3.685     12.189
REMARK SMILES Cc1ccc(S(=O)(=O)n2cc(C(=O)C(=O)N[C@@H](Cc3c[nH]c4ccccc34)C(=O)NCC(=O)NCCCCCCNC(=O)c3ccc(-c4c5nc(c(-c6cccc(S(=O)(=O)[O-])c6F)c6ccc([nH]6)c(-c6cccc(S(=O)(=O)[O-])c6F)c6nc(c(-c7cccc(S(=O)(=O)[O-])c7F)c7ccc4[nH]7)C=C6)C=C5)cc3)c3ccccc32)cc1
REMARK SMILES IDX 35 1 34 2 32 3 33 4 31 6 30 7 28 8 29 9 17 11 16 12 14 13
REMARK SMILES IDX 15 14 12 16 13 17 11 18 9 19 10 20 112 21 107 22 111 23
REMARK SMILES IDX 108 24 110 25 109 26 6 27 7 28 8 29 5 30 1 31 2 32 3 33
REMARK SMILES IDX 114 34 4 35 113 36 18 37 19 38 20 39 27 40 21 41 22 42 26 43
REMARK SMILES IDX 23 45 25 46 24 47 36 48 37 49 38 50 39 51 40 52 41 53 42 54
REMARK SMILES IDX 43 56 44 57 45 58 106 59 46 60 105 61 47 62 48 63 49 64
REMARK SMILES IDX 99 65 50 66 104 67 98 68 100 69 51 70 103 71 97 72 96 73
REMARK SMILES IDX 52 75 84 76 64 77 83 78 65 79 68 80 82 81 101 82 66 83 67 84
REMARK SMILES IDX 81 86 102 87 69 88 53 89 54 90 62 91 55 92 57 93 63 94 56 95
REMARK SMILES IDX 58 96 59 97 60 98 61 99 85 100 86 101 94 102 87 103 89 104
REMARK SMILES IDX 95 105 88 106 90 107 91 108 92 109 93 110 70 111 71 112
REMARK SMILES IDX 79 113 72 114 74 115 80 116 73 117 75 118 76 119 77 120
REMARK SMILES IDX 78 121
REMARK H PARENT 34 5 30 10 16 15 21 44 41 55 100 74 68 85
REMARK Flexibility Score: inf
ROOT
ATOM      1  C   UNL A   1      41.193  28.659  29.620  1.00  0.00     0.116 C 
ENDROOT
BRANCH   1   2
ATOM      2  N   UNL A   1      42.206  28.595  28.595  1.00  0.00    -0.355 N 
ATOM      3  C   UNL A   1      43.500  28.191  28.740  1.00  0.00     0.239 C 
ATOM      4  O   UNL A   1      44.208  28.096  27.735  1.00  0.00    -0.273 OA
ATOM      5  H   UNL A   1      41.933  28.875  27.691  1.00  0.00     0.163 HD
BRANCH   3   6
ATOM      6  C   UNL A   1      43.948  27.635  30.090  1.00  0.00     0.216 C 
BRANCH   6   7
ATOM      7  N   UNL A   1      43.863  26.219  30.396  1.00  0.00    -0.345 N 
ATOM      8  C   UNL A   1      44.860  25.302  30.573  1.00  0.00     0.243 C 
ATOM      9  O   UNL A   1      44.573  24.334  31.290  1.00  0.00    -0.273 OA
ATOM     10  H   UNL A   1      42.949  25.866  30.490  1.00  0.00     0.164 HD
BRANCH   8  11
ATOM     11  C   UNL A   1      46.333  25.462  30.062  1.00  0.00     0.176 C 
BRANCH  11  12
ATOM     12  N   UNL A   1      46.552  26.120  28.750  1.00  0.00    -0.337 N 
ATOM     13  C   UNL A   1      46.571  25.609  27.451  1.00  0.00     0.293 C 
ATOM     14  O   UNL A   1      47.045  26.287  26.542  1.00  0.00    -0.265 OA
ATOM     15  H   UNL A   1      46.714  27.090  28.806  1.00  0.00     0.164 HD
BRANCH  13  16
ATOM     16  C   UNL A   1      45.930  24.256  27.113  1.00  0.00     0.252 C 
ATOM     17  O   UNL A   1      46.716  23.413  26.680  1.00  0.00    -0.283 OA
BRANCH  16  18
ATOM     18  C   UNL A   1      44.473  23.986  27.196  1.00  0.00     0.054 A 
ATOM     19  N   UNL A   1      42.363  23.261  27.635  1.00  0.00    -0.240 N 
ATOM     20  C   UNL A   1      43.718  22.940  27.764  1.00  0.00     0.117 A 
ATOM     21  C   UNL A   1      42.289  24.567  27.114  1.00  0.00     0.065 A 
ATOM     22  C   UNL A   1      43.517  24.795  26.506  1.00  0.00     0.012 A 
ATOM     23  C   UNL A   1      41.173  25.390  26.855  1.00  0.00     0.028 A 
ATOM     24  C   UNL A   1      43.577  25.726  25.448  1.00  0.00     0.011 A 
ATOM     25  C   UNL A   1      41.233  26.241  25.755  1.00  0.00     0.002 A 
ATOM     26  C   UNL A   1      42.408  26.372  25.029  1.00  0.00     0.001 A 
BRANCH  19  27
ATOM     27  S   UNL A   1      41.014  22.309  27.080  1.00  0.00     0.268 S 
ATOM     28  O   UNL A   1      40.810  21.400  28.197  1.00  0.00    -0.201 OA
ATOM     29  O   UNL A   1      41.531  21.828  25.802  1.00  0.00    -0.201 OA
BRANCH  27  30
ATOM     30  C   UNL A   1      39.382  22.737  26.596  1.00  0.00     0.088 A 
ATOM     31  C   UNL A   1      35.715  23.170  24.333  1.00  0.00     0.044 C 
ATOM     32  C   UNL A   1      36.949  23.028  25.178  1.00  0.00    -0.051 A 
ATOM     33  C   UNL A   1      37.703  21.879  25.005  1.00  0.00     0.005 A 
ATOM     34  C   UNL A   1      37.401  24.007  26.094  1.00  0.00     0.005 A 
ATOM     35  C   UNL A   1      38.884  21.740  25.712  1.00  0.00     0.022 A 
ATOM     36  C   UNL A   1      38.627  23.875  26.807  1.00  0.00     0.022 A 
ENDBRANCH  27  30
ENDBRANCH  19  27
ENDBRANCH  16  18
ENDBRANCH  13  16
ENDBRANCH  11  12
BRANCH  11  37
ATOM     37  C   UNL A   1      47.301  25.996  31.176  1.00  0.00     0.072 C 
BRANCH  37  38
ATOM     38  C   UNL A   1      46.933  27.283  31.886  1.00  0.00    -0.020 A 
ATOM     39  C   UNL A   1      46.400  27.376  33.162  1.00  0.00     0.087 A 
ATOM     40  C   UNL A   1      46.969  28.629  31.371  1.00  0.00     0.003 A 
ATOM     41  N   UNL A   1      45.982  28.666  33.368  1.00  0.00    -0.361 N 
ATOM     42  C   UNL A   1      46.207  29.416  32.240  1.00  0.00     0.046 A 
ATOM     43  C   UNL A   1      47.425  29.217  30.174  1.00  0.00     0.010 A 
ATOM     44  H   UNL A   1      45.580  29.003  34.202  1.00  0.00     0.166 HD
ATOM     45  C   UNL A   1      45.756  30.699  31.902  1.00  0.00     0.026 A 
ATOM     46  C   UNL A   1      46.959  30.485  29.807  1.00  0.00     0.001 A 
ATOM     47  C   UNL A   1      46.111  31.200  30.647  1.00  0.00     0.002 A 
ENDBRANCH  37  38
ENDBRANCH  11  37
ENDBRANCH   8  11
ENDBRANCH   6   7
ENDBRANCH   3   6
ENDBRANCH   1   2
BRANCH   1  48
ATOM     48  C   UNL A   1      40.183  27.538  29.486  1.00  0.00     0.021 C 
BRANCH  48  49
ATOM     49  C   UNL A   1      38.732  28.013  29.499  1.00  0.00     0.002 C 
BRANCH  49  50
ATOM     50  C   UNL A   1      38.245  28.707  28.217  1.00  0.00     0.002 C 
BRANCH  50  51
ATOM     51  C   UNL A   1      36.749  29.020  28.147  1.00  0.00     0.021 C 
BRANCH  51  52
ATOM     52  C   UNL A   1      36.419  30.334  27.468  1.00  0.00     0.116 C 
BRANCH  52  53
ATOM     53  N   UNL A   1      35.625  31.223  28.288  1.00  0.00    -0.352 N 
ATOM     54  C   UNL A   1      35.953  31.858  29.469  1.00  0.00     0.251 C 
ATOM     55  H   UNL A   1      34.715  31.401  27.955  1.00  0.00     0.163 HD
ATOM     56  O   UNL A   1      35.042  32.360  30.127  1.00  0.00    -0.269 OA
BRANCH  54  57
ATOM     57  C   UNL A   1      37.378  32.075  29.833  1.00  0.00     0.039 A 
ATOM     58  C   UNL A   1      37.926  31.237  30.813  1.00  0.00     0.014 A 
ATOM     59  C   UNL A   1      38.064  33.223  29.450  1.00  0.00     0.014 A 
ATOM     60  C   UNL A   1      38.981  31.691  31.600  1.00  0.00     0.010 A 
ATOM     61  C   UNL A   1      39.030  33.725  30.289  1.00  0.00     0.010 A 
ATOM     62  C   UNL A   1      39.431  32.989  31.407  1.00  0.00    -0.014 A 
BRANCH  62  63
ATOM     63  C   UNL A   1      40.338  33.710  32.278  1.00  0.00     0.031 A 
ATOM     64  C   UNL A   1      39.789  34.395  33.461  1.00  0.00     0.074 A 
ATOM     65  C   UNL A   1      41.668  33.539  32.132  1.00  0.00     0.049 A 
ATOM     66  N   UNL A   1      40.496  35.085  34.282  1.00  0.00    -0.248 NA
ATOM     67  C   UNL A   1      38.374  34.354  33.804  1.00  0.00     0.031 C 
ATOM     68  C   UNL A   1      42.712  33.748  33.131  1.00  0.00     0.029 A 
ATOM     69  N   UNL A   1      42.405  33.225  31.007  1.00  0.00    -0.354 N 
ATOM     70  C   UNL A   1      39.712  35.380  35.373  1.00  0.00     0.074 A 
ATOM     71  C   UNL A   1      38.385  34.960  34.994  1.00  0.00     0.031 C 
ATOM     72  C   UNL A   1      43.900  33.838  32.510  1.00  0.00     0.029 A 
ATOM     73  C   UNL A   1      43.630  33.889  31.088  1.00  0.00     0.049 A 
ATOM     74  H   UNL A   1      42.115  32.633  30.276  1.00  0.00     0.167 HD
ATOM     75  C   UNL A   1      40.333  35.846  36.493  1.00  0.00     0.034 A 
ATOM     76  C   UNL A   1      43.927  34.960  30.282  1.00  0.00     0.034 A 
ATOM     77  C   UNL A   1      41.747  36.156  36.209  1.00  0.00     0.049 A 
ATOM     78  C   UNL A   1      44.108  36.281  31.040  1.00  0.00     0.074 A 
ATOM     79  C   UNL A   1      42.963  35.523  36.403  1.00  0.00     0.029 A 
ATOM     80  N   UNL A   1      42.002  37.194  35.331  1.00  0.00    -0.354 N 
ATOM     81  N   UNL A   1      44.037  36.417  32.338  1.00  0.00    -0.248 NA
ATOM     82  C   UNL A   1      44.315  37.570  30.373  1.00  0.00     0.031 C 
ATOM     83  C   UNL A   1      43.938  36.175  35.580  1.00  0.00     0.029 A 
ATOM     84  C   UNL A   1      43.320  37.219  34.915  1.00  0.00     0.049 A 
ATOM     85  H   UNL A   1      41.322  37.841  35.035  1.00  0.00     0.167 HD
ATOM     86  C   UNL A   1      43.995  37.749  32.663  1.00  0.00     0.074 A 
ATOM     87  C   UNL A   1      44.230  38.432  31.401  1.00  0.00     0.031 C 
ATOM     88  C   UNL A   1      43.700  38.213  33.918  1.00  0.00     0.034 A 
BRANCH  75  89
ATOM     89  C   UNL A   1      39.751  35.885  37.895  1.00  0.00     0.023 A 
ATOM     90  C   UNL A   1      39.853  37.110  38.592  1.00  0.00     0.012 A 
ATOM     91  C   UNL A   1      39.170  34.816  38.617  1.00  0.00     0.148 A 
ATOM     92  C   UNL A   1      39.475  37.251  39.932  1.00  0.00     0.002 A 
ATOM     93  C   UNL A   1      38.831  34.940  39.968  1.00  0.00     0.091 A 
ATOM     94  F   UNL A   1      38.884  33.671  38.005  1.00  0.00    -0.205 F 
ATOM     95  C   UNL A   1      38.986  36.158  40.629  1.00  0.00     0.022 A 
BRANCH  93  96
ATOM     96  S   UNL A   1      38.234  33.551  40.951  1.00  0.00     0.127 S 
ATOM     97  O   UNL A   1      39.423  32.698  41.025  1.00  0.00    -0.237 OA
ATOM     98  O   UNL A   1      37.871  34.193  42.213  1.00  0.00    -0.237 OA
ATOM     99  O   UNL A   1      37.122  32.965  40.212  1.00  0.00    -0.744 OA
ENDBRANCH  93  96
ENDBRANCH  75  89
BRANCH  76 100
ATOM    100  C   UNL A   1      43.334  34.815  28.914  1.00  0.00     0.023 A 
ATOM    101  C   UNL A   1      42.279  35.704  28.587  1.00  0.00     0.012 A 
ATOM    102  C   UNL A   1      44.017  34.168  27.869  1.00  0.00     0.148 A 
ATOM    103  C   UNL A   1      42.049  36.089  27.266  1.00  0.00     0.002 A 
ATOM    104  C   UNL A   1      43.754  34.530  26.548  1.00  0.00     0.091 A 
ATOM    105  F   UNL A   1      44.951  33.257  28.170  1.00  0.00    -0.205 F 
ATOM    106  C   UNL A   1      42.817  35.531  26.250  1.00  0.00     0.022 A 
BRANCH 104 107
ATOM    107  S   UNL A   1      44.671  33.808  25.181  1.00  0.00     0.127 S 
ATOM    108  O   UNL A   1      45.887  34.616  25.188  1.00  0.00    -0.237 OA
ATOM    109  O   UNL A   1      44.855  32.423  25.614  1.00  0.00    -0.237 OA
ATOM    110  O   UNL A   1      43.802  33.960  24.024  1.00  0.00    -0.744 OA
ENDBRANCH 104 107
ENDBRANCH  76 100
BRANCH  88 111
ATOM    111  C   UNL A   1      43.729  39.685  34.293  1.00  0.00     0.023 A 
ATOM    112  C   UNL A   1      42.919  40.609  33.603  1.00  0.00     0.012 A 
ATOM    113  C   UNL A   1      44.659  40.220  35.222  1.00  0.00     0.148 A 
ATOM    114  C   UNL A   1      42.987  41.984  33.859  1.00  0.00     0.002 A 
ATOM    115  C   UNL A   1      44.796  41.594  35.397  1.00  0.00     0.091 A 
ATOM    116  F   UNL A   1      45.387  39.400  35.988  1.00  0.00    -0.205 F 
ATOM    117  C   UNL A   1      43.941  42.478  34.741  1.00  0.00     0.022 A 
BRANCH 115 118
ATOM    118  S   UNL A   1      46.138  42.311  36.360  1.00  0.00     0.127 S 
ATOM    119  O   UNL A   1      46.094  41.503  37.581  1.00  0.00    -0.237 OA
ATOM    120  O   UNL A   1      47.293  42.054  35.501  1.00  0.00    -0.237 OA
ATOM    121  O   UNL A   1      45.789  43.711  36.555  1.00  0.00    -0.744 OA
ENDBRANCH 115 118
ENDBRANCH  88 111
ENDBRANCH  62  63
ENDBRANCH  54  57
ENDBRANCH  52  53
ENDBRANCH  51  52
ENDBRANCH  50  51
ENDBRANCH  49  50
ENDBRANCH  48  49
ENDBRANCH   1  48
TORSDOF 25
ENDMDL
