MODEL 1
REMARK VINA RESULT:     -10.7      0.000      0.000
REMARK SMILES O=Cc1ccc(-c2cnccc2C(=O)NCCCCCCNC(=O)c2ccc(-c3c4nc(c(-c5cccc(S(=O)(=O)[O-])c5F)c5ccc([nH]5)c(-c5cccc(S(=O)(=O)[O-])c5F)c5nc(c(-c6cccc(S(=O)(=O)[O-])c6F)c6ccc3[nH]6)C=C5)C=C4)cc2)s1
REMARK SMILES IDX 19 1 18 2 17 3 16 4 15 5 13 6 14 7 12 9 7 10 8 11 9 12 11 13
REMARK SMILES IDX 10 14 6 15 3 16 4 17 88 18 5 19 2 20 1 21 20 22 21 23 22 24
REMARK SMILES IDX 23 25 24 27 25 28 26 29 87 30 27 31 86 32 28 33 29 34 30 35
REMARK SMILES IDX 80 36 31 37 85 38 79 39 81 40 32 41 84 42 78 43 77 44 33 46
REMARK SMILES IDX 65 47 45 48 64 49 46 50 49 51 63 52 82 53 47 54 48 55 62 57
REMARK SMILES IDX 83 58 50 59 34 60 35 61 43 62 36 63 38 64 44 65 37 66 39 67
REMARK SMILES IDX 40 68 41 69 42 70 66 71 67 72 75 73 68 74 70 75 76 76 69 77
REMARK SMILES IDX 71 78 72 79 73 80 74 81 51 82 52 83 60 84 53 85 55 86 61 87
REMARK SMILES IDX 54 88 56 89 57 90 58 91 59 92
REMARK H PARENT 15 8 22 26 81 45 49 56
REMARK Flexibility Score: inf
ROOT
ATOM      1  C   UNL A   1      32.860  27.859  24.511  1.00  0.00     0.002 C 
ENDROOT
BRANCH   1   2
ATOM      2  C   UNL A   1      33.262  27.861  23.032  1.00  0.00     0.002 C 
BRANCH   2   3
ATOM      3  C   UNL A   1      33.685  26.542  22.385  1.00  0.00     0.021 C 
BRANCH   3   4
ATOM      4  C   UNL A   1      32.652  25.771  21.573  1.00  0.00     0.116 C 
BRANCH   4   5
ATOM      5  N   UNL A   1      32.578  24.350  21.763  1.00  0.00    -0.352 N 
ATOM      6  C   UNL A   1      32.200  23.616  22.864  1.00  0.00     0.252 C 
ATOM      7  O   UNL A   1      32.090  22.398  22.680  1.00  0.00    -0.269 OA
ATOM      8  H   UNL A   1      32.840  23.814  20.980  1.00  0.00     0.163 HD
BRANCH   6   9
ATOM      9  C   UNL A   1      32.008  24.121  24.273  1.00  0.00     0.051 A 
ATOM     10  C   UNL A   1      32.907  24.209  25.355  1.00  0.00     0.023 A 
ATOM     11  C   UNL A   1      32.423  24.806  26.533  1.00  0.00     0.121 A 
ATOM     12  N   UNL A   1      31.178  25.299  26.722  1.00  0.00    -0.264 NA
ATOM     13  C   UNL A   1      30.707  24.646  24.468  1.00  0.00     0.034 A 
ATOM     14  C   UNL A   1      30.345  25.211  25.678  1.00  0.00     0.112 A 
BRANCH  10  15
ATOM     15  C   UNL A   1      34.302  23.773  25.391  1.00  0.00     0.037 A 
ATOM     16  C   UNL A   1      36.301  22.326  25.254  1.00  0.00     0.067 A 
ATOM     17  C   UNL A   1      36.629  23.666  25.301  1.00  0.00     0.024 A 
ATOM     18  S   UNL A   1      34.639  22.080  25.527  1.00  0.00    -0.132 S 
ATOM     19  C   UNL A   1      35.472  24.505  25.394  1.00  0.00     0.021 A 
BRANCH  16  20
ATOM     20  C   UNL A   1      37.159  21.195  24.983  1.00  0.00     0.270 C 
ATOM     21  O   UNL A   1      36.786  20.028  25.000  1.00  0.00    -0.297 OA
ENDBRANCH  16  20
ENDBRANCH  10  15
ENDBRANCH   6   9
ENDBRANCH   4   5
ENDBRANCH   3   4
ENDBRANCH   2   3
ENDBRANCH   1   2
BRANCH   1  22
ATOM     22  C   UNL A   1      33.946  28.124  25.557  1.00  0.00     0.021 C 
BRANCH  22  23
ATOM     23  C   UNL A   1      33.494  28.557  26.949  1.00  0.00     0.116 C 
BRANCH  23  24
ATOM     24  N   UNL A   1      33.504  29.996  27.137  1.00  0.00    -0.352 N 
ATOM     25  C   UNL A   1      34.436  30.793  27.760  1.00  0.00     0.251 C 
ATOM     26  H   UNL A   1      32.728  30.472  26.763  1.00  0.00     0.163 HD
ATOM     27  O   UNL A   1      34.184  31.985  27.928  1.00  0.00    -0.269 OA
BRANCH  25  28
ATOM     28  C   UNL A   1      35.726  30.242  28.247  1.00  0.00     0.039 A 
ATOM     29  C   UNL A   1      36.829  30.262  27.385  1.00  0.00     0.014 A 
ATOM     30  C   UNL A   1      35.858  29.661  29.513  1.00  0.00     0.014 A 
ATOM     31  C   UNL A   1      38.062  29.750  27.804  1.00  0.00     0.010 A 
ATOM     32  C   UNL A   1      37.105  29.207  29.952  1.00  0.00     0.010 A 
ATOM     33  C   UNL A   1      38.221  29.237  29.102  1.00  0.00    -0.014 A 
BRANCH  33  34
ATOM     34  C   UNL A   1      39.545  28.745  29.576  1.00  0.00     0.031 A 
ATOM     35  C   UNL A   1      40.284  29.462  30.678  1.00  0.00     0.074 A 
ATOM     36  C   UNL A   1      40.120  27.684  28.973  1.00  0.00     0.049 A 
ATOM     37  N   UNL A   1      41.454  29.190  31.199  1.00  0.00    -0.248 NA
ATOM     38  C   UNL A   1      39.634  30.648  31.257  1.00  0.00     0.031 C 
ATOM     39  C   UNL A   1      39.550  26.943  27.846  1.00  0.00     0.029 A 
ATOM     40  N   UNL A   1      41.321  27.059  29.206  1.00  0.00    -0.354 N 
ATOM     41  C   UNL A   1      41.695  30.185  32.141  1.00  0.00     0.074 A 
ATOM     42  C   UNL A   1      40.561  31.082  32.101  1.00  0.00     0.031 C 
ATOM     43  C   UNL A   1      40.397  25.966  27.487  1.00  0.00     0.029 A 
ATOM     44  C   UNL A   1      41.585  26.026  28.335  1.00  0.00     0.049 A 
ATOM     45  H   UNL A   1      41.936  27.324  29.928  1.00  0.00     0.167 HD
ATOM     46  C   UNL A   1      42.751  30.326  32.979  1.00  0.00     0.034 A 
ATOM     47  C   UNL A   1      42.664  25.226  28.219  1.00  0.00     0.034 A 
ATOM     48  C   UNL A   1      43.861  29.413  33.048  1.00  0.00     0.049 A 
ATOM     49  C   UNL A   1      43.807  25.386  29.186  1.00  0.00     0.074 A 
ATOM     50  C   UNL A   1      44.930  29.426  33.926  1.00  0.00     0.029 A 
ATOM     51  N   UNL A   1      44.053  28.332  32.202  1.00  0.00    -0.354 N 
ATOM     52  N   UNL A   1      43.938  26.235  30.176  1.00  0.00    -0.248 NA
ATOM     53  C   UNL A   1      44.936  24.454  29.042  1.00  0.00     0.031 C 
ATOM     54  C   UNL A   1      45.786  28.372  33.591  1.00  0.00     0.029 A 
ATOM     55  C   UNL A   1      45.231  27.680  32.528  1.00  0.00     0.049 A 
ATOM     56  H   UNL A   1      43.443  28.066  31.477  1.00  0.00     0.167 HD
ATOM     57  C   UNL A   1      45.142  25.916  30.795  1.00  0.00     0.074 A 
ATOM     58  C   UNL A   1      45.691  24.781  30.082  1.00  0.00     0.031 C 
ATOM     59  C   UNL A   1      45.745  26.518  31.849  1.00  0.00     0.034 A 
BRANCH  46  60
ATOM     60  C   UNL A   1      42.741  31.492  33.936  1.00  0.00     0.023 A 
ATOM     61  C   UNL A   1      43.299  32.723  33.539  1.00  0.00     0.012 A 
ATOM     62  C   UNL A   1      42.105  31.394  35.191  1.00  0.00     0.148 A 
ATOM     63  C   UNL A   1      43.253  33.830  34.386  1.00  0.00     0.002 A 
ATOM     64  C   UNL A   1      42.024  32.514  36.010  1.00  0.00     0.091 A 
ATOM     65  F   UNL A   1      41.594  30.210  35.558  1.00  0.00    -0.205 F 
ATOM     66  C   UNL A   1      42.607  33.730  35.614  1.00  0.00     0.022 A 
BRANCH  64  67
ATOM     67  S   UNL A   1      41.142  32.511  37.576  1.00  0.00     0.127 S 
ATOM     68  O   UNL A   1      41.990  31.640  38.389  1.00  0.00    -0.237 OA
ATOM     69  O   UNL A   1      41.181  33.923  37.953  1.00  0.00    -0.237 OA
ATOM     70  O   UNL A   1      39.812  31.992  37.289  1.00  0.00    -0.744 OA
ENDBRANCH  64  67
ENDBRANCH  46  60
BRANCH  47  71
ATOM     71  C   UNL A   1      42.697  24.161  27.175  1.00  0.00     0.023 A 
ATOM     72  C   UNL A   1      43.363  24.401  25.957  1.00  0.00     0.012 A 
ATOM     73  C   UNL A   1      42.082  22.911  27.385  1.00  0.00     0.148 A 
ATOM     74  C   UNL A   1      43.382  23.433  24.953  1.00  0.00     0.002 A 
ATOM     75  C   UNL A   1      42.154  21.930  26.404  1.00  0.00     0.091 A 
ATOM     76  F   UNL A   1      41.440  22.706  28.544  1.00  0.00    -0.205 F 
ATOM     77  C   UNL A   1      42.786  22.195  25.179  1.00  0.00     0.022 A 
BRANCH  75  78
ATOM     78  S   UNL A   1      41.527  20.267  26.660  1.00  0.00     0.127 S 
ATOM     79  O   UNL A   1      42.244  19.857  27.864  1.00  0.00    -0.237 OA
ATOM     80  O   UNL A   1      40.095  20.507  26.847  1.00  0.00    -0.237 OA
ATOM     81  O   UNL A   1      41.856  19.530  25.447  1.00  0.00    -0.744 OA
ENDBRANCH  75  78
ENDBRANCH  47  71
BRANCH  59  82
ATOM     82  C   UNL A   1      47.051  25.942  32.335  1.00  0.00     0.023 A 
ATOM     83  C   UNL A   1      47.066  25.057  33.430  1.00  0.00     0.012 A 
ATOM     84  C   UNL A   1      48.255  26.225  31.659  1.00  0.00     0.148 A 
ATOM     85  C   UNL A   1      48.263  24.488  33.867  1.00  0.00     0.002 A 
ATOM     86  C   UNL A   1      49.436  25.616  32.067  1.00  0.00     0.091 A 
ATOM     87  F   UNL A   1      48.223  27.084  30.629  1.00  0.00    -0.205 F 
ATOM     88  C   UNL A   1      49.445  24.758  33.178  1.00  0.00     0.022 A 
BRANCH  86  89
ATOM     89  S   UNL A   1      50.985  25.826  31.183  1.00  0.00     0.127 S 
ATOM     90  O   UNL A   1      50.637  25.336  29.850  1.00  0.00    -0.237 OA
ATOM     91  O   UNL A   1      51.197  27.271  31.267  1.00  0.00    -0.237 OA
ATOM     92  O   UNL A   1      51.970  25.028  31.903  1.00  0.00    -0.744 OA
ENDBRANCH  86  89
ENDBRANCH  59  82
ENDBRANCH  33  34
ENDBRANCH  25  28
ENDBRANCH  23  24
ENDBRANCH  22  23
ENDBRANCH   1  22
TORSDOF 18
ENDMDL
MODEL 2
REMARK VINA RESULT:     -10.6      3.880      8.977
REMARK SMILES O=Cc1ccc(-c2cnccc2C(=O)NCCCCCCNC(=O)c2ccc(-c3c4nc(c(-c5cccc(S(=O)(=O)[O-])c5F)c5ccc([nH]5)c(-c5cccc(S(=O)(=O)[O-])c5F)c5nc(c(-c6cccc(S(=O)(=O)[O-])c6F)c6ccc3[nH]6)C=C5)C=C4)cc2)s1
REMARK SMILES IDX 19 1 18 2 17 3 16 4 15 5 13 6 14 7 12 9 7 10 8 11 9 12 11 13
REMARK SMILES IDX 10 14 6 15 3 16 4 17 88 18 5 19 2 20 1 21 20 22 21 23 22 24
REMARK SMILES IDX 23 25 24 27 25 28 26 29 87 30 27 31 86 32 28 33 29 34 30 35
REMARK SMILES IDX 80 36 31 37 85 38 79 39 81 40 32 41 84 42 78 43 77 44 33 46
REMARK SMILES IDX 65 47 45 48 64 49 46 50 49 51 63 52 82 53 47 54 48 55 62 57
REMARK SMILES IDX 83 58 50 59 34 60 35 61 43 62 36 63 38 64 44 65 37 66 39 67
REMARK SMILES IDX 40 68 41 69 42 70 66 71 67 72 75 73 68 74 70 75 76 76 69 77
REMARK SMILES IDX 71 78 72 79 73 80 74 81 51 82 52 83 60 84 53 85 55 86 61 87
REMARK SMILES IDX 54 88 56 89 57 90 58 91 59 92
REMARK H PARENT 15 8 22 26 81 45 49 56
REMARK Flexibility Score: inf
ROOT
ATOM      1  C   UNL A   1      31.705  30.114  26.612  1.00  0.00     0.002 C 
ENDROOT
BRANCH   1   2
ATOM      2  C   UNL A   1      32.953  29.504  27.261  1.00  0.00     0.002 C 
BRANCH   2   3
ATOM      3  C   UNL A   1      33.915  28.698  26.387  1.00  0.00     0.021 C 
BRANCH   3   4
ATOM      4  C   UNL A   1      33.501  27.297  25.959  1.00  0.00     0.116 C 
BRANCH   4   5
ATOM      5  N   UNL A   1      33.758  26.910  24.601  1.00  0.00    -0.352 N 
ATOM      6  C   UNL A   1      32.915  26.853  23.515  1.00  0.00     0.252 C 
ATOM      7  O   UNL A   1      33.460  26.626  22.429  1.00  0.00    -0.269 OA
ATOM      8  H   UNL A   1      34.687  26.641  24.416  1.00  0.00     0.163 HD
BRANCH   6   9
ATOM      9  C   UNL A   1      31.408  26.937  23.526  1.00  0.00     0.051 A 
ATOM     10  C   UNL A   1      30.440  26.106  24.124  1.00  0.00     0.023 A 
ATOM     11  C   UNL A   1      29.098  26.511  24.005  1.00  0.00     0.121 A 
ATOM     12  N   UNL A   1      28.654  27.619  23.369  1.00  0.00    -0.264 NA
ATOM     13  C   UNL A   1      30.944  28.102  22.869  1.00  0.00     0.034 A 
ATOM     14  C   UNL A   1      29.593  28.396  22.816  1.00  0.00     0.112 A 
BRANCH  10  15
ATOM     15  C   UNL A   1      30.667  24.876  24.882  1.00  0.00     0.037 A 
ATOM     16  C   UNL A   1      31.509  22.637  25.502  1.00  0.00     0.067 A 
ATOM     17  C   UNL A   1      30.921  23.287  26.568  1.00  0.00     0.024 A 
ATOM     18  S   UNL A   1      31.275  23.487  24.046  1.00  0.00    -0.132 S 
ATOM     19  C   UNL A   1      30.420  24.579  26.207  1.00  0.00     0.021 A 
BRANCH  16  20
ATOM     20  C   UNL A   1      32.278  21.413  25.502  1.00  0.00     0.270 C 
ATOM     21  O   UNL A   1      31.870  20.343  25.069  1.00  0.00    -0.297 OA
ENDBRANCH  16  20
ENDBRANCH  10  15
ENDBRANCH   6   9
ENDBRANCH   4   5
ENDBRANCH   3   4
ENDBRANCH   2   3
ENDBRANCH   1   2
BRANCH   1  22
ATOM     22  C   UNL A   1      31.552  31.637  26.627  1.00  0.00     0.021 C 
BRANCH  22  23
ATOM     23  C   UNL A   1      32.799  32.470  26.905  1.00  0.00     0.116 C 
BRANCH  23  24
ATOM     24  N   UNL A   1      32.506  33.792  27.427  1.00  0.00    -0.352 N 
ATOM     25  C   UNL A   1      33.074  34.465  28.483  1.00  0.00     0.251 C 
ATOM     26  H   UNL A   1      31.795  34.280  26.953  1.00  0.00     0.163 HD
ATOM     27  O   UNL A   1      32.582  35.532  28.845  1.00  0.00    -0.269 OA
BRANCH  25  28
ATOM     28  C   UNL A   1      34.253  33.921  29.205  1.00  0.00     0.039 A 
ATOM     29  C   UNL A   1      34.043  32.943  30.185  1.00  0.00     0.014 A 
ATOM     30  C   UNL A   1      35.550  34.392  28.976  1.00  0.00     0.014 A 
ATOM     31  C   UNL A   1      35.126  32.407  30.892  1.00  0.00     0.010 A 
ATOM     32  C   UNL A   1      36.636  33.811  29.637  1.00  0.00     0.010 A 
ATOM     33  C   UNL A   1      36.438  32.819  30.609  1.00  0.00    -0.014 A 
BRANCH  33  34
ATOM     34  C   UNL A   1      37.602  32.210  31.315  1.00  0.00     0.031 A 
ATOM     35  C   UNL A   1      38.365  31.066  30.696  1.00  0.00     0.074 A 
ATOM     36  C   UNL A   1      37.940  32.645  32.546  1.00  0.00     0.049 A 
ATOM     37  N   UNL A   1      39.385  30.400  31.176  1.00  0.00    -0.248 NA
ATOM     38  C   UNL A   1      37.913  30.596  29.378  1.00  0.00     0.031 C 
ATOM     39  C   UNL A   1      37.241  33.694  33.292  1.00  0.00     0.029 A 
ATOM     40  N   UNL A   1      38.940  32.243  33.398  1.00  0.00    -0.354 N 
ATOM     41  C   UNL A   1      39.676  29.415  30.239  1.00  0.00     0.074 A 
ATOM     42  C   UNL A   1      38.708  29.554  29.172  1.00  0.00     0.031 C 
ATOM     43  C   UNL A   1      37.833  33.854  34.486  1.00  0.00     0.029 A 
ATOM     44  C   UNL A   1      38.933  32.901  34.608  1.00  0.00     0.049 A 
ATOM     45  H   UNL A   1      39.600  31.550  33.166  1.00  0.00     0.167 HD
ATOM     46  C   UNL A   1      40.672  28.496  30.250  1.00  0.00     0.034 A 
ATOM     47  C   UNL A   1      39.712  32.747  35.697  1.00  0.00     0.034 A 
ATOM     48  C   UNL A   1      41.660  28.382  31.290  1.00  0.00     0.049 A 
ATOM     49  C   UNL A   1      40.830  31.740  35.668  1.00  0.00     0.074 A 
ATOM     50  C   UNL A   1      42.757  27.541  31.344  1.00  0.00     0.029 A 
ATOM     51  N   UNL A   1      41.666  29.121  32.463  1.00  0.00    -0.354 N 
ATOM     52  N   UNL A   1      41.187  30.930  34.701  1.00  0.00    -0.248 NA
ATOM     53  C   UNL A   1      41.677  31.651  36.867  1.00  0.00     0.031 C 
ATOM     54  C   UNL A   1      43.410  27.747  32.563  1.00  0.00     0.029 A 
ATOM     55  C   UNL A   1      42.740  28.744  33.253  1.00  0.00     0.049 A 
ATOM     56  H   UNL A   1      41.006  29.811  32.699  1.00  0.00     0.167 HD
ATOM     57  C   UNL A   1      42.319  30.264  35.159  1.00  0.00     0.074 A 
ATOM     58  C   UNL A   1      42.602  30.782  36.481  1.00  0.00     0.031 C 
ATOM     59  C   UNL A   1      43.048  29.301  34.545  1.00  0.00     0.034 A 
BRANCH  46  60
ATOM     60  C   UNL A   1      40.781  27.559  29.073  1.00  0.00     0.023 A 
ATOM     61  C   UNL A   1      39.927  26.441  28.990  1.00  0.00     0.012 A 
ATOM     62  C   UNL A   1      41.667  27.831  28.010  1.00  0.00     0.148 A 
ATOM     63  C   UNL A   1      39.972  25.591  27.886  1.00  0.00     0.002 A 
ATOM     64  C   UNL A   1      41.674  27.005  26.892  1.00  0.00     0.091 A 
ATOM     65  F   UNL A   1      42.483  28.890  28.113  1.00  0.00    -0.205 F 
ATOM     66  C   UNL A   1      40.836  25.879  26.833  1.00  0.00     0.022 A 
BRANCH  64  67
ATOM     67  S   UNL A   1      42.690  27.334  25.447  1.00  0.00     0.127 S 
ATOM     68  O   UNL A   1      44.019  27.458  26.045  1.00  0.00    -0.237 OA
ATOM     69  O   UNL A   1      42.492  26.124  24.650  1.00  0.00    -0.237 OA
ATOM     70  O   UNL A   1      42.160  28.552  24.850  1.00  0.00    -0.744 OA
ENDBRANCH  64  67
ENDBRANCH  46  60
BRANCH  47  71
ATOM     71  C   UNL A   1      39.496  33.606  36.899  1.00  0.00     0.023 A 
ATOM     72  C   UNL A   1      39.957  34.937  36.894  1.00  0.00     0.012 A 
ATOM     73  C   UNL A   1      38.831  33.115  38.039  1.00  0.00     0.148 A 
ATOM     74  C   UNL A   1      39.795  35.750  38.016  1.00  0.00     0.002 A 
ATOM     75  C   UNL A   1      38.622  33.948  39.131  1.00  0.00     0.091 A 
ATOM     76  F   UNL A   1      38.412  31.841  38.031  1.00  0.00    -0.205 F 
ATOM     77  C   UNL A   1      39.121  35.260  39.130  1.00  0.00     0.022 A 
BRANCH  75  78
ATOM     78  S   UNL A   1      37.652  33.441  40.555  1.00  0.00     0.127 S 
ATOM     79  O   UNL A   1      37.603  34.672  41.339  1.00  0.00    -0.237 OA
ATOM     80  O   UNL A   1      36.384  33.053  39.936  1.00  0.00    -0.237 OA
ATOM     81  O   UNL A   1      38.385  32.337  41.159  1.00  0.00    -0.744 OA
ENDBRANCH  75  78
ENDBRANCH  47  71
BRANCH  59  82
ATOM     82  C   UNL A   1      44.256  28.764  35.270  1.00  0.00     0.023 A 
ATOM     83  C   UNL A   1      45.523  29.338  35.051  1.00  0.00     0.012 A 
ATOM     84  C   UNL A   1      44.120  27.735  36.225  1.00  0.00     0.148 A 
ATOM     85  C   UNL A   1      46.642  28.875  35.743  1.00  0.00     0.002 A 
ATOM     86  C   UNL A   1      45.229  27.313  36.948  1.00  0.00     0.091 A 
ATOM     87  F   UNL A   1      42.909  27.189  36.408  1.00  0.00    -0.205 F 
ATOM     88  C   UNL A   1      46.493  27.872  36.699  1.00  0.00     0.022 A 
BRANCH  86  89
ATOM     89  S   UNL A   1      45.117  26.099  38.267  1.00  0.00     0.127 S 
ATOM     90  O   UNL A   1      46.513  25.983  38.685  1.00  0.00    -0.237 OA
ATOM     91  O   UNL A   1      44.244  26.768  39.231  1.00  0.00    -0.237 OA
ATOM     92  O   UNL A   1      44.545  24.902  37.664  1.00  0.00    -0.744 OA
ENDBRANCH  86  89
ENDBRANCH  59  82
ENDBRANCH  33  34
ENDBRANCH  25  28
ENDBRANCH  23  24
ENDBRANCH  22  23
ENDBRANCH   1  22
TORSDOF 18
ENDMDL
MODEL 3
REMARK VINA RESULT:     -10.5      3.960      9.324
REMARK SMILES O=Cc1ccc(-c2cnccc2C(=O)NCCCCCCNC(=O)c2ccc(-c3c4nc(c(-c5cccc(S(=O)(=O)[O-])c5F)c5ccc([nH]5)c(-c5cccc(S(=O)(=O)[O-])c5F)c5nc(c(-c6cccc(S(=O)(=O)[O-])c6F)c6ccc3[nH]6)C=C5)C=C4)cc2)s1
REMARK SMILES IDX 19 1 18 2 17 3 16 4 15 5 13 6 14 7 12 9 7 10 8 11 9 12 11 13
REMARK SMILES IDX 10 14 6 15 3 16 4 17 88 18 5 19 2 20 1 21 20 22 21 23 22 24
REMARK SMILES IDX 23 25 24 27 25 28 26 29 87 30 27 31 86 32 28 33 29 34 30 35
REMARK SMILES IDX 80 36 31 37 85 38 79 39 81 40 32 41 84 42 78 43 77 44 33 46
REMARK SMILES IDX 65 47 45 48 64 49 46 50 49 51 63 52 82 53 47 54 48 55 62 57
REMARK SMILES IDX 83 58 50 59 34 60 35 61 43 62 36 63 38 64 44 65 37 66 39 67
REMARK SMILES IDX 40 68 41 69 42 70 66 71 67 72 75 73 68 74 70 75 76 76 69 77
REMARK SMILES IDX 71 78 72 79 73 80 74 81 51 82 52 83 60 84 53 85 55 86 61 87
REMARK SMILES IDX 54 88 56 89 57 90 58 91 59 92
REMARK H PARENT 15 8 22 26 81 45 49 56
REMARK Flexibility Score: inf
ROOT
ATOM      1  C   UNL A   1      31.106  31.329  25.643  1.00  0.00     0.002 C 
ENDROOT
BRANCH   1   2
ATOM      2  C   UNL A   1      31.493  29.858  25.828  1.00  0.00     0.002 C 
BRANCH   2   3
ATOM      3  C   UNL A   1      32.380  29.477  27.015  1.00  0.00     0.021 C 
BRANCH   3   4
ATOM      4  C   UNL A   1      32.548  28.000  27.346  1.00  0.00     0.116 C 
BRANCH   4   5
ATOM      5  N   UNL A   1      31.411  27.141  27.163  1.00  0.00    -0.352 N 
ATOM      6  C   UNL A   1      31.177  26.159  26.227  1.00  0.00     0.252 C 
ATOM      7  O   UNL A   1      30.163  25.477  26.414  1.00  0.00    -0.269 OA
ATOM      8  H   UNL A   1      30.682  27.275  27.811  1.00  0.00     0.163 HD
BRANCH   6   9
ATOM      9  C   UNL A   1      31.960  25.901  24.963  1.00  0.00     0.051 A 
ATOM     10  C   UNL A   1      31.837  26.448  23.670  1.00  0.00     0.023 A 
ATOM     11  C   UNL A   1      32.788  26.040  22.717  1.00  0.00     0.121 A 
ATOM     12  N   UNL A   1      33.804  25.172  22.927  1.00  0.00    -0.264 NA
ATOM     13  C   UNL A   1      33.030  25.000  25.186  1.00  0.00     0.034 A 
ATOM     14  C   UNL A   1      33.905  24.673  24.165  1.00  0.00     0.112 A 
BRANCH  10  15
ATOM     15  C   UNL A   1      30.846  27.416  23.204  1.00  0.00     0.037 A 
ATOM     16  C   UNL A   1      28.709  28.629  22.945  1.00  0.00     0.067 A 
ATOM     17  C   UNL A   1      29.765  29.305  22.369  1.00  0.00     0.024 A 
ATOM     18  S   UNL A   1      29.167  27.072  23.457  1.00  0.00    -0.132 S 
ATOM     19  C   UNL A   1      31.002  28.597  22.507  1.00  0.00     0.021 A 
BRANCH  16  20
ATOM     20  C   UNL A   1      27.357  29.089  23.170  1.00  0.00     0.270 C 
ATOM     21  O   UNL A   1      27.043  30.265  23.305  1.00  0.00    -0.297 OA
ENDBRANCH  16  20
ENDBRANCH  10  15
ENDBRANCH   6   9
ENDBRANCH   4   5
ENDBRANCH   3   4
ENDBRANCH   2   3
ENDBRANCH   1   2
BRANCH   1  22
ATOM     22  C   UNL A   1      31.226  32.268  26.847  1.00  0.00     0.021 C 
BRANCH  22  23
ATOM     23  C   UNL A   1      32.604  32.843  27.158  1.00  0.00     0.116 C 
BRANCH  23  24
ATOM     24  N   UNL A   1      32.566  34.222  27.607  1.00  0.00    -0.352 N 
ATOM     25  C   UNL A   1      33.298  34.846  28.590  1.00  0.00     0.251 C 
ATOM     26  H   UNL A   1      31.919  34.797  27.138  1.00  0.00     0.163 HD
ATOM     27  O   UNL A   1      33.012  36.000  28.906  1.00  0.00    -0.269 OA
BRANCH  25  28
ATOM     28  C   UNL A   1      34.410  34.151  29.288  1.00  0.00     0.039 A 
ATOM     29  C   UNL A   1      35.724  34.446  28.907  1.00  0.00     0.014 A 
ATOM     30  C   UNL A   1      34.184  33.180  30.269  1.00  0.00     0.014 A 
ATOM     31  C   UNL A   1      36.802  33.811  29.536  1.00  0.00     0.010 A 
ATOM     32  C   UNL A   1      35.261  32.593  30.939  1.00  0.00     0.010 A 
ATOM     33  C   UNL A   1      36.582  32.893  30.577  1.00  0.00    -0.014 A 
BRANCH  33  34
ATOM     34  C   UNL A   1      37.725  32.259  31.293  1.00  0.00     0.031 A 
ATOM     35  C   UNL A   1      38.475  31.104  30.677  1.00  0.00     0.074 A 
ATOM     36  C   UNL A   1      38.056  32.679  32.531  1.00  0.00     0.049 A 
ATOM     37  N   UNL A   1      39.476  30.416  31.166  1.00  0.00    -0.248 NA
ATOM     38  C   UNL A   1      38.032  30.650  29.350  1.00  0.00     0.031 C 
ATOM     39  C   UNL A   1      37.367  33.736  33.275  1.00  0.00     0.029 A 
ATOM     40  N   UNL A   1      39.037  32.254  33.393  1.00  0.00    -0.354 N 
ATOM     41  C   UNL A   1      39.761  29.432  30.225  1.00  0.00     0.074 A 
ATOM     42  C   UNL A   1      38.809  29.595  29.148  1.00  0.00     0.031 C 
ATOM     43  C   UNL A   1      37.946  33.878  34.477  1.00  0.00     0.029 A 
ATOM     44  C   UNL A   1      39.026  32.905  34.607  1.00  0.00     0.049 A 
ATOM     45  H   UNL A   1      39.687  31.550  33.165  1.00  0.00     0.167 HD
ATOM     46  C   UNL A   1      40.740  28.495  30.243  1.00  0.00     0.034 A 
ATOM     47  C   UNL A   1      39.788  32.730  35.705  1.00  0.00     0.034 A 
ATOM     48  C   UNL A   1      41.712  28.356  31.295  1.00  0.00     0.049 A 
ATOM     49  C   UNL A   1      40.888  31.702  35.684  1.00  0.00     0.074 A 
ATOM     50  C   UNL A   1      42.793  27.494  31.358  1.00  0.00     0.029 A 
ATOM     51  N   UNL A   1      41.717  29.087  32.473  1.00  0.00    -0.354 N 
ATOM     52  N   UNL A   1      41.243  30.892  34.716  1.00  0.00    -0.248 NA
ATOM     53  C   UNL A   1      41.718  31.590  36.893  1.00  0.00     0.031 C 
ATOM     54  C   UNL A   1      43.434  27.681  32.586  1.00  0.00     0.029 A 
ATOM     55  C   UNL A   1      42.773  28.686  33.274  1.00  0.00     0.049 A 
ATOM     56  H   UNL A   1      41.067  29.788  32.706  1.00  0.00     0.167 HD
ATOM     57  C   UNL A   1      42.356  30.202  35.185  1.00  0.00     0.074 A 
ATOM     58  C   UNL A   1      42.631  30.706  36.513  1.00  0.00     0.031 C 
ATOM     59  C   UNL A   1      43.075  29.229  34.574  1.00  0.00     0.034 A 
BRANCH  46  60
ATOM     60  C   UNL A   1      40.847  27.563  29.062  1.00  0.00     0.023 A 
ATOM     61  C   UNL A   1      39.979  26.457  28.966  1.00  0.00     0.012 A 
ATOM     62  C   UNL A   1      41.745  27.829  28.008  1.00  0.00     0.148 A 
ATOM     63  C   UNL A   1      40.022  25.613  27.857  1.00  0.00     0.002 A 
ATOM     64  C   UNL A   1      41.751  27.010  26.885  1.00  0.00     0.091 A 
ATOM     65  F   UNL A   1      42.574  28.877  28.124  1.00  0.00    -0.205 F 
ATOM     66  C   UNL A   1      40.898  25.895  26.813  1.00  0.00     0.022 A 
BRANCH  64  67
ATOM     67  S   UNL A   1      42.784  27.333  25.451  1.00  0.00     0.127 S 
ATOM     68  O   UNL A   1      44.087  27.563  26.074  1.00  0.00    -0.237 OA
ATOM     69  O   UNL A   1      42.677  26.079  24.707  1.00  0.00    -0.237 OA
ATOM     70  O   UNL A   1      42.199  28.489  24.786  1.00  0.00    -0.744 OA
ENDBRANCH  64  67
ENDBRANCH  46  60
BRANCH  47  71
ATOM     71  C   UNL A   1      39.573  33.585  36.909  1.00  0.00     0.023 A 
ATOM     72  C   UNL A   1      40.066  34.905  36.921  1.00  0.00     0.012 A 
ATOM     73  C   UNL A   1      38.878  33.102  38.034  1.00  0.00     0.148 A 
ATOM     74  C   UNL A   1      39.905  35.714  38.047  1.00  0.00     0.002 A 
ATOM     75  C   UNL A   1      38.670  33.932  39.129  1.00  0.00     0.091 A 
ATOM     76  F   UNL A   1      38.429  31.839  38.010  1.00  0.00    -0.205 F 
ATOM     77  C   UNL A   1      39.200  35.232  39.146  1.00  0.00     0.022 A 
BRANCH  75  78
ATOM     78  S   UNL A   1      37.665  33.438  40.533  1.00  0.00     0.127 S 
ATOM     79  O   UNL A   1      37.622  34.668  41.319  1.00  0.00    -0.237 OA
ATOM     80  O   UNL A   1      36.402  33.074  39.889  1.00  0.00    -0.237 OA
ATOM     81  O   UNL A   1      38.368  32.320  41.148  1.00  0.00    -0.744 OA
ENDBRANCH  75  78
ENDBRANCH  47  71
BRANCH  59  82
ATOM     82  C   UNL A   1      44.263  28.665  35.311  1.00  0.00     0.023 A 
ATOM     83  C   UNL A   1      45.546  29.208  35.100  1.00  0.00     0.012 A 
ATOM     84  C   UNL A   1      44.095  27.643  36.267  1.00  0.00     0.148 A 
ATOM     85  C   UNL A   1      46.647  28.720  35.803  1.00  0.00     0.002 A 
ATOM     86  C   UNL A   1      45.187  27.197  37.001  1.00  0.00     0.091 A 
ATOM     87  F   UNL A   1      42.869  27.127  36.442  1.00  0.00    -0.205 F 
ATOM     88  C   UNL A   1      46.466  27.724  36.761  1.00  0.00     0.022 A 
BRANCH  86  89
ATOM     89  S   UNL A   1      45.034  25.990  38.322  1.00  0.00     0.127 S 
ATOM     90  O   UNL A   1      44.053  26.629  39.198  1.00  0.00    -0.237 OA
ATOM     91  O   UNL A   1      44.541  24.811  37.610  1.00  0.00    -0.237 OA
ATOM     92  O   UNL A   1      46.369  25.840  38.886  1.00  0.00    -0.744 OA
ENDBRANCH  86  89
ENDBRANCH  59  82
ENDBRANCH  33  34
ENDBRANCH  25  28
ENDBRANCH  23  24
ENDBRANCH  22  23
ENDBRANCH   1  22
TORSDOF 18
ENDMDL
