MODEL 1
REMARK VINA RESULT:     -12.0      0.000      0.000
REMARK SMILES O=C(NCCCCCCNC(=O)c1ccc(-c2c(F)cccc2F)cn1)c1ccc(-c2c3nc(c(-c4cccc(S(=O)(=O)[O-])c4F)c4ccc([nH]4)c(-c4cccc(S(=O)(=O)[O-])c4F)c4nc(c(-c5cccc(S(=O)(=O)[O-])c5F)c5ccc2[nH]5)C=C4)C=C3)cc1
REMARK SMILES IDX 5 1 4 2 3 3 1 4 2 5 27 7 28 8 89 9 29 10 88 11 30 12 31 13
REMARK SMILES IDX 32 14 82 15 33 16 87 17 81 18 83 19 34 20 86 21 80 22 79 23
REMARK SMILES IDX 35 25 67 26 47 27 66 28 48 29 51 30 65 31 84 32 49 33 50 34
REMARK SMILES IDX 64 36 85 37 52 38 36 39 37 40 45 41 38 42 40 43 46 44 39 45
REMARK SMILES IDX 41 46 42 47 43 48 44 49 68 50 69 51 77 52 70 53 72 54 78 55
REMARK SMILES IDX 71 56 73 57 74 58 75 59 76 60 53 61 54 62 62 63 55 64 57 65
REMARK SMILES IDX 63 66 56 67 58 68 59 69 60 70 61 71 6 72 7 73 8 74 9 75
REMARK SMILES IDX 10 76 11 77 12 79 13 80 14 81 26 82 15 83 25 84 16 85 17 86
REMARK SMILES IDX 18 87 23 88 19 89 20 90 22 91 24 92 21 93
REMARK H PARENT 3 6 83 24 51 35 10 78
REMARK Flexibility Score: inf
ROOT
ATOM      1  C   UNL A   1      31.301  31.510  26.364  1.00  0.00     0.021 C 
ENDROOT
BRANCH   1   2
ATOM      2  C   UNL A   1      32.618  32.071  26.888  1.00  0.00     0.116 C 
BRANCH   2   3
ATOM      3  N   UNL A   1      32.496  33.462  27.290  1.00  0.00    -0.352 N 
ATOM      4  O   UNL A   1      32.811  35.266  28.599  1.00  0.00    -0.269 OA
ATOM      5  C   UNL A   1      33.195  34.153  28.246  1.00  0.00     0.251 C 
ATOM      6  H   UNL A   1      31.815  33.984  26.806  1.00  0.00     0.163 HD
BRANCH   5   7
ATOM      7  C   UNL A   1      34.395  33.545  28.860  1.00  0.00     0.039 A 
ATOM      8  C   UNL A   1      34.282  32.432  29.699  1.00  0.00     0.014 A 
ATOM      9  C   UNL A   1      35.650  34.088  28.577  1.00  0.00     0.014 A 
ATOM     10  C   UNL A   1      35.407  31.935  30.349  1.00  0.00     0.010 A 
ATOM     11  C   UNL A   1      36.788  33.540  29.171  1.00  0.00     0.010 A 
ATOM     12  C   UNL A   1      36.673  32.475  30.079  1.00  0.00    -0.014 A 
BRANCH  12  13
ATOM     13  C   UNL A   1      37.886  31.878  30.690  1.00  0.00     0.031 A 
ATOM     14  C   UNL A   1      38.671  30.820  29.970  1.00  0.00     0.074 A 
ATOM     15  C   UNL A   1      38.236  32.250  31.936  1.00  0.00     0.049 A 
ATOM     16  N   UNL A   1      39.695  30.125  30.390  1.00  0.00    -0.248 NA
ATOM     17  C   UNL A   1      38.241  30.490  28.601  1.00  0.00     0.031 C 
ATOM     18  C   UNL A   1      37.525  33.240  32.747  1.00  0.00     0.029 A 
ATOM     19  N   UNL A   1      39.248  31.813  32.753  1.00  0.00    -0.354 N 
ATOM     20  C   UNL A   1      40.004  29.240  29.365  1.00  0.00     0.074 A 
ATOM     21  C   UNL A   1      39.055  29.487  28.299  1.00  0.00     0.031 C 
ATOM     22  C   UNL A   1      38.106  33.321  33.951  1.00  0.00     0.029 A 
ATOM     23  C   UNL A   1      39.191  32.348  34.018  1.00  0.00     0.049 A 
ATOM     24  H   UNL A   1      39.943  31.180  32.463  1.00  0.00     0.167 HD
ATOM     25  C   UNL A   1      40.988  28.311  29.315  1.00  0.00     0.034 A 
ATOM     26  C   UNL A   1      39.897  32.058  35.127  1.00  0.00     0.034 A 
ATOM     27  C   UNL A   1      41.932  28.084  30.379  1.00  0.00     0.049 A 
ATOM     28  C   UNL A   1      40.983  31.026  35.053  1.00  0.00     0.074 A 
ATOM     29  C   UNL A   1      43.016  27.224  30.396  1.00  0.00     0.029 A 
ATOM     30  N   UNL A   1      41.888  28.697  31.623  1.00  0.00    -0.354 N 
ATOM     31  N   UNL A   1      41.350  30.293  34.030  1.00  0.00    -0.248 NA
ATOM     32  C   UNL A   1      41.772  30.798  36.271  1.00  0.00     0.031 C 
ATOM     33  C   UNL A   1      43.599  27.284  31.666  1.00  0.00     0.029 A 
ATOM     34  C   UNL A   1      42.910  28.218  32.424  1.00  0.00     0.049 A 
ATOM     35  H   UNL A   1      41.225  29.372  31.896  1.00  0.00     0.167 HD
ATOM     36  C   UNL A   1      42.434  29.542  34.467  1.00  0.00     0.074 A 
ATOM     37  C   UNL A   1      42.668  29.914  35.848  1.00  0.00     0.031 C 
ATOM     38  C   UNL A   1      43.164  28.628  33.783  1.00  0.00     0.034 A 
BRANCH  25  39
ATOM     39  C   UNL A   1      41.097  27.470  28.068  1.00  0.00     0.023 A 
ATOM     40  C   UNL A   1      41.725  27.991  26.919  1.00  0.00     0.012 A 
ATOM     41  C   UNL A   1      40.605  26.150  28.045  1.00  0.00     0.148 A 
ATOM     42  C   UNL A   1      41.816  27.232  25.752  1.00  0.00     0.002 A 
ATOM     43  C   UNL A   1      40.742  25.382  26.895  1.00  0.00     0.091 A 
ATOM     44  F   UNL A   1      39.994  25.675  29.140  1.00  0.00    -0.205 F 
ATOM     45  C   UNL A   1      41.333  25.926  25.743  1.00  0.00     0.022 A 
BRANCH  43  46
ATOM     46  S   UNL A   1      40.226  23.664  26.816  1.00  0.00     0.127 S 
ATOM     47  O   UNL A   1      38.809  23.797  26.483  1.00  0.00    -0.237 OA
ATOM     48  O   UNL A   1      41.059  23.139  25.733  1.00  0.00    -0.237 OA
ATOM     49  O   UNL A   1      40.515  23.101  28.127  1.00  0.00    -0.744 OA
ENDBRANCH  43  46
ENDBRANCH  25  39
BRANCH  26  50
ATOM     50  C   UNL A   1      39.588  32.783  36.389  1.00  0.00     0.023 A 
ATOM     51  C   UNL A   1      40.154  34.048  36.625  1.00  0.00     0.012 A 
ATOM     52  C   UNL A   1      38.657  32.260  37.310  1.00  0.00     0.148 A 
ATOM     53  C   UNL A   1      39.809  34.777  37.763  1.00  0.00     0.002 A 
ATOM     54  C   UNL A   1      38.275  33.015  38.410  1.00  0.00     0.091 A 
ATOM     55  F   UNL A   1      38.133  31.051  37.062  1.00  0.00    -0.205 F 
ATOM     56  C   UNL A   1      38.861  34.267  38.648  1.00  0.00     0.022 A 
BRANCH  54  57
ATOM     57  S   UNL A   1      36.959  32.506  39.523  1.00  0.00     0.127 S 
ATOM     58  O   UNL A   1      37.103  33.468  40.613  1.00  0.00    -0.237 OA
ATOM     59  O   UNL A   1      35.773  32.694  38.686  1.00  0.00    -0.237 OA
ATOM     60  O   UNL A   1      37.242  31.120  39.867  1.00  0.00    -0.744 OA
ENDBRANCH  54  57
ENDBRANCH  26  50
BRANCH  38  61
ATOM     61  C   UNL A   1      44.333  27.991  34.485  1.00  0.00     0.023 A 
ATOM     62  C   UNL A   1      45.582  28.639  34.515  1.00  0.00     0.012 A 
ATOM     63  C   UNL A   1      44.151  26.801  35.218  1.00  0.00     0.148 A 
ATOM     64  C   UNL A   1      46.638  28.105  35.254  1.00  0.00     0.002 A 
ATOM     65  C   UNL A   1      45.190  26.303  35.994  1.00  0.00     0.091 A 
ATOM     66  F   UNL A   1      42.958  26.192  35.158  1.00  0.00    -0.205 F 
ATOM     67  C   UNL A   1      46.437  26.947  36.005  1.00  0.00     0.022 A 
BRANCH  65  68
ATOM     68  S   UNL A   1      44.992  24.879  37.072  1.00  0.00     0.127 S 
ATOM     69  O   UNL A   1      46.329  24.756  37.651  1.00  0.00    -0.237 OA
ATOM     70  O   UNL A   1      43.963  25.341  38.003  1.00  0.00    -0.237 OA
ATOM     71  O   UNL A   1      44.586  23.775  36.215  1.00  0.00    -0.744 OA
ENDBRANCH  65  68
ENDBRANCH  38  61
ENDBRANCH  12  13
ENDBRANCH   5   7
ENDBRANCH   2   3
ENDBRANCH   1   2
BRANCH   1  72
ATOM     72  C   UNL A   1      31.438  30.242  25.520  1.00  0.00     0.002 C 
BRANCH  72  73
ATOM     73  C   UNL A   1      31.809  28.977  26.299  1.00  0.00     0.002 C 
BRANCH  73  74
ATOM     74  C   UNL A   1      31.613  27.659  25.544  1.00  0.00     0.021 C 
BRANCH  74  75
ATOM     75  C   UNL A   1      32.899  27.013  25.037  1.00  0.00     0.116 C 
BRANCH  75  76
ATOM     76  N   UNL A   1      33.138  27.302  23.634  1.00  0.00    -0.351 N 
ATOM     77  C   UNL A   1      33.345  26.418  22.598  1.00  0.00     0.269 C 
ATOM     78  H   UNL A   1      33.153  28.256  23.390  1.00  0.00     0.163 HD
ATOM     79  O   UNL A   1      33.653  26.839  21.485  1.00  0.00    -0.268 OA
BRANCH  77  80
ATOM     80  C   UNL A   1      33.159  24.961  22.840  1.00  0.00     0.128 A 
ATOM     81  C   UNL A   1      31.877  24.428  22.849  1.00  0.00     0.035 A 
ATOM     82  N   UNL A   1      34.278  24.236  23.075  1.00  0.00    -0.250 NA
ATOM     83  C   UNL A   1      31.729  23.079  23.158  1.00  0.00     0.013 A 
ATOM     84  C   UNL A   1      34.094  22.924  23.356  1.00  0.00     0.120 A 
ATOM     85  C   UNL A   1      32.853  22.285  23.425  1.00  0.00     0.006 A 
BRANCH  85  86
ATOM     86  C   UNL A   1      32.725  20.861  23.765  1.00  0.00     0.055 A 
ATOM     87  C   UNL A   1      32.323  19.910  22.816  1.00  0.00     0.134 A 
ATOM     88  C   UNL A   1      32.986  20.385  25.059  1.00  0.00     0.134 A 
ATOM     89  F   UNL A   1      32.066  20.285  21.553  1.00  0.00    -0.206 F 
ATOM     90  C   UNL A   1      32.184  18.558  23.134  1.00  0.00     0.040 A 
ATOM     91  C   UNL A   1      32.849  19.037  25.394  1.00  0.00     0.040 A 
ATOM     92  F   UNL A   1      33.368  21.235  26.025  1.00  0.00    -0.206 F 
ATOM     93  C   UNL A   1      32.446  18.119  24.428  1.00  0.00     0.006 A 
ENDBRANCH  85  86
ENDBRANCH  77  80
ENDBRANCH  75  76
ENDBRANCH  74  75
ENDBRANCH  73  74
ENDBRANCH  72  73
ENDBRANCH   1  72
TORSDOF 17
ENDMDL
MODEL 2
REMARK VINA RESULT:     -11.9      2.714      8.189
REMARK SMILES O=C(NCCCCCCNC(=O)c1ccc(-c2c(F)cccc2F)cn1)c1ccc(-c2c3nc(c(-c4cccc(S(=O)(=O)[O-])c4F)c4ccc([nH]4)c(-c4cccc(S(=O)(=O)[O-])c4F)c4nc(c(-c5cccc(S(=O)(=O)[O-])c5F)c5ccc2[nH]5)C=C4)C=C3)cc1
REMARK SMILES IDX 5 1 4 2 3 3 1 4 2 5 27 7 28 8 89 9 29 10 88 11 30 12 31 13
REMARK SMILES IDX 32 14 82 15 33 16 87 17 81 18 83 19 34 20 86 21 80 22 79 23
REMARK SMILES IDX 35 25 67 26 47 27 66 28 48 29 51 30 65 31 84 32 49 33 50 34
REMARK SMILES IDX 64 36 85 37 52 38 36 39 37 40 45 41 38 42 40 43 46 44 39 45
REMARK SMILES IDX 41 46 42 47 43 48 44 49 68 50 69 51 77 52 70 53 72 54 78 55
REMARK SMILES IDX 71 56 73 57 74 58 75 59 76 60 53 61 54 62 62 63 55 64 57 65
REMARK SMILES IDX 63 66 56 67 58 68 59 69 60 70 61 71 6 72 7 73 8 74 9 75
REMARK SMILES IDX 10 76 11 77 12 79 13 80 14 81 26 82 15 83 25 84 16 85 17 86
REMARK SMILES IDX 18 87 23 88 19 89 20 90 22 91 24 92 21 93
REMARK H PARENT 3 6 83 24 51 35 10 78
REMARK Flexibility Score: inf
ROOT
ATOM      1  C   UNL A   1      32.839  28.102  26.458  1.00  0.00     0.021 C 
ENDROOT
BRANCH   1   2
ATOM      2  C   UNL A   1      34.124  28.909  26.309  1.00  0.00     0.116 C 
BRANCH   2   3
ATOM      3  N   UNL A   1      33.954  30.287  26.738  1.00  0.00    -0.352 N 
ATOM      4  O   UNL A   1      34.258  32.091  28.049  1.00  0.00    -0.269 OA
ATOM      5  C   UNL A   1      34.677  31.004  27.655  1.00  0.00     0.251 C 
ATOM      6  H   UNL A   1      33.215  30.775  26.308  1.00  0.00     0.163 HD
BRANCH   5   7
ATOM      7  C   UNL A   1      35.947  30.457  28.179  1.00  0.00     0.039 A 
ATOM      8  C   UNL A   1      37.152  30.680  27.506  1.00  0.00     0.014 A 
ATOM      9  C   UNL A   1      35.930  29.725  29.368  1.00  0.00     0.014 A 
ATOM     10  C   UNL A   1      38.321  30.074  27.955  1.00  0.00     0.010 A 
ATOM     11  C   UNL A   1      37.118  29.181  29.859  1.00  0.00     0.010 A 
ATOM     12  C   UNL A   1      38.318  29.331  29.144  1.00  0.00    -0.014 A 
BRANCH  12  13
ATOM     13  C   UNL A   1      39.583  28.773  29.681  1.00  0.00     0.031 A 
ATOM     14  C   UNL A   1      40.315  29.456  30.799  1.00  0.00     0.074 A 
ATOM     15  C   UNL A   1      40.107  27.675  29.100  1.00  0.00     0.049 A 
ATOM     16  N   UNL A   1      41.475  29.163  31.325  1.00  0.00    -0.248 NA
ATOM     17  C   UNL A   1      39.662  30.632  31.398  1.00  0.00     0.031 C 
ATOM     18  C   UNL A   1      39.504  26.950  27.981  1.00  0.00     0.029 A 
ATOM     19  N   UNL A   1      41.279  27.005  29.341  1.00  0.00    -0.354 N 
ATOM     20  C   UNL A   1      41.720  30.142  32.279  1.00  0.00     0.074 A 
ATOM     21  C   UNL A   1      40.585  31.040  32.260  1.00  0.00     0.031 C 
ATOM     22  C   UNL A   1      40.317  25.951  27.616  1.00  0.00     0.029 A 
ATOM     23  C   UNL A   1      41.523  26.000  28.436  1.00  0.00     0.049 A 
ATOM     24  H   UNL A   1      41.883  27.221  30.087  1.00  0.00     0.167 HD
ATOM     25  C   UNL A   1      42.791  30.277  33.098  1.00  0.00     0.034 A 
ATOM     26  C   UNL A   1      42.614  25.233  28.247  1.00  0.00     0.034 A 
ATOM     27  C   UNL A   1      43.909  29.370  33.114  1.00  0.00     0.049 A 
ATOM     28  C   UNL A   1      43.790  25.398  29.163  1.00  0.00     0.074 A 
ATOM     29  C   UNL A   1      45.005  29.371  33.960  1.00  0.00     0.029 A 
ATOM     30  N   UNL A   1      44.090  28.318  32.227  1.00  0.00    -0.354 N 
ATOM     31  N   UNL A   1      43.948  26.244  30.151  1.00  0.00    -0.248 NA
ATOM     32  C   UNL A   1      44.925  24.488  28.961  1.00  0.00     0.031 C 
ATOM     33  C   UNL A   1      45.869  28.349  33.554  1.00  0.00     0.029 A 
ATOM     34  C   UNL A   1      45.289  27.678  32.489  1.00  0.00     0.049 A 
ATOM     35  H   UNL A   1      43.458  28.065  31.516  1.00  0.00     0.167 HD
ATOM     36  C   UNL A   1      45.183  25.948  30.713  1.00  0.00     0.074 A 
ATOM     37  C   UNL A   1      45.730  24.839  29.958  1.00  0.00     0.031 C 
ATOM     38  C   UNL A   1      45.804  26.545  31.760  1.00  0.00     0.034 A 
BRANCH  25  39
ATOM     39  C   UNL A   1      42.805  31.449  34.047  1.00  0.00     0.023 A 
ATOM     40  C   UNL A   1      43.413  32.661  33.661  1.00  0.00     0.012 A 
ATOM     41  C   UNL A   1      42.186  31.361  35.309  1.00  0.00     0.148 A 
ATOM     42  C   UNL A   1      43.450  33.747  34.535  1.00  0.00     0.002 A 
ATOM     43  C   UNL A   1      42.184  32.463  36.156  1.00  0.00     0.091 A 
ATOM     44  F   UNL A   1      41.627  30.197  35.669  1.00  0.00    -0.205 F 
ATOM     45  C   UNL A   1      42.829  33.651  35.777  1.00  0.00     0.022 A 
BRANCH  43  46
ATOM     46  S   UNL A   1      41.337  32.461  37.739  1.00  0.00     0.127 S 
ATOM     47  O   UNL A   1      42.161  31.532  38.511  1.00  0.00    -0.237 OA
ATOM     48  O   UNL A   1      41.448  33.861  38.153  1.00  0.00    -0.237 OA
ATOM     49  O   UNL A   1      39.978  32.018  37.464  1.00  0.00    -0.744 OA
ENDBRANCH  43  46
ENDBRANCH  25  39
BRANCH  26  50
ATOM     50  C   UNL A   1      42.611  24.234  27.143  1.00  0.00     0.023 A 
ATOM     51  C   UNL A   1      43.302  24.510  25.950  1.00  0.00     0.012 A 
ATOM     52  C   UNL A   1      42.003  22.973  27.316  1.00  0.00     0.148 A 
ATOM     53  C   UNL A   1      43.378  23.551  24.940  1.00  0.00     0.002 A 
ATOM     54  C   UNL A   1      42.132  22.004  26.331  1.00  0.00     0.091 A 
ATOM     55  F   UNL A   1      41.349  22.737  28.462  1.00  0.00    -0.205 F 
ATOM     56  C   UNL A   1      42.806  22.295  25.135  1.00  0.00     0.022 A 
BRANCH  54  57
ATOM     57  S   UNL A   1      41.556  20.317  26.552  1.00  0.00     0.127 S 
ATOM     58  O   UNL A   1      42.125  19.653  25.382  1.00  0.00    -0.237 OA
ATOM     59  O   UNL A   1      42.175  19.957  27.828  1.00  0.00    -0.237 OA
ATOM     60  O   UNL A   1      40.102  20.394  26.585  1.00  0.00    -0.744 OA
ENDBRANCH  54  57
ENDBRANCH  26  50
BRANCH  38  61
ATOM     61  C   UNL A   1      47.130  25.987  32.205  1.00  0.00     0.023 A 
ATOM     62  C   UNL A   1      48.325  26.452  31.626  1.00  0.00     0.012 A 
ATOM     63  C   UNL A   1      47.187  25.085  33.287  1.00  0.00     0.148 A 
ATOM     64  C   UNL A   1      49.560  26.017  32.108  1.00  0.00     0.002 A 
ATOM     65  C   UNL A   1      48.420  24.697  33.795  1.00  0.00     0.091 A 
ATOM     66  F   UNL A   1      46.034  24.642  33.809  1.00  0.00    -0.205 F 
ATOM     67  C   UNL A   1      49.607  25.153  33.201  1.00  0.00     0.022 A 
BRANCH  65  68
ATOM     68  S   UNL A   1      48.578  23.672  35.262  1.00  0.00     0.127 S 
ATOM     69  O   UNL A   1      48.137  22.370  34.766  1.00  0.00    -0.237 OA
ATOM     70  O   UNL A   1      50.010  23.765  35.547  1.00  0.00    -0.237 OA
ATOM     71  O   UNL A   1      47.718  24.273  36.272  1.00  0.00    -0.744 OA
ENDBRANCH  65  68
ENDBRANCH  38  61
ENDBRANCH  12  13
ENDBRANCH   5   7
ENDBRANCH   2   3
ENDBRANCH   1   2
BRANCH   1  72
ATOM     72  C   UNL A   1      31.570  28.833  26.017  1.00  0.00     0.002 C 
BRANCH  72  73
ATOM     73  C   UNL A   1      31.360  28.919  24.502  1.00  0.00     0.002 C 
BRANCH  73  74
ATOM     74  C   UNL A   1      30.424  27.863  23.908  1.00  0.00     0.021 C 
BRANCH  74  75
ATOM     75  C   UNL A   1      30.693  27.518  22.447  1.00  0.00     0.116 C 
BRANCH  75  76
ATOM     76  N   UNL A   1      31.997  27.985  22.007  1.00  0.00    -0.351 N 
ATOM     77  C   UNL A   1      33.218  27.358  22.124  1.00  0.00     0.269 C 
ATOM     78  H   UNL A   1      32.009  28.866  21.568  1.00  0.00     0.163 HD
ATOM     79  O   UNL A   1      34.245  27.951  21.803  1.00  0.00    -0.268 OA
BRANCH  77  80
ATOM     80  C   UNL A   1      33.267  25.951  22.608  1.00  0.00     0.128 A 
ATOM     81  C   UNL A   1      33.392  25.700  23.968  1.00  0.00     0.035 A 
ATOM     82  N   UNL A   1      33.217  24.982  21.664  1.00  0.00    -0.250 NA
ATOM     83  C   UNL A   1      33.517  24.377  24.382  1.00  0.00     0.013 A 
ATOM     84  C   UNL A   1      33.326  23.707  22.108  1.00  0.00     0.120 A 
ATOM     85  C   UNL A   1      33.487  23.335  23.445  1.00  0.00     0.006 A 
BRANCH  85  86
ATOM     86  C   UNL A   1      33.628  21.930  23.854  1.00  0.00     0.055 A 
ATOM     87  C   UNL A   1      32.629  20.982  23.587  1.00  0.00     0.134 A 
ATOM     88  C   UNL A   1      34.761  21.470  24.541  1.00  0.00     0.134 A 
ATOM     89  F   UNL A   1      31.518  21.341  22.924  1.00  0.00    -0.206 F 
ATOM     90  C   UNL A   1      32.746  19.649  23.985  1.00  0.00     0.040 A 
ATOM     91  C   UNL A   1      34.893  20.142  24.948  1.00  0.00     0.040 A 
ATOM     92  F   UNL A   1      35.757  22.319  24.840  1.00  0.00    -0.206 F 
ATOM     93  C   UNL A   1      33.882  19.226  24.669  1.00  0.00     0.006 A 
ENDBRANCH  85  86
ENDBRANCH  77  80
ENDBRANCH  75  76
ENDBRANCH  74  75
ENDBRANCH  73  74
ENDBRANCH  72  73
ENDBRANCH   1  72
TORSDOF 17
ENDMDL
MODEL 3
REMARK VINA RESULT:     -11.8      3.418      8.872
REMARK SMILES O=C(NCCCCCCNC(=O)c1ccc(-c2c(F)cccc2F)cn1)c1ccc(-c2c3nc(c(-c4cccc(S(=O)(=O)[O-])c4F)c4ccc([nH]4)c(-c4cccc(S(=O)(=O)[O-])c4F)c4nc(c(-c5cccc(S(=O)(=O)[O-])c5F)c5ccc2[nH]5)C=C4)C=C3)cc1
REMARK SMILES IDX 5 1 4 2 3 3 1 4 2 5 27 7 28 8 89 9 29 10 88 11 30 12 31 13
REMARK SMILES IDX 32 14 82 15 33 16 87 17 81 18 83 19 34 20 86 21 80 22 79 23
REMARK SMILES IDX 35 25 67 26 47 27 66 28 48 29 51 30 65 31 84 32 49 33 50 34
REMARK SMILES IDX 64 36 85 37 52 38 36 39 37 40 45 41 38 42 40 43 46 44 39 45
REMARK SMILES IDX 41 46 42 47 43 48 44 49 68 50 69 51 77 52 70 53 72 54 78 55
REMARK SMILES IDX 71 56 73 57 74 58 75 59 76 60 53 61 54 62 62 63 55 64 57 65
REMARK SMILES IDX 63 66 56 67 58 68 59 69 60 70 61 71 6 72 7 73 8 74 9 75
REMARK SMILES IDX 10 76 11 77 12 79 13 80 14 81 26 82 15 83 25 84 16 85 17 86
REMARK SMILES IDX 18 87 23 88 19 89 20 90 22 91 24 92 21 93
REMARK H PARENT 3 6 83 24 51 35 10 78
REMARK Flexibility Score: inf
ROOT
ATOM      1  C   UNL A   1      33.252  28.355  25.405  1.00  0.00     0.021 C 
ENDROOT
BRANCH   1   2
ATOM      2  C   UNL A   1      34.461  28.945  26.124  1.00  0.00     0.116 C 
BRANCH   2   3
ATOM      3  N   UNL A   1      34.149  30.212  26.763  1.00  0.00    -0.352 N 
ATOM      4  O   UNL A   1      34.240  31.791  28.365  1.00  0.00    -0.269 OA
ATOM      5  C   UNL A   1      34.772  30.827  27.819  1.00  0.00     0.251 C 
ATOM      6  H   UNL A   1      33.381  30.699  26.385  1.00  0.00     0.163 HD
BRANCH   5   7
ATOM      7  C   UNL A   1      36.069  30.312  28.306  1.00  0.00     0.039 A 
ATOM      8  C   UNL A   1      37.254  30.599  27.621  1.00  0.00     0.014 A 
ATOM      9  C   UNL A   1      36.100  29.545  29.473  1.00  0.00     0.014 A 
ATOM     10  C   UNL A   1      38.452  30.024  28.033  1.00  0.00     0.010 A 
ATOM     11  C   UNL A   1      37.315  29.031  29.928  1.00  0.00     0.010 A 
ATOM     12  C   UNL A   1      38.496  29.247  29.199  1.00  0.00    -0.014 A 
BRANCH  12  13
ATOM     13  C   UNL A   1      39.790  28.721  29.699  1.00  0.00     0.031 A 
ATOM     14  C   UNL A   1      40.530  29.416  30.804  1.00  0.00     0.074 A 
ATOM     15  C   UNL A   1      40.330  27.644  29.096  1.00  0.00     0.049 A 
ATOM     16  N   UNL A   1      41.711  29.152  31.298  1.00  0.00    -0.248 NA
ATOM     17  C   UNL A   1      39.860  30.567  31.430  1.00  0.00     0.031 C 
ATOM     18  C   UNL A   1      39.719  26.911  27.985  1.00  0.00     0.029 A 
ATOM     19  N   UNL A   1      41.526  27.005  29.301  1.00  0.00    -0.354 N 
ATOM     20  C   UNL A   1      41.953  30.129  32.255  1.00  0.00     0.074 A 
ATOM     21  C   UNL A   1      40.792  30.995  32.272  1.00  0.00     0.031 C 
ATOM     22  C   UNL A   1      40.551  25.938  27.592  1.00  0.00     0.029 A 
ATOM     23  C   UNL A   1      41.776  26.015  28.380  1.00  0.00     0.049 A 
ATOM     24  H   UNL A   1      42.143  27.233  30.033  1.00  0.00     0.167 HD
ATOM     25  C   UNL A   1      43.040  30.288  33.047  1.00  0.00     0.034 A 
ATOM     26  C   UNL A   1      42.882  25.281  28.157  1.00  0.00     0.034 A 
ATOM     27  C   UNL A   1      44.184  29.413  33.028  1.00  0.00     0.049 A 
ATOM     28  C   UNL A   1      44.077  25.472  29.045  1.00  0.00     0.074 A 
ATOM     29  C   UNL A   1      45.300  29.438  33.845  1.00  0.00     0.029 A 
ATOM     30  N   UNL A   1      44.371  28.374  32.127  1.00  0.00    -0.354 N 
ATOM     31  N   UNL A   1      44.236  26.314  30.037  1.00  0.00    -0.248 NA
ATOM     32  C   UNL A   1      45.232  24.597  28.807  1.00  0.00     0.031 C 
ATOM     33  C   UNL A   1      46.182  28.445  33.409  1.00  0.00     0.029 A 
ATOM     34  C   UNL A   1      45.594  27.767  32.352  1.00  0.00     0.049 A 
ATOM     35  H   UNL A   1      43.729  28.109  31.430  1.00  0.00     0.167 HD
ATOM     36  C   UNL A   1      45.493  26.049  30.565  1.00  0.00     0.074 A 
ATOM     37  C   UNL A   1      46.051  24.962  29.786  1.00  0.00     0.031 C 
ATOM     38  C   UNL A   1      46.122  26.655  31.601  1.00  0.00     0.034 A 
BRANCH  25  39
ATOM     39  C   UNL A   1      43.045  31.452  34.006  1.00  0.00     0.023 A 
ATOM     40  C   UNL A   1      43.653  32.669  33.635  1.00  0.00     0.012 A 
ATOM     41  C   UNL A   1      42.417  31.352  35.263  1.00  0.00     0.148 A 
ATOM     42  C   UNL A   1      43.682  33.748  34.518  1.00  0.00     0.002 A 
ATOM     43  C   UNL A   1      42.407  32.448  36.119  1.00  0.00     0.091 A 
ATOM     44  F   UNL A   1      41.858  30.184  35.610  1.00  0.00    -0.205 F 
ATOM     45  C   UNL A   1      43.052  33.640  35.755  1.00  0.00     0.022 A 
BRANCH  43  46
ATOM     46  S   UNL A   1      41.549  32.430  37.696  1.00  0.00     0.127 S 
ATOM     47  O   UNL A   1      41.609  33.839  38.080  1.00  0.00    -0.237 OA
ATOM     48  O   UNL A   1      40.215  31.958  37.319  1.00  0.00    -0.237 OA
ATOM     49  O   UNL A   1      42.295  31.513  38.546  1.00  0.00    -0.744 OA
ENDBRANCH  43  46
ENDBRANCH  25  39
BRANCH  26  50
ATOM     50  C   UNL A   1      42.880  24.292  27.045  1.00  0.00     0.023 A 
ATOM     51  C   UNL A   1      43.562  24.583  25.851  1.00  0.00     0.012 A 
ATOM     52  C   UNL A   1      42.282  23.025  27.211  1.00  0.00     0.148 A 
ATOM     53  C   UNL A   1      43.639  23.633  24.832  1.00  0.00     0.002 A 
ATOM     54  C   UNL A   1      42.412  22.066  26.217  1.00  0.00     0.091 A 
ATOM     55  F   UNL A   1      41.637  22.775  28.359  1.00  0.00    -0.205 F 
ATOM     56  C   UNL A   1      43.077  22.371  25.019  1.00  0.00     0.022 A 
BRANCH  54  57
ATOM     57  S   UNL A   1      41.850  20.372  26.427  1.00  0.00     0.127 S 
ATOM     58  O   UNL A   1      42.547  19.691  25.339  1.00  0.00    -0.237 OA
ATOM     59  O   UNL A   1      42.344  20.060  27.768  1.00  0.00    -0.237 OA
ATOM     60  O   UNL A   1      40.399  20.418  26.313  1.00  0.00    -0.744 OA
ENDBRANCH  54  57
ENDBRANCH  26  50
BRANCH  38  61
ATOM     61  C   UNL A   1      47.474  26.132  32.007  1.00  0.00     0.023 A 
ATOM     62  C   UNL A   1      48.641  26.629  31.396  1.00  0.00     0.012 A 
ATOM     63  C   UNL A   1      47.586  25.230  33.085  1.00  0.00     0.148 A 
ATOM     64  C   UNL A   1      49.899  26.226  31.842  1.00  0.00     0.002 A 
ATOM     65  C   UNL A   1      48.842  24.874  33.558  1.00  0.00     0.091 A 
ATOM     66  F   UNL A   1      46.461  24.756  33.638  1.00  0.00    -0.205 F 
ATOM     67  C   UNL A   1      50.000  25.362  32.932  1.00  0.00     0.022 A 
BRANCH  65  68
ATOM     68  S   UNL A   1      49.069  23.851  35.018  1.00  0.00     0.127 S 
ATOM     69  O   UNL A   1      50.523  23.864  35.169  1.00  0.00    -0.237 OA
ATOM     70  O   UNL A   1      48.342  24.608  36.037  1.00  0.00    -0.237 OA
ATOM     71  O   UNL A   1      48.492  22.554  34.698  1.00  0.00    -0.744 OA
ENDBRANCH  65  68
ENDBRANCH  38  61
ENDBRANCH  12  13
ENDBRANCH   5   7
ENDBRANCH   2   3
ENDBRANCH   1   2
BRANCH   1  72
ATOM     72  C   UNL A   1      33.074  26.847  25.586  1.00  0.00     0.002 C 
BRANCH  72  73
ATOM     73  C   UNL A   1      33.826  25.975  24.575  1.00  0.00     0.002 C 
BRANCH  73  74
ATOM     74  C   UNL A   1      34.388  24.664  25.130  1.00  0.00     0.021 C 
BRANCH  74  75
ATOM     75  C   UNL A   1      33.690  24.148  26.385  1.00  0.00     0.116 C 
BRANCH  75  76
ATOM     76  N   UNL A   1      32.999  22.892  26.147  1.00  0.00    -0.351 N 
ATOM     77  C   UNL A   1      31.743  22.688  25.620  1.00  0.00     0.269 C 
ATOM     78  H   UNL A   1      33.495  22.078  26.397  1.00  0.00     0.163 HD
ATOM     79  O   UNL A   1      31.263  21.558  25.599  1.00  0.00    -0.268 OA
BRANCH  77  80
ATOM     80  C   UNL A   1      31.001  23.846  25.050  1.00  0.00     0.128 A 
ATOM     81  C   UNL A   1      30.952  24.017  23.673  1.00  0.00     0.035 A 
ATOM     82  N   UNL A   1      30.432  24.698  25.936  1.00  0.00    -0.250 NA
ATOM     83  C   UNL A   1      30.320  25.152  23.174  1.00  0.00     0.013 A 
ATOM     84  C   UNL A   1      29.812  25.782  25.410  1.00  0.00     0.120 A 
ATOM     85  C   UNL A   1      29.728  26.075  24.046  1.00  0.00     0.006 A 
BRANCH  85  86
ATOM     86  C   UNL A   1      29.063  27.288  23.548  1.00  0.00     0.055 A 
ATOM     87  C   UNL A   1      27.683  27.487  23.700  1.00  0.00     0.134 A 
ATOM     88  C   UNL A   1      29.773  28.299  22.884  1.00  0.00     0.134 A 
ATOM     89  F   UNL A   1      26.936  26.570  24.334  1.00  0.00    -0.206 F 
ATOM     90  C   UNL A   1      27.040  28.627  23.216  1.00  0.00     0.040 A 
ATOM     91  C   UNL A   1      29.146  29.444  22.391  1.00  0.00     0.040 A 
ATOM     92  F   UNL A   1      31.096  28.178  22.692  1.00  0.00    -0.206 F 
ATOM     93  C   UNL A   1      27.774  29.610  22.558  1.00  0.00     0.006 A 
ENDBRANCH  85  86
ENDBRANCH  77  80
ENDBRANCH  75  76
ENDBRANCH  74  75
ENDBRANCH  73  74
ENDBRANCH  72  73
ENDBRANCH   1  72
TORSDOF 17
ENDMDL
