MODEL 1
REMARK VINA RESULT:     -12.0      0.000      0.000
REMARK SMILES O=C(NCCCCCCNC(=O)c1c(F)cccc1N1CC[C@@H]([NH+]2CCCCC2)C1)c1ccc(-c2c3nc(c(-c4cccc(S(=O)(=O)[O-])c4F)c4ccc([nH]4)c(-c4cccc(S(=O)(=O)[O-])c4F)c4nc(c(-c5cccc(S(=O)(=O)[O-])c5F)c5ccc2[nH]5)C=C4)C=C3)cc1
REMARK SMILES IDX 6 1 5 2 4 3 3 4 1 5 2 6 31 8 32 9 93 10 33 11 92 12 34 13
REMARK SMILES IDX 35 14 36 15 86 16 37 17 91 18 85 19 87 20 38 21 90 22 84 23
REMARK SMILES IDX 83 24 39 26 71 27 51 28 70 29 52 30 55 31 69 32 88 33 53 34
REMARK SMILES IDX 54 35 68 37 89 38 56 39 40 40 41 41 49 42 42 43 44 44 50 45
REMARK SMILES IDX 43 46 45 47 46 48 47 49 48 50 72 51 73 52 81 53 74 54 76 55
REMARK SMILES IDX 82 56 75 57 77 58 78 59 79 60 80 61 57 62 58 63 66 64 59 65
REMARK SMILES IDX 61 66 67 67 60 68 62 69 63 70 64 71 65 72 7 73 8 74 9 75
REMARK SMILES IDX 10 76 11 77 12 79 13 80 14 81 19 82 15 83 16 84 18 85 17 86
REMARK SMILES IDX 20 87 21 88 30 89 22 90 23 91 24 92 25 93 29 94 26 96 28 97
REMARK SMILES IDX 27 98
REMARK H PARENT 3 7 87 25 55 36 10 78 24 95
REMARK Flexibility Score: inf
ROOT
ATOM      1  C   UNL A   1      37.369  21.205  24.563  1.00  0.00     0.002 C 
ENDROOT
BRANCH   1   2
ATOM      2  C   UNL A   1      38.197  19.955  24.858  1.00  0.00     0.021 C 
BRANCH   2   3
ATOM      3  C   UNL A   1      39.032  20.013  26.130  1.00  0.00     0.116 C 
BRANCH   3   4
ATOM      4  N   UNL A   1      40.202  19.152  26.073  1.00  0.00    -0.352 N 
ATOM      5  O   UNL A   1      42.388  18.641  25.883  1.00  0.00    -0.269 OA
ATOM      6  C   UNL A   1      41.533  19.495  26.105  1.00  0.00     0.251 C 
ATOM      7  H   UNL A   1      40.015  18.189  26.003  1.00  0.00     0.163 HD
BRANCH   6   8
ATOM      8  C   UNL A   1      41.930  20.895  26.378  1.00  0.00     0.039 A 
ATOM      9  C   UNL A   1      42.246  21.307  27.675  1.00  0.00     0.014 A 
ATOM     10  C   UNL A   1      41.991  21.809  25.321  1.00  0.00     0.014 A 
ATOM     11  C   UNL A   1      42.481  22.653  27.936  1.00  0.00     0.010 A 
ATOM     12  C   UNL A   1      42.313  23.145  25.574  1.00  0.00     0.010 A 
ATOM     13  C   UNL A   1      42.534  23.586  26.888  1.00  0.00    -0.014 A 
BRANCH  13  14
ATOM     14  C   UNL A   1      42.906  24.994  27.183  1.00  0.00     0.031 A 
ATOM     15  C   UNL A   1      41.957  25.931  27.878  1.00  0.00     0.074 A 
ATOM     16  C   UNL A   1      44.130  25.423  26.815  1.00  0.00     0.049 A 
ATOM     17  N   UNL A   1      42.146  27.179  28.225  1.00  0.00    -0.248 NA
ATOM     18  C   UNL A   1      40.624  25.410  28.225  1.00  0.00     0.031 C 
ATOM     19  C   UNL A   1      45.119  24.616  26.099  1.00  0.00     0.029 A 
ATOM     20  N   UNL A   1      44.752  26.633  26.988  1.00  0.00    -0.354 N 
ATOM     21  C   UNL A   1      40.953  27.604  28.797  1.00  0.00     0.074 A 
ATOM     22  C   UNL A   1      40.039  26.482  28.745  1.00  0.00     0.031 C 
ATOM     23  C   UNL A   1      46.234  25.338  25.922  1.00  0.00     0.029 A 
ATOM     24  C   UNL A   1      46.021  26.678  26.459  1.00  0.00     0.049 A 
ATOM     25  H   UNL A   1      44.331  27.396  27.447  1.00  0.00     0.167 HD
ATOM     26  C   UNL A   1      40.656  28.813  29.331  1.00  0.00     0.034 A 
ATOM     27  C   UNL A   1      46.912  27.685  26.393  1.00  0.00     0.034 A 
ATOM     28  C   UNL A   1      41.583  29.912  29.410  1.00  0.00     0.049 A 
ATOM     29  C   UNL A   1      46.560  29.009  27.006  1.00  0.00     0.074 A 
ATOM     30  C   UNL A   1      41.392  31.154  29.991  1.00  0.00     0.029 A 
ATOM     31  N   UNL A   1      42.869  29.909  28.891  1.00  0.00    -0.354 N 
ATOM     32  N   UNL A   1      45.470  29.353  27.649  1.00  0.00    -0.248 NA
ATOM     33  C   UNL A   1      47.562  30.079  26.907  1.00  0.00     0.031 C 
ATOM     34  C   UNL A   1      42.552  31.909  29.800  1.00  0.00     0.029 A 
ATOM     35  C   UNL A   1      43.477  31.130  29.127  1.00  0.00     0.049 A 
ATOM     36  H   UNL A   1      43.288  29.149  28.423  1.00  0.00     0.167 HD
ATOM     37  C   UNL A   1      45.662  30.668  28.049  1.00  0.00     0.074 A 
ATOM     38  C   UNL A   1      46.984  31.053  27.598  1.00  0.00     0.031 C 
ATOM     39  C   UNL A   1      44.811  31.487  28.714  1.00  0.00     0.034 A 
BRANCH  26  40
ATOM     40  C   UNL A   1      39.285  29.016  29.923  1.00  0.00     0.023 A 
ATOM     41  C   UNL A   1      39.012  28.535  31.219  1.00  0.00     0.012 A 
ATOM     42  C   UNL A   1      38.312  29.783  29.252  1.00  0.00     0.148 A 
ATOM     43  C   UNL A   1      37.787  28.800  31.832  1.00  0.00     0.002 A 
ATOM     44  C   UNL A   1      37.109  30.079  29.885  1.00  0.00     0.091 A 
ATOM     45  F   UNL A   1      38.584  30.219  28.013  1.00  0.00    -0.205 F 
ATOM     46  C   UNL A   1      36.843  29.581  31.171  1.00  0.00     0.022 A 
BRANCH  44  47
ATOM     47  S   UNL A   1      35.861  31.146  29.155  1.00  0.00     0.127 S 
ATOM     48  O   UNL A   1      36.687  32.150  28.486  1.00  0.00    -0.237 OA
ATOM     49  O   UNL A   1      35.165  30.230  28.251  1.00  0.00    -0.237 OA
ATOM     50  O   UNL A   1      35.054  31.638  30.263  1.00  0.00    -0.744 OA
ENDBRANCH  44  47
ENDBRANCH  26  40
BRANCH  27  51
ATOM     51  C   UNL A   1      48.242  27.443  25.766  1.00  0.00     0.023 A 
ATOM     52  C   UNL A   1      49.297  26.946  26.552  1.00  0.00     0.012 A 
ATOM     53  C   UNL A   1      48.437  27.617  24.382  1.00  0.00     0.148 A 
ATOM     54  C   UNL A   1      50.529  26.635  25.974  1.00  0.00     0.002 A 
ATOM     55  C   UNL A   1      49.644  27.247  23.802  1.00  0.00     0.091 A 
ATOM     56  F   UNL A   1      47.423  28.106  23.654  1.00  0.00    -0.205 F 
ATOM     57  C   UNL A   1      50.697  26.771  24.598  1.00  0.00     0.022 A 
BRANCH  55  58
ATOM     58  S   UNL A   1      49.894  27.238  22.022  1.00  0.00     0.127 S 
ATOM     59  O   UNL A   1      51.269  26.759  21.917  1.00  0.00    -0.237 OA
ATOM     60  O   UNL A   1      48.874  26.287  21.580  1.00  0.00    -0.237 OA
ATOM     61  O   UNL A   1      49.665  28.608  21.586  1.00  0.00    -0.744 OA
ENDBRANCH  55  58
ENDBRANCH  27  51
BRANCH  39  62
ATOM     62  C   UNL A   1      45.276  32.888  29.015  1.00  0.00     0.023 A 
ATOM     63  C   UNL A   1      46.032  33.135  30.177  1.00  0.00     0.012 A 
ATOM     64  C   UNL A   1      45.058  33.932  28.093  1.00  0.00     0.148 A 
ATOM     65  C   UNL A   1      46.548  34.406  30.427  1.00  0.00     0.002 A 
ATOM     66  C   UNL A   1      45.617  35.182  28.326  1.00  0.00     0.091 A 
ATOM     67  F   UNL A   1      44.320  33.678  27.003  1.00  0.00    -0.205 F 
ATOM     68  C   UNL A   1      46.354  35.424  29.497  1.00  0.00     0.022 A 
BRANCH  66  69
ATOM     69  S   UNL A   1      45.504  36.525  27.138  1.00  0.00     0.127 S 
ATOM     70  O   UNL A   1      46.262  35.988  26.009  1.00  0.00    -0.237 OA
ATOM     71  O   UNL A   1      44.061  36.621  26.914  1.00  0.00    -0.237 OA
ATOM     72  O   UNL A   1      46.094  37.688  27.787  1.00  0.00    -0.744 OA
ENDBRANCH  66  69
ENDBRANCH  39  62
ENDBRANCH  13  14
ENDBRANCH   6   8
ENDBRANCH   3   4
ENDBRANCH   2   3
ENDBRANCH   1   2
BRANCH   1  73
ATOM     73  C   UNL A   1      37.358  22.273  25.660  1.00  0.00     0.002 C 
BRANCH  73  74
ATOM     74  C   UNL A   1      37.073  23.708  25.205  1.00  0.00     0.021 C 
BRANCH  74  75
ATOM     75  C   UNL A   1      35.599  24.092  25.092  1.00  0.00     0.116 C 
BRANCH  75  76
ATOM     76  N   UNL A   1      35.112  24.072  23.725  1.00  0.00    -0.352 N 
ATOM     77  C   UNL A   1      33.843  24.331  23.260  1.00  0.00     0.256 C 
ATOM     78  H   UNL A   1      35.779  23.844  23.039  1.00  0.00     0.163 HD
ATOM     79  O   UNL A   1      33.613  24.289  22.053  1.00  0.00    -0.269 OA
BRANCH  77  80
ATOM     80  C   UNL A   1      32.759  24.624  24.219  1.00  0.00     0.098 A 
ATOM     81  C   UNL A   1      32.309  25.949  24.270  1.00  0.00     0.138 A 
ATOM     82  C   UNL A   1      32.130  23.611  24.978  1.00  0.00     0.053 A 
ATOM     83  F   UNL A   1      32.895  26.902  23.528  1.00  0.00    -0.206 F 
ATOM     84  C   UNL A   1      31.262  26.319  25.103  1.00  0.00     0.040 A 
ATOM     85  C   UNL A   1      31.045  24.013  25.782  1.00  0.00     0.027 A 
ATOM     86  C   UNL A   1      30.625  25.347  25.862  1.00  0.00     0.005 A 
BRANCH  82  87
ATOM     87  N   UNL A   1      32.519  22.293  25.002  1.00  0.00    -0.365 N 
ATOM     88  C   UNL A   1      33.073  21.620  26.160  1.00  0.00     0.123 C 
ATOM     89  C   UNL A   1      32.524  21.426  23.821  1.00  0.00     0.181 C 
ATOM     90  C   UNL A   1      33.983  20.566  25.554  1.00  0.00     0.088 C 
ATOM     91  C   UNL A   1      33.290  20.131  24.258  1.00  0.00     0.205 C 
BRANCH  91  92
ATOM     92  N   UNL A   1      32.472  18.901  24.272  1.00  0.00    -0.331 N 
ATOM     93  C   UNL A   1      32.559  18.025  25.439  1.00  0.00     0.262 C 
ATOM     94  C   UNL A   1      32.464  18.148  23.015  1.00  0.00     0.262 C 
ATOM     95  H   UNL A   1      31.551  19.325  24.377  1.00  0.00     0.348 HD
ATOM     96  C   UNL A   1      33.674  16.978  25.384  1.00  0.00     0.062 C 
ATOM     97  C   UNL A   1      33.587  17.123  22.861  1.00  0.00     0.062 C 
ATOM     98  C   UNL A   1      33.689  16.204  24.073  1.00  0.00     0.012 C 
ENDBRANCH  91  92
ENDBRANCH  82  87
ENDBRANCH  77  80
ENDBRANCH  75  76
ENDBRANCH  74  75
ENDBRANCH  73  74
ENDBRANCH   1  73
TORSDOF 18
ENDMDL
MODEL 2
REMARK VINA RESULT:     -11.9      1.436      3.432
REMARK SMILES O=C(NCCCCCCNC(=O)c1c(F)cccc1N1CC[C@@H]([NH+]2CCCCC2)C1)c1ccc(-c2c3nc(c(-c4cccc(S(=O)(=O)[O-])c4F)c4ccc([nH]4)c(-c4cccc(S(=O)(=O)[O-])c4F)c4nc(c(-c5cccc(S(=O)(=O)[O-])c5F)c5ccc2[nH]5)C=C4)C=C3)cc1
REMARK SMILES IDX 6 1 5 2 4 3 3 4 1 5 2 6 31 8 32 9 93 10 33 11 92 12 34 13
REMARK SMILES IDX 35 14 36 15 86 16 37 17 91 18 85 19 87 20 38 21 90 22 84 23
REMARK SMILES IDX 83 24 39 26 71 27 51 28 70 29 52 30 55 31 69 32 88 33 53 34
REMARK SMILES IDX 54 35 68 37 89 38 56 39 40 40 41 41 49 42 42 43 44 44 50 45
REMARK SMILES IDX 43 46 45 47 46 48 47 49 48 50 72 51 73 52 81 53 74 54 76 55
REMARK SMILES IDX 82 56 75 57 77 58 78 59 79 60 80 61 57 62 58 63 66 64 59 65
REMARK SMILES IDX 61 66 67 67 60 68 62 69 63 70 64 71 65 72 7 73 8 74 9 75
REMARK SMILES IDX 10 76 11 77 12 79 13 80 14 81 19 82 15 83 16 84 18 85 17 86
REMARK SMILES IDX 20 87 21 88 30 89 22 90 23 91 24 92 25 93 29 94 26 96 28 97
REMARK SMILES IDX 27 98
REMARK H PARENT 3 7 87 25 55 36 10 78 24 95
REMARK Flexibility Score: inf
ROOT
ATOM      1  C   UNL A   1      37.132  20.983  24.639  1.00  0.00     0.002 C 
ENDROOT
BRANCH   1   2
ATOM      2  C   UNL A   1      38.146  19.866  24.881  1.00  0.00     0.021 C 
BRANCH   2   3
ATOM      3  C   UNL A   1      39.043  20.054  26.097  1.00  0.00     0.116 C 
BRANCH   3   4
ATOM      4  N   UNL A   1      40.206  19.182  26.077  1.00  0.00    -0.352 N 
ATOM      5  O   UNL A   1      42.391  18.650  25.948  1.00  0.00    -0.269 OA
ATOM      6  C   UNL A   1      41.539  19.513  26.142  1.00  0.00     0.251 C 
ATOM      7  H   UNL A   1      40.012  18.220  26.008  1.00  0.00     0.163 HD
BRANCH   6   8
ATOM      8  C   UNL A   1      41.941  20.912  26.416  1.00  0.00     0.039 A 
ATOM      9  C   UNL A   1      42.250  21.323  27.715  1.00  0.00     0.014 A 
ATOM     10  C   UNL A   1      42.013  21.824  25.359  1.00  0.00     0.014 A 
ATOM     11  C   UNL A   1      42.490  22.668  27.976  1.00  0.00     0.010 A 
ATOM     12  C   UNL A   1      42.340  23.159  25.613  1.00  0.00     0.010 A 
ATOM     13  C   UNL A   1      42.555  23.600  26.928  1.00  0.00    -0.014 A 
BRANCH  13  14
ATOM     14  C   UNL A   1      42.932  25.007  27.224  1.00  0.00     0.031 A 
ATOM     15  C   UNL A   1      41.985  25.948  27.915  1.00  0.00     0.074 A 
ATOM     16  C   UNL A   1      44.159  25.430  26.861  1.00  0.00     0.049 A 
ATOM     17  N   UNL A   1      42.178  27.194  28.263  1.00  0.00    -0.248 NA
ATOM     18  C   UNL A   1      40.648  25.433  28.257  1.00  0.00     0.031 C 
ATOM     19  C   UNL A   1      45.148  24.618  26.149  1.00  0.00     0.029 A 
ATOM     20  N   UNL A   1      44.786  26.637  27.036  1.00  0.00    -0.354 N 
ATOM     21  C   UNL A   1      40.984  27.625  28.831  1.00  0.00     0.074 A 
ATOM     22  C   UNL A   1      40.066  26.507  28.776  1.00  0.00     0.031 C 
ATOM     23  C   UNL A   1      46.266  25.335  25.976  1.00  0.00     0.029 A 
ATOM     24  C   UNL A   1      46.057  26.676  26.511  1.00  0.00     0.049 A 
ATOM     25  H   UNL A   1      44.367  27.402  27.493  1.00  0.00     0.167 HD
ATOM     26  C   UNL A   1      40.691  28.836  29.363  1.00  0.00     0.034 A 
ATOM     27  C   UNL A   1      46.953  27.679  26.449  1.00  0.00     0.034 A 
ATOM     28  C   UNL A   1      41.623  29.930  29.446  1.00  0.00     0.049 A 
ATOM     29  C   UNL A   1      46.604  29.005  27.060  1.00  0.00     0.074 A 
ATOM     30  C   UNL A   1      41.435  31.173  30.026  1.00  0.00     0.029 A 
ATOM     31  N   UNL A   1      42.911  29.921  28.931  1.00  0.00    -0.354 N 
ATOM     32  N   UNL A   1      45.513  29.353  27.699  1.00  0.00    -0.248 NA
ATOM     33  C   UNL A   1      47.612  30.070  26.965  1.00  0.00     0.031 C 
ATOM     34  C   UNL A   1      42.599  31.924  29.839  1.00  0.00     0.029 A 
ATOM     35  C   UNL A   1      43.523  31.140  29.169  1.00  0.00     0.049 A 
ATOM     36  H   UNL A   1      43.328  29.160  28.465  1.00  0.00     0.167 HD
ATOM     37  C   UNL A   1      45.710  30.668  28.100  1.00  0.00     0.074 A 
ATOM     38  C   UNL A   1      47.036  31.047  27.654  1.00  0.00     0.031 C 
ATOM     39  C   UNL A   1      44.860  31.491  28.761  1.00  0.00     0.034 A 
BRANCH  26  40
ATOM     40  C   UNL A   1      39.319  29.045  29.951  1.00  0.00     0.023 A 
ATOM     41  C   UNL A   1      39.041  28.570  31.247  1.00  0.00     0.012 A 
ATOM     42  C   UNL A   1      38.349  29.811  29.272  1.00  0.00     0.148 A 
ATOM     43  C   UNL A   1      37.815  28.841  31.855  1.00  0.00     0.002 A 
ATOM     44  C   UNL A   1      37.145  30.112  29.901  1.00  0.00     0.091 A 
ATOM     45  F   UNL A   1      38.627  30.241  28.033  1.00  0.00    -0.205 F 
ATOM     46  C   UNL A   1      36.874  29.621  31.188  1.00  0.00     0.022 A 
BRANCH  44  47
ATOM     47  S   UNL A   1      35.902  31.179  29.162  1.00  0.00     0.127 S 
ATOM     48  O   UNL A   1      35.130  31.587  30.336  1.00  0.00    -0.237 OA
ATOM     49  O   UNL A   1      36.720  32.240  28.573  1.00  0.00    -0.237 OA
ATOM     50  O   UNL A   1      35.185  30.356  28.199  1.00  0.00    -0.744 OA
ENDBRANCH  44  47
ENDBRANCH  26  40
BRANCH  27  51
ATOM     51  C   UNL A   1      48.284  27.432  25.827  1.00  0.00     0.023 A 
ATOM     52  C   UNL A   1      49.334  26.927  26.617  1.00  0.00     0.012 A 
ATOM     53  C   UNL A   1      48.486  27.607  24.444  1.00  0.00     0.148 A 
ATOM     54  C   UNL A   1      50.566  26.611  26.043  1.00  0.00     0.002 A 
ATOM     55  C   UNL A   1      49.693  27.231  23.868  1.00  0.00     0.091 A 
ATOM     56  F   UNL A   1      47.477  28.102  23.712  1.00  0.00    -0.205 F 
ATOM     57  C   UNL A   1      50.740  26.748  24.667  1.00  0.00     0.022 A 
BRANCH  55  58
ATOM     58  S   UNL A   1      49.950  27.224  22.090  1.00  0.00     0.127 S 
ATOM     59  O   UNL A   1      48.914  26.299  21.642  1.00  0.00    -0.237 OA
ATOM     60  O   UNL A   1      49.717  28.626  21.745  1.00  0.00    -0.237 OA
ATOM     61  O   UNL A   1      51.324  26.779  21.893  1.00  0.00    -0.744 OA
ENDBRANCH  55  58
ENDBRANCH  27  51
BRANCH  39  62
ATOM     62  C   UNL A   1      45.330  32.890  29.064  1.00  0.00     0.023 A 
ATOM     63  C   UNL A   1      45.993  33.154  30.279  1.00  0.00     0.012 A 
ATOM     64  C   UNL A   1      45.212  33.912  28.101  1.00  0.00     0.148 A 
ATOM     65  C   UNL A   1      46.515  34.420  30.538  1.00  0.00     0.002 A 
ATOM     66  C   UNL A   1      45.778  35.157  28.348  1.00  0.00     0.091 A 
ATOM     67  F   UNL A   1      44.562  33.644  26.960  1.00  0.00    -0.205 F 
ATOM     68  C   UNL A   1      46.422  35.415  29.569  1.00  0.00     0.022 A 
BRANCH  66  69
ATOM     69  S   UNL A   1      45.795  36.469  27.120  1.00  0.00     0.127 S 
ATOM     70  O   UNL A   1      44.379  36.822  27.042  1.00  0.00    -0.237 OA
ATOM     71  O   UNL A   1      46.642  37.478  27.756  1.00  0.00    -0.237 OA
ATOM     72  O   UNL A   1      46.358  35.882  25.911  1.00  0.00    -0.744 OA
ENDBRANCH  66  69
ENDBRANCH  39  62
ENDBRANCH  13  14
ENDBRANCH   6   8
ENDBRANCH   3   4
ENDBRANCH   2   3
ENDBRANCH   1   2
BRANCH   1  73
ATOM     73  C   UNL A   1      36.989  22.011  25.765  1.00  0.00     0.002 C 
BRANCH  73  74
ATOM     74  C   UNL A   1      37.002  23.484  25.342  1.00  0.00     0.021 C 
BRANCH  74  75
ATOM     75  C   UNL A   1      35.662  24.059  24.886  1.00  0.00     0.116 C 
BRANCH  75  76
ATOM     76  N   UNL A   1      34.665  24.078  25.941  1.00  0.00    -0.352 N 
ATOM     77  C   UNL A   1      33.492  23.365  26.029  1.00  0.00     0.256 C 
ATOM     78  H   UNL A   1      34.855  24.682  26.695  1.00  0.00     0.163 HD
ATOM     79  O   UNL A   1      32.772  23.491  27.017  1.00  0.00    -0.269 OA
BRANCH  77  80
ATOM     80  C   UNL A   1      33.092  22.478  24.918  1.00  0.00     0.098 A 
ATOM     81  C   UNL A   1      33.343  21.110  25.087  1.00  0.00     0.138 A 
ATOM     82  C   UNL A   1      32.398  22.956  23.784  1.00  0.00     0.053 A 
ATOM     83  F   UNL A   1      33.981  20.659  26.179  1.00  0.00    -0.206 F 
ATOM     84  C   UNL A   1      32.962  20.188  24.123  1.00  0.00     0.040 A 
ATOM     85  C   UNL A   1      31.989  21.989  22.845  1.00  0.00     0.027 A 
ATOM     86  C   UNL A   1      32.279  20.627  22.998  1.00  0.00     0.005 A 
BRANCH  82  87
ATOM     87  N   UNL A   1      32.127  24.280  23.531  1.00  0.00    -0.365 N 
ATOM     88  C   UNL A   1      30.982  25.000  24.053  1.00  0.00     0.123 C 
ATOM     89  C   UNL A   1      32.909  25.106  22.607  1.00  0.00     0.181 C 
ATOM     90  C   UNL A   1      30.708  26.046  22.986  1.00  0.00     0.088 C 
ATOM     91  C   UNL A   1      32.083  26.426  22.429  1.00  0.00     0.205 C 
BRANCH  91  92
ATOM     92  N   UNL A   1      32.743  27.644  22.943  1.00  0.00    -0.331 N 
ATOM     93  C   UNL A   1      33.793  27.491  23.949  1.00  0.00     0.262 C 
ATOM     94  C   UNL A   1      31.839  28.756  23.253  1.00  0.00     0.262 C 
ATOM     95  H   UNL A   1      33.268  27.904  22.108  1.00  0.00     0.348 HD
ATOM     96  C   UNL A   1      33.304  27.453  25.398  1.00  0.00     0.062 C 
ATOM     97  C   UNL A   1      31.260  28.751  24.667  1.00  0.00     0.062 C 
ATOM     98  C   UNL A   1      32.346  28.591  25.725  1.00  0.00     0.012 C 
ENDBRANCH  91  92
ENDBRANCH  82  87
ENDBRANCH  77  80
ENDBRANCH  75  76
ENDBRANCH  74  75
ENDBRANCH  73  74
ENDBRANCH   1  73
TORSDOF 18
ENDMDL
MODEL 3
REMARK VINA RESULT:     -11.9      5.620      9.146
REMARK SMILES O=C(NCCCCCCNC(=O)c1c(F)cccc1N1CC[C@@H]([NH+]2CCCCC2)C1)c1ccc(-c2c3nc(c(-c4cccc(S(=O)(=O)[O-])c4F)c4ccc([nH]4)c(-c4cccc(S(=O)(=O)[O-])c4F)c4nc(c(-c5cccc(S(=O)(=O)[O-])c5F)c5ccc2[nH]5)C=C4)C=C3)cc1
REMARK SMILES IDX 6 1 5 2 4 3 3 4 1 5 2 6 31 8 32 9 93 10 33 11 92 12 34 13
REMARK SMILES IDX 35 14 36 15 86 16 37 17 91 18 85 19 87 20 38 21 90 22 84 23
REMARK SMILES IDX 83 24 39 26 71 27 51 28 70 29 52 30 55 31 69 32 88 33 53 34
REMARK SMILES IDX 54 35 68 37 89 38 56 39 40 40 41 41 49 42 42 43 44 44 50 45
REMARK SMILES IDX 43 46 45 47 46 48 47 49 48 50 72 51 73 52 81 53 74 54 76 55
REMARK SMILES IDX 82 56 75 57 77 58 78 59 79 60 80 61 57 62 58 63 66 64 59 65
REMARK SMILES IDX 61 66 67 67 60 68 62 69 63 70 64 71 65 72 7 73 8 74 9 75
REMARK SMILES IDX 10 76 11 77 12 79 13 80 14 81 19 82 15 83 16 84 18 85 17 86
REMARK SMILES IDX 20 87 21 88 30 89 22 90 23 91 24 92 25 93 29 94 26 96 28 97
REMARK SMILES IDX 27 98
REMARK H PARENT 3 7 87 25 55 36 10 78 24 95
REMARK Flexibility Score: inf
ROOT
ATOM      1  C   UNL A   1      31.331  30.111  25.562  1.00  0.00     0.002 C 
ENDROOT
BRANCH   1   2
ATOM      2  C   UNL A   1      31.273  31.434  26.325  1.00  0.00     0.021 C 
BRANCH   2   3
ATOM      3  C   UNL A   1      32.593  31.894  26.931  1.00  0.00     0.116 C 
BRANCH   3   4
ATOM      4  N   UNL A   1      32.583  33.302  27.292  1.00  0.00    -0.352 N 
ATOM      5  O   UNL A   1      33.137  35.139  28.473  1.00  0.00    -0.269 OA
ATOM      6  C   UNL A   1      33.396  33.977  28.172  1.00  0.00     0.251 C 
ATOM      7  H   UNL A   1      31.900  33.850  26.843  1.00  0.00     0.163 HD
BRANCH   6   8
ATOM      8  C   UNL A   1      34.563  33.292  28.774  1.00  0.00     0.039 A 
ATOM      9  C   UNL A   1      34.398  32.415  29.850  1.00  0.00     0.014 A 
ATOM     10  C   UNL A   1      35.839  33.527  28.254  1.00  0.00     0.014 A 
ATOM     11  C   UNL A   1      35.515  31.890  30.492  1.00  0.00     0.010 A 
ATOM     12  C   UNL A   1      36.954  32.928  28.848  1.00  0.00     0.010 A 
ATOM     13  C   UNL A   1      36.806  32.126  29.990  1.00  0.00    -0.014 A 
BRANCH  13  14
ATOM     14  C   UNL A   1      37.969  31.453  30.624  1.00  0.00     0.031 A 
ATOM     15  C   UNL A   1      38.392  31.772  32.031  1.00  0.00     0.074 A 
ATOM     16  C   UNL A   1      38.646  30.535  29.906  1.00  0.00     0.049 A 
ATOM     17  N   UNL A   1      39.370  31.252  32.729  1.00  0.00    -0.248 NA
ATOM     18  C   UNL A   1      37.630  32.807  32.750  1.00  0.00     0.031 C 
ATOM     19  C   UNL A   1      38.352  30.173  28.518  1.00  0.00     0.029 A 
ATOM     20  N   UNL A   1      39.715  29.740  30.236  1.00  0.00    -0.354 N 
ATOM     21  C   UNL A   1      39.366  31.915  33.950  1.00  0.00     0.074 A 
ATOM     22  C   UNL A   1      38.291  32.883  33.898  1.00  0.00     0.031 C 
ATOM     23  C   UNL A   1      39.194  29.208  28.125  1.00  0.00     0.029 A 
ATOM     24  C   UNL A   1      40.127  28.922  29.210  1.00  0.00     0.049 A 
ATOM     25  H   UNL A   1      40.145  29.754  31.121  1.00  0.00     0.167 HD
ATOM     26  C   UNL A   1      40.174  31.720  35.020  1.00  0.00     0.034 A 
ATOM     27  C   UNL A   1      41.149  28.049  29.137  1.00  0.00     0.034 A 
ATOM     28  C   UNL A   1      41.218  30.730  35.075  1.00  0.00     0.049 A 
ATOM     29  C   UNL A   1      42.019  27.845  30.343  1.00  0.00     0.074 A 
ATOM     30  C   UNL A   1      42.046  30.417  36.139  1.00  0.00     0.029 A 
ATOM     31  N   UNL A   1      41.584  29.900  34.027  1.00  0.00    -0.354 N 
ATOM     32  N   UNL A   1      41.922  28.397  31.528  1.00  0.00    -0.248 NA
ATOM     33  C   UNL A   1      43.124  26.885  30.215  1.00  0.00     0.031 C 
ATOM     34  C   UNL A   1      42.929  29.416  35.727  1.00  0.00     0.029 A 
ATOM     35  C   UNL A   1      42.634  29.084  34.415  1.00  0.00     0.049 A 
ATOM     36  H   UNL A   1      41.161  29.891  33.137  1.00  0.00     0.167 HD
ATOM     37  C   UNL A   1      42.936  27.838  32.293  1.00  0.00     0.074 A 
ATOM     38  C   UNL A   1      43.623  26.884  31.445  1.00  0.00     0.031 C 
ATOM     39  C   UNL A   1      43.279  28.105  33.577  1.00  0.00     0.034 A 
BRANCH  26  40
ATOM     40  C   UNL A   1      39.943  32.558  36.252  1.00  0.00     0.023 A 
ATOM     41  C   UNL A   1      40.622  33.784  36.393  1.00  0.00     0.012 A 
ATOM     42  C   UNL A   1      38.971  32.192  37.205  1.00  0.00     0.148 A 
ATOM     43  C   UNL A   1      40.349  34.627  37.471  1.00  0.00     0.002 A 
ATOM     44  C   UNL A   1      38.674  33.056  38.254  1.00  0.00     0.091 A 
ATOM     45  F   UNL A   1      38.347  31.014  37.061  1.00  0.00    -0.205 F 
ATOM     46  C   UNL A   1      39.368  34.269  38.392  1.00  0.00     0.022 A 
BRANCH  44  47
ATOM     47  S   UNL A   1      37.370  32.729  39.445  1.00  0.00     0.127 S 
ATOM     48  O   UNL A   1      36.183  32.736  38.591  1.00  0.00    -0.237 OA
ATOM     49  O   UNL A   1      37.744  31.410  39.955  1.00  0.00    -0.237 OA
ATOM     50  O   UNL A   1      37.440  33.803  40.425  1.00  0.00    -0.744 OA
ENDBRANCH  44  47
ENDBRANCH  26  40
BRANCH  27  51
ATOM     51  C   UNL A   1      41.356  27.270  27.884  1.00  0.00     0.023 A 
ATOM     52  C   UNL A   1      41.929  27.900  26.764  1.00  0.00     0.012 A 
ATOM     53  C   UNL A   1      41.072  25.891  27.828  1.00  0.00     0.148 A 
ATOM     54  C   UNL A   1      42.207  27.174  25.605  1.00  0.00     0.002 A 
ATOM     55  C   UNL A   1      41.409  25.161  26.695  1.00  0.00     0.091 A 
ATOM     56  F   UNL A   1      40.513  25.314  28.901  1.00  0.00    -0.205 F 
ATOM     57  C   UNL A   1      41.962  25.803  25.576  1.00  0.00     0.022 A 
BRANCH  55  58
ATOM     58  S   UNL A   1      41.276  23.370  26.629  1.00  0.00     0.127 S 
ATOM     59  O   UNL A   1      41.830  22.982  27.922  1.00  0.00    -0.237 OA
ATOM     60  O   UNL A   1      39.832  23.180  26.492  1.00  0.00    -0.237 OA
ATOM     61  O   UNL A   1      42.047  22.962  25.462  1.00  0.00    -0.744 OA
ENDBRANCH  55  58
ENDBRANCH  27  51
BRANCH  39  62
ATOM     62  C   UNL A   1      44.444  27.352  34.165  1.00  0.00     0.023 A 
ATOM     63  C   UNL A   1      45.746  27.874  34.035  1.00  0.00     0.012 A 
ATOM     64  C   UNL A   1      44.235  26.192  34.938  1.00  0.00     0.148 A 
ATOM     65  C   UNL A   1      46.826  27.241  34.650  1.00  0.00     0.002 A 
ATOM     66  C   UNL A   1      45.309  25.596  35.586  1.00  0.00     0.091 A 
ATOM     67  F   UNL A   1      42.990  25.704  35.032  1.00  0.00    -0.205 F 
ATOM     68  C   UNL A   1      46.606  26.113  35.436  1.00  0.00     0.022 A 
BRANCH  66  69
ATOM     69  S   UNL A   1      45.108  24.199  36.699  1.00  0.00     0.127 S 
ATOM     70  O   UNL A   1      44.239  24.763  37.730  1.00  0.00    -0.237 OA
ATOM     71  O   UNL A   1      44.468  23.206  35.837  1.00  0.00    -0.237 OA
ATOM     72  O   UNL A   1      46.449  23.841  37.142  1.00  0.00    -0.744 OA
ENDBRANCH  66  69
ENDBRANCH  39  62
ENDBRANCH  13  14
ENDBRANCH   6   8
ENDBRANCH   3   4
ENDBRANCH   2   3
ENDBRANCH   1   2
BRANCH   1  73
ATOM     73  C   UNL A   1      31.985  28.941  26.303  1.00  0.00     0.002 C 
BRANCH  73  74
ATOM     74  C   UNL A   1      33.213  28.317  25.634  1.00  0.00     0.021 C 
BRANCH  74  75
ATOM     75  C   UNL A   1      33.656  28.959  24.320  1.00  0.00     0.116 C 
BRANCH  75  76
ATOM     76  N   UNL A   1      33.821  27.996  23.246  1.00  0.00    -0.352 N 
ATOM     77  C   UNL A   1      32.851  27.347  22.516  1.00  0.00     0.256 C 
ATOM     78  H   UNL A   1      34.751  27.779  23.008  1.00  0.00     0.163 HD
ATOM     79  O   UNL A   1      33.176  26.573  21.619  1.00  0.00    -0.269 OA
BRANCH  77  80
ATOM     80  C   UNL A   1      31.427  27.562  22.841  1.00  0.00     0.098 A 
ATOM     81  C   UNL A   1      30.849  28.748  22.370  1.00  0.00     0.138 A 
ATOM     82  C   UNL A   1      30.649  26.585  23.502  1.00  0.00     0.053 A 
ATOM     83  F   UNL A   1      31.589  29.661  21.721  1.00  0.00    -0.206 F 
ATOM     84  C   UNL A   1      29.505  29.023  22.580  1.00  0.00     0.040 A 
ATOM     85  C   UNL A   1      29.280  26.877  23.663  1.00  0.00     0.027 A 
ATOM     86  C   UNL A   1      28.715  28.083  23.227  1.00  0.00     0.005 A 
BRANCH  82  87
ATOM     87  N   UNL A   1      31.138  25.406  24.012  1.00  0.00    -0.365 N 
ATOM     88  C   UNL A   1      31.247  24.169  23.265  1.00  0.00     0.123 C 
ATOM     89  C   UNL A   1      31.512  25.222  25.417  1.00  0.00     0.181 C 
ATOM     90  C   UNL A   1      31.089  23.099  24.330  1.00  0.00     0.088 C 
ATOM     91  C   UNL A   1      31.740  23.682  25.589  1.00  0.00     0.205 C 
BRANCH  91  92
ATOM     92  N   UNL A   1      33.127  23.292  25.914  1.00  0.00    -0.331 N 
ATOM     93  C   UNL A   1      34.130  24.348  26.045  1.00  0.00     0.262 C 
ATOM     94  C   UNL A   1      33.636  22.135  25.174  1.00  0.00     0.262 C 
ATOM     95  H   UNL A   1      32.986  22.996  26.880  1.00  0.00     0.348 HD
ATOM     96  C   UNL A   1      34.821  24.754  24.742  1.00  0.00     0.062 C 
ATOM     97  C   UNL A   1      34.287  22.457  23.829  1.00  0.00     0.062 C 
ATOM     98  C   UNL A   1      35.334  23.557  23.952  1.00  0.00     0.012 C 
ENDBRANCH  91  92
ENDBRANCH  82  87
ENDBRANCH  77  80
ENDBRANCH  75  76
ENDBRANCH  74  75
ENDBRANCH  73  74
ENDBRANCH   1  73
TORSDOF 18
ENDMDL
