MODEL 1
REMARK VINA RESULT:     -10.5      0.000      0.000
REMARK SMILES C[C@H](C(=O)NCCCCCCNC(=O)c1ccc(-c2c3nc(c(-c4cccc(S(=O)(=O)[O-])c4F)c4ccc([nH]4)c(-c4cccc(S(=O)(=O)[O-])c4F)c4nc(c(-c5cccc(S(=O)(=O)[O-])c5F)c5ccc2[nH]5)C=C4)C=C3)cc1)[C@H](C)[NH+]1CCN(c2ccccc2Cl)CC1
REMARK SMILES IDX 8 1 7 2 6 3 5 4 3 5 4 6 2 8 1 9 78 10 79 11 80 12 81 13
REMARK SMILES IDX 92 14 82 16 91 17 83 18 84 19 85 20 89 21 86 22 88 23 90 24
REMARK SMILES IDX 87 25 9 26 10 27 11 28 12 29 13 30 14 32 15 33 16 34 77 35
REMARK SMILES IDX 17 36 76 37 18 38 19 39 20 40 70 41 21 42 75 43 69 44 71 45
REMARK SMILES IDX 22 46 74 47 68 48 67 49 23 51 55 52 35 53 54 54 36 55 39 56
REMARK SMILES IDX 53 57 72 58 37 59 38 60 52 62 73 63 40 64 24 65 25 66 33 67
REMARK SMILES IDX 26 68 28 69 34 70 27 71 29 72 30 73 31 74 32 75 56 76 57 77
REMARK SMILES IDX 65 78 58 79 60 80 66 81 59 82 61 83 62 84 63 85 64 86 41 87
REMARK SMILES IDX 42 88 50 89 43 90 45 91 51 92 44 93 46 94 47 95 48 96 49 97
REMARK H PARENT 5 7 80 15 12 31 71 50 39 61
REMARK Flexibility Score: inf
ROOT
ATOM      1  C   UNL A   1      34.901  31.292  27.979  1.00  0.00     0.002 C 
ENDROOT
BRANCH   1   2
ATOM      2  C   UNL A   1      33.685  30.716  27.243  1.00  0.00     0.021 C 
BRANCH   2   3
ATOM      3  C   UNL A   1      33.802  29.247  26.852  1.00  0.00     0.116 C 
BRANCH   3   4
ATOM      4  N   UNL A   1      34.102  29.111  25.444  1.00  0.00    -0.356 N 
ATOM      5  C   UNL A   1      33.343  28.774  24.376  1.00  0.00     0.228 C 
ATOM      6  O   UNL A   1      33.989  28.520  23.355  1.00  0.00    -0.275 OA
ATOM      7  H   UNL A   1      35.042  29.300  25.219  1.00  0.00     0.163 HD
BRANCH   5   8
ATOM      8  C   UNL A   1      31.821  28.600  24.427  1.00  0.00     0.133 C 
ATOM      9  C   UNL A   1      30.958  29.847  24.645  1.00  0.00     0.024 C 
BRANCH   8  10
ATOM     10  C   UNL A   1      31.277  27.722  23.231  1.00  0.00     0.193 C 
ATOM     11  C   UNL A   1      30.041  28.394  22.586  1.00  0.00     0.076 C 
BRANCH  10  12
ATOM     12  N   UNL A   1      31.196  26.242  23.281  1.00  0.00    -0.329 N 
ATOM     13  C   UNL A   1      32.019  25.435  22.366  1.00  0.00     0.284 C 
ATOM     14  C   UNL A   1      31.175  25.572  24.598  1.00  0.00     0.284 C 
ATOM     15  H   UNL A   1      30.247  26.250  22.908  1.00  0.00     0.348 HD
ATOM     16  C   UNL A   1      33.447  25.107  22.861  1.00  0.00     0.178 C 
ATOM     17  C   UNL A   1      32.558  25.266  25.212  1.00  0.00     0.178 C 
ATOM     18  N   UNL A   1      33.409  24.594  24.229  1.00  0.00    -0.359 N 
BRANCH  18  19
ATOM     19  C   UNL A   1      34.424  23.757  24.653  1.00  0.00     0.056 A 
ATOM     20  C   UNL A   1      35.553  24.271  25.308  1.00  0.00     0.027 A 
ATOM     21  C   UNL A   1      34.388  22.376  24.381  1.00  0.00     0.064 A 
ATOM     22  C   UNL A   1      36.626  23.441  25.650  1.00  0.00     0.002 A 
ATOM     23  C   UNL A   1      35.462  21.547  24.714  1.00  0.00     0.023 A 
ATOM     24  Cl  UNL A   1      33.033  21.655  23.574  1.00  0.00    -0.082 Cl
ATOM     25  C   UNL A   1      36.585  22.084  25.342  1.00  0.00     0.002 A 
ENDBRANCH  18  19
ENDBRANCH  10  12
ENDBRANCH   8  10
ENDBRANCH   5   8
ENDBRANCH   3   4
ENDBRANCH   2   3
ENDBRANCH   1   2
BRANCH   1  26
ATOM     26  C   UNL A   1      34.998  32.818  28.002  1.00  0.00     0.002 C 
BRANCH  26  27
ATOM     27  C   UNL A   1      33.668  33.560  28.145  1.00  0.00     0.021 C 
BRANCH  27  28
ATOM     28  C   UNL A   1      33.783  35.047  28.462  1.00  0.00     0.116 C 
BRANCH  28  29
ATOM     29  N   UNL A   1      33.082  35.420  29.679  1.00  0.00    -0.352 N 
ATOM     30  C   UNL A   1      33.334  35.017  30.968  1.00  0.00     0.251 C 
ATOM     31  H   UNL A   1      32.329  36.043  29.566  1.00  0.00     0.163 HD
ATOM     32  O   UNL A   1      32.561  35.322  31.872  1.00  0.00    -0.269 OA
BRANCH  30  33
ATOM     33  C   UNL A   1      34.526  34.190  31.250  1.00  0.00     0.039 A 
ATOM     34  C   UNL A   1      35.792  34.751  31.072  1.00  0.00     0.014 A 
ATOM     35  C   UNL A   1      34.393  32.879  31.717  1.00  0.00     0.014 A 
ATOM     36  C   UNL A   1      36.927  34.014  31.416  1.00  0.00     0.010 A 
ATOM     37  C   UNL A   1      35.521  32.176  32.132  1.00  0.00     0.010 A 
ATOM     38  C   UNL A   1      36.799  32.733  31.979  1.00  0.00    -0.014 A 
BRANCH  38  39
ATOM     39  C   UNL A   1      37.993  31.966  32.420  1.00  0.00     0.031 A 
ATOM     40  C   UNL A   1      38.668  32.296  33.724  1.00  0.00     0.074 A 
ATOM     41  C   UNL A   1      38.513  31.020  31.612  1.00  0.00     0.049 A 
ATOM     42  N   UNL A   1      39.740  31.766  34.253  1.00  0.00    -0.248 NA
ATOM     43  C   UNL A   1      38.074  33.377  34.528  1.00  0.00     0.031 C 
ATOM     44  C   UNL A   1      37.994  30.657  30.290  1.00  0.00     0.029 A 
ATOM     45  N   UNL A   1      39.607  30.207  31.772  1.00  0.00    -0.354 N 
ATOM     46  C   UNL A   1      39.967  32.467  35.432  1.00  0.00     0.074 A 
ATOM     47  C   UNL A   1      38.945  33.486  35.521  1.00  0.00     0.031 C 
ATOM     48  C   UNL A   1      38.761  29.687  29.768  1.00  0.00     0.029 A 
ATOM     49  C   UNL A   1      39.845  29.384  30.695  1.00  0.00     0.049 A 
ATOM     50  H   UNL A   1      40.169  30.213  32.580  1.00  0.00     0.167 HD
ATOM     51  C   UNL A   1      40.922  32.264  36.370  1.00  0.00     0.034 A 
ATOM     52  C   UNL A   1      40.830  28.490  30.477  1.00  0.00     0.034 A 
ATOM     53  C   UNL A   1      41.918  31.230  36.295  1.00  0.00     0.049 A 
ATOM     54  C   UNL A   1      41.868  28.271  31.545  1.00  0.00     0.074 A 
ATOM     55  C   UNL A   1      42.881  30.893  37.229  1.00  0.00     0.029 A 
ATOM     56  N   UNL A   1      42.087  30.371  35.220  1.00  0.00    -0.354 N 
ATOM     57  N   UNL A   1      41.979  28.844  32.719  1.00  0.00    -0.248 NA
ATOM     58  C   UNL A   1      42.896  27.256  31.274  1.00  0.00     0.031 C 
ATOM     59  C   UNL A   1      43.652  29.850  36.706  1.00  0.00     0.029 A 
ATOM     60  C   UNL A   1      43.145  29.511  35.462  1.00  0.00     0.049 A 
ATOM     61  H   UNL A   1      41.534  30.371  34.405  1.00  0.00     0.167 HD
ATOM     62  C   UNL A   1      43.062  28.233  33.340  1.00  0.00     0.074 A 
ATOM     63  C   UNL A   1      43.561  27.232  32.421  1.00  0.00     0.031 C 
ATOM     64  C   UNL A   1      43.601  28.486  34.559  1.00  0.00     0.034 A 
BRANCH  51  65
ATOM     65  C   UNL A   1      40.909  33.153  37.588  1.00  0.00     0.023 A 
ATOM     66  C   UNL A   1      40.082  32.824  38.682  1.00  0.00     0.012 A 
ATOM     67  C   UNL A   1      41.755  34.276  37.676  1.00  0.00     0.148 A 
ATOM     68  C   UNL A   1      40.068  33.619  39.828  1.00  0.00     0.002 A 
ATOM     69  C   UNL A   1      41.772  35.035  38.840  1.00  0.00     0.091 A 
ATOM     70  F   UNL A   1      42.521  34.584  36.620  1.00  0.00    -0.205 F 
ATOM     71  C   UNL A   1      40.920  34.716  39.911  1.00  0.00     0.022 A 
BRANCH  69  72
ATOM     72  S   UNL A   1      42.890  36.420  39.080  1.00  0.00     0.127 S 
ATOM     73  O   UNL A   1      42.452  36.931  40.378  1.00  0.00    -0.237 OA
ATOM     74  O   UNL A   1      44.196  35.760  39.094  1.00  0.00    -0.237 OA
ATOM     75  O   UNL A   1      42.671  37.314  37.952  1.00  0.00    -0.744 OA
ENDBRANCH  69  72
ENDBRANCH  51  65
BRANCH  52  76
ATOM     76  C   UNL A   1      40.849  27.690  29.219  1.00  0.00     0.023 A 
ATOM     77  C   UNL A   1      39.979  26.590  29.085  1.00  0.00     0.012 A 
ATOM     78  C   UNL A   1      41.706  28.022  28.152  1.00  0.00     0.148 A 
ATOM     79  C   UNL A   1      39.988  25.813  27.926  1.00  0.00     0.002 A 
ATOM     80  C   UNL A   1      41.670  27.278  26.979  1.00  0.00     0.091 A 
ATOM     81  F   UNL A   1      42.532  29.067  28.303  1.00  0.00    -0.205 F 
ATOM     82  C   UNL A   1      40.825  26.161  26.871  1.00  0.00     0.022 A 
BRANCH  80  83
ATOM     83  S   UNL A   1      42.617  27.730  25.521  1.00  0.00     0.127 S 
ATOM     84  O   UNL A   1      41.908  28.921  25.062  1.00  0.00    -0.237 OA
ATOM     85  O   UNL A   1      43.942  27.979  26.089  1.00  0.00    -0.237 OA
ATOM     86  O   UNL A   1      42.551  26.575  24.635  1.00  0.00    -0.744 OA
ENDBRANCH  80  83
ENDBRANCH  52  76
BRANCH  64  87
ATOM     87  C   UNL A   1      44.767  27.639  34.997  1.00  0.00     0.023 A 
ATOM     88  C   UNL A   1      46.085  28.094  34.799  1.00  0.00     0.012 A 
ATOM     89  C   UNL A   1      44.551  26.422  35.674  1.00  0.00     0.148 A 
ATOM     90  C   UNL A   1      47.170  27.336  35.235  1.00  0.00     0.002 A 
ATOM     91  C   UNL A   1      45.635  25.697  36.153  1.00  0.00     0.091 A 
ATOM     92  F   UNL A   1      43.290  25.997  35.839  1.00  0.00    -0.205 F 
ATOM     93  C   UNL A   1      46.946  26.145  35.923  1.00  0.00     0.022 A 
BRANCH  91  94
ATOM     94  S   UNL A   1      45.440  24.206  37.136  1.00  0.00     0.127 S 
ATOM     95  O   UNL A   1      44.605  24.684  38.237  1.00  0.00    -0.237 OA
ATOM     96  O   UNL A   1      44.762  23.307  36.202  1.00  0.00    -0.237 OA
ATOM     97  O   UNL A   1      46.785  23.790  37.509  1.00  0.00    -0.744 OA
ENDBRANCH  91  94
ENDBRANCH  64  87
ENDBRANCH  38  39
ENDBRANCH  30  33
ENDBRANCH  28  29
ENDBRANCH  27  28
ENDBRANCH  26  27
ENDBRANCH   1  26
TORSDOF 19
ENDMDL
MODEL 2
REMARK VINA RESULT:     -10.5      5.941     11.548
REMARK SMILES C[C@H](C(=O)NCCCCCCNC(=O)c1ccc(-c2c3nc(c(-c4cccc(S(=O)(=O)[O-])c4F)c4ccc([nH]4)c(-c4cccc(S(=O)(=O)[O-])c4F)c4nc(c(-c5cccc(S(=O)(=O)[O-])c5F)c5ccc2[nH]5)C=C4)C=C3)cc1)[C@H](C)[NH+]1CCN(c2ccccc2Cl)CC1
REMARK SMILES IDX 8 1 7 2 6 3 5 4 3 5 4 6 2 8 1 9 78 10 79 11 80 12 81 13
REMARK SMILES IDX 92 14 82 16 91 17 83 18 84 19 85 20 89 21 86 22 88 23 90 24
REMARK SMILES IDX 87 25 9 26 10 27 11 28 12 29 13 30 14 32 15 33 16 34 77 35
REMARK SMILES IDX 17 36 76 37 18 38 19 39 20 40 70 41 21 42 75 43 69 44 71 45
REMARK SMILES IDX 22 46 74 47 68 48 67 49 23 51 55 52 35 53 54 54 36 55 39 56
REMARK SMILES IDX 53 57 72 58 37 59 38 60 52 62 73 63 40 64 24 65 25 66 33 67
REMARK SMILES IDX 26 68 28 69 34 70 27 71 29 72 30 73 31 74 32 75 56 76 57 77
REMARK SMILES IDX 65 78 58 79 60 80 66 81 59 82 61 83 62 84 63 85 64 86 41 87
REMARK SMILES IDX 42 88 50 89 43 90 45 91 51 92 44 93 46 94 47 95 48 96 49 97
REMARK H PARENT 5 7 80 15 12 31 71 50 39 61
REMARK Flexibility Score: inf
ROOT
ATOM      1  C   UNL A   1      38.578  23.712  26.491  1.00  0.00     0.002 C 
ENDROOT
BRANCH   1   2
ATOM      2  C   UNL A   1      37.716  23.300  25.291  1.00  0.00     0.021 C 
BRANCH   2   3
ATOM      3  C   UNL A   1      36.231  23.623  25.420  1.00  0.00     0.116 C 
BRANCH   3   4
ATOM      4  N   UNL A   1      35.616  23.750  24.119  1.00  0.00    -0.356 N 
ATOM      5  C   UNL A   1      34.502  23.206  23.577  1.00  0.00     0.228 C 
ATOM      6  O   UNL A   1      34.413  23.347  22.353  1.00  0.00    -0.275 OA
ATOM      7  H   UNL A   1      36.101  24.350  23.507  1.00  0.00     0.163 HD
BRANCH   5   8
ATOM      8  C   UNL A   1      33.481  22.378  24.366  1.00  0.00     0.133 C 
ATOM      9  C   UNL A   1      33.961  21.087  25.036  1.00  0.00     0.024 C 
BRANCH   8  10
ATOM     10  C   UNL A   1      32.631  23.264  25.360  1.00  0.00     0.193 C 
ATOM     11  C   UNL A   1      32.958  22.895  26.827  1.00  0.00     0.076 C 
BRANCH  10  12
ATOM     12  N   UNL A   1      31.206  23.602  25.130  1.00  0.00    -0.329 N 
ATOM     13  C   UNL A   1      30.562  24.644  25.945  1.00  0.00     0.284 C 
ATOM     14  C   UNL A   1      30.716  23.732  23.742  1.00  0.00     0.284 C 
ATOM     15  H   UNL A   1      30.901  22.700  25.496  1.00  0.00     0.348 HD
ATOM     16  C   UNL A   1      30.712  26.092  25.422  1.00  0.00     0.178 C 
ATOM     17  C   UNL A   1      30.889  25.127  23.103  1.00  0.00     0.178 C 
ATOM     18  N   UNL A   1      30.375  26.161  24.002  1.00  0.00    -0.359 N 
BRANCH  18  19
ATOM     19  C   UNL A   1      29.915  27.358  23.486  1.00  0.00     0.056 A 
ATOM     20  C   UNL A   1      28.541  27.631  23.420  1.00  0.00     0.027 A 
ATOM     21  C   UNL A   1      30.806  28.307  22.949  1.00  0.00     0.064 A 
ATOM     22  C   UNL A   1      28.068  28.797  22.810  1.00  0.00     0.002 A 
ATOM     23  C   UNL A   1      30.335  29.468  22.331  1.00  0.00     0.023 A 
ATOM     24  Cl  UNL A   1      32.520  28.050  22.985  1.00  0.00    -0.082 Cl
ATOM     25  C   UNL A   1      28.965  29.708  22.255  1.00  0.00     0.002 A 
ENDBRANCH  18  19
ENDBRANCH  10  12
ENDBRANCH   8  10
ENDBRANCH   5   8
ENDBRANCH   3   4
ENDBRANCH   2   3
ENDBRANCH   1   2
BRANCH   1  26
ATOM     26  C   UNL A   1      39.725  22.761  26.840  1.00  0.00     0.002 C 
BRANCH  26  27
ATOM     27  C   UNL A   1      39.705  21.414  26.116  1.00  0.00     0.021 C 
BRANCH  27  28
ATOM     28  C   UNL A   1      40.273  20.241  26.907  1.00  0.00     0.116 C 
BRANCH  28  29
ATOM     29  N   UNL A   1      41.231  19.458  26.145  1.00  0.00    -0.352 N 
ATOM     30  C   UNL A   1      42.445  19.851  25.637  1.00  0.00     0.251 C 
ATOM     31  H   UNL A   1      40.978  18.524  25.971  1.00  0.00     0.163 HD
ATOM     32  O   UNL A   1      43.078  19.101  24.898  1.00  0.00    -0.269 OA
BRANCH  30  33
ATOM     33  C   UNL A   1      42.967  21.195  25.963  1.00  0.00     0.039 A 
ATOM     34  C   UNL A   1      43.067  22.144  24.944  1.00  0.00     0.014 A 
ATOM     35  C   UNL A   1      43.326  21.525  27.274  1.00  0.00     0.014 A 
ATOM     36  C   UNL A   1      43.477  23.444  25.250  1.00  0.00     0.010 A 
ATOM     37  C   UNL A   1      43.658  22.839  27.589  1.00  0.00     0.010 A 
ATOM     38  C   UNL A   1      43.744  23.810  26.580  1.00  0.00    -0.014 A 
BRANCH  38  39
ATOM     39  C   UNL A   1      44.107  25.207  26.932  1.00  0.00     0.031 A 
ATOM     40  C   UNL A   1      45.527  25.683  26.780  1.00  0.00     0.074 A 
ATOM     41  C   UNL A   1      43.174  26.026  27.458  1.00  0.00     0.049 A 
ATOM     42  N   UNL A   1      46.040  26.849  27.075  1.00  0.00    -0.248 NA
ATOM     43  C   UNL A   1      46.502  24.716  26.250  1.00  0.00     0.031 C 
ATOM     44  C   UNL A   1      41.780  25.661  27.723  1.00  0.00     0.029 A 
ATOM     45  N   UNL A   1      43.261  27.328  27.885  1.00  0.00    -0.354 N 
ATOM     46  C   UNL A   1      47.398  26.747  26.796  1.00  0.00     0.074 A 
ATOM     47  C   UNL A   1      47.637  25.393  26.347  1.00  0.00     0.031 C 
ATOM     48  C   UNL A   1      41.142  26.716  28.255  1.00  0.00     0.029 A 
ATOM     49  C   UNL A   1      42.085  27.819  28.403  1.00  0.00     0.049 A 
ATOM     50  H   UNL A   1      44.088  27.859  27.828  1.00  0.00     0.167 HD
ATOM     51  C   UNL A   1      48.356  27.701  26.878  1.00  0.00     0.034 A 
ATOM     52  C   UNL A   1      41.800  29.020  28.943  1.00  0.00     0.034 A 
ATOM     53  C   UNL A   1      48.110  29.055  27.294  1.00  0.00     0.049 A 
ATOM     54  C   UNL A   1      42.879  30.068  29.005  1.00  0.00     0.074 A 
ATOM     55  C   UNL A   1      48.997  30.116  27.338  1.00  0.00     0.029 A 
ATOM     56  N   UNL A   1      46.891  29.535  27.747  1.00  0.00    -0.354 N 
ATOM     57  N   UNL A   1      44.124  29.996  28.599  1.00  0.00    -0.248 NA
ATOM     58  C   UNL A   1      42.504  31.374  29.565  1.00  0.00     0.031 C 
ATOM     59  C   UNL A   1      48.322  31.229  27.848  1.00  0.00     0.029 A 
ATOM     60  C   UNL A   1      47.004  30.873  28.085  1.00  0.00     0.049 A 
ATOM     61  H   UNL A   1      46.066  29.002  27.818  1.00  0.00     0.167 HD
ATOM     62  C   UNL A   1      44.668  31.257  28.819  1.00  0.00     0.074 A 
ATOM     63  C   UNL A   1      43.613  32.077  29.375  1.00  0.00     0.031 C 
ATOM     64  C   UNL A   1      45.932  31.692  28.591  1.00  0.00     0.034 A 
BRANCH  51  65
ATOM     65  C   UNL A   1      49.757  27.325  26.466  1.00  0.00     0.023 A 
ATOM     66  C   UNL A   1      50.620  26.720  27.403  1.00  0.00     0.012 A 
ATOM     67  C   UNL A   1      50.199  27.513  25.142  1.00  0.00     0.148 A 
ATOM     68  C   UNL A   1      51.913  26.343  27.040  1.00  0.00     0.002 A 
ATOM     69  C   UNL A   1      51.472  27.091  24.775  1.00  0.00     0.091 A 
ATOM     70  F   UNL A   1      49.372  28.107  24.270  1.00  0.00    -0.205 F 
ATOM     71  C   UNL A   1      52.334  26.518  25.725  1.00  0.00     0.022 A 
BRANCH  69  72
ATOM     72  S   UNL A   1      52.081  27.197  23.089  1.00  0.00     0.127 S 
ATOM     73  O   UNL A   1      50.896  26.813  22.323  1.00  0.00    -0.237 OA
ATOM     74  O   UNL A   1      52.443  28.612  22.983  1.00  0.00    -0.237 OA
ATOM     75  O   UNL A   1      53.203  26.273  23.007  1.00  0.00    -0.744 OA
ENDBRANCH  69  72
ENDBRANCH  51  65
BRANCH  52  76
ATOM     76  C   UNL A   1      40.417  29.319  29.414  1.00  0.00     0.023 A 
ATOM     77  C   UNL A   1      39.482  29.863  28.512  1.00  0.00     0.012 A 
ATOM     78  C   UNL A   1      40.021  29.053  30.738  1.00  0.00     0.148 A 
ATOM     79  C   UNL A   1      38.186  30.170  28.931  1.00  0.00     0.002 A 
ATOM     80  C   UNL A   1      38.713  29.308  31.133  1.00  0.00     0.091 A 
ATOM     81  F   UNL A   1      40.929  28.544  31.583  1.00  0.00    -0.205 F 
ATOM     82  C   UNL A   1      37.799  29.884  30.236  1.00  0.00     0.022 A 
BRANCH  80  83
ATOM     83  S   UNL A   1      38.089  28.853  32.755  1.00  0.00     0.127 S 
ATOM     84  O   UNL A   1      38.976  29.604  33.639  1.00  0.00    -0.237 OA
ATOM     85  O   UNL A   1      36.713  29.346  32.697  1.00  0.00    -0.237 OA
ATOM     86  O   UNL A   1      38.204  27.402  32.829  1.00  0.00    -0.744 OA
ENDBRANCH  80  83
ENDBRANCH  52  76
BRANCH  64  87
ATOM     87  C   UNL A   1      46.242  33.134  28.897  1.00  0.00     0.023 A 
ATOM     88  C   UNL A   1      46.867  33.480  30.110  1.00  0.00     0.012 A 
ATOM     89  C   UNL A   1      45.977  34.139  27.944  1.00  0.00     0.148 A 
ATOM     90  C   UNL A   1      47.193  34.808  30.386  1.00  0.00     0.002 A 
ATOM     91  C   UNL A   1      46.352  35.451  28.204  1.00  0.00     0.091 A 
ATOM     92  F   UNL A   1      45.366  33.792  26.802  1.00  0.00    -0.205 F 
ATOM     93  C   UNL A   1      46.947  35.790  29.430  1.00  0.00     0.022 A 
BRANCH  91  94
ATOM     94  S   UNL A   1      46.168  36.764  26.992  1.00  0.00     0.127 S 
ATOM     95  O   UNL A   1      46.863  36.201  25.836  1.00  0.00    -0.237 OA
ATOM     96  O   UNL A   1      44.714  36.849  26.847  1.00  0.00    -0.237 OA
ATOM     97  O   UNL A   1      46.787  37.944  27.578  1.00  0.00    -0.744 OA
ENDBRANCH  91  94
ENDBRANCH  64  87
ENDBRANCH  38  39
ENDBRANCH  30  33
ENDBRANCH  28  29
ENDBRANCH  27  28
ENDBRANCH  26  27
ENDBRANCH   1  26
TORSDOF 19
ENDMDL
MODEL 3
REMARK VINA RESULT:     -10.5      3.092      4.671
REMARK SMILES C[C@H](C(=O)NCCCCCCNC(=O)c1ccc(-c2c3nc(c(-c4cccc(S(=O)(=O)[O-])c4F)c4ccc([nH]4)c(-c4cccc(S(=O)(=O)[O-])c4F)c4nc(c(-c5cccc(S(=O)(=O)[O-])c5F)c5ccc2[nH]5)C=C4)C=C3)cc1)[C@H](C)[NH+]1CCN(c2ccccc2Cl)CC1
REMARK SMILES IDX 8 1 7 2 6 3 5 4 3 5 4 6 2 8 1 9 78 10 79 11 80 12 81 13
REMARK SMILES IDX 92 14 82 16 91 17 83 18 84 19 85 20 89 21 86 22 88 23 90 24
REMARK SMILES IDX 87 25 9 26 10 27 11 28 12 29 13 30 14 32 15 33 16 34 77 35
REMARK SMILES IDX 17 36 76 37 18 38 19 39 20 40 70 41 21 42 75 43 69 44 71 45
REMARK SMILES IDX 22 46 74 47 68 48 67 49 23 51 55 52 35 53 54 54 36 55 39 56
REMARK SMILES IDX 53 57 72 58 37 59 38 60 52 62 73 63 40 64 24 65 25 66 33 67
REMARK SMILES IDX 26 68 28 69 34 70 27 71 29 72 30 73 31 74 32 75 56 76 57 77
REMARK SMILES IDX 65 78 58 79 60 80 66 81 59 82 61 83 62 84 63 85 64 86 41 87
REMARK SMILES IDX 42 88 50 89 43 90 45 91 51 92 44 93 46 94 47 95 48 96 49 97
REMARK H PARENT 5 7 80 15 12 31 71 50 39 61
REMARK Flexibility Score: inf
ROOT
ATOM      1  C   UNL A   1      31.783  28.241  25.123  1.00  0.00     0.002 C 
ENDROOT
BRANCH   1   2
ATOM      2  C   UNL A   1      30.806  28.258  23.941  1.00  0.00     0.021 C 
BRANCH   2   3
ATOM      3  C   UNL A   1      29.874  27.055  23.855  1.00  0.00     0.116 C 
BRANCH   3   4
ATOM      4  N   UNL A   1      29.760  26.397  25.136  1.00  0.00    -0.356 N 
ATOM      5  C   UNL A   1      30.144  25.176  25.574  1.00  0.00     0.228 C 
ATOM      6  O   UNL A   1      29.665  24.856  26.667  1.00  0.00    -0.275 OA
ATOM      7  H   UNL A   1      29.318  26.944  25.826  1.00  0.00     0.163 HD
BRANCH   5   8
ATOM      8  C   UNL A   1      31.000  24.202  24.757  1.00  0.00     0.133 C 
ATOM      9  C   UNL A   1      30.599  23.933  23.302  1.00  0.00     0.024 C 
BRANCH   8  10
ATOM     10  C   UNL A   1      32.544  24.508  24.884  1.00  0.00     0.193 C 
ATOM     11  C   UNL A   1      33.071  25.179  23.593  1.00  0.00     0.076 C 
BRANCH  10  12
ATOM     12  N   UNL A   1      33.509  23.572  25.509  1.00  0.00    -0.329 N 
ATOM     13  C   UNL A   1      33.023  22.516  26.412  1.00  0.00     0.284 C 
ATOM     14  C   UNL A   1      34.596  23.008  24.682  1.00  0.00     0.284 C 
ATOM     15  H   UNL A   1      33.899  24.312  26.091  1.00  0.00     0.348 HD
ATOM     16  C   UNL A   1      32.593  21.196  25.729  1.00  0.00     0.178 C 
ATOM     17  C   UNL A   1      34.241  21.724  23.900  1.00  0.00     0.178 C 
ATOM     18  N   UNL A   1      33.621  20.745  24.794  1.00  0.00    -0.359 N 
BRANCH  18  19
ATOM     19  C   UNL A   1      33.715  19.396  24.511  1.00  0.00     0.056 A 
ATOM     20  C   UNL A   1      32.573  18.647  24.190  1.00  0.00     0.027 A 
ATOM     21  C   UNL A   1      34.947  18.718  24.601  1.00  0.00     0.064 A 
ATOM     22  C   UNL A   1      32.650  17.264  24.000  1.00  0.00     0.002 A 
ATOM     23  C   UNL A   1      35.024  17.336  24.419  1.00  0.00     0.023 A 
ATOM     24  Cl  UNL A   1      36.409  19.564  24.994  1.00  0.00    -0.082 Cl
ATOM     25  C   UNL A   1      33.872  16.608  24.127  1.00  0.00     0.002 A 
ENDBRANCH  18  19
ENDBRANCH  10  12
ENDBRANCH   8  10
ENDBRANCH   5   8
ENDBRANCH   3   4
ENDBRANCH   2   3
ENDBRANCH   1   2
BRANCH   1  26
ATOM     26  C   UNL A   1      33.226  28.629  24.794  1.00  0.00     0.002 C 
BRANCH  26  27
ATOM     27  C   UNL A   1      34.164  28.751  25.996  1.00  0.00     0.021 C 
BRANCH  27  28
ATOM     28  C   UNL A   1      33.488  29.113  27.314  1.00  0.00     0.116 C 
BRANCH  28  29
ATOM     29  N   UNL A   1      33.542  30.536  27.603  1.00  0.00    -0.352 N 
ATOM     30  C   UNL A   1      34.526  31.239  28.256  1.00  0.00     0.251 C 
ATOM     31  H   UNL A   1      32.775  31.066  27.290  1.00  0.00     0.163 HD
ATOM     32  O   UNL A   1      34.356  32.422  28.537  1.00  0.00    -0.269 OA
BRANCH  30  33
ATOM     33  C   UNL A   1      35.775  30.550  28.642  1.00  0.00     0.039 A 
ATOM     34  C   UNL A   1      36.934  30.795  27.904  1.00  0.00     0.014 A 
ATOM     35  C   UNL A   1      35.807  29.693  29.746  1.00  0.00     0.014 A 
ATOM     36  C   UNL A   1      38.142  30.220  28.307  1.00  0.00     0.010 A 
ATOM     37  C   UNL A   1      37.025  29.185  30.191  1.00  0.00     0.010 A 
ATOM     38  C   UNL A   1      38.203  29.438  29.473  1.00  0.00    -0.014 A 
BRANCH  38  39
ATOM     39  C   UNL A   1      39.493  28.882  29.956  1.00  0.00     0.031 A 
ATOM     40  C   UNL A   1      40.174  29.481  31.158  1.00  0.00     0.074 A 
ATOM     41  C   UNL A   1      40.088  27.885  29.271  1.00  0.00     0.049 A 
ATOM     42  N   UNL A   1      41.320  29.159  31.700  1.00  0.00    -0.248 NA
ATOM     43  C   UNL A   1      39.491  30.603  31.822  1.00  0.00     0.031 C 
ATOM     44  C   UNL A   1      39.565  27.268  28.049  1.00  0.00     0.029 A 
ATOM     45  N   UNL A   1      41.274  27.229  29.490  1.00  0.00    -0.354 N 
ATOM     46  C   UNL A   1      41.509  30.054  32.746  1.00  0.00     0.074 A 
ATOM     47  C   UNL A   1      40.380  30.958  32.738  1.00  0.00     0.031 C 
ATOM     48  C   UNL A   1      40.419  26.317  27.636  1.00  0.00     0.029 A 
ATOM     49  C   UNL A   1      41.564  26.280  28.537  1.00  0.00     0.049 A 
ATOM     50  H   UNL A   1      41.862  27.421  30.256  1.00  0.00     0.167 HD
ATOM     51  C   UNL A   1      42.516  30.103  33.650  1.00  0.00     0.034 A 
ATOM     52  C   UNL A   1      42.637  25.475  28.401  1.00  0.00     0.034 A 
ATOM     53  C   UNL A   1      43.621  29.184  33.676  1.00  0.00     0.049 A 
ATOM     54  C   UNL A   1      43.733  25.538  29.431  1.00  0.00     0.074 A 
ATOM     55  C   UNL A   1      44.651  29.101  34.595  1.00  0.00     0.029 A 
ATOM     56  N   UNL A   1      43.847  28.192  32.734  1.00  0.00    -0.354 N 
ATOM     57  N   UNL A   1      43.821  26.294  30.498  1.00  0.00    -0.248 NA
ATOM     58  C   UNL A   1      44.860  24.610  29.258  1.00  0.00     0.031 C 
ATOM     59  C   UNL A   1      45.517  28.080  34.192  1.00  0.00     0.029 A 
ATOM     60  C   UNL A   1      45.006  27.500  33.042  1.00  0.00     0.049 A 
ATOM     61  H   UNL A   1      43.268  28.007  31.959  1.00  0.00     0.167 HD
ATOM     62  C   UNL A   1      44.990  25.907  31.144  1.00  0.00     0.074 A 
ATOM     63  C   UNL A   1      45.566  24.836  30.358  1.00  0.00     0.031 C 
ATOM     64  C   UNL A   1      45.542  26.402  32.279  1.00  0.00     0.034 A 
BRANCH  51  65
ATOM     65  C   UNL A   1      42.447  31.163  34.720  1.00  0.00     0.023 A 
ATOM     66  C   UNL A   1      41.848  30.862  35.961  1.00  0.00     0.012 A 
ATOM     67  C   UNL A   1      43.024  32.433  34.523  1.00  0.00     0.148 A 
ATOM     68  C   UNL A   1      41.791  31.819  36.975  1.00  0.00     0.002 A 
ATOM     69  C   UNL A   1      43.006  33.365  35.554  1.00  0.00     0.091 A 
ATOM     70  F   UNL A   1      43.572  32.708  33.331  1.00  0.00    -0.205 F 
ATOM     71  C   UNL A   1      42.379  33.064  36.775  1.00  0.00     0.022 A 
BRANCH  69  72
ATOM     72  S   UNL A   1      43.806  34.968  35.428  1.00  0.00     0.127 S 
ATOM     73  O   UNL A   1      43.154  35.530  34.246  1.00  0.00    -0.237 OA
ATOM     74  O   UNL A   1      43.425  35.600  36.692  1.00  0.00    -0.237 OA
ATOM     75  O   UNL A   1      45.230  34.698  35.286  1.00  0.00    -0.744 OA
ENDBRANCH  69  72
ENDBRANCH  51  65
BRANCH  52  76
ATOM     76  C   UNL A   1      42.700  24.497  27.277  1.00  0.00     0.023 A 
ATOM     77  C   UNL A   1      43.344  24.861  26.079  1.00  0.00     0.012 A 
ATOM     78  C   UNL A   1      42.144  23.209  27.396  1.00  0.00     0.148 A 
ATOM     79  C   UNL A   1      43.401  23.972  25.004  1.00  0.00     0.002 A 
ATOM     80  C   UNL A   1      42.254  22.309  26.342  1.00  0.00     0.091 A 
ATOM     81  F   UNL A   1      41.528  22.886  28.542  1.00  0.00    -0.205 F 
ATOM     82  C   UNL A   1      42.865  22.695  25.139  1.00  0.00     0.022 A 
BRANCH  80  83
ATOM     83  S   UNL A   1      41.709  20.602  26.471  1.00  0.00     0.127 S 
ATOM     84  O   UNL A   1      40.273  20.728  26.241  1.00  0.00    -0.237 OA
ATOM     85  O   UNL A   1      42.456  19.965  25.386  1.00  0.00    -0.237 OA
ATOM     86  O   UNL A   1      42.099  20.165  27.806  1.00  0.00    -0.744 OA
ENDBRANCH  80  83
ENDBRANCH  52  76
BRANCH  64  87
ATOM     87  C   UNL A   1      46.815  25.765  32.774  1.00  0.00     0.023 A 
ATOM     88  C   UNL A   1      48.064  26.275  32.371  1.00  0.00     0.012 A 
ATOM     89  C   UNL A   1      46.768  24.703  33.700  1.00  0.00     0.148 A 
ATOM     90  C   UNL A   1      49.246  25.716  32.853  1.00  0.00     0.002 A 
ATOM     91  C   UNL A   1      47.949  24.187  34.217  1.00  0.00     0.091 A 
ATOM     92  F   UNL A   1      45.569  24.221  34.059  1.00  0.00    -0.205 F 
ATOM     93  C   UNL A   1      49.190  24.682  33.785  1.00  0.00     0.022 A 
BRANCH  91  94
ATOM     94  S   UNL A   1      47.971  22.925  35.495  1.00  0.00     0.127 S 
ATOM     95  O   UNL A   1      47.293  21.815  34.828  1.00  0.00    -0.237 OA
ATOM     96  O   UNL A   1      49.405  22.725  35.707  1.00  0.00    -0.237 OA
ATOM     97  O   UNL A   1      47.265  23.492  36.635  1.00  0.00    -0.744 OA
ENDBRANCH  91  94
ENDBRANCH  64  87
ENDBRANCH  38  39
ENDBRANCH  30  33
ENDBRANCH  28  29
ENDBRANCH  27  28
ENDBRANCH  26  27
ENDBRANCH   1  26
TORSDOF 19
ENDMDL
