MODEL 1
REMARK VINA RESULT:     -12.4      0.000      0.000
REMARK SMILES O=C(NCCCCCCNC(=O)c1cc(-c2ccccc2)ccc1F)c1ccc(-c2c3nc(c(-c4cccc(S(=O)(=O)[O-])c4F)c4ccc([nH]4)c(-c4cccc(S(=O)(=O)[O-])c4F)c4nc(c(-c5cccc(S(=O)(=O)[O-])c5F)c5ccc2[nH]5)C=C4)C=C3)cc1
REMARK SMILES IDX 5 1 4 2 3 3 1 4 2 5 26 7 27 8 88 9 28 10 87 11 29 12 30 13
REMARK SMILES IDX 31 14 81 15 32 16 86 17 80 18 82 19 33 20 85 21 79 22 78 23
REMARK SMILES IDX 34 25 66 26 46 27 65 28 47 29 50 30 64 31 83 32 48 33 49 34
REMARK SMILES IDX 63 36 84 37 51 38 35 39 36 40 44 41 37 42 39 43 45 44 38 45
REMARK SMILES IDX 40 46 41 47 42 48 43 49 67 50 68 51 76 52 69 53 71 54 77 55
REMARK SMILES IDX 70 56 72 57 73 58 74 59 75 60 52 61 53 62 61 63 54 64 56 65
REMARK SMILES IDX 62 66 55 67 57 68 58 69 59 70 60 71 6 72 7 73 8 74 9 75
REMARK SMILES IDX 10 76 11 77 12 79 13 80 14 81 24 82 15 83 23 84 25 85 22 86
REMARK SMILES IDX 16 87 17 88 21 89 18 90 20 91 19 92
REMARK H PARENT 3 6 82 24 50 35 10 78
REMARK Flexibility Score: inf
ROOT
ATOM      1  C   UNL A   1      31.548  31.891  26.865  1.00  0.00     0.021 C 
ENDROOT
BRANCH   1   2
ATOM      2  C   UNL A   1      32.770  32.557  27.482  1.00  0.00     0.116 C 
BRANCH   2   3
ATOM      3  N   UNL A   1      32.552  33.968  27.744  1.00  0.00    -0.352 N 
ATOM      4  O   UNL A   1      32.714  35.892  28.904  1.00  0.00    -0.269 OA
ATOM      5  C   UNL A   1      33.153  34.766  28.685  1.00  0.00     0.251 C 
ATOM      6  H   UNL A   1      31.884  34.411  27.171  1.00  0.00     0.163 HD
BRANCH   5   7
ATOM      7  C   UNL A   1      34.316  34.252  29.440  1.00  0.00     0.039 A 
ATOM      8  C   UNL A   1      34.140  33.636  30.683  1.00  0.00     0.014 A 
ATOM      9  C   UNL A   1      35.593  34.366  28.885  1.00  0.00     0.014 A 
ATOM     10  C   UNL A   1      35.247  33.221  31.413  1.00  0.00     0.010 A 
ATOM     11  C   UNL A   1      36.698  33.879  29.585  1.00  0.00     0.010 A 
ATOM     12  C   UNL A   1      36.532  33.308  30.857  1.00  0.00    -0.014 A 
BRANCH  12  13
ATOM     13  C   UNL A   1      37.668  32.650  31.545  1.00  0.00     0.031 A 
ATOM     14  C   UNL A   1      38.140  33.097  32.896  1.00  0.00     0.074 A 
ATOM     15  C   UNL A   1      38.288  31.639  30.906  1.00  0.00     0.049 A 
ATOM     16  N   UNL A   1      39.119  32.619  33.619  1.00  0.00    -0.248 NA
ATOM     17  C   UNL A   1      37.427  34.224  33.516  1.00  0.00     0.031 C 
ATOM     18  C   UNL A   1      37.926  31.149  29.573  1.00  0.00     0.029 A 
ATOM     19  N   UNL A   1      39.340  30.845  31.277  1.00  0.00    -0.354 N 
ATOM     20  C   UNL A   1      39.161  33.398  34.769  1.00  0.00     0.074 A 
ATOM     21  C   UNL A   1      38.114  34.390  34.641  1.00  0.00     0.031 C 
ATOM     22  C   UNL A   1      38.718  30.117  29.253  1.00  0.00     0.029 A 
ATOM     23  C   UNL A   1      39.681  29.912  30.329  1.00  0.00     0.049 A 
ATOM     24  H   UNL A   1      39.806  30.935  32.140  1.00  0.00     0.167 HD
ATOM     25  C   UNL A   1      39.989  33.282  35.836  1.00  0.00     0.034 A 
ATOM     26  C   UNL A   1      40.667  28.995  30.314  1.00  0.00     0.034 A 
ATOM     27  C   UNL A   1      41.025  32.286  35.947  1.00  0.00     0.049 A 
ATOM     28  C   UNL A   1      41.570  28.890  31.504  1.00  0.00     0.074 A 
ATOM     29  C   UNL A   1      41.905  32.073  36.993  1.00  0.00     0.029 A 
ATOM     30  N   UNL A   1      41.324  31.338  34.977  1.00  0.00    -0.354 N 
ATOM     31  N   UNL A   1      41.545  29.581  32.617  1.00  0.00    -0.248 NA
ATOM     32  C   UNL A   1      42.619  27.864  31.453  1.00  0.00     0.031 C 
ATOM     33  C   UNL A   1      42.748  31.011  36.648  1.00  0.00     0.029 A 
ATOM     34  C   UNL A   1      42.374  30.539  35.400  1.00  0.00     0.049 A 
ATOM     35  H   UNL A   1      40.859  31.247  34.114  1.00  0.00     0.167 HD
ATOM     36  C   UNL A   1      42.553  29.057  33.415  1.00  0.00     0.074 A 
ATOM     37  C   UNL A   1      43.161  27.979  32.660  1.00  0.00     0.031 C 
ATOM     38  C   UNL A   1      42.942  29.441  34.656  1.00  0.00     0.034 A 
BRANCH  25  39
ATOM     39  C   UNL A   1      39.784  34.232  36.989  1.00  0.00     0.023 A 
ATOM     40  C   UNL A   1      40.105  35.596  36.828  1.00  0.00     0.012 A 
ATOM     41  C   UNL A   1      39.213  33.800  38.202  1.00  0.00     0.148 A 
ATOM     42  C   UNL A   1      39.891  36.506  37.862  1.00  0.00     0.002 A 
ATOM     43  C   UNL A   1      38.961  34.721  39.214  1.00  0.00     0.091 A 
ATOM     44  F   UNL A   1      38.933  32.497  38.350  1.00  0.00    -0.205 F 
ATOM     45  C   UNL A   1      39.309  36.072  39.049  1.00  0.00     0.022 A 
BRANCH  43  46
ATOM     46  S   UNL A   1      38.138  34.270  40.746  1.00  0.00     0.127 S 
ATOM     47  O   UNL A   1      37.849  35.582  41.324  1.00  0.00    -0.237 OA
ATOM     48  O   UNL A   1      36.961  33.544  40.266  1.00  0.00    -0.237 OA
ATOM     49  O   UNL A   1      39.091  33.452  41.483  1.00  0.00    -0.744 OA
ENDBRANCH  43  46
ENDBRANCH  25  39
BRANCH  26  50
ATOM     50  C   UNL A   1      40.764  28.066  29.155  1.00  0.00     0.023 A 
ATOM     51  C   UNL A   1      39.838  27.011  29.044  1.00  0.00     0.012 A 
ATOM     52  C   UNL A   1      41.671  28.302  28.103  1.00  0.00     0.148 A 
ATOM     53  C   UNL A   1      39.812  26.208  27.904  1.00  0.00     0.002 A 
ATOM     54  C   UNL A   1      41.600  27.537  26.946  1.00  0.00     0.091 A 
ATOM     55  F   UNL A   1      42.543  29.312  28.234  1.00  0.00    -0.205 F 
ATOM     56  C   UNL A   1      40.680  26.481  26.850  1.00  0.00     0.022 A 
BRANCH  54  57
ATOM     57  S   UNL A   1      42.563  27.911  25.475  1.00  0.00     0.127 S 
ATOM     58  O   UNL A   1      42.312  26.733  24.648  1.00  0.00    -0.237 OA
ATOM     59  O   UNL A   1      41.925  29.141  25.008  1.00  0.00    -0.237 OA
ATOM     60  O   UNL A   1      43.936  28.075  25.931  1.00  0.00    -0.744 OA
ENDBRANCH  54  57
ENDBRANCH  26  50
BRANCH  38  61
ATOM     61  C   UNL A   1      44.064  28.673  35.301  1.00  0.00     0.023 A 
ATOM     62  C   UNL A   1      45.402  29.017  35.022  1.00  0.00     0.012 A 
ATOM     63  C   UNL A   1      43.791  27.668  36.249  1.00  0.00     0.148 A 
ATOM     64  C   UNL A   1      46.450  28.352  35.658  1.00  0.00     0.002 A 
ATOM     65  C   UNL A   1      44.840  27.044  36.914  1.00  0.00     0.091 A 
ATOM     66  F   UNL A   1      42.512  27.338  36.482  1.00  0.00    -0.205 F 
ATOM     67  C   UNL A   1      46.170  27.376  36.612  1.00  0.00     0.022 A 
BRANCH  65  68
ATOM     68  S   UNL A   1      44.565  25.849  38.227  1.00  0.00     0.127 S 
ATOM     69  O   UNL A   1      43.456  26.458  38.958  1.00  0.00    -0.237 OA
ATOM     70  O   UNL A   1      44.214  24.640  37.480  1.00  0.00    -0.237 OA
ATOM     71  O   UNL A   1      45.824  25.761  38.955  1.00  0.00    -0.744 OA
ENDBRANCH  65  68
ENDBRANCH  38  61
ENDBRANCH  12  13
ENDBRANCH   5   7
ENDBRANCH   2   3
ENDBRANCH   1   2
BRANCH   1  72
ATOM     72  C   UNL A   1      31.845  30.620  26.068  1.00  0.00     0.002 C 
BRANCH  72  73
ATOM     73  C   UNL A   1      32.922  29.709  26.664  1.00  0.00     0.002 C 
BRANCH  73  74
ATOM     74  C   UNL A   1      32.409  28.581  27.564  1.00  0.00     0.021 C 
BRANCH  74  75
ATOM     75  C   UNL A   1      31.804  27.389  26.825  1.00  0.00     0.116 C 
BRANCH  75  76
ATOM     76  N   UNL A   1      32.565  27.044  25.637  1.00  0.00    -0.352 N 
ATOM     77  C   UNL A   1      32.130  26.917  24.345  1.00  0.00     0.254 C 
ATOM     78  H   UNL A   1      33.525  26.879  25.781  1.00  0.00     0.163 HD
ATOM     79  O   UNL A   1      32.884  26.504  23.469  1.00  0.00    -0.269 OA
BRANCH  77  80
ATOM     80  C   UNL A   1      30.732  27.221  24.007  1.00  0.00     0.076 A 
ATOM     81  C   UNL A   1      30.428  28.489  23.497  1.00  0.00     0.025 A 
ATOM     82  C   UNL A   1      29.717  26.293  24.223  1.00  0.00     0.135 A 
ATOM     83  C   UNL A   1      29.107  28.823  23.159  1.00  0.00    -0.017 A 
ATOM     84  C   UNL A   1      28.406  26.596  23.876  1.00  0.00     0.041 A 
ATOM     85  F   UNL A   1      29.981  25.090  24.753  1.00  0.00    -0.206 F 
ATOM     86  C   UNL A   1      28.105  27.850  23.341  1.00  0.00     0.012 A 
BRANCH  83  87
ATOM     87  C   UNL A   1      28.777  30.166  22.660  1.00  0.00    -0.018 A 
ATOM     88  C   UNL A   1      28.344  30.369  21.340  1.00  0.00     0.009 A 
ATOM     89  C   UNL A   1      28.912  31.289  23.493  1.00  0.00     0.009 A 
ATOM     90  C   UNL A   1      28.060  31.654  20.868  1.00  0.00     0.001 A 
ATOM     91  C   UNL A   1      28.629  32.572  23.023  1.00  0.00     0.001 A 
ATOM     92  C   UNL A   1      28.204  32.754  21.710  1.00  0.00     0.000 A 
ENDBRANCH  83  87
ENDBRANCH  77  80
ENDBRANCH  75  76
ENDBRANCH  74  75
ENDBRANCH  73  74
ENDBRANCH  72  73
ENDBRANCH   1  72
TORSDOF 17
ENDMDL
MODEL 2
REMARK VINA RESULT:     -12.4      1.484      1.858
REMARK SMILES O=C(NCCCCCCNC(=O)c1cc(-c2ccccc2)ccc1F)c1ccc(-c2c3nc(c(-c4cccc(S(=O)(=O)[O-])c4F)c4ccc([nH]4)c(-c4cccc(S(=O)(=O)[O-])c4F)c4nc(c(-c5cccc(S(=O)(=O)[O-])c5F)c5ccc2[nH]5)C=C4)C=C3)cc1
REMARK SMILES IDX 5 1 4 2 3 3 1 4 2 5 26 7 27 8 88 9 28 10 87 11 29 12 30 13
REMARK SMILES IDX 31 14 81 15 32 16 86 17 80 18 82 19 33 20 85 21 79 22 78 23
REMARK SMILES IDX 34 25 66 26 46 27 65 28 47 29 50 30 64 31 83 32 48 33 49 34
REMARK SMILES IDX 63 36 84 37 51 38 35 39 36 40 44 41 37 42 39 43 45 44 38 45
REMARK SMILES IDX 40 46 41 47 42 48 43 49 67 50 68 51 76 52 69 53 71 54 77 55
REMARK SMILES IDX 70 56 72 57 73 58 74 59 75 60 52 61 53 62 61 63 54 64 56 65
REMARK SMILES IDX 62 66 55 67 57 68 58 69 59 70 60 71 6 72 7 73 8 74 9 75
REMARK SMILES IDX 10 76 11 77 12 79 13 80 14 81 24 82 15 83 23 84 25 85 22 86
REMARK SMILES IDX 16 87 17 88 21 89 18 90 20 91 19 92
REMARK H PARENT 3 6 82 24 50 35 10 78
REMARK Flexibility Score: inf
ROOT
ATOM      1  C   UNL A   1      31.431  31.562  26.495  1.00  0.00     0.021 C 
ENDROOT
BRANCH   1   2
ATOM      2  C   UNL A   1      32.712  32.241  26.957  1.00  0.00     0.116 C 
BRANCH   2   3
ATOM      3  N   UNL A   1      32.495  33.627  27.329  1.00  0.00    -0.352 N 
ATOM      4  O   UNL A   1      32.650  35.450  28.643  1.00  0.00    -0.269 OA
ATOM      5  C   UNL A   1      33.088  34.344  28.338  1.00  0.00     0.251 C 
ATOM      6  H   UNL A   1      31.836  34.117  26.787  1.00  0.00     0.163 HD
BRANCH   5   7
ATOM      7  C   UNL A   1      34.240  33.766  29.063  1.00  0.00     0.039 A 
ATOM      8  C   UNL A   1      34.046  32.779  30.034  1.00  0.00     0.014 A 
ATOM      9  C   UNL A   1      35.530  34.200  28.747  1.00  0.00     0.014 A 
ATOM     10  C   UNL A   1      35.130  32.295  30.756  1.00  0.00     0.010 A 
ATOM     11  C   UNL A   1      36.627  33.657  29.419  1.00  0.00     0.010 A 
ATOM     12  C   UNL A   1      36.433  32.705  30.432  1.00  0.00    -0.014 A 
BRANCH  12  13
ATOM     13  C   UNL A   1      37.588  32.008  31.047  1.00  0.00     0.031 A 
ATOM     14  C   UNL A   1      38.014  32.280  32.458  1.00  0.00     0.074 A 
ATOM     15  C   UNL A   1      38.267  31.128  30.286  1.00  0.00     0.049 A 
ATOM     16  N   UNL A   1      39.003  31.750  33.130  1.00  0.00    -0.248 NA
ATOM     17  C   UNL A   1      37.237  33.274  33.215  1.00  0.00     0.031 C 
ATOM     18  C   UNL A   1      37.952  30.816  28.889  1.00  0.00     0.029 A 
ATOM     19  N   UNL A   1      39.350  30.338  30.567  1.00  0.00    -0.354 N 
ATOM     20  C   UNL A   1      38.988  32.358  34.379  1.00  0.00     0.074 A 
ATOM     21  C   UNL A   1      37.896  33.309  34.367  1.00  0.00     0.031 C 
ATOM     22  C   UNL A   1      38.798  29.878  28.447  1.00  0.00     0.029 A 
ATOM     23  C   UNL A   1      39.752  29.566  29.505  1.00  0.00     0.049 A 
ATOM     24  H   UNL A   1      39.797  30.326  31.444  1.00  0.00     0.167 HD
ATOM     25  C   UNL A   1      39.803  32.130  35.438  1.00  0.00     0.034 A 
ATOM     26  C   UNL A   1      40.781  28.707  29.384  1.00  0.00     0.034 A 
ATOM     27  C   UNL A   1      40.883  31.176  35.432  1.00  0.00     0.049 A 
ATOM     28  C   UNL A   1      41.669  28.475  30.568  1.00  0.00     0.074 A 
ATOM     29  C   UNL A   1      41.755  30.857  36.457  1.00  0.00     0.029 A 
ATOM     30  N   UNL A   1      41.245  30.391  34.345  1.00  0.00    -0.354 N 
ATOM     31  N   UNL A   1      41.591  28.999  31.767  1.00  0.00    -0.248 NA
ATOM     32  C   UNL A   1      42.767  27.516  30.397  1.00  0.00     0.031 C 
ATOM     33  C   UNL A   1      42.655  29.895  35.986  1.00  0.00     0.029 A 
ATOM     34  C   UNL A   1      42.325  29.589  34.676  1.00  0.00     0.049 A 
ATOM     35  H   UNL A   1      40.799  30.402  33.467  1.00  0.00     0.167 HD
ATOM     36  C   UNL A   1      42.609  28.413  32.506  1.00  0.00     0.074 A 
ATOM     37  C   UNL A   1      43.282  27.483  31.620  1.00  0.00     0.031 C 
ATOM     38  C   UNL A   1      42.958  28.635  33.797  1.00  0.00     0.034 A 
BRANCH  25  39
ATOM     39  C   UNL A   1      39.533  32.896  36.709  1.00  0.00     0.023 A 
ATOM     40  C   UNL A   1      40.157  34.144  36.910  1.00  0.00     0.012 A 
ATOM     41  C   UNL A   1      38.614  32.425  37.667  1.00  0.00     0.148 A 
ATOM     42  C   UNL A   1      39.898  34.894  38.057  1.00  0.00     0.002 A 
ATOM     43  C   UNL A   1      38.326  33.199  38.787  1.00  0.00     0.091 A 
ATOM     44  F   UNL A   1      38.044  31.227  37.474  1.00  0.00    -0.205 F 
ATOM     45  C   UNL A   1      38.976  34.428  38.989  1.00  0.00     0.022 A 
BRANCH  43  46
ATOM     46  S   UNL A   1      37.090  32.719  40.000  1.00  0.00     0.127 S 
ATOM     47  O   UNL A   1      37.173  33.820  40.958  1.00  0.00    -0.237 OA
ATOM     48  O   UNL A   1      35.863  32.698  39.202  1.00  0.00    -0.237 OA
ATOM     49  O   UNL A   1      37.507  31.416  40.498  1.00  0.00    -0.744 OA
ENDBRANCH  43  46
ENDBRANCH  25  39
BRANCH  26  50
ATOM     50  C   UNL A   1      40.943  27.957  28.108  1.00  0.00     0.023 A 
ATOM     51  C   UNL A   1      41.535  28.602  27.005  1.00  0.00     0.012 A 
ATOM     52  C   UNL A   1      40.644  26.582  28.025  1.00  0.00     0.148 A 
ATOM     53  C   UNL A   1      41.829  27.891  25.842  1.00  0.00     0.002 A 
ATOM     54  C   UNL A   1      40.994  25.868  26.886  1.00  0.00     0.091 A 
ATOM     55  F   UNL A   1      40.080  25.992  29.088  1.00  0.00    -0.205 F 
ATOM     56  C   UNL A   1      41.575  26.523  25.789  1.00  0.00     0.022 A 
BRANCH  54  57
ATOM     57  S   UNL A   1      40.855  24.079  26.783  1.00  0.00     0.127 S 
ATOM     58  O   UNL A   1      39.437  23.908  26.472  1.00  0.00    -0.237 OA
ATOM     59  O   UNL A   1      41.769  23.773  25.683  1.00  0.00    -0.237 OA
ATOM     60  O   UNL A   1      41.277  23.572  28.082  1.00  0.00    -0.744 OA
ENDBRANCH  54  57
ENDBRANCH  26  50
BRANCH  38  61
ATOM     61  C   UNL A   1      44.106  27.835  34.354  1.00  0.00     0.023 A 
ATOM     62  C   UNL A   1      45.415  28.354  34.300  1.00  0.00     0.012 A 
ATOM     63  C   UNL A   1      43.873  26.609  35.006  1.00  0.00     0.148 A 
ATOM     64  C   UNL A   1      46.478  27.650  34.864  1.00  0.00     0.002 A 
ATOM     65  C   UNL A   1      44.931  25.937  35.609  1.00  0.00     0.091 A 
ATOM     66  F   UNL A   1      42.624  26.120  35.025  1.00  0.00    -0.205 F 
ATOM     67  C   UNL A   1      46.235  26.450  35.529  1.00  0.00     0.022 A 
BRANCH  65  68
ATOM     68  S   UNL A   1      44.689  24.439  36.570  1.00  0.00     0.127 S 
ATOM     69  O   UNL A   1      46.067  24.049  36.866  1.00  0.00    -0.237 OA
ATOM     70  O   UNL A   1      43.932  24.927  37.724  1.00  0.00    -0.237 OA
ATOM     71  O   UNL A   1      43.950  23.527  35.708  1.00  0.00    -0.744 OA
ENDBRANCH  65  68
ENDBRANCH  38  61
ENDBRANCH  12  13
ENDBRANCH   5   7
ENDBRANCH   2   3
ENDBRANCH   1   2
BRANCH   1  72
ATOM     72  C   UNL A   1      31.617  30.147  25.944  1.00  0.00     0.002 C 
BRANCH  72  73
ATOM     73  C   UNL A   1      33.052  29.614  25.978  1.00  0.00     0.002 C 
BRANCH  73  74
ATOM     74  C   UNL A   1      33.249  28.295  26.730  1.00  0.00     0.021 C 
BRANCH  74  75
ATOM     75  C   UNL A   1      32.542  27.089  26.114  1.00  0.00     0.116 C 
BRANCH  75  76
ATOM     76  N   UNL A   1      33.056  26.775  24.793  1.00  0.00    -0.352 N 
ATOM     77  C   UNL A   1      32.385  26.729  23.599  1.00  0.00     0.254 C 
ATOM     78  H   UNL A   1      34.018  26.567  24.749  1.00  0.00     0.163 HD
ATOM     79  O   UNL A   1      32.947  26.331  22.582  1.00  0.00    -0.269 OA
BRANCH  77  80
ATOM     80  C   UNL A   1      30.965  27.101  23.539  1.00  0.00     0.076 A 
ATOM     81  C   UNL A   1      30.630  28.391  23.113  1.00  0.00     0.025 A 
ATOM     82  C   UNL A   1      29.967  26.214  23.933  1.00  0.00     0.135 A 
ATOM     83  C   UNL A   1      29.285  28.790  23.039  1.00  0.00    -0.017 A 
ATOM     84  C   UNL A   1      28.630  26.581  23.848  1.00  0.00     0.041 A 
ATOM     85  F   UNL A   1      30.270  24.989  24.387  1.00  0.00    -0.206 F 
ATOM     86  C   UNL A   1      28.292  27.859  23.397  1.00  0.00     0.012 A 
BRANCH  83  87
ATOM     87  C   UNL A   1      28.930  30.157  22.629  1.00  0.00    -0.018 A 
ATOM     88  C   UNL A   1      28.961  31.225  23.539  1.00  0.00     0.009 A 
ATOM     89  C   UNL A   1      28.525  30.422  21.310  1.00  0.00     0.009 A 
ATOM     90  C   UNL A   1      28.594  32.515  23.144  1.00  0.00     0.001 A 
ATOM     91  C   UNL A   1      28.158  31.710  20.915  1.00  0.00     0.001 A 
ATOM     92  C   UNL A   1      28.191  32.755  21.833  1.00  0.00     0.000 A 
ENDBRANCH  83  87
ENDBRANCH  77  80
ENDBRANCH  75  76
ENDBRANCH  74  75
ENDBRANCH  73  74
ENDBRANCH  72  73
ENDBRANCH   1  72
TORSDOF 17
ENDMDL
MODEL 3
REMARK VINA RESULT:     -12.1      6.711     11.584
REMARK SMILES O=C(NCCCCCCNC(=O)c1cc(-c2ccccc2)ccc1F)c1ccc(-c2c3nc(c(-c4cccc(S(=O)(=O)[O-])c4F)c4ccc([nH]4)c(-c4cccc(S(=O)(=O)[O-])c4F)c4nc(c(-c5cccc(S(=O)(=O)[O-])c5F)c5ccc2[nH]5)C=C4)C=C3)cc1
REMARK SMILES IDX 5 1 4 2 3 3 1 4 2 5 26 7 27 8 88 9 28 10 87 11 29 12 30 13
REMARK SMILES IDX 31 14 81 15 32 16 86 17 80 18 82 19 33 20 85 21 79 22 78 23
REMARK SMILES IDX 34 25 66 26 46 27 65 28 47 29 50 30 64 31 83 32 48 33 49 34
REMARK SMILES IDX 63 36 84 37 51 38 35 39 36 40 44 41 37 42 39 43 45 44 38 45
REMARK SMILES IDX 40 46 41 47 42 48 43 49 67 50 68 51 76 52 69 53 71 54 77 55
REMARK SMILES IDX 70 56 72 57 73 58 74 59 75 60 52 61 53 62 61 63 54 64 56 65
REMARK SMILES IDX 62 66 55 67 57 68 58 69 59 70 60 71 6 72 7 73 8 74 9 75
REMARK SMILES IDX 10 76 11 77 12 79 13 80 14 81 24 82 15 83 23 84 25 85 22 86
REMARK SMILES IDX 16 87 17 88 21 89 18 90 20 91 19 92
REMARK H PARENT 3 6 82 24 50 35 10 78
REMARK Flexibility Score: inf
ROOT
ATOM      1  C   UNL A   1      36.299  20.860  25.034  1.00  0.00     0.021 C 
ENDROOT
BRANCH   1   2
ATOM      2  C   UNL A   1      37.792  21.030  24.792  1.00  0.00     0.116 C 
BRANCH   2   3
ATOM      3  N   UNL A   1      38.573  19.987  25.433  1.00  0.00    -0.352 N 
ATOM      4  O   UNL A   1      40.364  19.114  26.484  1.00  0.00    -0.269 OA
ATOM      5  C   UNL A   1      39.719  20.114  26.177  1.00  0.00     0.251 C 
ATOM      6  H   UNL A   1      38.238  19.069  25.317  1.00  0.00     0.163 HD
BRANCH   5   7
ATOM      7  C   UNL A   1      40.177  21.459  26.587  1.00  0.00     0.039 A 
ATOM      8  C   UNL A   1      41.139  21.606  27.592  1.00  0.00     0.014 A 
ATOM      9  C   UNL A   1      39.656  22.583  25.941  1.00  0.00     0.014 A 
ATOM     10  C   UNL A   1      41.508  22.877  28.016  1.00  0.00     0.010 A 
ATOM     11  C   UNL A   1      40.085  23.857  26.315  1.00  0.00     0.010 A 
ATOM     12  C   UNL A   1      41.010  24.013  27.359  1.00  0.00    -0.014 A 
BRANCH  12  13
ATOM     13  C   UNL A   1      41.590  25.342  27.665  1.00  0.00     0.031 A 
ATOM     14  C   UNL A   1      42.992  25.702  27.275  1.00  0.00     0.074 A 
ATOM     15  C   UNL A   1      40.820  26.222  28.334  1.00  0.00     0.049 A 
ATOM     16  N   UNL A   1      43.635  26.823  27.477  1.00  0.00    -0.248 NA
ATOM     17  C   UNL A   1      43.776  24.676  26.571  1.00  0.00     0.031 C 
ATOM     18  C   UNL A   1      39.452  25.957  28.788  1.00  0.00     0.029 A 
ATOM     19  N   UNL A   1      41.065  27.505  28.747  1.00  0.00    -0.354 N 
ATOM     20  C   UNL A   1      44.906  26.636  26.950  1.00  0.00     0.074 A 
ATOM     21  C   UNL A   1      44.948  25.285  26.429  1.00  0.00     0.031 C 
ATOM     22  C   UNL A   1      38.967  27.053  29.385  1.00  0.00     0.029 A 
ATOM     23  C   UNL A   1      40.006  28.076  29.410  1.00  0.00     0.049 A 
ATOM     24  H   UNL A   1      41.916  27.972  28.584  1.00  0.00     0.167 HD
ATOM     25  C   UNL A   1      45.934  27.517  26.896  1.00  0.00     0.034 A 
ATOM     26  C   UNL A   1      39.881  29.285  29.988  1.00  0.00     0.034 A 
ATOM     27  C   UNL A   1      45.872  28.860  27.417  1.00  0.00     0.049 A 
ATOM     28  C   UNL A   1      41.033  30.240  29.917  1.00  0.00     0.074 A 
ATOM     29  C   UNL A   1      46.852  29.837  27.397  1.00  0.00     0.029 A 
ATOM     30  N   UNL A   1      44.773  29.414  28.060  1.00  0.00    -0.354 N 
ATOM     31  N   UNL A   1      42.201  30.075  29.344  1.00  0.00    -0.248 NA
ATOM     32  C   UNL A   1      40.846  31.554  30.543  1.00  0.00     0.031 C 
ATOM     33  C   UNL A   1      46.353  30.973  28.042  1.00  0.00     0.029 A 
ATOM     34  C   UNL A   1      45.049  30.718  28.438  1.00  0.00     0.049 A 
ATOM     35  H   UNL A   1      43.921  28.948  28.222  1.00  0.00     0.167 HD
ATOM     36  C   UNL A   1      42.880  31.274  29.512  1.00  0.00     0.074 A 
ATOM     37  C   UNL A   1      41.985  32.161  30.230  1.00  0.00     0.031 C 
ATOM     38  C   UNL A   1      44.134  31.604  29.114  1.00  0.00     0.034 A 
BRANCH  25  39
ATOM     39  C   UNL A   1      47.204  27.074  26.212  1.00  0.00     0.023 A 
ATOM     40  C   UNL A   1      47.405  27.391  24.853  1.00  0.00     0.012 A 
ATOM     41  C   UNL A   1      48.225  26.412  26.922  1.00  0.00     0.148 A 
ATOM     42  C   UNL A   1      48.585  27.028  24.204  1.00  0.00     0.002 A 
ATOM     43  C   UNL A   1      49.417  26.093  26.280  1.00  0.00     0.091 A 
ATOM     44  F   UNL A   1      48.012  26.098  28.208  1.00  0.00    -0.205 F 
ATOM     45  C   UNL A   1      49.594  26.391  24.918  1.00  0.00     0.022 A 
BRANCH  43  46
ATOM     46  S   UNL A   1      50.807  25.346  27.140  1.00  0.00     0.127 S 
ATOM     47  O   UNL A   1      51.232  26.435  28.017  1.00  0.00    -0.237 OA
ATOM     48  O   UNL A   1      50.176  24.219  27.831  1.00  0.00    -0.237 OA
ATOM     49  O   UNL A   1      51.755  24.962  26.104  1.00  0.00    -0.744 OA
ENDBRANCH  43  46
ENDBRANCH  25  39
BRANCH  26  50
ATOM     50  C   UNL A   1      38.575  29.658  30.597  1.00  0.00     0.023 A 
ATOM     51  C   UNL A   1      38.318  29.303  31.935  1.00  0.00     0.012 A 
ATOM     52  C   UNL A   1      37.653  30.472  29.909  1.00  0.00     0.148 A 
ATOM     53  C   UNL A   1      37.166  29.755  32.579  1.00  0.00     0.002 A 
ATOM     54  C   UNL A   1      36.539  30.967  30.574  1.00  0.00     0.091 A 
ATOM     55  F   UNL A   1      37.921  30.794  28.635  1.00  0.00    -0.205 F 
ATOM     56  C   UNL A   1      36.287  30.600  31.906  1.00  0.00     0.022 A 
BRANCH  54  57
ATOM     57  S   UNL A   1      35.436  32.185  29.846  1.00  0.00     0.127 S 
ATOM     58  O   UNL A   1      36.360  33.273  29.532  1.00  0.00    -0.237 OA
ATOM     59  O   UNL A   1      34.919  31.461  28.685  1.00  0.00    -0.237 OA
ATOM     60  O   UNL A   1      34.443  32.482  30.868  1.00  0.00    -0.744 OA
ENDBRANCH  54  57
ENDBRANCH  26  50
BRANCH  38  61
ATOM     61  C   UNL A   1      44.615  32.998  29.416  1.00  0.00     0.023 A 
ATOM     62  C   UNL A   1      45.423  33.233  30.546  1.00  0.00     0.012 A 
ATOM     63  C   UNL A   1      44.334  34.059  28.533  1.00  0.00     0.148 A 
ATOM     64  C   UNL A   1      45.923  34.509  30.805  1.00  0.00     0.002 A 
ATOM     65  C   UNL A   1      44.877  35.316  28.771  1.00  0.00     0.091 A 
ATOM     66  F   UNL A   1      43.542  33.820  27.477  1.00  0.00    -0.205 F 
ATOM     67  C   UNL A   1      45.661  35.546  29.912  1.00  0.00     0.022 A 
BRANCH  65  68
ATOM     68  S   UNL A   1      44.673  36.681  27.620  1.00  0.00     0.127 S 
ATOM     69  O   UNL A   1      43.967  37.662  28.443  1.00  0.00    -0.237 OA
ATOM     70  O   UNL A   1      46.058  37.031  27.304  1.00  0.00    -0.237 OA
ATOM     71  O   UNL A   1      43.917  36.144  26.496  1.00  0.00    -0.744 OA
ENDBRANCH  65  68
ENDBRANCH  38  61
ENDBRANCH  12  13
ENDBRANCH   5   7
ENDBRANCH   2   3
ENDBRANCH   1   2
BRANCH   1  72
ATOM     72  C   UNL A   1      35.452  22.090  24.704  1.00  0.00     0.002 C 
BRANCH  72  73
ATOM     73  C   UNL A   1      35.682  23.306  25.606  1.00  0.00     0.002 C 
BRANCH  73  74
ATOM     74  C   UNL A   1      34.436  23.850  26.312  1.00  0.00     0.021 C 
BRANCH  74  75
ATOM     75  C   UNL A   1      33.768  22.880  27.282  1.00  0.00     0.116 C 
BRANCH  75  76
ATOM     76  N   UNL A   1      32.333  23.092  27.361  1.00  0.00    -0.352 N 
ATOM     77  C   UNL A   1      31.363  22.754  26.455  1.00  0.00     0.254 C 
ATOM     78  H   UNL A   1      32.015  23.540  28.179  1.00  0.00     0.163 HD
ATOM     79  O   UNL A   1      30.200  23.109  26.623  1.00  0.00    -0.269 OA
BRANCH  77  80
ATOM     80  C   UNL A   1      31.721  22.009  25.239  1.00  0.00     0.076 A 
ATOM     81  C   UNL A   1      32.102  20.668  25.365  1.00  0.00     0.025 A 
ATOM     82  C   UNL A   1      31.725  22.622  23.990  1.00  0.00     0.135 A 
ATOM     83  C   UNL A   1      32.450  19.918  24.230  1.00  0.00    -0.017 A 
ATOM     84  C   UNL A   1      32.046  21.893  22.852  1.00  0.00     0.041 A 
ATOM     85  F   UNL A   1      31.407  23.919  23.854  1.00  0.00    -0.206 F 
ATOM     86  C   UNL A   1      32.400  20.547  22.972  1.00  0.00     0.012 A 
BRANCH  83  87
ATOM     87  C   UNL A   1      32.888  18.520  24.361  1.00  0.00    -0.018 A 
ATOM     88  C   UNL A   1      33.579  17.870  23.327  1.00  0.00     0.009 A 
ATOM     89  C   UNL A   1      32.600  17.789  25.526  1.00  0.00     0.009 A 
ATOM     90  C   UNL A   1      33.966  16.532  23.452  1.00  0.00     0.001 A 
ATOM     91  C   UNL A   1      32.985  16.454  25.652  1.00  0.00     0.001 A 
ATOM     92  C   UNL A   1      33.667  15.825  24.614  1.00  0.00     0.000 A 
ENDBRANCH  83  87
ENDBRANCH  77  80
ENDBRANCH  75  76
ENDBRANCH  74  75
ENDBRANCH  73  74
ENDBRANCH  72  73
ENDBRANCH   1  72
TORSDOF 17
ENDMDL
