MODEL 1
REMARK VINA RESULT:     -11.1      0.000      0.000
REMARK SMILES CC1([C@](C)(Nc2cccc(Cl)c2)C(=O)NCCCCCCNC(=O)c2ccc(-c3c4nc(c(-c5cccc(S(=O)(=O)[O-])c5F)c5ccc([nH]5)c(-c5cccc(S(=O)(=O)[O-])c5F)c5nc(c(-c6cccc(S(=O)(=O)[O-])c6F)c6ccc3[nH]6)C=C5)C=C4)cc2)CC1
REMARK SMILES IDX 19 1 18 2 17 3 16 4 15 5 13 6 14 7 3 9 4 10 2 11 1 12 88 13
REMARK SMILES IDX 89 14 5 15 6 17 7 18 12 19 8 20 10 21 9 22 11 23 20 24 21 25
REMARK SMILES IDX 22 26 23 27 24 29 25 30 26 31 87 32 27 33 86 34 28 35 29 36
REMARK SMILES IDX 30 37 80 38 31 39 85 40 79 41 81 42 32 43 84 44 78 45 77 46
REMARK SMILES IDX 33 48 65 49 45 50 64 51 46 52 49 53 63 54 82 55 47 56 48 57
REMARK SMILES IDX 62 59 83 60 50 61 34 62 35 63 43 64 36 65 38 66 44 67 37 68
REMARK SMILES IDX 39 69 40 70 41 71 42 72 66 73 67 74 75 75 68 76 70 77 76 78
REMARK SMILES IDX 69 79 71 80 72 81 73 82 74 83 51 84 52 85 60 86 53 87 55 88
REMARK SMILES IDX 61 89 54 90 56 91 57 92 58 93 59 94
REMARK H PARENT 15 8 5 16 22 28 81 47 49 58
REMARK Flexibility Score: inf
ROOT
ATOM      1  C   UNL A   1      36.563  20.833  25.005  1.00  0.00     0.002 C 
ENDROOT
BRANCH   1   2
ATOM      2  C   UNL A   1      36.544  22.120  24.183  1.00  0.00     0.002 C 
BRANCH   2   3
ATOM      3  C   UNL A   1      36.766  23.373  25.021  1.00  0.00     0.021 C 
BRANCH   3   4
ATOM      4  C   UNL A   1      35.491  24.131  25.374  1.00  0.00     0.116 C 
BRANCH   4   5
ATOM      5  N   UNL A   1      34.689  23.519  26.420  1.00  0.00    -0.354 N 
ATOM      6  C   UNL A   1      33.327  23.347  26.492  1.00  0.00     0.245 C 
ATOM      7  O   UNL A   1      32.879  22.854  27.534  1.00  0.00    -0.272 OA
ATOM      8  H   UNL A   1      35.196  23.177  27.192  1.00  0.00     0.163 HD
BRANCH   6   9
ATOM      9  C   UNL A   1      32.398  23.725  25.278  1.00  0.00     0.119 C 
ATOM     10  C   UNL A   1      30.911  23.833  25.713  1.00  0.00     0.046 C 
BRANCH   9  11
ATOM     11  C   UNL A   1      32.480  22.516  24.251  1.00  0.00    -0.001 C 
ATOM     12  C   UNL A   1      32.491  21.144  24.932  1.00  0.00     0.014 C 
ATOM     13  C   UNL A   1      33.281  22.591  22.950  1.00  0.00     0.010 C 
ATOM     14  C   UNL A   1      31.792  22.549  22.890  1.00  0.00     0.010 C 
ENDBRANCH   9  11
BRANCH   9  15
ATOM     15  N   UNL A   1      32.718  25.064  24.703  1.00  0.00    -0.371 N 
ATOM     16  H   UNL A   1      33.289  25.077  23.900  1.00  0.00     0.161 HD
BRANCH  15  17
ATOM     17  C   UNL A   1      32.291  26.305  25.189  1.00  0.00     0.036 A 
ATOM     18  C   UNL A   1      32.621  26.836  26.449  1.00  0.00     0.026 A 
ATOM     19  C   UNL A   1      31.538  27.148  24.356  1.00  0.00     0.046 A 
ATOM     20  C   UNL A   1      32.364  28.167  26.805  1.00  0.00     0.004 A 
ATOM     21  C   UNL A   1      31.210  28.459  24.739  1.00  0.00     0.043 A 
ATOM     22  C   UNL A   1      31.661  28.988  25.942  1.00  0.00     0.020 A 
ATOM     23  Cl  UNL A   1      30.242  29.441  23.708  1.00  0.00    -0.084 Cl
ENDBRANCH  15  17
ENDBRANCH   9  15
ENDBRANCH   6   9
ENDBRANCH   4   5
ENDBRANCH   3   4
ENDBRANCH   2   3
ENDBRANCH   1   2
BRANCH   1  24
ATOM     24  C   UNL A   1      37.844  20.006  24.857  1.00  0.00     0.021 C 
BRANCH  24  25
ATOM     25  C   UNL A   1      38.970  20.410  25.805  1.00  0.00     0.116 C 
BRANCH  25  26
ATOM     26  N   UNL A   1      39.946  19.343  25.962  1.00  0.00    -0.352 N 
ATOM     27  C   UNL A   1      41.304  19.455  26.116  1.00  0.00     0.251 C 
ATOM     28  H   UNL A   1      39.588  18.426  25.958  1.00  0.00     0.163 HD
ATOM     29  O   UNL A   1      42.031  18.469  26.004  1.00  0.00    -0.269 OA
BRANCH  27  30
ATOM     30  C   UNL A   1      41.880  20.782  26.402  1.00  0.00     0.039 A 
ATOM     31  C   UNL A   1      42.311  21.581  25.343  1.00  0.00     0.014 A 
ATOM     32  C   UNL A   1      41.951  21.246  27.721  1.00  0.00     0.014 A 
ATOM     33  C   UNL A   1      42.772  22.872  25.603  1.00  0.00     0.010 A 
ATOM     34  C   UNL A   1      42.339  22.558  27.968  1.00  0.00     0.010 A 
ATOM     35  C   UNL A   1      42.762  23.382  26.914  1.00  0.00    -0.014 A 
BRANCH  35  36
ATOM     36  C   UNL A   1      43.179  24.779  27.194  1.00  0.00     0.031 A 
ATOM     37  C   UNL A   1      42.227  25.737  27.857  1.00  0.00     0.074 A 
ATOM     38  C   UNL A   1      44.388  25.207  26.781  1.00  0.00     0.049 A 
ATOM     39  N   UNL A   1      42.400  26.998  28.154  1.00  0.00    -0.248 NA
ATOM     40  C   UNL A   1      40.895  25.216  28.212  1.00  0.00     0.031 C 
ATOM     41  C   UNL A   1      45.369  24.397  26.055  1.00  0.00     0.029 A 
ATOM     42  N   UNL A   1      44.991  26.435  26.892  1.00  0.00    -0.354 N 
ATOM     43  C   UNL A   1      41.197  27.431  28.697  1.00  0.00     0.074 A 
ATOM     44  C   UNL A   1      40.287  26.307  28.656  1.00  0.00     0.031 C 
ATOM     45  C   UNL A   1      46.451  25.147  25.793  1.00  0.00     0.029 A 
ATOM     46  C   UNL A   1      46.230  26.497  26.302  1.00  0.00     0.049 A 
ATOM     47  H   UNL A   1      44.573  27.200  27.352  1.00  0.00     0.167 HD
ATOM     48  C   UNL A   1      40.885  28.645  29.209  1.00  0.00     0.034 A 
ATOM     49  C   UNL A   1      47.089  27.528  26.173  1.00  0.00     0.034 A 
ATOM     50  C   UNL A   1      41.803  29.749  29.276  1.00  0.00     0.049 A 
ATOM     51  C   UNL A   1      46.729  28.858  26.776  1.00  0.00     0.074 A 
ATOM     52  C   UNL A   1      41.613  30.991  29.857  1.00  0.00     0.029 A 
ATOM     53  N   UNL A   1      43.078  29.754  28.732  1.00  0.00    -0.354 N 
ATOM     54  N   UNL A   1      45.648  29.201  27.433  1.00  0.00    -0.248 NA
ATOM     55  C   UNL A   1      47.723  29.934  26.653  1.00  0.00     0.031 C 
ATOM     56  C   UNL A   1      42.761  31.759  29.632  1.00  0.00     0.029 A 
ATOM     57  C   UNL A   1      43.681  30.982  28.947  1.00  0.00     0.049 A 
ATOM     58  H   UNL A   1      43.494  28.995  28.263  1.00  0.00     0.167 HD
ATOM     59  C   UNL A   1      45.844  30.519  27.831  1.00  0.00     0.074 A 
ATOM     60  C   UNL A   1      47.159  30.904  27.360  1.00  0.00     0.031 C 
ATOM     61  C   UNL A   1      45.007  31.340  28.512  1.00  0.00     0.034 A 
BRANCH  48  62
ATOM     62  C   UNL A   1      39.501  28.830  29.777  1.00  0.00     0.023 A 
ATOM     63  C   UNL A   1      39.210  28.364  31.076  1.00  0.00     0.012 A 
ATOM     64  C   UNL A   1      38.506  29.515  29.052  1.00  0.00     0.148 A 
ATOM     65  C   UNL A   1      37.942  28.540  31.628  1.00  0.00     0.002 A 
ATOM     66  C   UNL A   1      37.260  29.731  29.629  1.00  0.00     0.091 A 
ATOM     67  F   UNL A   1      38.794  29.936  27.811  1.00  0.00    -0.205 F 
ATOM     68  C   UNL A   1      36.972  29.233  30.909  1.00  0.00     0.022 A 
BRANCH  66  69
ATOM     69  S   UNL A   1      35.969  30.683  28.819  1.00  0.00     0.127 S 
ATOM     70  O   UNL A   1      35.283  29.651  28.044  1.00  0.00    -0.237 OA
ATOM     71  O   UNL A   1      35.207  31.196  29.959  1.00  0.00    -0.237 OA
ATOM     72  O   UNL A   1      36.651  31.702  28.034  1.00  0.00    -0.744 OA
ENDBRANCH  66  69
ENDBRANCH  48  62
BRANCH  49  73
ATOM     73  C   UNL A   1      48.399  27.325  25.489  1.00  0.00     0.023 A 
ATOM     74  C   UNL A   1      49.518  26.917  26.241  1.00  0.00     0.012 A 
ATOM     75  C   UNL A   1      48.534  27.509  24.100  1.00  0.00     0.148 A 
ATOM     76  C   UNL A   1      50.757  26.729  25.626  1.00  0.00     0.002 A 
ATOM     77  C   UNL A   1      49.755  27.264  23.485  1.00  0.00     0.091 A 
ATOM     78  F   UNL A   1      47.459  27.906  23.405  1.00  0.00    -0.205 F 
ATOM     79  C   UNL A   1      50.873  26.892  24.249  1.00  0.00     0.022 A 
BRANCH  77  80
ATOM     80  S   UNL A   1      49.965  27.318  21.702  1.00  0.00     0.127 S 
ATOM     81  O   UNL A   1      49.788  28.742  21.423  1.00  0.00    -0.237 OA
ATOM     82  O   UNL A   1      51.333  26.824  21.545  1.00  0.00    -0.237 OA
ATOM     83  O   UNL A   1      48.942  26.436  21.157  1.00  0.00    -0.744 OA
ENDBRANCH  77  80
ENDBRANCH  49  73
BRANCH  61  84
ATOM     84  C   UNL A   1      45.494  32.730  28.827  1.00  0.00     0.023 A 
ATOM     85  C   UNL A   1      46.232  32.968  30.004  1.00  0.00     0.012 A 
ATOM     86  C   UNL A   1      45.278  33.787  27.921  1.00  0.00     0.148 A 
ATOM     87  C   UNL A   1      46.717  34.244  30.290  1.00  0.00     0.002 A 
ATOM     88  C   UNL A   1      45.810  35.043  28.187  1.00  0.00     0.091 A 
ATOM     89  F   UNL A   1      44.559  33.544  26.815  1.00  0.00    -0.205 F 
ATOM     90  C   UNL A   1      46.517  35.276  29.377  1.00  0.00     0.022 A 
BRANCH  88  91
ATOM     91  S   UNL A   1      45.689  36.407  27.025  1.00  0.00     0.127 S 
ATOM     92  O   UNL A   1      46.316  35.838  25.833  1.00  0.00    -0.237 OA
ATOM     93  O   UNL A   1      44.242  36.597  26.921  1.00  0.00    -0.237 OA
ATOM     94  O   UNL A   1      46.403  37.521  27.634  1.00  0.00    -0.744 OA
ENDBRANCH  88  91
ENDBRANCH  61  84
ENDBRANCH  35  36
ENDBRANCH  27  30
ENDBRANCH  25  26
ENDBRANCH  24  25
ENDBRANCH   1  24
TORSDOF 19
ENDMDL
MODEL 2
REMARK VINA RESULT:     -10.9      5.395      8.670
REMARK SMILES CC1([C@](C)(Nc2cccc(Cl)c2)C(=O)NCCCCCCNC(=O)c2ccc(-c3c4nc(c(-c5cccc(S(=O)(=O)[O-])c5F)c5ccc([nH]5)c(-c5cccc(S(=O)(=O)[O-])c5F)c5nc(c(-c6cccc(S(=O)(=O)[O-])c6F)c6ccc3[nH]6)C=C5)C=C4)cc2)CC1
REMARK SMILES IDX 19 1 18 2 17 3 16 4 15 5 13 6 14 7 3 9 4 10 2 11 1 12 88 13
REMARK SMILES IDX 89 14 5 15 6 17 7 18 12 19 8 20 10 21 9 22 11 23 20 24 21 25
REMARK SMILES IDX 22 26 23 27 24 29 25 30 26 31 87 32 27 33 86 34 28 35 29 36
REMARK SMILES IDX 30 37 80 38 31 39 85 40 79 41 81 42 32 43 84 44 78 45 77 46
REMARK SMILES IDX 33 48 65 49 45 50 64 51 46 52 49 53 63 54 82 55 47 56 48 57
REMARK SMILES IDX 62 59 83 60 50 61 34 62 35 63 43 64 36 65 38 66 44 67 37 68
REMARK SMILES IDX 39 69 40 70 41 71 42 72 66 73 67 74 75 75 68 76 70 77 76 78
REMARK SMILES IDX 69 79 71 80 72 81 73 82 74 83 51 84 52 85 60 86 53 87 55 88
REMARK SMILES IDX 61 89 54 90 56 91 57 92 58 93 59 94
REMARK H PARENT 15 8 5 16 22 28 81 47 49 58
REMARK Flexibility Score: inf
ROOT
ATOM      1  C   UNL A   1      31.627  29.310  25.400  1.00  0.00     0.002 C 
ENDROOT
BRANCH   1   2
ATOM      2  C   UNL A   1      30.647  29.278  24.228  1.00  0.00     0.002 C 
BRANCH   2   3
ATOM      3  C   UNL A   1      31.285  28.825  22.922  1.00  0.00     0.021 C 
BRANCH   3   4
ATOM      4  C   UNL A   1      30.890  27.421  22.479  1.00  0.00     0.116 C 
BRANCH   4   5
ATOM      5  N   UNL A   1      31.878  26.741  21.658  1.00  0.00    -0.354 N 
ATOM      6  C   UNL A   1      32.448  25.501  21.822  1.00  0.00     0.245 C 
ATOM      7  O   UNL A   1      33.327  25.177  21.014  1.00  0.00    -0.272 OA
ATOM      8  H   UNL A   1      32.184  27.243  20.869  1.00  0.00     0.163 HD
BRANCH   6   9
ATOM      9  C   UNL A   1      31.964  24.531  22.964  1.00  0.00     0.119 C 
ATOM     10  C   UNL A   1      30.420  24.577  23.131  1.00  0.00     0.046 C 
BRANCH   9  11
ATOM     11  C   UNL A   1      32.580  25.083  24.319  1.00  0.00    -0.001 C 
ATOM     12  C   UNL A   1      33.945  25.753  24.135  1.00  0.00     0.014 C 
ATOM     13  C   UNL A   1      32.393  24.372  25.661  1.00  0.00     0.010 C 
ATOM     14  C   UNL A   1      31.718  25.681  25.428  1.00  0.00     0.010 C 
ENDBRANCH   9  11
BRANCH   9  15
ATOM     15  N   UNL A   1      32.266  23.100  22.670  1.00  0.00    -0.371 N 
ATOM     16  H   UNL A   1      31.785  22.691  21.914  1.00  0.00     0.161 HD
BRANCH  15  17
ATOM     17  C   UNL A   1      33.163  22.277  23.361  1.00  0.00     0.036 A 
ATOM     18  C   UNL A   1      34.544  22.510  23.482  1.00  0.00     0.026 A 
ATOM     19  C   UNL A   1      32.674  21.164  24.064  1.00  0.00     0.046 A 
ATOM     20  C   UNL A   1      35.364  21.793  24.365  1.00  0.00     0.004 A 
ATOM     21  C   UNL A   1      33.508  20.393  24.892  1.00  0.00     0.043 A 
ATOM     22  C   UNL A   1      34.842  20.731  25.081  1.00  0.00     0.020 A 
ATOM     23  Cl  UNL A   1      32.877  19.008  25.697  1.00  0.00    -0.084 Cl
ENDBRANCH  15  17
ENDBRANCH   9  15
ENDBRANCH   6   9
ENDBRANCH   4   5
ENDBRANCH   3   4
ENDBRANCH   2   3
ENDBRANCH   1   2
BRANCH   1  24
ATOM     24  C   UNL A   1      33.095  29.123  25.002  1.00  0.00     0.021 C 
BRANCH  24  25
ATOM     25  C   UNL A   1      34.087  29.277  26.151  1.00  0.00     0.116 C 
BRANCH  25  26
ATOM     26  N   UNL A   1      33.875  30.517  26.879  1.00  0.00    -0.352 N 
ATOM     27  C   UNL A   1      34.577  30.997  27.954  1.00  0.00     0.251 C 
ATOM     28  H   UNL A   1      33.135  31.084  26.561  1.00  0.00     0.163 HD
ATOM     29  O   UNL A   1      34.145  31.942  28.614  1.00  0.00    -0.269 OA
BRANCH  27  30
ATOM     30  C   UNL A   1      35.852  30.352  28.316  1.00  0.00     0.039 A 
ATOM     31  C   UNL A   1      36.964  30.530  27.492  1.00  0.00     0.014 A 
ATOM     32  C   UNL A   1      35.951  29.607  29.496  1.00  0.00     0.014 A 
ATOM     33  C   UNL A   1      38.195  29.998  27.878  1.00  0.00     0.010 A 
ATOM     34  C   UNL A   1      37.193  29.142  29.914  1.00  0.00     0.010 A 
ATOM     35  C   UNL A   1      38.326  29.324  29.106  1.00  0.00    -0.014 A 
BRANCH  35  36
ATOM     36  C   UNL A   1      39.645  28.819  29.564  1.00  0.00     0.031 A 
ATOM     37  C   UNL A   1      40.384  29.519  30.671  1.00  0.00     0.074 A 
ATOM     38  C   UNL A   1      40.212  27.774  28.929  1.00  0.00     0.049 A 
ATOM     39  N   UNL A   1      41.555  29.244  31.183  1.00  0.00    -0.248 NA
ATOM     40  C   UNL A   1      39.734  30.700  31.266  1.00  0.00     0.031 C 
ATOM     41  C   UNL A   1      39.632  27.061  27.789  1.00  0.00     0.029 A 
ATOM     42  N   UNL A   1      41.413  27.142  29.138  1.00  0.00    -0.354 N 
ATOM     43  C   UNL A   1      41.798  30.229  32.132  1.00  0.00     0.074 A 
ATOM     44  C   UNL A   1      40.668  31.132  32.101  1.00  0.00     0.031 C 
ATOM     45  C   UNL A   1      40.473  26.088  27.404  1.00  0.00     0.029 A 
ATOM     46  C   UNL A   1      41.665  26.127  28.246  1.00  0.00     0.049 A 
ATOM     47  H   UNL A   1      42.035  27.394  29.858  1.00  0.00     0.167 HD
ATOM     48  C   UNL A   1      42.851  30.357  32.972  1.00  0.00     0.034 A 
ATOM     49  C   UNL A   1      42.738  25.324  28.113  1.00  0.00     0.034 A 
ATOM     50  C   UNL A   1      43.957  29.438  33.021  1.00  0.00     0.049 A 
ATOM     51  C   UNL A   1      43.882  25.468  29.079  1.00  0.00     0.074 A 
ATOM     52  C   UNL A   1      45.028  29.429  33.898  1.00  0.00     0.029 A 
ATOM     53  N   UNL A   1      44.144  28.377  32.150  1.00  0.00    -0.354 N 
ATOM     54  N   UNL A   1      44.018  26.306  30.078  1.00  0.00    -0.248 NA
ATOM     55  C   UNL A   1      45.006  24.533  28.923  1.00  0.00     0.031 C 
ATOM     56  C   UNL A   1      45.881  28.381  33.532  1.00  0.00     0.029 A 
ATOM     57  C   UNL A   1      45.321  27.715  32.455  1.00  0.00     0.049 A 
ATOM     58  H   UNL A   1      43.529  28.129  31.422  1.00  0.00     0.167 HD
ATOM     59  C   UNL A   1      45.223  25.978  30.690  1.00  0.00     0.074 A 
ATOM     60  C   UNL A   1      45.766  24.849  29.962  1.00  0.00     0.031 C 
ATOM     61  C   UNL A   1      45.830  26.566  31.751  1.00  0.00     0.034 A 
BRANCH  48  62
ATOM     62  C   UNL A   1      42.838  31.512  33.941  1.00  0.00     0.023 A 
ATOM     63  C   UNL A   1      43.406  32.746  33.563  1.00  0.00     0.012 A 
ATOM     64  C   UNL A   1      42.214  31.396  35.198  1.00  0.00     0.148 A 
ATOM     65  C   UNL A   1      43.390  33.834  34.436  1.00  0.00     0.002 A 
ATOM     66  C   UNL A   1      42.158  32.499  36.043  1.00  0.00     0.091 A 
ATOM     67  F   UNL A   1      41.695  30.210  35.548  1.00  0.00    -0.205 F 
ATOM     68  C   UNL A   1      42.757  33.713  35.670  1.00  0.00     0.022 A 
BRANCH  66  69
ATOM     69  S   UNL A   1      41.293  32.471  37.617  1.00  0.00     0.127 S 
ATOM     70  O   UNL A   1      41.314  33.884  37.991  1.00  0.00    -0.237 OA
ATOM     71  O   UNL A   1      39.976  31.962  37.234  1.00  0.00    -0.237 OA
ATOM     72  O   UNL A   1      42.060  31.585  38.482  1.00  0.00    -0.744 OA
ENDBRANCH  66  69
ENDBRANCH  48  62
BRANCH  49  73
ATOM     73  C   UNL A   1      42.756  24.273  27.055  1.00  0.00     0.023 A 
ATOM     74  C   UNL A   1      43.424  24.523  25.840  1.00  0.00     0.012 A 
ATOM     75  C   UNL A   1      42.138  23.024  27.255  1.00  0.00     0.148 A 
ATOM     76  C   UNL A   1      43.447  23.559  24.831  1.00  0.00     0.002 A 
ATOM     77  C   UNL A   1      42.214  22.048  26.269  1.00  0.00     0.091 A 
ATOM     78  F   UNL A   1      41.500  22.810  28.414  1.00  0.00    -0.205 F 
ATOM     79  C   UNL A   1      42.852  22.320  25.048  1.00  0.00     0.022 A 
BRANCH  77  80
ATOM     80  S   UNL A   1      41.594  20.380  26.514  1.00  0.00     0.127 S 
ATOM     81  O   UNL A   1      40.149  20.587  26.454  1.00  0.00    -0.237 OA
ATOM     82  O   UNL A   1      42.165  19.676  25.365  1.00  0.00    -0.237 OA
ATOM     83  O   UNL A   1      42.118  19.950  27.803  1.00  0.00    -0.744 OA
ENDBRANCH  77  80
ENDBRANCH  49  73
BRANCH  61  84
ATOM     84  C   UNL A   1      47.138  25.982  32.219  1.00  0.00     0.023 A 
ATOM     85  C   UNL A   1      48.351  26.428  31.655  1.00  0.00     0.012 A 
ATOM     86  C   UNL A   1      47.169  25.042  33.267  1.00  0.00     0.148 A 
ATOM     87  C   UNL A   1      49.569  25.920  32.103  1.00  0.00     0.002 A 
ATOM     88  C   UNL A   1      48.389  24.580  33.745  1.00  0.00     0.091 A 
ATOM     89  F   UNL A   1      46.004  24.618  33.779  1.00  0.00    -0.205 F 
ATOM     90  C   UNL A   1      49.589  25.007  33.154  1.00  0.00     0.022 A 
BRANCH  88  91
ATOM     91  S   UNL A   1      48.517  23.479  35.159  1.00  0.00     0.127 S 
ATOM     92  O   UNL A   1      48.841  22.206  34.516  1.00  0.00    -0.237 OA
ATOM     93  O   UNL A   1      49.617  24.076  35.916  1.00  0.00    -0.237 OA
ATOM     94  O   UNL A   1      47.224  23.529  35.826  1.00  0.00    -0.744 OA
ENDBRANCH  88  91
ENDBRANCH  61  84
ENDBRANCH  35  36
ENDBRANCH  27  30
ENDBRANCH  25  26
ENDBRANCH  24  25
ENDBRANCH   1  24
TORSDOF 19
ENDMDL
MODEL 3
REMARK VINA RESULT:     -10.9      6.436     11.734
REMARK SMILES CC1([C@](C)(Nc2cccc(Cl)c2)C(=O)NCCCCCCNC(=O)c2ccc(-c3c4nc(c(-c5cccc(S(=O)(=O)[O-])c5F)c5ccc([nH]5)c(-c5cccc(S(=O)(=O)[O-])c5F)c5nc(c(-c6cccc(S(=O)(=O)[O-])c6F)c6ccc3[nH]6)C=C5)C=C4)cc2)CC1
REMARK SMILES IDX 19 1 18 2 17 3 16 4 15 5 13 6 14 7 3 9 4 10 2 11 1 12 88 13
REMARK SMILES IDX 89 14 5 15 6 17 7 18 12 19 8 20 10 21 9 22 11 23 20 24 21 25
REMARK SMILES IDX 22 26 23 27 24 29 25 30 26 31 87 32 27 33 86 34 28 35 29 36
REMARK SMILES IDX 30 37 80 38 31 39 85 40 79 41 81 42 32 43 84 44 78 45 77 46
REMARK SMILES IDX 33 48 65 49 45 50 64 51 46 52 49 53 63 54 82 55 47 56 48 57
REMARK SMILES IDX 62 59 83 60 50 61 34 62 35 63 43 64 36 65 38 66 44 67 37 68
REMARK SMILES IDX 39 69 40 70 41 71 42 72 66 73 67 74 75 75 68 76 70 77 76 78
REMARK SMILES IDX 69 79 71 80 72 81 73 82 74 83 51 84 52 85 60 86 53 87 55 88
REMARK SMILES IDX 61 89 54 90 56 91 57 92 58 93 59 94
REMARK H PARENT 15 8 5 16 22 28 81 47 49 58
REMARK Flexibility Score: inf
ROOT
ATOM      1  C   UNL A   1      31.856  30.486  26.390  1.00  0.00     0.002 C 
ENDROOT
BRANCH   1   2
ATOM      2  C   UNL A   1      32.595  29.728  27.492  1.00  0.00     0.002 C 
BRANCH   2   3
ATOM      3  C   UNL A   1      33.999  29.297  27.088  1.00  0.00     0.021 C 
BRANCH   3   4
ATOM      4  C   UNL A   1      34.043  28.212  26.018  1.00  0.00     0.116 C 
BRANCH   4   5
ATOM      5  N   UNL A   1      34.097  28.706  24.652  1.00  0.00    -0.354 N 
ATOM      6  C   UNL A   1      33.805  28.059  23.475  1.00  0.00     0.245 C 
ATOM      7  O   UNL A   1      34.002  28.686  22.427  1.00  0.00    -0.272 OA
ATOM      8  H   UNL A   1      34.385  29.642  24.556  1.00  0.00     0.163 HD
BRANCH   6   9
ATOM      9  C   UNL A   1      33.208  26.602  23.478  1.00  0.00     0.119 C 
ATOM     10  C   UNL A   1      33.538  25.851  22.158  1.00  0.00     0.046 C 
BRANCH   9  11
ATOM     11  C   UNL A   1      31.629  26.758  23.525  1.00  0.00    -0.001 C 
ATOM     12  C   UNL A   1      30.924  26.144  22.311  1.00  0.00     0.014 C 
ATOM     13  C   UNL A   1      30.939  27.993  24.108  1.00  0.00     0.010 C 
ATOM     14  C   UNL A   1      30.837  26.690  24.827  1.00  0.00     0.010 C 
ENDBRANCH   9  11
BRANCH   9  15
ATOM     15  N   UNL A   1      33.790  25.744  24.551  1.00  0.00    -0.371 N 
ATOM     16  H   UNL A   1      34.168  26.208  25.334  1.00  0.00     0.161 HD
BRANCH  15  17
ATOM     17  C   UNL A   1      33.854  24.346  24.560  1.00  0.00     0.036 A 
ATOM     18  C   UNL A   1      32.749  23.486  24.439  1.00  0.00     0.026 A 
ATOM     19  C   UNL A   1      35.108  23.715  24.615  1.00  0.00     0.046 A 
ATOM     20  C   UNL A   1      32.876  22.106  24.225  1.00  0.00     0.004 A 
ATOM     21  C   UNL A   1      35.237  22.323  24.478  1.00  0.00     0.043 A 
ATOM     22  C   UNL A   1      34.129  21.520  24.236  1.00  0.00     0.020 A 
ATOM     23  Cl  UNL A   1      36.789  21.587  24.601  1.00  0.00    -0.084 Cl
ENDBRANCH  15  17
ENDBRANCH   9  15
ENDBRANCH   6   9
ENDBRANCH   4   5
ENDBRANCH   3   4
ENDBRANCH   2   3
ENDBRANCH   1   2
BRANCH   1  24
ATOM     24  C   UNL A   1      31.652  31.977  26.675  1.00  0.00     0.021 C 
BRANCH  24  25
ATOM     25  C   UNL A   1      32.839  32.661  27.348  1.00  0.00     0.116 C 
BRANCH  25  26
ATOM     26  N   UNL A   1      32.578  34.071  27.591  1.00  0.00    -0.352 N 
ATOM     27  C   UNL A   1      33.098  34.869  28.576  1.00  0.00     0.251 C 
ATOM     28  H   UNL A   1      31.949  34.506  26.971  1.00  0.00     0.163 HD
ATOM     29  O   UNL A   1      32.614  35.977  28.805  1.00  0.00    -0.269 OA
BRANCH  27  30
ATOM     30  C   UNL A   1      34.238  34.371  29.368  1.00  0.00     0.039 A 
ATOM     31  C   UNL A   1      33.993  33.669  30.549  1.00  0.00     0.014 A 
ATOM     32  C   UNL A   1      35.546  34.566  28.913  1.00  0.00     0.014 A 
ATOM     33  C   UNL A   1      35.064  33.117  31.252  1.00  0.00     0.010 A 
ATOM     34  C   UNL A   1      36.603  33.952  29.575  1.00  0.00     0.010 A 
ATOM     35  C   UNL A   1      36.375  33.229  30.756  1.00  0.00    -0.014 A 
BRANCH  35  36
ATOM     36  C   UNL A   1      37.514  32.583  31.455  1.00  0.00     0.031 A 
ATOM     37  C   UNL A   1      38.239  31.428  30.819  1.00  0.00     0.074 A 
ATOM     38  C   UNL A   1      37.847  32.987  32.697  1.00  0.00     0.049 A 
ATOM     39  N   UNL A   1      39.233  30.720  31.288  1.00  0.00    -0.248 NA
ATOM     40  C   UNL A   1      37.770  30.994  29.492  1.00  0.00     0.031 C 
ATOM     41  C   UNL A   1      37.168  34.041  33.453  1.00  0.00     0.029 A 
ATOM     42  N   UNL A   1      38.825  32.544  33.552  1.00  0.00    -0.354 N 
ATOM     43  C   UNL A   1      39.487  29.741  30.335  1.00  0.00     0.074 A 
ATOM     44  C   UNL A   1      38.519  29.922  29.276  1.00  0.00     0.031 C 
ATOM     45  C   UNL A   1      37.754  34.168  34.655  1.00  0.00     0.029 A 
ATOM     46  C   UNL A   1      38.827  33.185  34.768  1.00  0.00     0.049 A 
ATOM     47  H   UNL A   1      39.465  31.833  33.316  1.00  0.00     0.167 HD
ATOM     48  C   UNL A   1      40.455  28.795  30.328  1.00  0.00     0.034 A 
ATOM     49  C   UNL A   1      39.598  32.996  35.857  1.00  0.00     0.034 A 
ATOM     50  C   UNL A   1      41.435  28.640  31.368  1.00  0.00     0.049 A 
ATOM     51  C   UNL A   1      40.685  31.958  35.811  1.00  0.00     0.074 A 
ATOM     52  C   UNL A   1      42.512  27.771  31.412  1.00  0.00     0.029 A 
ATOM     53  N   UNL A   1      41.452  29.356  32.555  1.00  0.00    -0.354 N 
ATOM     54  N   UNL A   1      41.015  31.150  34.832  1.00  0.00    -0.248 NA
ATOM     55  C   UNL A   1      41.531  31.828  37.006  1.00  0.00     0.031 C 
ATOM     56  C   UNL A   1      43.158  27.938  32.642  1.00  0.00     0.029 A 
ATOM     57  C   UNL A   1      42.509  28.939  33.346  1.00  0.00     0.049 A 
ATOM     58  H   UNL A   1      40.808  30.059  32.798  1.00  0.00     0.167 HD
ATOM     59  C   UNL A   1      42.125  30.442  35.278  1.00  0.00     0.074 A 
ATOM     60  C   UNL A   1      42.425  30.933  36.608  1.00  0.00     0.031 C 
ATOM     61  C   UNL A   1      42.824  29.464  34.650  1.00  0.00     0.034 A 
BRANCH  48  62
ATOM     62  C   UNL A   1      40.528  27.877  29.134  1.00  0.00     0.023 A 
ATOM     63  C   UNL A   1      39.620  26.804  29.021  1.00  0.00     0.012 A 
ATOM     64  C   UNL A   1      41.453  28.110  28.098  1.00  0.00     0.148 A 
ATOM     65  C   UNL A   1      39.658  25.953  27.917  1.00  0.00     0.002 A 
ATOM     66  C   UNL A   1      41.452  27.287  26.977  1.00  0.00     0.091 A 
ATOM     67  F   UNL A   1      42.321  29.124  28.230  1.00  0.00    -0.205 F 
ATOM     68  C   UNL A   1      40.565  26.202  26.891  1.00  0.00     0.022 A 
BRANCH  66  69
ATOM     69  S   UNL A   1      42.524  27.573  25.564  1.00  0.00     0.127 S 
ATOM     70  O   UNL A   1      43.843  27.592  26.194  1.00  0.00    -0.237 OA
ATOM     71  O   UNL A   1      42.262  26.393  24.738  1.00  0.00    -0.237 OA
ATOM     72  O   UNL A   1      42.093  28.834  24.978  1.00  0.00    -0.744 OA
ENDBRANCH  66  69
ENDBRANCH  48  62
BRANCH  49  73
ATOM     73  C   UNL A   1      39.403  33.850  37.064  1.00  0.00     0.023 A 
ATOM     74  C   UNL A   1      39.844  35.188  37.046  1.00  0.00     0.012 A 
ATOM     75  C   UNL A   1      38.764  33.352  38.216  1.00  0.00     0.148 A 
ATOM     76  C   UNL A   1      39.681  36.004  38.167  1.00  0.00     0.002 A 
ATOM     77  C   UNL A   1      38.554  34.187  39.306  1.00  0.00     0.091 A 
ATOM     78  F   UNL A   1      38.361  32.074  38.215  1.00  0.00    -0.205 F 
ATOM     79  C   UNL A   1      39.028  35.508  39.291  1.00  0.00     0.022 A 
BRANCH  77  80
ATOM     80  S   UNL A   1      37.605  33.675  40.743  1.00  0.00     0.127 S 
ATOM     81  O   UNL A   1      36.377  33.176  40.129  1.00  0.00    -0.237 OA
ATOM     82  O   UNL A   1      38.468  32.644  41.321  1.00  0.00    -0.237 OA
ATOM     83  O   UNL A   1      37.461  34.868  41.566  1.00  0.00    -0.744 OA
ENDBRANCH  77  80
ENDBRANCH  49  73
BRANCH  61  84
ATOM     84  C   UNL A   1      44.009  28.878  35.372  1.00  0.00     0.023 A 
ATOM     85  C   UNL A   1      45.292  29.430  35.183  1.00  0.00     0.012 A 
ATOM     86  C   UNL A   1      43.839  27.824  36.291  1.00  0.00     0.148 A 
ATOM     87  C   UNL A   1      46.392  28.918  35.872  1.00  0.00     0.002 A 
ATOM     88  C   UNL A   1      44.930  27.354  37.012  1.00  0.00     0.091 A 
ATOM     89  F   UNL A   1      42.613  27.301  36.444  1.00  0.00    -0.205 F 
ATOM     90  C   UNL A   1      46.209  27.891  36.793  1.00  0.00     0.022 A 
BRANCH  88  91
ATOM     91  S   UNL A   1      44.773  26.102  38.291  1.00  0.00     0.127 S 
ATOM     92  O   UNL A   1      43.988  25.076  37.607  1.00  0.00    -0.237 OA
ATOM     93  O   UNL A   1      46.168  25.738  38.539  1.00  0.00    -0.237 OA
ATOM     94  O   UNL A   1      44.108  26.752  39.411  1.00  0.00    -0.744 OA
ENDBRANCH  88  91
ENDBRANCH  61  84
ENDBRANCH  35  36
ENDBRANCH  27  30
ENDBRANCH  25  26
ENDBRANCH  24  25
ENDBRANCH   1  24
TORSDOF 19
ENDMDL
