MODEL 1
REMARK VINA RESULT:     -11.0      0.000      0.000
REMARK SMILES Cc1ccc(Cl)c(NC(=O)C[N@@H+]2CCC[C@H]2C(=O)NCCCCCCNC(=O)c2ccc(-c3c4nc(c(-c5cccc(S(=O)(=O)[O-])c5F)c5ccc([nH]5)c(-c5cccc(S(=O)(=O)[O-])c5F)c5nc(c(-c6cccc(S(=O)(=O)[O-])c6F)c6ccc3[nH]6)C=C5)C=C4)cc2)c1Cl
REMARK SMILES IDX 22 1 21 2 20 3 19 4 17 5 18 6 16 8 12 9 13 10 14 12 15 13
REMARK SMILES IDX 11 14 9 15 8 16 10 18 7 19 1 20 2 21 3 22 92 23 4 24 93 25
REMARK SMILES IDX 5 26 6 27 23 28 24 29 25 30 26 31 27 32 28 34 29 35 30 36
REMARK SMILES IDX 91 37 31 38 90 39 32 40 33 41 34 42 84 43 35 44 89 45 83 46
REMARK SMILES IDX 85 47 36 48 88 49 82 50 81 51 37 53 69 54 49 55 68 56 50 57
REMARK SMILES IDX 53 58 67 59 86 60 51 61 52 62 66 64 87 65 54 66 38 67 39 68
REMARK SMILES IDX 47 69 40 70 42 71 48 72 41 73 43 74 44 75 45 76 46 77 70 78
REMARK SMILES IDX 71 79 79 80 72 81 74 82 80 83 73 84 75 85 76 86 77 87 78 88
REMARK SMILES IDX 55 89 56 90 64 91 57 92 59 93 65 94 58 95 60 96 61 97 62 98
REMARK SMILES IDX 63 99
REMARK H PARENT 19 7 12 11 8 17 26 33 85 52 53 63
REMARK Flexibility Score: inf
ROOT
ATOM      1  C   UNL A   1      37.660  21.798  24.870  1.00  0.00     0.002 C 
ENDROOT
BRANCH   1   2
ATOM      2  C   UNL A   1      36.858  22.428  26.006  1.00  0.00     0.021 C 
BRANCH   2   3
ATOM      3  C   UNL A   1      36.193  23.759  25.677  1.00  0.00     0.116 C 
BRANCH   3   4
ATOM      4  N   UNL A   1      35.815  23.865  24.282  1.00  0.00    -0.351 N 
ATOM      5  C   UNL A   1      34.576  23.716  23.719  1.00  0.00     0.278 C 
ATOM      6  O   UNL A   1      34.467  23.962  22.515  1.00  0.00    -0.268 OA
ATOM      7  H   UNL A   1      36.547  24.070  23.657  1.00  0.00     0.163 HD
BRANCH   5   8
ATOM      8  C   UNL A   1      33.410  23.130  24.562  1.00  0.00     0.274 C 
ATOM      9  N   UNL A   1      32.086  23.409  23.945  1.00  0.00    -0.317 N 
ATOM     10  C   UNL A   1      31.888  22.257  23.038  1.00  0.00     0.263 C 
ATOM     11  H   UNL A   1      32.071  24.320  23.487  1.00  0.00     0.349 HD
ATOM     12  C   UNL A   1      32.361  21.052  23.830  1.00  0.00     0.068 C 
ATOM     13  C   UNL A   1      33.497  21.598  24.682  1.00  0.00     0.081 C 
BRANCH   9  14
ATOM     14  C   UNL A   1      30.977  23.446  24.948  1.00  0.00     0.364 C 
BRANCH  14  15
ATOM     15  C   UNL A   1      31.151  24.465  26.078  1.00  0.00     0.279 C 
ATOM     16  N   UNL A   1      31.403  25.800  25.948  1.00  0.00    -0.319 N 
ATOM     17  H   UNL A   1      31.719  26.212  26.784  1.00  0.00     0.170 HD
ATOM     18  O   UNL A   1      31.016  24.081  27.251  1.00  0.00    -0.268 OA
BRANCH  16  19
ATOM     19  C   UNL A   1      31.312  26.726  24.881  1.00  0.00     0.079 A 
ATOM     20  C   UNL A   1      28.836  28.924  22.934  1.00  0.00     0.046 C 
ATOM     21  C   UNL A   1      30.106  28.326  23.480  1.00  0.00    -0.030 A 
ATOM     22  C   UNL A   1      31.278  29.085  23.353  1.00  0.00     0.006 A 
ATOM     23  C   UNL A   1      30.152  27.103  24.188  1.00  0.00     0.069 A 
ATOM     24  C   UNL A   1      32.487  28.590  23.825  1.00  0.00     0.023 A 
ATOM     25  Cl  UNL A   1      28.867  25.959  23.966  1.00  0.00    -0.082 Cl
ATOM     26  C   UNL A   1      32.506  27.405  24.559  1.00  0.00     0.066 A 
ATOM     27  Cl  UNL A   1      34.048  26.834  25.108  1.00  0.00    -0.082 Cl
ENDBRANCH  16  19
ENDBRANCH  14  15
ENDBRANCH   9  14
ENDBRANCH   5   8
ENDBRANCH   3   4
ENDBRANCH   2   3
ENDBRANCH   1   2
BRANCH   1  28
ATOM     28  C   UNL A   1      37.384  20.309  24.629  1.00  0.00     0.002 C 
BRANCH  28  29
ATOM     29  C   UNL A   1      38.512  19.353  25.029  1.00  0.00     0.021 C 
BRANCH  29  30
ATOM     30  C   UNL A   1      39.445  19.872  26.120  1.00  0.00     0.116 C 
BRANCH  30  31
ATOM     31  N   UNL A   1      40.746  19.220  26.077  1.00  0.00    -0.352 N 
ATOM     32  C   UNL A   1      42.006  19.763  26.093  1.00  0.00     0.251 C 
ATOM     33  H   UNL A   1      40.717  18.237  26.030  1.00  0.00     0.163 HD
ATOM     34  O   UNL A   1      42.975  19.063  25.807  1.00  0.00    -0.269 OA
BRANCH  32  35
ATOM     35  C   UNL A   1      42.204  21.185  26.450  1.00  0.00     0.039 A 
ATOM     36  C   UNL A   1      42.280  21.542  27.800  1.00  0.00     0.014 A 
ATOM     37  C   UNL A   1      42.273  22.170  25.462  1.00  0.00     0.014 A 
ATOM     38  C   UNL A   1      42.477  22.879  28.154  1.00  0.00     0.010 A 
ATOM     39  C   UNL A   1      42.541  23.490  25.813  1.00  0.00     0.010 A 
ATOM     40  C   UNL A   1      42.635  23.861  27.163  1.00  0.00    -0.014 A 
BRANCH  40  41
ATOM     41  C   UNL A   1      42.916  25.277  27.517  1.00  0.00     0.031 A 
ATOM     42  C   UNL A   1      44.327  25.798  27.526  1.00  0.00     0.074 A 
ATOM     43  C   UNL A   1      41.908  26.068  27.932  1.00  0.00     0.049 A 
ATOM     44  N   UNL A   1      44.768  26.982  27.863  1.00  0.00    -0.248 NA
ATOM     45  C   UNL A   1      45.387  24.855  27.134  1.00  0.00     0.031 C 
ATOM     46  C   UNL A   1      40.510  25.653  28.064  1.00  0.00     0.029 A 
ATOM     47  N   UNL A   1      41.908  27.373  28.357  1.00  0.00    -0.354 N 
ATOM     48  C   UNL A   1      46.152  26.915  27.767  1.00  0.00     0.074 A 
ATOM     49  C   UNL A   1      46.481  25.563  27.369  1.00  0.00     0.031 C 
ATOM     50  C   UNL A   1      39.791  26.677  28.549  1.00  0.00     0.029 A 
ATOM     51  C   UNL A   1      40.678  27.812  28.787  1.00  0.00     0.049 A 
ATOM     52  H   UNL A   1      42.713  27.942  28.355  1.00  0.00     0.167 HD
ATOM     53  C   UNL A   1      47.067  27.895  27.967  1.00  0.00     0.034 A 
ATOM     54  C   UNL A   1      40.305  28.988  29.328  1.00  0.00     0.034 A 
ATOM     55  C   UNL A   1      46.733  29.247  28.323  1.00  0.00     0.049 A 
ATOM     56  C   UNL A   1      41.326  30.082  29.480  1.00  0.00     0.074 A 
ATOM     57  C   UNL A   1      47.573  30.341  28.435  1.00  0.00     0.029 A 
ATOM     58  N   UNL A   1      45.458  29.690  28.644  1.00  0.00    -0.354 N 
ATOM     59  N   UNL A   1      42.606  30.058  29.203  1.00  0.00    -0.248 NA
ATOM     60  C   UNL A   1      40.844  31.378  29.979  1.00  0.00     0.031 C 
ATOM     61  C   UNL A   1      46.811  31.438  28.853  1.00  0.00     0.029 A 
ATOM     62  C   UNL A   1      45.490  31.035  28.972  1.00  0.00     0.049 A 
ATOM     63  H   UNL A   1      44.649  29.129  28.641  1.00  0.00     0.167 HD
ATOM     64  C   UNL A   1      43.080  31.337  29.467  1.00  0.00     0.074 A 
ATOM     65  C   UNL A   1      41.942  32.120  29.904  1.00  0.00     0.031 C 
ATOM     66  C   UNL A   1      44.345  31.817  29.368  1.00  0.00     0.034 A 
BRANCH  53  67
ATOM     67  C   UNL A   1      48.519  27.544  27.761  1.00  0.00     0.023 A 
ATOM     68  C   UNL A   1      49.251  26.950  28.810  1.00  0.00     0.012 A 
ATOM     69  C   UNL A   1      49.153  27.770  26.523  1.00  0.00     0.148 A 
ATOM     70  C   UNL A   1      50.599  26.631  28.648  1.00  0.00     0.002 A 
ATOM     71  C   UNL A   1      50.484  27.405  26.353  1.00  0.00     0.091 A 
ATOM     72  F   UNL A   1      48.452  28.354  25.542  1.00  0.00    -0.205 F 
ATOM     73  C   UNL A   1      51.212  26.850  27.418  1.00  0.00     0.022 A 
BRANCH  71  74
ATOM     74  S   UNL A   1      51.336  27.572  24.781  1.00  0.00     0.127 S 
ATOM     75  O   UNL A   1      51.122  28.987  24.478  1.00  0.00    -0.237 OA
ATOM     76  O   UNL A   1      52.715  27.228  25.137  1.00  0.00    -0.237 OA
ATOM     77  O   UNL A   1      50.693  26.630  23.877  1.00  0.00    -0.744 OA
ENDBRANCH  71  74
ENDBRANCH  53  67
BRANCH  54  78
ATOM     78  C   UNL A   1      38.881  29.199  29.710  1.00  0.00     0.023 A 
ATOM     79  C   UNL A   1      38.453  28.873  31.010  1.00  0.00     0.012 A 
ATOM     80  C   UNL A   1      37.969  29.785  28.810  1.00  0.00     0.148 A 
ATOM     81  C   UNL A   1      37.135  29.104  31.403  1.00  0.00     0.002 A 
ATOM     82  C   UNL A   1      36.672  30.065  29.226  1.00  0.00     0.091 A 
ATOM     83  F   UNL A   1      38.396  30.082  27.575  1.00  0.00    -0.205 F 
ATOM     84  C   UNL A   1      36.249  29.711  30.516  1.00  0.00     0.022 A 
BRANCH  82  85
ATOM     85  S   UNL A   1      35.503  30.967  28.204  1.00  0.00     0.127 S 
ATOM     86  O   UNL A   1      36.336  32.044  27.675  1.00  0.00    -0.237 OA
ATOM     87  O   UNL A   1      35.116  29.951  27.226  1.00  0.00    -0.237 OA
ATOM     88  O   UNL A   1      34.432  31.381  29.100  1.00  0.00    -0.744 OA
ENDBRANCH  82  85
ENDBRANCH  54  78
BRANCH  66  89
ATOM     89  C   UNL A   1      44.574  33.265  29.715  1.00  0.00     0.023 A 
ATOM     90  C   UNL A   1      44.973  33.619  31.019  1.00  0.00     0.012 A 
ATOM     91  C   UNL A   1      44.468  34.266  28.729  1.00  0.00     0.148 A 
ATOM     92  C   UNL A   1      45.232  34.951  31.344  1.00  0.00     0.002 A 
ATOM     93  C   UNL A   1      44.777  35.583  29.048  1.00  0.00     0.091 A 
ATOM     94  F   UNL A   1      44.068  33.913  27.498  1.00  0.00    -0.205 F 
ATOM     95  C   UNL A   1      45.147  35.930  30.357  1.00  0.00     0.022 A 
BRANCH  93  96
ATOM     96  S   UNL A   1      44.788  36.893  27.818  1.00  0.00     0.127 S 
ATOM     97  O   UNL A   1      43.362  37.053  27.539  1.00  0.00    -0.237 OA
ATOM     98  O   UNL A   1      45.394  38.004  28.554  1.00  0.00    -0.237 OA
ATOM     99  O   UNL A   1      45.590  36.396  26.709  1.00  0.00    -0.744 OA
ENDBRANCH  93  96
ENDBRANCH  66  89
ENDBRANCH  40  41
ENDBRANCH  32  35
ENDBRANCH  30  31
ENDBRANCH  29  30
ENDBRANCH  28  29
ENDBRANCH   1  28
TORSDOF 19
ENDMDL
MODEL 2
REMARK VINA RESULT:     -10.6      6.231      9.809
REMARK SMILES Cc1ccc(Cl)c(NC(=O)C[N@@H+]2CCC[C@H]2C(=O)NCCCCCCNC(=O)c2ccc(-c3c4nc(c(-c5cccc(S(=O)(=O)[O-])c5F)c5ccc([nH]5)c(-c5cccc(S(=O)(=O)[O-])c5F)c5nc(c(-c6cccc(S(=O)(=O)[O-])c6F)c6ccc3[nH]6)C=C5)C=C4)cc2)c1Cl
REMARK SMILES IDX 22 1 21 2 20 3 19 4 17 5 18 6 16 8 12 9 13 10 14 12 15 13
REMARK SMILES IDX 11 14 9 15 8 16 10 18 7 19 1 20 2 21 3 22 92 23 4 24 93 25
REMARK SMILES IDX 5 26 6 27 23 28 24 29 25 30 26 31 27 32 28 34 29 35 30 36
REMARK SMILES IDX 91 37 31 38 90 39 32 40 33 41 34 42 84 43 35 44 89 45 83 46
REMARK SMILES IDX 85 47 36 48 88 49 82 50 81 51 37 53 69 54 49 55 68 56 50 57
REMARK SMILES IDX 53 58 67 59 86 60 51 61 52 62 66 64 87 65 54 66 38 67 39 68
REMARK SMILES IDX 47 69 40 70 42 71 48 72 41 73 43 74 44 75 45 76 46 77 70 78
REMARK SMILES IDX 71 79 79 80 72 81 74 82 80 83 73 84 75 85 76 86 77 87 78 88
REMARK SMILES IDX 55 89 56 90 64 91 57 92 59 93 65 94 58 95 60 96 61 97 62 98
REMARK SMILES IDX 63 99
REMARK H PARENT 19 7 12 11 8 17 26 33 85 52 53 63
REMARK Flexibility Score: inf
ROOT
ATOM      1  C   UNL A   1      35.067  30.325  28.162  1.00  0.00     0.002 C 
ENDROOT
BRANCH   1   2
ATOM      2  C   UNL A   1      34.899  29.248  27.093  1.00  0.00     0.021 C 
BRANCH   2   3
ATOM      3  C   UNL A   1      33.538  28.561  27.066  1.00  0.00     0.116 C 
BRANCH   3   4
ATOM      4  N   UNL A   1      32.561  29.290  26.283  1.00  0.00    -0.351 N 
ATOM      5  C   UNL A   1      31.786  28.839  25.249  1.00  0.00     0.278 C 
ATOM      6  O   UNL A   1      30.935  29.611  24.799  1.00  0.00    -0.268 OA
ATOM      7  H   UNL A   1      32.438  30.236  26.529  1.00  0.00     0.163 HD
BRANCH   5   8
ATOM      8  C   UNL A   1      32.086  27.458  24.605  1.00  0.00     0.274 C 
ATOM      9  N   UNL A   1      30.886  26.578  24.597  1.00  0.00    -0.317 N 
ATOM     10  C   UNL A   1      30.222  26.925  23.322  1.00  0.00     0.263 C 
ATOM     11  H   UNL A   1      30.314  26.719  25.429  1.00  0.00     0.349 HD
ATOM     12  C   UNL A   1      31.350  27.045  22.315  1.00  0.00     0.068 C 
ATOM     13  C   UNL A   1      32.514  27.587  23.132  1.00  0.00     0.081 C 
BRANCH   9  14
ATOM     14  C   UNL A   1      31.236  25.124  24.593  1.00  0.00     0.364 C 
BRANCH  14  15
ATOM     15  C   UNL A   1      31.396  24.486  25.977  1.00  0.00     0.279 C 
ATOM     16  N   UNL A   1      32.319  23.551  26.347  1.00  0.00    -0.319 N 
ATOM     17  H   UNL A   1      32.090  23.104  27.195  1.00  0.00     0.170 HD
ATOM     18  O   UNL A   1      30.651  24.863  26.895  1.00  0.00    -0.268 OA
BRANCH  16  19
ATOM     19  C   UNL A   1      33.530  23.078  25.788  1.00  0.00     0.079 A 
ATOM     20  C   UNL A   1      37.321  23.692  25.727  1.00  0.00     0.046 C 
ATOM     21  C   UNL A   1      35.964  23.061  25.558  1.00  0.00    -0.030 A 
ATOM     22  C   UNL A   1      35.924  21.677  25.332  1.00  0.00     0.006 A 
ATOM     23  C   UNL A   1      34.749  23.768  25.712  1.00  0.00     0.069 A 
ATOM     24  C   UNL A   1      34.706  21.032  25.156  1.00  0.00     0.023 A 
ATOM     25  Cl  UNL A   1      34.758  25.493  25.532  1.00  0.00    -0.082 Cl
ATOM     26  C   UNL A   1      33.520  21.735  25.356  1.00  0.00     0.066 A 
ATOM     27  Cl  UNL A   1      32.035  20.876  25.109  1.00  0.00    -0.082 Cl
ENDBRANCH  16  19
ENDBRANCH  14  15
ENDBRANCH   9  14
ENDBRANCH   5   8
ENDBRANCH   3   4
ENDBRANCH   2   3
ENDBRANCH   1   2
BRANCH   1  28
ATOM     28  C   UNL A   1      34.959  31.767  27.653  1.00  0.00     0.002 C 
BRANCH  28  29
ATOM     29  C   UNL A   1      33.613  32.456  27.896  1.00  0.00     0.021 C 
BRANCH  29  30
ATOM     30  C   UNL A   1      33.558  33.928  27.492  1.00  0.00     0.116 C 
BRANCH  30  31
ATOM     31  N   UNL A   1      33.033  34.765  28.561  1.00  0.00    -0.352 N 
ATOM     32  C   UNL A   1      33.356  34.797  29.895  1.00  0.00     0.251 C 
ATOM     33  H   UNL A   1      32.340  35.408  28.286  1.00  0.00     0.163 HD
ATOM     34  O   UNL A   1      32.633  35.404  30.682  1.00  0.00    -0.269 OA
BRANCH  32  35
ATOM     35  C   UNL A   1      34.565  34.104  30.390  1.00  0.00     0.039 A 
ATOM     36  C   UNL A   1      35.821  34.540  29.960  1.00  0.00     0.014 A 
ATOM     37  C   UNL A   1      34.461  33.001  31.242  1.00  0.00     0.014 A 
ATOM     38  C   UNL A   1      36.974  33.903  30.426  1.00  0.00     0.010 A 
ATOM     39  C   UNL A   1      35.612  32.413  31.761  1.00  0.00     0.010 A 
ATOM     40  C   UNL A   1      36.881  32.851  31.350  1.00  0.00    -0.014 A 
BRANCH  40  41
ATOM     41  C   UNL A   1      38.096  32.206  31.912  1.00  0.00     0.031 A 
ATOM     42  C   UNL A   1      38.775  31.083  31.177  1.00  0.00     0.074 A 
ATOM     43  C   UNL A   1      38.530  32.563  33.136  1.00  0.00     0.049 A 
ATOM     44  N   UNL A   1      39.807  30.364  31.539  1.00  0.00    -0.248 NA
ATOM     45  C   UNL A   1      38.201  30.694  29.879  1.00  0.00     0.031 C 
ATOM     46  C   UNL A   1      37.899  33.569  33.994  1.00  0.00     0.029 A 
ATOM     47  N   UNL A   1      39.577  32.095  33.890  1.00  0.00    -0.354 N 
ATOM     48  C   UNL A   1      39.978  29.414  30.539  1.00  0.00     0.074 A 
ATOM     49  C   UNL A   1      38.925  29.628  29.570  1.00  0.00     0.031 C 
ATOM     50  C   UNL A   1      38.563  33.632  35.158  1.00  0.00     0.029 A 
ATOM     51  C   UNL A   1      39.649  32.656  35.142  1.00  0.00     0.049 A 
ATOM     52  H   UNL A   1      40.217  31.420  33.564  1.00  0.00     0.167 HD
ATOM     53  C   UNL A   1      40.939  28.466  30.424  1.00  0.00     0.034 A 
ATOM     54  C   UNL A   1      40.482  32.406  36.171  1.00  0.00     0.034 A 
ATOM     55  C   UNL A   1      42.007  28.282  31.369  1.00  0.00     0.049 A 
ATOM     56  C   UNL A   1      41.581  31.394  35.995  1.00  0.00     0.074 A 
ATOM     57  C   UNL A   1      43.094  27.430  31.286  1.00  0.00     0.029 A 
ATOM     58  N   UNL A   1      42.115  28.949  32.580  1.00  0.00    -0.354 N 
ATOM     59  N   UNL A   1      41.843  30.634  34.960  1.00  0.00    -0.248 NA
ATOM     60  C   UNL A   1      42.524  31.234  37.112  1.00  0.00     0.031 C 
ATOM     61  C   UNL A   1      43.843  27.560  32.461  1.00  0.00     0.029 A 
ATOM     62  C   UNL A   1      43.240  28.515  33.263  1.00  0.00     0.049 A 
ATOM     63  H   UNL A   1      41.485  29.630  32.908  1.00  0.00     0.167 HD
ATOM     64  C   UNL A   1      42.993  29.926  35.286  1.00  0.00     0.074 A 
ATOM     65  C   UNL A   1      43.391  30.366  36.608  1.00  0.00     0.031 C 
ATOM     66  C   UNL A   1      43.651  28.987  34.561  1.00  0.00     0.034 A 
BRANCH  53  67
ATOM     67  C   UNL A   1      40.899  27.579  29.204  1.00  0.00     0.023 A 
ATOM     68  C   UNL A   1      39.982  26.509  29.147  1.00  0.00     0.012 A 
ATOM     69  C   UNL A   1      41.742  27.821  28.102  1.00  0.00     0.148 A 
ATOM     70  C   UNL A   1      39.937  25.667  28.036  1.00  0.00     0.002 A 
ATOM     71  C   UNL A   1      41.659  27.007  26.977  1.00  0.00     0.091 A 
ATOM     72  F   UNL A   1      42.623  28.829  28.178  1.00  0.00    -0.205 F 
ATOM     73  C   UNL A   1      40.768  25.921  26.949  1.00  0.00     0.022 A 
BRANCH  71  74
ATOM     74  S   UNL A   1      42.630  27.305  25.496  1.00  0.00     0.127 S 
ATOM     75  O   UNL A   1      42.013  28.526  24.980  1.00  0.00    -0.237 OA
ATOM     76  O   UNL A   1      43.977  27.488  26.041  1.00  0.00    -0.237 OA
ATOM     77  O   UNL A   1      42.470  26.119  24.669  1.00  0.00    -0.744 OA
ENDBRANCH  71  74
ENDBRANCH  53  67
BRANCH  54  78
ATOM     78  C   UNL A   1      40.333  33.176  37.437  1.00  0.00     0.023 A 
ATOM     79  C   UNL A   1      41.115  34.327  37.648  1.00  0.00     0.012 A 
ATOM     80  C   UNL A   1      39.372  32.810  38.400  1.00  0.00     0.148 A 
ATOM     81  C   UNL A   1      40.960  35.089  38.806  1.00  0.00     0.002 A 
ATOM     82  C   UNL A   1      39.183  33.605  39.524  1.00  0.00     0.091 A 
ATOM     83  F   UNL A   1      38.644  31.706  38.181  1.00  0.00    -0.205 F 
ATOM     84  C   UNL A   1      39.986  34.735  39.737  1.00  0.00     0.022 A 
BRANCH  82  85
ATOM     85  S   UNL A   1      37.865  33.307  40.708  1.00  0.00     0.127 S 
ATOM     86  O   UNL A   1      36.709  33.138  39.831  1.00  0.00    -0.237 OA
ATOM     87  O   UNL A   1      38.324  32.083  41.364  1.00  0.00    -0.237 OA
ATOM     88  O   UNL A   1      37.836  34.481  41.570  1.00  0.00    -0.744 OA
ENDBRANCH  82  85
ENDBRANCH  54  78
BRANCH  66  89
ATOM     89  C   UNL A   1      44.891  28.381  35.165  1.00  0.00     0.023 A 
ATOM     90  C   UNL A   1      46.137  29.017  34.998  1.00  0.00     0.012 A 
ATOM     91  C   UNL A   1      44.810  27.221  35.962  1.00  0.00     0.148 A 
ATOM     92  C   UNL A   1      47.287  28.492  35.588  1.00  0.00     0.002 A 
ATOM     93  C   UNL A   1      45.950  26.733  36.589  1.00  0.00     0.091 A 
ATOM     94  F   UNL A   1      43.619  26.618  36.095  1.00  0.00    -0.205 F 
ATOM     95  C   UNL A   1      47.191  27.359  36.393  1.00  0.00     0.022 A 
BRANCH  93  96
ATOM     96  S   UNL A   1      45.904  25.338  37.720  1.00  0.00     0.127 S 
ATOM     97  O   UNL A   1      45.624  24.227  36.812  1.00  0.00    -0.237 OA
ATOM     98  O   UNL A   1      47.257  25.345  38.276  1.00  0.00    -0.237 OA
ATOM     99  O   UNL A   1      44.854  25.637  38.684  1.00  0.00    -0.744 OA
ENDBRANCH  93  96
ENDBRANCH  66  89
ENDBRANCH  40  41
ENDBRANCH  32  35
ENDBRANCH  30  31
ENDBRANCH  29  30
ENDBRANCH  28  29
ENDBRANCH   1  28
TORSDOF 19
ENDMDL
MODEL 3
REMARK VINA RESULT:     -10.6      1.974      7.719
REMARK SMILES Cc1ccc(Cl)c(NC(=O)C[N@@H+]2CCC[C@H]2C(=O)NCCCCCCNC(=O)c2ccc(-c3c4nc(c(-c5cccc(S(=O)(=O)[O-])c5F)c5ccc([nH]5)c(-c5cccc(S(=O)(=O)[O-])c5F)c5nc(c(-c6cccc(S(=O)(=O)[O-])c6F)c6ccc3[nH]6)C=C5)C=C4)cc2)c1Cl
REMARK SMILES IDX 22 1 21 2 20 3 19 4 17 5 18 6 16 8 12 9 13 10 14 12 15 13
REMARK SMILES IDX 11 14 9 15 8 16 10 18 7 19 1 20 2 21 3 22 92 23 4 24 93 25
REMARK SMILES IDX 5 26 6 27 23 28 24 29 25 30 26 31 27 32 28 34 29 35 30 36
REMARK SMILES IDX 91 37 31 38 90 39 32 40 33 41 34 42 84 43 35 44 89 45 83 46
REMARK SMILES IDX 85 47 36 48 88 49 82 50 81 51 37 53 69 54 49 55 68 56 50 57
REMARK SMILES IDX 53 58 67 59 86 60 51 61 52 62 66 64 87 65 54 66 38 67 39 68
REMARK SMILES IDX 47 69 40 70 42 71 48 72 41 73 43 74 44 75 45 76 46 77 70 78
REMARK SMILES IDX 71 79 79 80 72 81 74 82 80 83 73 84 75 85 76 86 77 87 78 88
REMARK SMILES IDX 55 89 56 90 64 91 57 92 59 93 65 94 58 95 60 96 61 97 62 98
REMARK SMILES IDX 63 99
REMARK H PARENT 19 7 12 11 8 17 26 33 85 52 53 63
REMARK Flexibility Score: inf
ROOT
ATOM      1  C   UNL A   1      36.093  21.353  25.233  1.00  0.00     0.002 C 
ENDROOT
BRANCH   1   2
ATOM      2  C   UNL A   1      35.055  20.233  25.263  1.00  0.00     0.021 C 
BRANCH   2   3
ATOM      3  C   UNL A   1      33.622  20.661  24.971  1.00  0.00     0.116 C 
BRANCH   3   4
ATOM      4  N   UNL A   1      33.139  21.663  25.900  1.00  0.00    -0.351 N 
ATOM      5  C   UNL A   1      32.383  22.774  25.640  1.00  0.00     0.278 C 
ATOM      6  O   UNL A   1      31.990  23.432  26.608  1.00  0.00    -0.268 OA
ATOM      7  H   UNL A   1      33.388  21.526  26.843  1.00  0.00     0.163 HD
BRANCH   5   8
ATOM      8  C   UNL A   1      32.164  23.233  24.172  1.00  0.00     0.274 C 
ATOM      9  N   UNL A   1      32.740  24.582  23.923  1.00  0.00    -0.317 N 
ATOM     10  C   UNL A   1      34.133  24.286  23.526  1.00  0.00     0.263 C 
ATOM     11  H   UNL A   1      32.647  25.185  24.739  1.00  0.00     0.349 HD
ATOM     12  C   UNL A   1      34.030  23.085  22.606  1.00  0.00     0.068 C 
ATOM     13  C   UNL A   1      32.854  22.296  23.164  1.00  0.00     0.081 C 
BRANCH   9  14
ATOM     14  C   UNL A   1      32.051  25.307  22.810  1.00  0.00     0.364 C 
BRANCH  14  15
ATOM     15  C   UNL A   1      32.828  26.489  22.220  1.00  0.00     0.279 C 
ATOM     16  N   UNL A   1      32.816  27.781  22.662  1.00  0.00    -0.319 N 
ATOM     17  H   UNL A   1      33.183  28.413  22.003  1.00  0.00     0.170 HD
ATOM     18  O   UNL A   1      33.592  26.282  21.264  1.00  0.00    -0.268 OA
BRANCH  16  19
ATOM     19  C   UNL A   1      32.394  28.416  23.855  1.00  0.00     0.079 A 
ATOM     20  C   UNL A   1      33.674  29.849  27.181  1.00  0.00     0.046 C 
ATOM     21  C   UNL A   1      32.802  29.519  25.998  1.00  0.00    -0.030 A 
ATOM     22  C   UNL A   1      31.681  30.335  25.782  1.00  0.00     0.006 A 
ATOM     23  C   UNL A   1      33.108  28.507  25.059  1.00  0.00     0.069 A 
ATOM     24  C   UNL A   1      30.827  30.081  24.716  1.00  0.00     0.023 A 
ATOM     25  Cl  UNL A   1      34.180  27.227  25.529  1.00  0.00    -0.082 Cl
ATOM     26  C   UNL A   1      31.168  29.110  23.776  1.00  0.00     0.066 A 
ATOM     27  Cl  UNL A   1      30.054  28.833  22.478  1.00  0.00    -0.082 Cl
ENDBRANCH  16  19
ENDBRANCH  14  15
ENDBRANCH   9  14
ENDBRANCH   5   8
ENDBRANCH   3   4
ENDBRANCH   2   3
ENDBRANCH   1   2
BRANCH   1  28
ATOM     28  C   UNL A   1      37.369  21.033  24.446  1.00  0.00     0.002 C 
BRANCH  28  29
ATOM     29  C   UNL A   1      38.176  19.833  24.950  1.00  0.00     0.021 C 
BRANCH  29  30
ATOM     30  C   UNL A   1      39.156  20.140  26.080  1.00  0.00     0.116 C 
BRANCH  30  31
ATOM     31  N   UNL A   1      40.336  19.290  26.021  1.00  0.00    -0.352 N 
ATOM     32  C   UNL A   1      41.667  19.627  26.006  1.00  0.00     0.251 C 
ATOM     33  H   UNL A   1      40.151  18.323  25.987  1.00  0.00     0.163 HD
ATOM     34  O   UNL A   1      42.506  18.781  25.710  1.00  0.00    -0.269 OA
BRANCH  32  35
ATOM     35  C   UNL A   1      42.094  21.003  26.341  1.00  0.00     0.039 A 
ATOM     36  C   UNL A   1      42.332  21.333  27.679  1.00  0.00     0.014 A 
ATOM     37  C   UNL A   1      42.219  21.977  25.348  1.00  0.00     0.014 A 
ATOM     38  C   UNL A   1      42.746  22.626  28.011  1.00  0.00     0.010 A 
ATOM     39  C   UNL A   1      42.701  23.243  25.672  1.00  0.00     0.010 A 
ATOM     40  C   UNL A   1      42.959  23.584  27.008  1.00  0.00    -0.014 A 
BRANCH  40  41
ATOM     41  C   UNL A   1      43.467  24.943  27.333  1.00  0.00     0.031 A 
ATOM     42  C   UNL A   1      42.539  25.999  27.867  1.00  0.00     0.074 A 
ATOM     43  C   UNL A   1      44.746  25.257  27.051  1.00  0.00     0.049 A 
ATOM     44  N   UNL A   1      42.789  27.251  28.150  1.00  0.00    -0.248 NA
ATOM     45  C   UNL A   1      41.136  25.606  28.080  1.00  0.00     0.031 C 
ATOM     46  C   UNL A   1      45.721  24.351  26.439  1.00  0.00     0.029 A 
ATOM     47  N   UNL A   1      45.436  26.434  27.202  1.00  0.00    -0.354 N 
ATOM     48  C   UNL A   1      41.573  27.805  28.532  1.00  0.00     0.074 A 
ATOM     49  C   UNL A   1      40.579  26.760  28.414  1.00  0.00     0.031 C 
ATOM     50  C   UNL A   1      46.877  25.009  26.256  1.00  0.00     0.029 A 
ATOM     51  C   UNL A   1      46.719  26.387  26.712  1.00  0.00     0.049 A 
ATOM     52  H   UNL A   1      45.049  27.236  27.622  1.00  0.00     0.167 HD
ATOM     53  C   UNL A   1      41.310  29.062  28.965  1.00  0.00     0.034 A 
ATOM     54  C   UNL A   1      47.661  27.346  26.622  1.00  0.00     0.034 A 
ATOM     55  C   UNL A   1      42.309  30.086  29.119  1.00  0.00     0.049 A 
ATOM     56  C   UNL A   1      47.367  28.716  27.169  1.00  0.00     0.074 A 
ATOM     57  C   UNL A   1      42.168  31.352  29.659  1.00  0.00     0.029 A 
ATOM     58  N   UNL A   1      43.630  29.969  28.716  1.00  0.00    -0.354 N 
ATOM     59  N   UNL A   1      46.260  29.169  27.704  1.00  0.00    -0.248 NA
ATOM     60  C   UNL A   1      48.464  29.694  27.138  1.00  0.00     0.031 C 
ATOM     61  C   UNL A   1      43.398  32.012  29.554  1.00  0.00     0.029 A 
ATOM     62  C   UNL A   1      44.313  31.146  28.977  1.00  0.00     0.049 A 
ATOM     63  H   UNL A   1      44.025  29.168  28.303  1.00  0.00     0.167 HD
ATOM     64  C   UNL A   1      46.531  30.473  28.098  1.00  0.00     0.074 A 
ATOM     65  C   UNL A   1      47.916  30.730  27.761  1.00  0.00     0.031 C 
ATOM     66  C   UNL A   1      45.703  31.380  28.676  1.00  0.00     0.034 A 
BRANCH  53  67
ATOM     67  C   UNL A   1      39.887  29.384  29.346  1.00  0.00     0.023 A 
ATOM     68  C   UNL A   1      38.936  29.644  28.337  1.00  0.00     0.012 A 
ATOM     69  C   UNL A   1      39.480  29.397  30.694  1.00  0.00     0.148 A 
ATOM     70  C   UNL A   1      37.617  29.960  28.665  1.00  0.00     0.002 A 
ATOM     71  C   UNL A   1      38.152  29.664  31.012  1.00  0.00     0.091 A 
ATOM     72  F   UNL A   1      40.398  29.168  31.643  1.00  0.00    -0.205 F 
ATOM     73  C   UNL A   1      37.224  29.960  30.000  1.00  0.00     0.022 A 
BRANCH  71  74
ATOM     74  S   UNL A   1      37.534  29.607  32.697  1.00  0.00     0.127 S 
ATOM     75  O   UNL A   1      36.221  30.234  32.551  1.00  0.00    -0.237 OA
ATOM     76  O   UNL A   1      37.495  28.168  32.964  1.00  0.00    -0.237 OA
ATOM     77  O   UNL A   1      38.498  30.344  33.500  1.00  0.00    -0.744 OA
ENDBRANCH  71  74
ENDBRANCH  53  67
BRANCH  54  78
ATOM     78  C   UNL A   1      48.990  27.014  26.036  1.00  0.00     0.023 A 
ATOM     79  C   UNL A   1      49.905  26.244  26.778  1.00  0.00     0.012 A 
ATOM     80  C   UNL A   1      49.320  27.402  24.723  1.00  0.00     0.148 A 
ATOM     81  C   UNL A   1      51.137  25.884  26.231  1.00  0.00     0.002 A 
ATOM     82  C   UNL A   1      50.525  26.991  24.164  1.00  0.00     0.091 A 
ATOM     83  F   UNL A   1      48.436  28.140  24.037  1.00  0.00    -0.205 F 
ATOM     84  C   UNL A   1      51.441  26.246  24.921  1.00  0.00     0.022 A 
BRANCH  82  85
ATOM     85  S   UNL A   1      50.944  27.292  22.443  1.00  0.00     0.127 S 
ATOM     86  O   UNL A   1      50.966  28.751  22.392  1.00  0.00    -0.237 OA
ATOM     87  O   UNL A   1      52.256  26.652  22.340  1.00  0.00    -0.237 OA
ATOM     88  O   UNL A   1      49.896  26.649  21.663  1.00  0.00    -0.744 OA
ENDBRANCH  82  85
ENDBRANCH  54  78
BRANCH  66  89
ATOM     89  C   UNL A   1      46.272  32.735  29.007  1.00  0.00     0.023 A 
ATOM     90  C   UNL A   1      46.972  32.926  30.215  1.00  0.00     0.012 A 
ATOM     91  C   UNL A   1      46.179  33.798  28.087  1.00  0.00     0.148 A 
ATOM     92  C   UNL A   1      47.543  34.162  30.515  1.00  0.00     0.002 A 
ATOM     93  C   UNL A   1      46.795  35.012  28.370  1.00  0.00     0.091 A 
ATOM     94  F   UNL A   1      45.493  33.604  26.951  1.00  0.00    -0.205 F 
ATOM     95  C   UNL A   1      47.466  35.200  29.589  1.00  0.00     0.022 A 
BRANCH  93  96
ATOM     96  S   UNL A   1      46.830  36.371  27.196  1.00  0.00     0.127 S 
ATOM     97  O   UNL A   1      45.441  36.828  27.228  1.00  0.00    -0.237 OA
ATOM     98  O   UNL A   1      47.788  37.289  27.812  1.00  0.00    -0.237 OA
ATOM     99  O   UNL A   1      47.270  35.798  25.932  1.00  0.00    -0.744 OA
ENDBRANCH  93  96
ENDBRANCH  66  89
ENDBRANCH  40  41
ENDBRANCH  32  35
ENDBRANCH  30  31
ENDBRANCH  29  30
ENDBRANCH  28  29
ENDBRANCH   1  28
TORSDOF 19
ENDMDL
