MODEL 1
REMARK VINA RESULT:     -11.8      0.000      0.000
REMARK SMILES COC(=O)c1c(NC(=O)[C@@H]2C[C@@H]2C(=O)NCCCCCCNC(=O)c2ccc(-c3c4nc(c(-c5cccc(S(=O)(=O)[O-])c5F)c5ccc([nH]5)c(-c5cccc(S(=O)(=O)[O-])c5F)c5nc(c(-c6cccc(S(=O)(=O)[O-])c6F)c6ccc3[nH]6)C=C5)C=C4)cc2)sc2c1CC[N@@H+](Cc1ccccc1)C2
REMARK SMILES IDX 18 1 17 2 16 3 15 4 13 5 14 6 12 8 10 9 11 10 8 11 7 12 9 14
REMARK SMILES IDX 6 15 5 16 90 17 88 18 89 19 91 20 101 21 92 22 93 23 3 25
REMARK SMILES IDX 4 26 2 27 1 28 94 29 95 30 96 31 100 32 97 33 99 34 98 35
REMARK SMILES IDX 19 36 20 37 21 38 22 39 23 40 24 42 25 43 26 44 87 45 27 46
REMARK SMILES IDX 86 47 28 48 29 49 30 50 80 51 31 52 85 53 79 54 81 55 32 56
REMARK SMILES IDX 84 57 78 58 77 59 33 61 65 62 45 63 64 64 46 65 49 66 63 67
REMARK SMILES IDX 82 68 47 69 48 70 62 72 83 73 50 74 34 75 35 76 43 77 36 78
REMARK SMILES IDX 38 79 44 80 37 81 39 82 40 83 41 84 42 85 66 86 67 87 75 88
REMARK SMILES IDX 68 89 70 90 76 91 69 92 71 93 72 94 73 95 74 96 51 97 52 98
REMARK SMILES IDX 60 99 53 100 55 101 61 102 54 103 56 104 57 105 58 106
REMARK SMILES IDX 59 107
REMARK H PARENT 15 7 7 13 93 24 22 41 81 60 49 71
REMARK Flexibility Score: inf
ROOT
ATOM      1  C   UNL A   1      40.729  21.043  27.413  1.00  0.00     0.002 C 
ENDROOT
BRANCH   1   2
ATOM      2  C   UNL A   1      40.474  22.280  26.552  1.00  0.00     0.021 C 
BRANCH   2   3
ATOM      3  C   UNL A   1      39.106  22.293  25.896  1.00  0.00     0.116 C 
BRANCH   3   4
ATOM      4  N   UNL A   1      38.499  21.023  25.647  1.00  0.00    -0.356 N 
ATOM      5  C   UNL A   1      37.174  20.741  25.461  1.00  0.00     0.223 C 
ATOM      6  O   UNL A   1      36.908  19.696  24.864  1.00  0.00    -0.275 OA
ATOM      7  H   UNL A   1      39.113  20.255  25.604  1.00  0.00     0.163 HD
BRANCH   5   8
ATOM      8  C   UNL A   1      36.023  21.556  25.950  1.00  0.00     0.091 C 
ATOM      9  C   UNL A   1      34.530  21.710  25.775  1.00  0.00     0.092 C 
ATOM     10  C   UNL A   1      35.453  22.463  24.871  1.00  0.00     0.028 C 
BRANCH   9  11
ATOM     11  C   UNL A   1      33.517  20.774  25.259  1.00  0.00     0.228 C 
ATOM     12  N   UNL A   1      32.342  21.190  24.685  1.00  0.00    -0.317 N 
ATOM     13  H   UNL A   1      31.815  20.476  24.259  1.00  0.00     0.170 HD
ATOM     14  O   UNL A   1      33.705  19.564  25.349  1.00  0.00    -0.274 OA
BRANCH  12  15
ATOM     15  C   UNL A   1      31.783  22.443  24.610  1.00  0.00     0.110 A 
ATOM     16  C   UNL A   1      31.130  23.322  25.450  1.00  0.00     0.098 A 
ATOM     17  C   UNL A   1      30.691  24.488  24.701  1.00  0.00    -0.006 A 
ATOM     18  S   UNL A   1      31.958  23.043  23.014  1.00  0.00    -0.116 S 
ATOM     19  C   UNL A   1      31.152  24.472  23.400  1.00  0.00     0.065 A 
ATOM     20  C   UNL A   1      30.055  25.733  25.258  1.00  0.00     0.099 C 
ATOM     21  C   UNL A   1      31.122  25.650  22.479  1.00  0.00     0.310 C 
ATOM     22  C   UNL A   1      30.151  26.943  24.290  1.00  0.00     0.267 C 
ATOM     23  N   UNL A   1      31.188  26.911  23.241  1.00  0.00    -0.326 N 
ATOM     24  H   UNL A   1      30.958  27.666  22.596  1.00  0.00     0.348 HD
BRANCH  16  25
ATOM     25  C   UNL A   1      30.994  23.219  26.906  1.00  0.00     0.341 C 
ATOM     26  O   UNL A   1      31.892  22.873  27.638  1.00  0.00    -0.246 OA
BRANCH  25  27
ATOM     27  O   UNL A   1      29.719  23.493  27.329  1.00  0.00    -0.465 OA
ATOM     28  C   UNL A   1      28.819  22.388  27.241  1.00  0.00     0.282 C 
ENDBRANCH  25  27
ENDBRANCH  16  25
BRANCH  23  29
ATOM     29  C   UNL A   1      32.546  27.314  23.662  1.00  0.00     0.299 C 
BRANCH  29  30
ATOM     30  C   UNL A   1      32.718  28.138  24.924  1.00  0.00     0.006 A 
ATOM     31  C   UNL A   1      32.564  29.532  24.903  1.00  0.00     0.009 A 
ATOM     32  C   UNL A   1      32.987  27.520  26.155  1.00  0.00     0.009 A 
ATOM     33  C   UNL A   1      32.572  30.269  26.091  1.00  0.00     0.001 A 
ATOM     34  C   UNL A   1      32.976  28.254  27.345  1.00  0.00     0.001 A 
ATOM     35  C   UNL A   1      32.753  29.627  27.313  1.00  0.00     0.000 A 
ENDBRANCH  29  30
ENDBRANCH  23  29
ENDBRANCH  12  15
ENDBRANCH   9  11
ENDBRANCH   5   8
ENDBRANCH   3   4
ENDBRANCH   2   3
ENDBRANCH   1   2
BRANCH   1  36
ATOM     36  C   UNL A   1      42.126  20.402  27.308  1.00  0.00     0.002 C 
BRANCH  36  37
ATOM     37  C   UNL A   1      42.328  19.280  26.279  1.00  0.00     0.021 C 
BRANCH  37  38
ATOM     38  C   UNL A   1      43.754  18.766  26.150  1.00  0.00     0.116 C 
BRANCH  38  39
ATOM     39  N   UNL A   1      44.270  18.861  24.781  1.00  0.00    -0.352 N 
ATOM     40  C   UNL A   1      44.483  19.975  23.992  1.00  0.00     0.251 C 
ATOM     41  H   UNL A   1      44.501  18.001  24.361  1.00  0.00     0.163 HD
ATOM     42  O   UNL A   1      44.611  19.862  22.777  1.00  0.00    -0.269 OA
BRANCH  40  43
ATOM     43  C   UNL A   1      44.551  21.301  24.628  1.00  0.00     0.039 A 
ATOM     44  C   UNL A   1      43.578  22.281  24.420  1.00  0.00     0.014 A 
ATOM     45  C   UNL A   1      45.613  21.536  25.489  1.00  0.00     0.014 A 
ATOM     46  C   UNL A   1      43.654  23.464  25.153  1.00  0.00     0.010 A 
ATOM     47  C   UNL A   1      45.550  22.571  26.374  1.00  0.00     0.010 A 
ATOM     48  C   UNL A   1      44.640  23.589  26.143  1.00  0.00    -0.014 A 
BRANCH  48  49
ATOM     49  C   UNL A   1      44.708  24.739  27.030  1.00  0.00     0.031 A 
ATOM     50  C   UNL A   1      45.833  25.660  26.739  1.00  0.00     0.074 A 
ATOM     51  C   UNL A   1      43.691  25.067  27.858  1.00  0.00     0.049 A 
ATOM     52  N   UNL A   1      46.907  25.832  27.436  1.00  0.00    -0.248 NA
ATOM     53  C   UNL A   1      45.856  26.338  25.433  1.00  0.00     0.031 C 
ATOM     54  C   UNL A   1      42.370  24.427  27.971  1.00  0.00     0.029 A 
ATOM     55  N   UNL A   1      43.559  26.152  28.664  1.00  0.00    -0.354 N 
ATOM     56  C   UNL A   1      47.602  26.851  26.792  1.00  0.00     0.074 A 
ATOM     57  C   UNL A   1      47.056  26.924  25.463  1.00  0.00     0.031 C 
ATOM     58  C   UNL A   1      41.505  25.277  28.567  1.00  0.00     0.029 A 
ATOM     59  C   UNL A   1      42.247  26.424  29.046  1.00  0.00     0.049 A 
ATOM     60  H   UNL A   1      44.325  26.699  28.955  1.00  0.00     0.167 HD
ATOM     61  C   UNL A   1      48.340  27.750  27.500  1.00  0.00     0.034 A 
ATOM     62  C   UNL A   1      41.803  27.540  29.672  1.00  0.00     0.034 A 
ATOM     63  C   UNL A   1      48.534  27.302  28.862  1.00  0.00     0.049 A 
ATOM     64  C   UNL A   1      42.983  28.175  30.301  1.00  0.00     0.074 A 
ATOM     65  C   UNL A   1      49.063  26.176  29.459  1.00  0.00     0.029 A 
ATOM     66  N   UNL A   1      47.765  27.915  29.822  1.00  0.00    -0.354 N 
ATOM     67  N   UNL A   1      43.659  27.632  31.275  1.00  0.00    -0.248 NA
ATOM     68  C   UNL A   1      43.679  29.209  29.555  1.00  0.00     0.031 C 
ATOM     69  C   UNL A   1      48.214  25.921  30.577  1.00  0.00     0.029 A 
ATOM     70  C   UNL A   1      47.265  26.944  30.646  1.00  0.00     0.049 A 
ATOM     71  H   UNL A   1      47.603  28.883  29.903  1.00  0.00     0.167 HD
ATOM     72  C   UNL A   1      44.985  27.906  30.964  1.00  0.00     0.074 A 
ATOM     73  C   UNL A   1      44.926  28.980  29.973  1.00  0.00     0.031 C 
ATOM     74  C   UNL A   1      45.981  27.036  31.308  1.00  0.00     0.034 A 
BRANCH  61  75
ATOM     75  C   UNL A   1      48.540  29.208  27.132  1.00  0.00     0.023 A 
ATOM     76  C   UNL A   1      49.858  29.712  27.225  1.00  0.00     0.012 A 
ATOM     77  C   UNL A   1      47.506  30.161  26.982  1.00  0.00     0.148 A 
ATOM     78  C   UNL A   1      50.124  31.085  27.250  1.00  0.00     0.002 A 
ATOM     79  C   UNL A   1      47.783  31.523  26.924  1.00  0.00     0.091 A 
ATOM     80  F   UNL A   1      46.227  29.786  27.029  1.00  0.00    -0.205 F 
ATOM     81  C   UNL A   1      49.085  31.993  27.095  1.00  0.00     0.022 A 
BRANCH  79  82
ATOM     82  S   UNL A   1      46.481  32.737  26.673  1.00  0.00     0.127 S 
ATOM     83  O   UNL A   1      45.903  32.823  28.010  1.00  0.00    -0.237 OA
ATOM     84  O   UNL A   1      47.246  33.911  26.250  1.00  0.00    -0.237 OA
ATOM     85  O   UNL A   1      45.622  32.182  25.635  1.00  0.00    -0.744 OA
ENDBRANCH  79  82
ENDBRANCH  61  75
BRANCH  62  86
ATOM     86  C   UNL A   1      40.495  28.231  29.588  1.00  0.00     0.023 A 
ATOM     87  C   UNL A   1      39.797  28.241  28.363  1.00  0.00     0.012 A 
ATOM     88  C   UNL A   1      39.799  28.617  30.755  1.00  0.00     0.148 A 
ATOM     89  C   UNL A   1      38.441  28.579  28.307  1.00  0.00     0.002 A 
ATOM     90  C   UNL A   1      38.450  28.958  30.694  1.00  0.00     0.091 A 
ATOM     91  F   UNL A   1      40.434  28.559  31.933  1.00  0.00    -0.205 F 
ATOM     92  C   UNL A   1      37.764  28.926  29.472  1.00  0.00     0.022 A 
BRANCH  90  93
ATOM     93  S   UNL A   1      37.501  29.396  32.158  1.00  0.00     0.127 S 
ATOM     94  O   UNL A   1      36.189  29.709  31.588  1.00  0.00    -0.237 OA
ATOM     95  O   UNL A   1      37.549  28.158  32.932  1.00  0.00    -0.237 OA
ATOM     96  O   UNL A   1      38.185  30.542  32.742  1.00  0.00    -0.744 OA
ENDBRANCH  90  93
ENDBRANCH  62  86
BRANCH  74  97
ATOM     97  C   UNL A   1      45.652  25.924  32.275  1.00  0.00     0.023 A 
ATOM     98  C   UNL A   1      44.973  24.750  31.886  1.00  0.00     0.012 A 
ATOM     99  C   UNL A   1      46.198  25.993  33.569  1.00  0.00     0.148 A 
ATOM    100  C   UNL A   1      44.823  23.680  32.774  1.00  0.00     0.002 A 
ATOM    101  C   UNL A   1      46.090  24.910  34.431  1.00  0.00     0.091 A 
ATOM    102  F   UNL A   1      46.845  27.114  33.923  1.00  0.00    -0.205 F 
ATOM    103  C   UNL A   1      45.394  23.755  34.042  1.00  0.00     0.022 A 
BRANCH 101 104
ATOM    104  S   UNL A   1      46.912  24.900  36.025  1.00  0.00     0.127 S 
ATOM    105  O   UNL A   1      45.970  25.641  36.860  1.00  0.00    -0.237 OA
ATOM    106  O   UNL A   1      47.002  23.470  36.325  1.00  0.00    -0.237 OA
ATOM    107  O   UNL A   1      48.204  25.543  35.813  1.00  0.00    -0.744 OA
ENDBRANCH 101 104
ENDBRANCH  74  97
ENDBRANCH  48  49
ENDBRANCH  40  43
ENDBRANCH  38  39
ENDBRANCH  37  38
ENDBRANCH  36  37
ENDBRANCH   1  36
TORSDOF 22
ENDMDL
MODEL 2
REMARK VINA RESULT:     -11.0      3.116      9.377
REMARK SMILES COC(=O)c1c(NC(=O)[C@@H]2C[C@@H]2C(=O)NCCCCCCNC(=O)c2ccc(-c3c4nc(c(-c5cccc(S(=O)(=O)[O-])c5F)c5ccc([nH]5)c(-c5cccc(S(=O)(=O)[O-])c5F)c5nc(c(-c6cccc(S(=O)(=O)[O-])c6F)c6ccc3[nH]6)C=C5)C=C4)cc2)sc2c1CC[N@@H+](Cc1ccccc1)C2
REMARK SMILES IDX 18 1 17 2 16 3 15 4 13 5 14 6 12 8 10 9 11 10 8 11 7 12 9 14
REMARK SMILES IDX 6 15 5 16 90 17 88 18 89 19 91 20 101 21 92 22 93 23 3 25
REMARK SMILES IDX 4 26 2 27 1 28 94 29 95 30 96 31 100 32 97 33 99 34 98 35
REMARK SMILES IDX 19 36 20 37 21 38 22 39 23 40 24 42 25 43 26 44 87 45 27 46
REMARK SMILES IDX 86 47 28 48 29 49 30 50 80 51 31 52 85 53 79 54 81 55 32 56
REMARK SMILES IDX 84 57 78 58 77 59 33 61 65 62 45 63 64 64 46 65 49 66 63 67
REMARK SMILES IDX 82 68 47 69 48 70 62 72 83 73 50 74 34 75 35 76 43 77 36 78
REMARK SMILES IDX 38 79 44 80 37 81 39 82 40 83 41 84 42 85 66 86 67 87 75 88
REMARK SMILES IDX 68 89 70 90 76 91 69 92 71 93 72 94 73 95 74 96 51 97 52 98
REMARK SMILES IDX 60 99 53 100 55 101 61 102 54 103 56 104 57 105 58 106
REMARK SMILES IDX 59 107
REMARK H PARENT 15 7 7 13 93 24 22 41 81 60 49 71
REMARK Flexibility Score: inf
ROOT
ATOM      1  C   UNL A   1      34.359  30.172  27.238  1.00  0.00     0.002 C 
ENDROOT
BRANCH   1   2
ATOM      2  C   UNL A   1      33.066  30.984  27.203  1.00  0.00     0.021 C 
BRANCH   2   3
ATOM      3  C   UNL A   1      31.848  30.172  26.801  1.00  0.00     0.116 C 
BRANCH   3   4
ATOM      4  N   UNL A   1      31.489  30.192  25.417  1.00  0.00    -0.356 N 
ATOM      5  C   UNL A   1      31.987  29.422  24.403  1.00  0.00     0.223 C 
ATOM      6  O   UNL A   1      31.280  29.299  23.402  1.00  0.00    -0.275 OA
ATOM      7  H   UNL A   1      30.796  30.843  25.163  1.00  0.00     0.163 HD
BRANCH   5   8
ATOM      8  C   UNL A   1      33.323  28.754  24.380  1.00  0.00     0.091 C 
ATOM      9  C   UNL A   1      34.066  27.631  23.694  1.00  0.00     0.092 C 
ATOM     10  C   UNL A   1      33.273  27.337  24.927  1.00  0.00     0.028 C 
BRANCH   9  11
ATOM     11  C   UNL A   1      33.812  26.945  22.415  1.00  0.00     0.228 C 
ATOM     12  N   UNL A   1      33.435  25.628  22.340  1.00  0.00    -0.317 N 
ATOM     13  H   UNL A   1      33.164  25.327  21.443  1.00  0.00     0.170 HD
ATOM     14  O   UNL A   1      33.952  27.555  21.360  1.00  0.00    -0.274 OA
BRANCH  12  15
ATOM     15  C   UNL A   1      33.374  24.662  23.315  1.00  0.00     0.110 A 
ATOM     16  C   UNL A   1      32.417  24.090  24.128  1.00  0.00     0.098 A 
ATOM     17  C   UNL A   1      33.044  23.153  25.047  1.00  0.00    -0.006 A 
ATOM     18  S   UNL A   1      34.943  24.020  23.569  1.00  0.00    -0.116 S 
ATOM     19  C   UNL A   1      34.388  22.985  24.778  1.00  0.00     0.065 A 
ATOM     20  C   UNL A   1      32.349  22.230  26.011  1.00  0.00     0.099 C 
ATOM     21  C   UNL A   1      35.231  21.887  25.344  1.00  0.00     0.310 C 
ATOM     22  C   UNL A   1      33.251  21.056  26.477  1.00  0.00     0.267 C 
ATOM     23  N   UNL A   1      34.411  20.697  25.638  1.00  0.00    -0.326 N 
ATOM     24  H   UNL A   1      34.982  20.069  26.203  1.00  0.00     0.348 HD
BRANCH  16  25
ATOM     25  C   UNL A   1      30.964  24.253  24.034  1.00  0.00     0.341 C 
ATOM     26  O   UNL A   1      30.246  23.497  23.422  1.00  0.00    -0.246 OA
BRANCH  25  27
ATOM     27  O   UNL A   1      30.527  25.392  24.659  1.00  0.00    -0.465 OA
ATOM     28  C   UNL A   1      29.975  25.177  25.957  1.00  0.00     0.282 C 
ENDBRANCH  25  27
ENDBRANCH  16  25
BRANCH  23  29
ATOM     29  C   UNL A   1      34.123  19.834  24.473  1.00  0.00     0.299 C 
BRANCH  29  30
ATOM     30  C   UNL A   1      33.885  18.352  24.688  1.00  0.00     0.006 A 
ATOM     31  C   UNL A   1      34.857  17.405  24.334  1.00  0.00     0.009 A 
ATOM     32  C   UNL A   1      32.704  17.894  25.291  1.00  0.00     0.009 A 
ATOM     33  C   UNL A   1      34.698  16.058  24.672  1.00  0.00     0.001 A 
ATOM     34  C   UNL A   1      32.552  16.550  25.647  1.00  0.00     0.001 A 
ATOM     35  C   UNL A   1      33.558  15.635  25.351  1.00  0.00     0.000 A 
ENDBRANCH  29  30
ENDBRANCH  23  29
ENDBRANCH  12  15
ENDBRANCH   9  11
ENDBRANCH   5   8
ENDBRANCH   3   4
ENDBRANCH   2   3
ENDBRANCH   1   2
BRANCH   1  36
ATOM     36  C   UNL A   1      35.570  30.827  27.927  1.00  0.00     0.002 C 
BRANCH  36  37
ATOM     37  C   UNL A   1      35.689  32.358  27.874  1.00  0.00     0.021 C 
BRANCH  37  38
ATOM     38  C   UNL A   1      36.454  32.990  29.027  1.00  0.00     0.116 C 
BRANCH  38  39
ATOM     39  N   UNL A   1      35.708  32.956  30.289  1.00  0.00    -0.352 N 
ATOM     40  C   UNL A   1      35.751  32.032  31.316  1.00  0.00     0.251 C 
ATOM     41  H   UNL A   1      35.083  33.704  30.426  1.00  0.00     0.163 HD
ATOM     42  O   UNL A   1      34.846  31.976  32.142  1.00  0.00    -0.269 OA
BRANCH  40  43
ATOM     43  C   UNL A   1      36.899  31.115  31.406  1.00  0.00     0.039 A 
ATOM     44  C   UNL A   1      36.802  29.761  31.077  1.00  0.00     0.014 A 
ATOM     45  C   UNL A   1      38.115  31.657  31.799  1.00  0.00     0.014 A 
ATOM     46  C   UNL A   1      37.962  28.989  31.074  1.00  0.00     0.010 A 
ATOM     47  C   UNL A   1      39.269  30.973  31.559  1.00  0.00     0.010 A 
ATOM     48  C   UNL A   1      39.197  29.615  31.302  1.00  0.00    -0.014 A 
BRANCH  48  49
ATOM     49  C   UNL A   1      40.460  28.902  31.196  1.00  0.00     0.031 A 
ATOM     50  C   UNL A   1      41.178  28.751  32.484  1.00  0.00     0.074 A 
ATOM     51  C   UNL A   1      40.806  28.217  30.082  1.00  0.00     0.049 A 
ATOM     52  N   UNL A   1      42.256  29.358  32.858  1.00  0.00    -0.248 NA
ATOM     53  C   UNL A   1      40.531  27.974  33.554  1.00  0.00     0.031 C 
ATOM     54  C   UNL A   1      40.005  27.998  28.867  1.00  0.00     0.029 A 
ATOM     55  N   UNL A   1      41.889  27.428  29.865  1.00  0.00    -0.354 N 
ATOM     56  C   UNL A   1      42.568  28.816  34.102  1.00  0.00     0.074 A 
ATOM     57  C   UNL A   1      41.361  28.195  34.577  1.00  0.00     0.031 C 
ATOM     58  C   UNL A   1      40.497  26.939  28.187  1.00  0.00     0.029 A 
ATOM     59  C   UNL A   1      41.741  26.535  28.805  1.00  0.00     0.049 A 
ATOM     60  H   UNL A   1      42.709  27.482  30.408  1.00  0.00     0.167 HD
ATOM     61  C   UNL A   1      43.864  28.653  34.487  1.00  0.00     0.034 A 
ATOM     62  C   UNL A   1      42.568  25.509  28.493  1.00  0.00     0.034 A 
ATOM     63  C   UNL A   1      44.759  29.380  33.615  1.00  0.00     0.049 A 
ATOM     64  C   UNL A   1      43.867  25.793  29.145  1.00  0.00     0.074 A 
ATOM     65  C   UNL A   1      44.891  30.695  33.218  1.00  0.00     0.029 A 
ATOM     66  N   UNL A   1      45.451  28.634  32.691  1.00  0.00    -0.354 N 
ATOM     67  N   UNL A   1      44.632  26.797  28.818  1.00  0.00    -0.248 NA
ATOM     68  C   UNL A   1      44.109  25.220  30.458  1.00  0.00     0.031 C 
ATOM     69  C   UNL A   1      45.244  30.627  31.837  1.00  0.00     0.029 A 
ATOM     70  C   UNL A   1      45.384  29.282  31.489  1.00  0.00     0.049 A 
ATOM     71  H   UNL A   1      45.916  27.783  32.865  1.00  0.00     0.167 HD
ATOM     72  C   UNL A   1      45.105  27.275  30.034  1.00  0.00     0.074 A 
ATOM     73  C   UNL A   1      44.855  26.194  30.987  1.00  0.00     0.031 C 
ATOM     74  C   UNL A   1      45.373  28.603  30.210  1.00  0.00     0.034 A 
BRANCH  61  75
ATOM     75  C   UNL A   1      44.384  27.530  35.366  1.00  0.00     0.023 A 
ATOM     76  C   UNL A   1      45.311  27.889  36.372  1.00  0.00     0.012 A 
ATOM     77  C   UNL A   1      44.248  26.150  35.092  1.00  0.00     0.148 A 
ATOM     78  C   UNL A   1      46.113  26.938  37.011  1.00  0.00     0.002 A 
ATOM     79  C   UNL A   1      44.989  25.200  35.788  1.00  0.00     0.091 A 
ATOM     80  F   UNL A   1      43.506  25.732  34.066  1.00  0.00    -0.205 F 
ATOM     81  C   UNL A   1      45.949  25.590  36.721  1.00  0.00     0.022 A 
BRANCH  79  82
ATOM     82  S   UNL A   1      44.778  23.440  35.488  1.00  0.00     0.127 S 
ATOM     83  O   UNL A   1      45.579  23.252  34.283  1.00  0.00    -0.237 OA
ATOM     84  O   UNL A   1      45.345  22.860  36.707  1.00  0.00    -0.237 OA
ATOM     85  O   UNL A   1      43.343  23.236  35.345  1.00  0.00    -0.744 OA
ENDBRANCH  79  82
ENDBRANCH  61  75
BRANCH  62  86
ATOM     86  C   UNL A   1      42.275  24.196  27.873  1.00  0.00     0.023 A 
ATOM     87  C   UNL A   1      40.947  23.720  27.859  1.00  0.00     0.012 A 
ATOM     88  C   UNL A   1      43.222  23.552  27.047  1.00  0.00     0.148 A 
ATOM     89  C   UNL A   1      40.565  22.671  27.016  1.00  0.00     0.002 A 
ATOM     90  C   UNL A   1      42.838  22.504  26.213  1.00  0.00     0.091 A 
ATOM     91  F   UNL A   1      44.474  24.028  27.009  1.00  0.00    -0.205 F 
ATOM     92  C   UNL A   1      41.506  22.071  26.185  1.00  0.00     0.022 A 
BRANCH  90  93
ATOM     93  S   UNL A   1      43.990  21.692  25.095  1.00  0.00     0.127 S 
ATOM     94  O   UNL A   1      43.359  20.385  24.905  1.00  0.00    -0.237 OA
ATOM     95  O   UNL A   1      43.944  22.566  23.926  1.00  0.00    -0.237 OA
ATOM     96  O   UNL A   1      45.260  21.642  25.807  1.00  0.00    -0.744 OA
ENDBRANCH  90  93
ENDBRANCH  62  86
BRANCH  74  97
ATOM     97  C   UNL A   1      45.419  29.488  28.988  1.00  0.00     0.023 A 
ATOM     98  C   UNL A   1      44.256  29.977  28.356  1.00  0.00     0.012 A 
ATOM     99  C   UNL A   1      46.670  29.977  28.575  1.00  0.00     0.148 A 
ATOM    100  C   UNL A   1      44.342  30.916  27.323  1.00  0.00     0.002 A 
ATOM    101  C   UNL A   1      46.749  30.944  27.582  1.00  0.00     0.091 A 
ATOM    102  F   UNL A   1      47.767  29.504  29.187  1.00  0.00    -0.205 F 
ATOM    103  C   UNL A   1      45.588  31.410  26.946  1.00  0.00     0.022 A 
BRANCH 101 104
ATOM    104  S   UNL A   1      48.312  31.708  27.145  1.00  0.00     0.127 S 
ATOM    105  O   UNL A   1      48.764  32.236  28.430  1.00  0.00    -0.237 OA
ATOM    106  O   UNL A   1      49.089  30.574  26.643  1.00  0.00    -0.237 OA
ATOM    107  O   UNL A   1      47.999  32.707  26.130  1.00  0.00    -0.744 OA
ENDBRANCH 101 104
ENDBRANCH  74  97
ENDBRANCH  48  49
ENDBRANCH  40  43
ENDBRANCH  38  39
ENDBRANCH  37  38
ENDBRANCH  36  37
ENDBRANCH   1  36
TORSDOF 22
ENDMDL
MODEL 3
REMARK VINA RESULT:     -10.8      3.087      9.460
REMARK SMILES COC(=O)c1c(NC(=O)[C@@H]2C[C@@H]2C(=O)NCCCCCCNC(=O)c2ccc(-c3c4nc(c(-c5cccc(S(=O)(=O)[O-])c5F)c5ccc([nH]5)c(-c5cccc(S(=O)(=O)[O-])c5F)c5nc(c(-c6cccc(S(=O)(=O)[O-])c6F)c6ccc3[nH]6)C=C5)C=C4)cc2)sc2c1CC[N@@H+](Cc1ccccc1)C2
REMARK SMILES IDX 18 1 17 2 16 3 15 4 13 5 14 6 12 8 10 9 11 10 8 11 7 12 9 14
REMARK SMILES IDX 6 15 5 16 90 17 88 18 89 19 91 20 101 21 92 22 93 23 3 25
REMARK SMILES IDX 4 26 2 27 1 28 94 29 95 30 96 31 100 32 97 33 99 34 98 35
REMARK SMILES IDX 19 36 20 37 21 38 22 39 23 40 24 42 25 43 26 44 87 45 27 46
REMARK SMILES IDX 86 47 28 48 29 49 30 50 80 51 31 52 85 53 79 54 81 55 32 56
REMARK SMILES IDX 84 57 78 58 77 59 33 61 65 62 45 63 64 64 46 65 49 66 63 67
REMARK SMILES IDX 82 68 47 69 48 70 62 72 83 73 50 74 34 75 35 76 43 77 36 78
REMARK SMILES IDX 38 79 44 80 37 81 39 82 40 83 41 84 42 85 66 86 67 87 75 88
REMARK SMILES IDX 68 89 70 90 76 91 69 92 71 93 72 94 73 95 74 96 51 97 52 98
REMARK SMILES IDX 60 99 53 100 55 101 61 102 54 103 56 104 57 105 58 106
REMARK SMILES IDX 59 107
REMARK H PARENT 15 7 7 13 93 24 22 41 81 60 49 71
REMARK Flexibility Score: inf
ROOT
ATOM      1  C   UNL A   1      32.331  30.728  26.642  1.00  0.00     0.002 C 
ENDROOT
BRANCH   1   2
ATOM      2  C   UNL A   1      32.231  29.978  25.315  1.00  0.00     0.021 C 
BRANCH   2   3
ATOM      3  C   UNL A   1      30.864  29.368  25.063  1.00  0.00     0.116 C 
BRANCH   3   4
ATOM      4  N   UNL A   1      30.394  29.377  23.713  1.00  0.00    -0.356 N 
ATOM      5  C   UNL A   1      30.186  28.310  22.882  1.00  0.00     0.223 C 
ATOM      6  O   UNL A   1      29.410  28.484  21.941  1.00  0.00    -0.275 OA
ATOM      7  H   UNL A   1      30.197  30.263  23.333  1.00  0.00     0.163 HD
BRANCH   5   8
ATOM      8  C   UNL A   1      30.841  26.973  22.986  1.00  0.00     0.091 C 
ATOM      9  C   UNL A   1      32.207  26.328  22.980  1.00  0.00     0.092 C 
ATOM     10  C   UNL A   1      31.496  26.545  21.683  1.00  0.00     0.028 C 
BRANCH   9  11
ATOM     11  C   UNL A   1      33.542  26.891  23.247  1.00  0.00     0.228 C 
ATOM     12  N   UNL A   1      34.443  26.299  24.096  1.00  0.00    -0.317 N 
ATOM     13  H   UNL A   1      35.344  26.696  24.084  1.00  0.00     0.170 HD
ATOM     14  O   UNL A   1      33.877  27.942  22.709  1.00  0.00    -0.274 OA
BRANCH  12  15
ATOM     15  C   UNL A   1      34.290  25.242  24.960  1.00  0.00     0.110 A 
ATOM     16  C   UNL A   1      33.452  24.882  25.995  1.00  0.00     0.098 A 
ATOM     17  C   UNL A   1      33.901  23.630  26.583  1.00  0.00    -0.006 A 
ATOM     18  S   UNL A   1      35.500  24.072  24.637  1.00  0.00    -0.116 S 
ATOM     19  C   UNL A   1      34.949  23.073  25.878  1.00  0.00     0.065 A 
ATOM     20  C   UNL A   1      33.202  22.829  27.648  1.00  0.00     0.099 C 
ATOM     21  C   UNL A   1      35.431  21.668  26.051  1.00  0.00     0.310 C 
ATOM     22  C   UNL A   1      33.679  21.353  27.702  1.00  0.00     0.267 C 
ATOM     23  N   UNL A   1      34.335  20.792  26.505  1.00  0.00    -0.326 N 
ATOM     24  H   UNL A   1      34.755  19.912  26.802  1.00  0.00     0.348 HD
BRANCH  16  25
ATOM     25  C   UNL A   1      32.205  25.541  26.394  1.00  0.00     0.341 C 
ATOM     26  O   UNL A   1      32.120  26.723  26.630  1.00  0.00    -0.246 OA
BRANCH  25  27
ATOM     27  O   UNL A   1      31.170  24.652  26.534  1.00  0.00    -0.465 OA
ATOM     28  C   UNL A   1      29.924  25.112  26.012  1.00  0.00     0.282 C 
ENDBRANCH  25  27
ENDBRANCH  16  25
BRANCH  23  29
ATOM     29  C   UNL A   1      33.431  20.318  25.436  1.00  0.00     0.299 C 
BRANCH  29  30
ATOM     30  C   UNL A   1      33.435  18.850  25.057  1.00  0.00     0.006 A 
ATOM     31  C   UNL A   1      32.368  18.010  25.410  1.00  0.00     0.009 A 
ATOM     32  C   UNL A   1      34.484  18.305  24.302  1.00  0.00     0.009 A 
ATOM     33  C   UNL A   1      32.302  16.698  24.930  1.00  0.00     0.001 A 
ATOM     34  C   UNL A   1      34.411  16.999  23.806  1.00  0.00     0.001 A 
ATOM     35  C   UNL A   1      33.311  16.202  24.107  1.00  0.00     0.000 A 
ENDBRANCH  29  30
ENDBRANCH  23  29
ENDBRANCH  12  15
ENDBRANCH   9  11
ENDBRANCH   5   8
ENDBRANCH   3   4
ENDBRANCH   2   3
ENDBRANCH   1   2
BRANCH   1  36
ATOM     36  C   UNL A   1      33.744  30.931  27.219  1.00  0.00     0.002 C 
BRANCH  36  37
ATOM     37  C   UNL A   1      34.194  32.364  27.538  1.00  0.00     0.021 C 
BRANCH  37  38
ATOM     38  C   UNL A   1      35.370  32.477  28.497  1.00  0.00     0.116 C 
BRANCH  38  39
ATOM     39  N   UNL A   1      34.956  32.799  29.867  1.00  0.00    -0.352 N 
ATOM     40  C   UNL A   1      35.324  32.212  31.062  1.00  0.00     0.251 C 
ATOM     41  H   UNL A   1      34.321  33.547  29.947  1.00  0.00     0.163 HD
ATOM     42  O   UNL A   1      34.653  32.386  32.073  1.00  0.00    -0.269 OA
BRANCH  40  43
ATOM     43  C   UNL A   1      36.534  31.374  31.105  1.00  0.00     0.039 A 
ATOM     44  C   UNL A   1      36.503  30.002  30.842  1.00  0.00     0.014 A 
ATOM     45  C   UNL A   1      37.735  32.010  31.383  1.00  0.00     0.014 A 
ATOM     46  C   UNL A   1      37.708  29.305  30.786  1.00  0.00     0.010 A 
ATOM     47  C   UNL A   1      38.912  31.389  31.087  1.00  0.00     0.010 A 
ATOM     48  C   UNL A   1      38.912  30.017  30.894  1.00  0.00    -0.014 A 
BRANCH  48  49
ATOM     49  C   UNL A   1      40.208  29.381  30.726  1.00  0.00     0.031 A 
ATOM     50  C   UNL A   1      40.869  29.008  31.999  1.00  0.00     0.074 A 
ATOM     51  C   UNL A   1      40.638  28.936  29.523  1.00  0.00     0.049 A 
ATOM     52  N   UNL A   1      41.900  29.567  32.542  1.00  0.00    -0.248 NA
ATOM     53  C   UNL A   1      40.205  28.018  32.862  1.00  0.00     0.031 C 
ATOM     54  C   UNL A   1      39.907  28.929  28.244  1.00  0.00     0.029 A 
ATOM     55  N   UNL A   1      41.763  28.240  29.219  1.00  0.00    -0.354 N 
ATOM     56  C   UNL A   1      42.174  28.806  33.674  1.00  0.00     0.074 A 
ATOM     57  C   UNL A   1      40.973  28.065  33.954  1.00  0.00     0.031 C 
ATOM     58  C   UNL A   1      40.477  28.039  27.403  1.00  0.00     0.029 A 
ATOM     59  C   UNL A   1      41.706  27.565  28.002  1.00  0.00     0.049 A 
ATOM     60  H   UNL A   1      42.553  28.216  29.808  1.00  0.00     0.167 HD
ATOM     61  C   UNL A   1      43.455  28.615  34.094  1.00  0.00     0.034 A 
ATOM     62  C   UNL A   1      42.592  26.646  27.546  1.00  0.00     0.034 A 
ATOM     63  C   UNL A   1      44.360  29.526  33.428  1.00  0.00     0.049 A 
ATOM     64  C   UNL A   1      43.844  26.842  28.312  1.00  0.00     0.074 A 
ATOM     65  C   UNL A   1      44.453  30.897  33.298  1.00  0.00     0.029 A 
ATOM     66  N   UNL A   1      45.128  28.996  32.420  1.00  0.00    -0.354 N 
ATOM     67  N   UNL A   1      44.579  27.915  28.226  1.00  0.00    -0.248 NA
ATOM     68  C   UNL A   1      44.046  26.035  29.503  1.00  0.00     0.031 C 
ATOM     69  C   UNL A   1      44.876  31.109  31.952  1.00  0.00     0.029 A 
ATOM     70  C   UNL A   1      45.091  29.861  31.361  1.00  0.00     0.049 A 
ATOM     71  H   UNL A   1      45.620  28.144  32.453  1.00  0.00     0.167 HD
ATOM     72  C   UNL A   1      44.971  28.165  29.536  1.00  0.00     0.074 A 
ATOM     73  C   UNL A   1      44.722  26.913  30.249  1.00  0.00     0.031 C 
ATOM     74  C   UNL A   1      45.172  29.442  29.977  1.00  0.00     0.034 A 
BRANCH  61  75
ATOM     75  C   UNL A   1      43.981  27.362  34.770  1.00  0.00     0.023 A 
ATOM     76  C   UNL A   1      43.851  26.151  34.051  1.00  0.00     0.012 A 
ATOM     77  C   UNL A   1      44.320  27.253  36.138  1.00  0.00     0.148 A 
ATOM     78  C   UNL A   1      43.972  24.905  34.675  1.00  0.00     0.002 A 
ATOM     79  C   UNL A   1      44.520  26.013  36.736  1.00  0.00     0.091 A 
ATOM     80  F   UNL A   1      44.323  28.332  36.922  1.00  0.00    -0.205 F 
ATOM     81  C   UNL A   1      44.311  24.835  36.019  1.00  0.00     0.022 A 
BRANCH  79  82
ATOM     82  S   UNL A   1      45.011  25.870  38.460  1.00  0.00     0.127 S 
ATOM     83  O   UNL A   1      46.227  26.675  38.484  1.00  0.00    -0.237 OA
ATOM     84  O   UNL A   1      43.860  26.459  39.147  1.00  0.00    -0.237 OA
ATOM     85  O   UNL A   1      45.179  24.443  38.701  1.00  0.00    -0.744 OA
ENDBRANCH  79  82
ENDBRANCH  61  75
BRANCH  62  86
ATOM     86  C   UNL A   1      42.386  25.469  26.672  1.00  0.00     0.023 A 
ATOM     87  C   UNL A   1      43.247  25.264  25.574  1.00  0.00     0.012 A 
ATOM     88  C   UNL A   1      41.550  24.402  27.071  1.00  0.00     0.148 A 
ATOM     89  C   UNL A   1      43.310  24.026  24.926  1.00  0.00     0.002 A 
ATOM     90  C   UNL A   1      41.613  23.172  26.419  1.00  0.00     0.091 A 
ATOM     91  F   UNL A   1      40.767  24.564  28.146  1.00  0.00    -0.205 F 
ATOM     92  C   UNL A   1      42.503  22.977  25.355  1.00  0.00     0.022 A 
BRANCH  90  93
ATOM     93  S   UNL A   1      40.617  21.762  26.928  1.00  0.00     0.127 S 
ATOM     94  O   UNL A   1      39.292  22.128  26.425  1.00  0.00    -0.237 OA
ATOM     95  O   UNL A   1      41.259  20.664  26.210  1.00  0.00    -0.237 OA
ATOM     96  O   UNL A   1      40.711  21.718  28.381  1.00  0.00    -0.744 OA
ENDBRANCH  90  93
ENDBRANCH  62  86
BRANCH  74  97
ATOM     97  C   UNL A   1      45.239  30.548  28.951  1.00  0.00     0.023 A 
ATOM     98  C   UNL A   1      44.094  31.236  28.496  1.00  0.00     0.012 A 
ATOM     99  C   UNL A   1      46.507  31.018  28.571  1.00  0.00     0.148 A 
ATOM    100  C   UNL A   1      44.213  32.353  27.663  1.00  0.00     0.002 A 
ATOM    101  C   UNL A   1      46.623  32.155  27.784  1.00  0.00     0.091 A 
ATOM    102  F   UNL A   1      47.587  30.355  29.015  1.00  0.00    -0.205 F 
ATOM    103  C   UNL A   1      45.479  32.821  27.319  1.00  0.00     0.022 A 
BRANCH 101 104
ATOM    104  S   UNL A   1      48.224  32.877  27.415  1.00  0.00     0.127 S 
ATOM    105  O   UNL A   1      47.851  34.147  26.796  1.00  0.00    -0.237 OA
ATOM    106  O   UNL A   1      48.829  32.998  28.742  1.00  0.00    -0.237 OA
ATOM    107  O   UNL A   1      48.899  31.926  26.540  1.00  0.00    -0.744 OA
ENDBRANCH 101 104
ENDBRANCH  74  97
ENDBRANCH  48  49
ENDBRANCH  40  43
ENDBRANCH  38  39
ENDBRANCH  37  38
ENDBRANCH  36  37
ENDBRANCH   1  36
TORSDOF 22
ENDMDL
