MODEL 1
REMARK VINA RESULT:     -11.5      0.000      0.000
REMARK SMILES Cc1cc(C)cc(S(=O)(=O)N2CSC[C@H]2C(=O)NCCCCCCNC(=O)c2ccc(-c3c4nc(c(-c5cccc(S(=O)(=O)[O-])c5F)c5ccc([nH]5)c(-c5cccc(S(=O)(=O)[O-])c5F)c5nc(c(-c6cccc(S(=O)(=O)[O-])c6F)c6ccc3[nH]6)C=C5)C=C4)cc2)c1
REMARK SMILES IDX 22 1 21 2 20 3 19 4 18 5 16 6 17 7 15 9 11 10 12 11 13 12
REMARK SMILES IDX 14 13 8 14 9 15 10 16 7 17 1 18 2 19 3 20 91 21 4 22 5 23
REMARK SMILES IDX 6 24 23 25 24 26 25 27 26 28 27 30 28 31 29 32 90 33 30 34
REMARK SMILES IDX 89 35 31 36 32 37 33 38 83 39 34 40 88 41 82 42 84 43 35 44
REMARK SMILES IDX 87 45 81 46 80 47 36 49 68 50 48 51 67 52 49 53 52 54 66 55
REMARK SMILES IDX 85 56 50 57 51 58 65 60 86 61 53 62 37 63 38 64 46 65 39 66
REMARK SMILES IDX 41 67 47 68 40 69 42 70 43 71 44 72 45 73 69 74 70 75 78 76
REMARK SMILES IDX 71 77 73 78 79 79 72 80 74 81 75 82 76 83 77 84 54 85 55 86
REMARK SMILES IDX 63 87 56 88 58 89 64 90 57 91 59 92 60 93 61 94 62 95
REMARK H PARENT 18 8 25 29 84 48 52 59
REMARK Flexibility Score: inf
ROOT
ATOM      1  C   UNL A   1      31.772  26.955  26.893  1.00  0.00     0.002 C 
ENDROOT
BRANCH   1   2
ATOM      2  C   UNL A   1      32.561  25.711  26.468  1.00  0.00     0.002 C 
BRANCH   2   3
ATOM      3  C   UNL A   1      31.823  24.383  26.634  1.00  0.00     0.021 C 
BRANCH   3   4
ATOM      4  C   UNL A   1      32.738  23.182  26.805  1.00  0.00     0.116 C 
BRANCH   4   5
ATOM      5  N   UNL A   1      32.140  21.942  26.367  1.00  0.00    -0.355 N 
ATOM      6  C   UNL A   1      32.509  21.098  25.359  1.00  0.00     0.239 C 
ATOM      7  O   UNL A   1      31.899  20.025  25.285  1.00  0.00    -0.273 OA
ATOM      8  H   UNL A   1      31.343  21.663  26.874  1.00  0.00     0.163 HD
BRANCH   6   9
ATOM      9  C   UNL A   1      33.650  21.416  24.381  1.00  0.00     0.173 C 
ATOM     10  N   UNL A   1      33.701  22.846  23.991  1.00  0.00    -0.175 NA
ATOM     11  C   UNL A   1      34.907  23.568  24.386  1.00  0.00     0.172 C 
ATOM     12  S   UNL A   1      36.141  22.360  24.935  1.00  0.00    -0.143 SA
ATOM     13  C   UNL A   1      35.013  20.938  24.875  1.00  0.00     0.101 C 
BRANCH  10  14
ATOM     14  S   UNL A   1      32.933  23.328  22.568  1.00  0.00     0.244 S 
ATOM     15  O   UNL A   1      31.739  22.511  22.442  1.00  0.00    -0.207 OA
ATOM     16  O   UNL A   1      33.916  23.388  21.517  1.00  0.00    -0.207 OA
BRANCH  14  17
ATOM     17  C   UNL A   1      32.359  25.003  22.826  1.00  0.00     0.083 A 
ATOM     18  C   UNL A   1      29.145  26.867  23.618  1.00  0.00     0.044 C 
ATOM     19  C   UNL A   1      30.584  26.599  23.292  1.00  0.00    -0.050 A 
ATOM     20  C   UNL A   1      31.475  27.644  23.044  1.00  0.00     0.007 A 
ATOM     21  C   UNL A   1      31.051  25.287  23.213  1.00  0.00     0.025 A 
ATOM     22  C   UNL A   1      32.811  27.382  22.698  1.00  0.00    -0.050 A 
ATOM     23  C   UNL A   1      33.745  28.532  22.464  1.00  0.00     0.044 C 
ATOM     24  C   UNL A   1      33.246  26.054  22.571  1.00  0.00     0.025 A 
ENDBRANCH  14  17
ENDBRANCH  10  14
ENDBRANCH   6   9
ENDBRANCH   4   5
ENDBRANCH   3   4
ENDBRANCH   2   3
ENDBRANCH   1   2
BRANCH   1  25
ATOM     25  C   UNL A   1      32.237  28.281  26.280  1.00  0.00     0.021 C 
BRANCH  25  26
ATOM     26  C   UNL A   1      33.591  28.785  26.777  1.00  0.00     0.116 C 
BRANCH  26  27
ATOM     27  N   UNL A   1      33.548  30.193  27.126  1.00  0.00    -0.352 N 
ATOM     28  C   UNL A   1      34.404  30.932  27.899  1.00  0.00     0.251 C 
ATOM     29  H   UNL A   1      32.788  30.694  26.751  1.00  0.00     0.163 HD
ATOM     30  O   UNL A   1      34.075  32.062  28.250  1.00  0.00    -0.269 OA
BRANCH  28  31
ATOM     31  C   UNL A   1      35.713  30.382  28.313  1.00  0.00     0.039 A 
ATOM     32  C   UNL A   1      35.805  29.731  29.547  1.00  0.00     0.014 A 
ATOM     33  C   UNL A   1      36.859  30.560  27.530  1.00  0.00     0.014 A 
ATOM     34  C   UNL A   1      37.038  29.244  29.986  1.00  0.00     0.010 A 
ATOM     35  C   UNL A   1      38.073  30.012  27.937  1.00  0.00     0.010 A 
ATOM     36  C   UNL A   1      38.181  29.373  29.181  1.00  0.00    -0.014 A 
BRANCH  36  37
ATOM     37  C   UNL A   1      39.497  28.869  29.647  1.00  0.00     0.031 A 
ATOM     38  C   UNL A   1      40.213  29.546  30.786  1.00  0.00     0.074 A 
ATOM     39  C   UNL A   1      40.078  27.837  29.004  1.00  0.00     0.049 A 
ATOM     40  N   UNL A   1      41.361  29.242  31.334  1.00  0.00    -0.248 NA
ATOM     41  C   UNL A   1      39.570  30.736  31.368  1.00  0.00     0.031 C 
ATOM     42  C   UNL A   1      39.531  27.161  27.827  1.00  0.00     0.029 A 
ATOM     43  N   UNL A   1      41.267  27.193  29.237  1.00  0.00    -0.354 N 
ATOM     44  C   UNL A   1      41.597  30.221  32.293  1.00  0.00     0.074 A 
ATOM     45  C   UNL A   1      40.489  31.148  32.229  1.00  0.00     0.031 C 
ATOM     46  C   UNL A   1      40.380  26.194  27.442  1.00  0.00     0.029 A 
ATOM     47  C   UNL A   1      41.536  26.191  28.335  1.00  0.00     0.049 A 
ATOM     48  H   UNL A   1      41.870  27.426  29.980  1.00  0.00     0.167 HD
ATOM     49  C   UNL A   1      42.625  30.322  33.169  1.00  0.00     0.034 A 
ATOM     50  C   UNL A   1      42.592  25.360  28.240  1.00  0.00     0.034 A 
ATOM     51  C   UNL A   1      43.694  29.366  33.266  1.00  0.00     0.049 A 
ATOM     52  C   UNL A   1      43.676  25.436  29.281  1.00  0.00     0.074 A 
ATOM     53  C   UNL A   1      44.722  29.315  34.190  1.00  0.00     0.029 A 
ATOM     54  N   UNL A   1      43.876  28.294  32.406  1.00  0.00    -0.354 N 
ATOM     55  N   UNL A   1      43.787  26.256  30.299  1.00  0.00    -0.248 NA
ATOM     56  C   UNL A   1      44.755  24.442  29.190  1.00  0.00     0.031 C 
ATOM     57  C   UNL A   1      45.537  28.221  33.877  1.00  0.00     0.029 A 
ATOM     58  C   UNL A   1      45.003  27.578  32.770  1.00  0.00     0.049 A 
ATOM     59  H   UNL A   1      43.288  28.074  31.646  1.00  0.00     0.167 HD
ATOM     60  C   UNL A   1      44.926  25.859  30.987  1.00  0.00     0.074 A 
ATOM     61  C   UNL A   1      45.458  24.708  30.284  1.00  0.00     0.031 C 
ATOM     62  C   UNL A   1      45.491  26.405  32.092  1.00  0.00     0.034 A 
BRANCH  49  63
ATOM     63  C   UNL A   1      42.611  31.481  34.134  1.00  0.00     0.023 A 
ATOM     64  C   UNL A   1      43.297  32.669  33.804  1.00  0.00     0.012 A 
ATOM     65  C   UNL A   1      41.885  31.415  35.338  1.00  0.00     0.148 A 
ATOM     66  C   UNL A   1      43.293  33.757  34.676  1.00  0.00     0.002 A 
ATOM     67  C   UNL A   1      41.848  32.521  36.180  1.00  0.00     0.091 A 
ATOM     68  F   UNL A   1      41.257  30.272  35.647  1.00  0.00    -0.205 F 
ATOM     69  C   UNL A   1      42.560  33.688  35.857  1.00  0.00     0.022 A 
BRANCH  67  70
ATOM     70  S   UNL A   1      40.867  32.558  37.685  1.00  0.00     0.127 S 
ATOM     71  O   UNL A   1      41.726  31.825  38.615  1.00  0.00    -0.237 OA
ATOM     72  O   UNL A   1      40.762  33.992  37.953  1.00  0.00    -0.237 OA
ATOM     73  O   UNL A   1      39.604  31.910  37.354  1.00  0.00    -0.744 OA
ENDBRANCH  67  70
ENDBRANCH  49  63
BRANCH  50  74
ATOM     74  C   UNL A   1      42.623  24.329  27.166  1.00  0.00     0.023 A 
ATOM     75  C   UNL A   1      43.348  24.581  25.985  1.00  0.00     0.012 A 
ATOM     76  C   UNL A   1      41.985  23.084  27.327  1.00  0.00     0.148 A 
ATOM     77  C   UNL A   1      43.413  23.625  24.972  1.00  0.00     0.002 A 
ATOM     78  C   UNL A   1      42.099  22.114  26.338  1.00  0.00     0.091 A 
ATOM     79  F   UNL A   1      41.292  22.867  28.454  1.00  0.00    -0.205 F 
ATOM     80  C   UNL A   1      42.799  22.388  25.152  1.00  0.00     0.022 A 
BRANCH  78  81
ATOM     81  S   UNL A   1      41.459  20.449  26.544  1.00  0.00     0.127 S 
ATOM     82  O   UNL A   1      40.017  20.675  26.498  1.00  0.00    -0.237 OA
ATOM     83  O   UNL A   1      42.013  19.764  25.376  1.00  0.00    -0.237 OA
ATOM     84  O   UNL A   1      41.987  19.980  27.818  1.00  0.00    -0.744 OA
ENDBRANCH  78  81
ENDBRANCH  50  74
BRANCH  62  85
ATOM     85  C   UNL A   1      46.738  25.754  32.632  1.00  0.00     0.023 A 
ATOM     86  C   UNL A   1      48.004  26.226  32.232  1.00  0.00     0.012 A 
ATOM     87  C   UNL A   1      46.655  24.721  33.586  1.00  0.00     0.148 A 
ATOM     88  C   UNL A   1      49.168  25.655  32.746  1.00  0.00     0.002 A 
ATOM     89  C   UNL A   1      47.819  24.190  34.130  1.00  0.00     0.091 A 
ATOM     90  F   UNL A   1      45.442  24.270  33.940  1.00  0.00    -0.205 F 
ATOM     91  C   UNL A   1      49.075  24.648  33.703  1.00  0.00     0.022 A 
BRANCH  89  92
ATOM     92  S   UNL A   1      47.787  22.959  35.438  1.00  0.00     0.127 S 
ATOM     93  O   UNL A   1      49.211  22.764  35.699  1.00  0.00    -0.237 OA
ATOM     94  O   UNL A   1      47.060  23.650  36.503  1.00  0.00    -0.237 OA
ATOM     95  O   UNL A   1      47.085  21.808  34.882  1.00  0.00    -0.744 OA
ENDBRANCH  89  92
ENDBRANCH  62  85
ENDBRANCH  36  37
ENDBRANCH  28  31
ENDBRANCH  26  27
ENDBRANCH  25  26
ENDBRANCH   1  25
TORSDOF 18
ENDMDL
MODEL 2
REMARK VINA RESULT:     -11.4      2.167      3.799
REMARK SMILES Cc1cc(C)cc(S(=O)(=O)N2CSC[C@H]2C(=O)NCCCCCCNC(=O)c2ccc(-c3c4nc(c(-c5cccc(S(=O)(=O)[O-])c5F)c5ccc([nH]5)c(-c5cccc(S(=O)(=O)[O-])c5F)c5nc(c(-c6cccc(S(=O)(=O)[O-])c6F)c6ccc3[nH]6)C=C5)C=C4)cc2)c1
REMARK SMILES IDX 22 1 21 2 20 3 19 4 18 5 16 6 17 7 15 9 11 10 12 11 13 12
REMARK SMILES IDX 14 13 8 14 9 15 10 16 7 17 1 18 2 19 3 20 91 21 4 22 5 23
REMARK SMILES IDX 6 24 23 25 24 26 25 27 26 28 27 30 28 31 29 32 90 33 30 34
REMARK SMILES IDX 89 35 31 36 32 37 33 38 83 39 34 40 88 41 82 42 84 43 35 44
REMARK SMILES IDX 87 45 81 46 80 47 36 49 68 50 48 51 67 52 49 53 52 54 66 55
REMARK SMILES IDX 85 56 50 57 51 58 65 60 86 61 53 62 37 63 38 64 46 65 39 66
REMARK SMILES IDX 41 67 47 68 40 69 42 70 43 71 44 72 45 73 69 74 70 75 78 76
REMARK SMILES IDX 71 77 73 78 79 79 72 80 74 81 75 82 76 83 77 84 54 85 55 86
REMARK SMILES IDX 63 87 56 88 58 89 64 90 57 91 59 92 60 93 61 94 62 95
REMARK H PARENT 18 8 25 29 84 48 52 59
REMARK Flexibility Score: inf
ROOT
ATOM      1  C   UNL A   1      34.212  28.619  26.090  1.00  0.00     0.002 C 
ENDROOT
BRANCH   1   2
ATOM      2  C   UNL A   1      33.841  27.191  25.673  1.00  0.00     0.002 C 
BRANCH   2   3
ATOM      3  C   UNL A   1      33.227  27.056  24.280  1.00  0.00     0.021 C 
BRANCH   3   4
ATOM      4  C   UNL A   1      32.494  25.745  24.049  1.00  0.00     0.116 C 
BRANCH   4   5
ATOM      5  N   UNL A   1      33.169  24.870  23.118  1.00  0.00    -0.355 N 
ATOM      6  C   UNL A   1      34.023  23.831  23.352  1.00  0.00     0.239 C 
ATOM      7  O   UNL A   1      34.354  23.155  22.372  1.00  0.00    -0.273 OA
ATOM      8  H   UNL A   1      32.985  25.053  22.167  1.00  0.00     0.163 HD
BRANCH   6   9
ATOM      9  C   UNL A   1      34.526  23.466  24.757  1.00  0.00     0.173 C 
ATOM     10  N   UNL A   1      34.526  22.005  25.014  1.00  0.00    -0.175 NA
ATOM     11  C   UNL A   1      35.835  21.405  25.257  1.00  0.00     0.172 C 
ATOM     12  S   UNL A   1      37.034  22.738  25.521  1.00  0.00    -0.143 SA
ATOM     13  C   UNL A   1      35.887  24.076  25.083  1.00  0.00     0.101 C 
BRANCH  10  14
ATOM     14  S   UNL A   1      33.195  21.315  25.788  1.00  0.00     0.244 S 
ATOM     15  O   UNL A   1      32.055  22.164  25.490  1.00  0.00    -0.207 OA
ATOM     16  O   UNL A   1      33.566  21.006  27.145  1.00  0.00    -0.207 OA
BRANCH  14  17
ATOM     17  C   UNL A   1      32.872  19.753  24.979  1.00  0.00     0.083 A 
ATOM     18  C   UNL A   1      32.908  16.035  25.758  1.00  0.00     0.044 C 
ATOM     19  C   UNL A   1      32.771  17.323  25.002  1.00  0.00    -0.050 A 
ATOM     20  C   UNL A   1      32.529  17.332  23.628  1.00  0.00     0.007 A 
ATOM     21  C   UNL A   1      32.905  18.542  25.667  1.00  0.00     0.025 A 
ATOM     22  C   UNL A   1      32.445  18.543  22.922  1.00  0.00    -0.050 A 
ATOM     23  C   UNL A   1      32.159  18.513  21.449  1.00  0.00     0.044 C 
ATOM     24  C   UNL A   1      32.636  19.756  23.600  1.00  0.00     0.025 A 
ENDBRANCH  14  17
ENDBRANCH  10  14
ENDBRANCH   6   9
ENDBRANCH   4   5
ENDBRANCH   3   4
ENDBRANCH   2   3
ENDBRANCH   1   2
BRANCH   1  25
ATOM     25  C   UNL A   1      33.144  29.688  25.830  1.00  0.00     0.021 C 
BRANCH  25  26
ATOM     26  C   UNL A   1      32.579  30.355  27.083  1.00  0.00     0.116 C 
BRANCH  26  27
ATOM     27  N   UNL A   1      32.726  31.799  27.039  1.00  0.00    -0.352 N 
ATOM     28  C   UNL A   1      33.673  32.602  27.619  1.00  0.00     0.251 C 
ATOM     29  H   UNL A   1      32.043  32.273  26.514  1.00  0.00     0.163 HD
ATOM     30  O   UNL A   1      33.500  33.817  27.640  1.00  0.00    -0.269 OA
BRANCH  28  31
ATOM     31  C   UNL A   1      34.895  32.019  28.216  1.00  0.00     0.039 A 
ATOM     32  C   UNL A   1      34.796  30.791  28.876  1.00  0.00     0.014 A 
ATOM     33  C   UNL A   1      36.116  32.702  28.189  1.00  0.00     0.014 A 
ATOM     34  C   UNL A   1      35.922  30.240  29.491  1.00  0.00     0.010 A 
ATOM     35  C   UNL A   1      37.253  32.117  28.742  1.00  0.00     0.010 A 
ATOM     36  C   UNL A   1      37.162  30.894  29.423  1.00  0.00    -0.014 A 
BRANCH  36  37
ATOM     37  C   UNL A   1      38.360  30.320  30.084  1.00  0.00     0.031 A 
ATOM     38  C   UNL A   1      38.737  30.745  31.479  1.00  0.00     0.074 A 
ATOM     39  C   UNL A   1      39.145  29.460  29.407  1.00  0.00     0.049 A 
ATOM     40  N   UNL A   1      39.739  30.346  32.219  1.00  0.00    -0.248 NA
ATOM     41  C   UNL A   1      37.896  31.772  32.116  1.00  0.00     0.031 C 
ATOM     42  C   UNL A   1      38.941  29.047  28.018  1.00  0.00     0.029 A 
ATOM     43  N   UNL A   1      40.285  28.799  29.788  1.00  0.00    -0.354 N 
ATOM     44  C   UNL A   1      39.674  31.098  33.387  1.00  0.00     0.074 A 
ATOM     45  C   UNL A   1      38.554  32.001  33.244  1.00  0.00     0.031 C 
ATOM     46  C   UNL A   1      39.920  28.198  27.664  1.00  0.00     0.029 A 
ATOM     47  C   UNL A   1      40.828  28.020  28.793  1.00  0.00     0.049 A 
ATOM     48  H   UNL A   1      40.677  28.874  30.688  1.00  0.00     0.167 HD
ATOM     49  C   UNL A   1      40.454  31.023  34.491  1.00  0.00     0.034 A 
ATOM     50  C   UNL A   1      41.929  27.243  28.794  1.00  0.00     0.034 A 
ATOM     51  C   UNL A   1      41.531  30.083  34.650  1.00  0.00     0.049 A 
ATOM     52  C   UNL A   1      42.727  27.109  30.062  1.00  0.00     0.074 A 
ATOM     53  C   UNL A   1      42.311  29.848  35.768  1.00  0.00     0.029 A 
ATOM     54  N   UNL A   1      41.985  29.226  33.659  1.00  0.00    -0.354 N 
ATOM     55  N   UNL A   1      42.537  27.690  31.222  1.00  0.00    -0.248 NA
ATOM     56  C   UNL A   1      43.861  26.173  30.038  1.00  0.00     0.031 C 
ATOM     57  C   UNL A   1      43.249  28.860  35.448  1.00  0.00     0.029 A 
ATOM     58  C   UNL A   1      43.038  28.465  34.136  1.00  0.00     0.049 A 
ATOM     59  H   UNL A   1      41.611  29.167  32.750  1.00  0.00     0.167 HD
ATOM     60  C   UNL A   1      43.504  27.171  32.073  1.00  0.00     0.074 A 
ATOM     61  C   UNL A   1      44.263  26.207  31.302  1.00  0.00     0.031 C 
ATOM     62  C   UNL A   1      43.751  27.473  33.372  1.00  0.00     0.034 A 
BRANCH  49  63
ATOM     63  C   UNL A   1      40.134  31.945  35.640  1.00  0.00     0.023 A 
ATOM     64  C   UNL A   1      40.892  33.120  35.821  1.00  0.00     0.012 A 
ATOM     65  C   UNL A   1      39.058  31.678  36.508  1.00  0.00     0.148 A 
ATOM     66  C   UNL A   1      40.611  33.993  36.871  1.00  0.00     0.002 A 
ATOM     67  C   UNL A   1      38.755  32.576  37.525  1.00  0.00     0.091 A 
ATOM     68  F   UNL A   1      38.361  30.545  36.337  1.00  0.00    -0.205 F 
ATOM     69  C   UNL A   1      39.536  33.728  37.715  1.00  0.00     0.022 A 
BRANCH  67  70
ATOM     70  S   UNL A   1      37.342  32.363  38.613  1.00  0.00     0.127 S 
ATOM     71  O   UNL A   1      37.808  33.020  39.834  1.00  0.00    -0.237 OA
ATOM     72  O   UNL A   1      36.287  33.083  37.899  1.00  0.00    -0.237 OA
ATOM     73  O   UNL A   1      37.130  30.925  38.716  1.00  0.00    -0.744 OA
ENDBRANCH  67  70
ENDBRANCH  49  63
BRANCH  50  74
ATOM     74  C   UNL A   1      42.285  26.470  27.572  1.00  0.00     0.023 A 
ATOM     75  C   UNL A   1      43.019  27.095  26.546  1.00  0.00     0.012 A 
ATOM     76  C   UNL A   1      41.946  25.109  27.443  1.00  0.00     0.148 A 
ATOM     77  C   UNL A   1      43.384  26.389  25.400  1.00  0.00     0.002 A 
ATOM     78  C   UNL A   1      42.361  24.395  26.324  1.00  0.00     0.091 A 
ATOM     79  F   UNL A   1      41.239  24.535  28.426  1.00  0.00    -0.205 F 
ATOM     80  C   UNL A   1      43.066  25.037  25.294  1.00  0.00     0.022 A 
BRANCH  78  81
ATOM     81  S   UNL A   1      42.115  22.624  26.168  1.00  0.00     0.127 S 
ATOM     82  O   UNL A   1      42.777  22.122  27.369  1.00  0.00    -0.237 OA
ATOM     83  O   UNL A   1      40.655  22.518  26.178  1.00  0.00    -0.237 OA
ATOM     84  O   UNL A   1      42.731  22.251  24.902  1.00  0.00    -0.744 OA
ENDBRANCH  78  81
ENDBRANCH  50  74
BRANCH  62  85
ATOM     85  C   UNL A   1      44.874  26.739  34.057  1.00  0.00     0.023 A 
ATOM     86  C   UNL A   1      46.196  27.215  33.942  1.00  0.00     0.012 A 
ATOM     87  C   UNL A   1      44.612  25.618  34.869  1.00  0.00     0.148 A 
ATOM     88  C   UNL A   1      47.242  26.565  34.595  1.00  0.00     0.002 A 
ATOM     89  C   UNL A   1      45.654  25.005  35.556  1.00  0.00     0.091 A 
ATOM     90  F   UNL A   1      43.352  25.166  34.951  1.00  0.00    -0.205 F 
ATOM     91  C   UNL A   1      46.971  25.470  35.410  1.00  0.00     0.022 A 
BRANCH  89  92
ATOM     92  S   UNL A   1      45.376  23.650  36.702  1.00  0.00     0.127 S 
ATOM     93  O   UNL A   1      44.659  22.692  35.863  1.00  0.00    -0.237 OA
ATOM     94  O   UNL A   1      46.739  23.252  37.055  1.00  0.00    -0.237 OA
ATOM     95  O   UNL A   1      44.612  24.215  37.806  1.00  0.00    -0.744 OA
ENDBRANCH  89  92
ENDBRANCH  62  85
ENDBRANCH  36  37
ENDBRANCH  28  31
ENDBRANCH  26  27
ENDBRANCH  25  26
ENDBRANCH   1  25
TORSDOF 18
ENDMDL
MODEL 3
REMARK VINA RESULT:     -11.2      5.048      9.764
REMARK SMILES Cc1cc(C)cc(S(=O)(=O)N2CSC[C@H]2C(=O)NCCCCCCNC(=O)c2ccc(-c3c4nc(c(-c5cccc(S(=O)(=O)[O-])c5F)c5ccc([nH]5)c(-c5cccc(S(=O)(=O)[O-])c5F)c5nc(c(-c6cccc(S(=O)(=O)[O-])c6F)c6ccc3[nH]6)C=C5)C=C4)cc2)c1
REMARK SMILES IDX 22 1 21 2 20 3 19 4 18 5 16 6 17 7 15 9 11 10 12 11 13 12
REMARK SMILES IDX 14 13 8 14 9 15 10 16 7 17 1 18 2 19 3 20 91 21 4 22 5 23
REMARK SMILES IDX 6 24 23 25 24 26 25 27 26 28 27 30 28 31 29 32 90 33 30 34
REMARK SMILES IDX 89 35 31 36 32 37 33 38 83 39 34 40 88 41 82 42 84 43 35 44
REMARK SMILES IDX 87 45 81 46 80 47 36 49 68 50 48 51 67 52 49 53 52 54 66 55
REMARK SMILES IDX 85 56 50 57 51 58 65 60 86 61 53 62 37 63 38 64 46 65 39 66
REMARK SMILES IDX 41 67 47 68 40 69 42 70 43 71 44 72 45 73 69 74 70 75 78 76
REMARK SMILES IDX 71 77 73 78 79 79 72 80 74 81 75 82 76 83 77 84 54 85 55 86
REMARK SMILES IDX 63 87 56 88 58 89 64 90 57 91 59 92 60 93 61 94 62 95
REMARK H PARENT 18 8 25 29 84 48 52 59
REMARK Flexibility Score: inf
ROOT
ATOM      1  C   UNL A   1      35.754  23.164  23.149  1.00  0.00     0.002 C 
ENDROOT
BRANCH   1   2
ATOM      2  C   UNL A   1      34.767  24.270  23.543  1.00  0.00     0.002 C 
BRANCH   2   3
ATOM      3  C   UNL A   1      33.883  24.789  22.410  1.00  0.00     0.021 C 
BRANCH   3   4
ATOM      4  C   UNL A   1      33.720  26.300  22.393  1.00  0.00     0.116 C 
BRANCH   4   5
ATOM      5  N   UNL A   1      32.440  26.730  21.878  1.00  0.00    -0.355 N 
ATOM      6  C   UNL A   1      31.427  27.403  22.497  1.00  0.00     0.239 C 
ATOM      7  O   UNL A   1      30.488  27.770  21.781  1.00  0.00    -0.273 OA
ATOM      8  H   UNL A   1      32.274  26.502  20.934  1.00  0.00     0.163 HD
BRANCH   6   9
ATOM      9  C   UNL A   1      31.445  27.743  23.995  1.00  0.00     0.173 C 
ATOM     10  N   UNL A   1      31.957  26.635  24.837  1.00  0.00    -0.175 NA
ATOM     11  C   UNL A   1      33.187  26.916  25.573  1.00  0.00     0.172 C 
ATOM     12  S   UNL A   1      33.507  28.697  25.491  1.00  0.00    -0.143 SA
ATOM     13  C   UNL A   1      32.177  29.046  24.306  1.00  0.00     0.101 C 
BRANCH  10  14
ATOM     14  S   UNL A   1      30.853  25.569  25.538  1.00  0.00     0.244 S 
ATOM     15  O   UNL A   1      29.674  25.576  24.692  1.00  0.00    -0.207 OA
ATOM     16  O   UNL A   1      30.768  25.861  26.946  1.00  0.00    -0.207 OA
BRANCH  14  17
ATOM     17  C   UNL A   1      31.551  23.928  25.399  1.00  0.00     0.083 A 
ATOM     18  C   UNL A   1      33.714  21.529  27.400  1.00  0.00     0.044 C 
ATOM     19  C   UNL A   1      32.891  22.101  26.284  1.00  0.00    -0.050 A 
ATOM     20  C   UNL A   1      32.765  21.435  25.064  1.00  0.00     0.007 A 
ATOM     21  C   UNL A   1      32.249  23.329  26.446  1.00  0.00     0.025 A 
ATOM     22  C   UNL A   1      32.027  21.998  24.011  1.00  0.00    -0.050 A 
ATOM     23  C   UNL A   1      31.895  21.240  22.723  1.00  0.00     0.044 C 
ATOM     24  C   UNL A   1      31.435  23.259  24.177  1.00  0.00     0.025 A 
ENDBRANCH  14  17
ENDBRANCH  10  14
ENDBRANCH   6   9
ENDBRANCH   4   5
ENDBRANCH   3   4
ENDBRANCH   2   3
ENDBRANCH   1   2
BRANCH   1  25
ATOM     25  C   UNL A   1      36.024  22.100  24.219  1.00  0.00     0.021 C 
BRANCH  25  26
ATOM     26  C   UNL A   1      36.922  22.553  25.369  1.00  0.00     0.116 C 
BRANCH  26  27
ATOM     27  N   UNL A   1      37.818  21.496  25.802  1.00  0.00    -0.352 N 
ATOM     28  C   UNL A   1      39.107  21.572  26.263  1.00  0.00     0.251 C 
ATOM     29  H   UNL A   1      37.445  20.587  25.758  1.00  0.00     0.163 HD
ATOM     30  O   UNL A   1      39.767  20.543  26.376  1.00  0.00    -0.269 OA
BRANCH  28  31
ATOM     31  C   UNL A   1      39.704  22.877  26.623  1.00  0.00     0.039 A 
ATOM     32  C   UNL A   1      40.560  22.938  27.726  1.00  0.00     0.014 A 
ATOM     33  C   UNL A   1      39.378  24.045  25.926  1.00  0.00     0.014 A 
ATOM     34  C   UNL A   1      41.100  24.164  28.120  1.00  0.00     0.010 A 
ATOM     35  C   UNL A   1      39.974  25.255  26.276  1.00  0.00     0.010 A 
ATOM     36  C   UNL A   1      40.818  25.332  27.393  1.00  0.00    -0.014 A 
BRANCH  36  37
ATOM     37  C   UNL A   1      41.380  26.640  27.812  1.00  0.00     0.031 A 
ATOM     38  C   UNL A   1      42.816  26.982  27.516  1.00  0.00     0.074 A 
ATOM     39  C   UNL A   1      40.613  27.498  28.513  1.00  0.00     0.049 A 
ATOM     40  N   UNL A   1      43.476  28.077  27.794  1.00  0.00    -0.248 NA
ATOM     41  C   UNL A   1      43.625  25.952  26.844  1.00  0.00     0.031 C 
ATOM     42  C   UNL A   1      39.239  27.241  28.945  1.00  0.00     0.029 A 
ATOM     43  N   UNL A   1      40.890  28.749  29.003  1.00  0.00    -0.354 N 
ATOM     44  C   UNL A   1      44.782  27.853  27.372  1.00  0.00     0.074 A 
ATOM     45  C   UNL A   1      44.830  26.506  26.849  1.00  0.00     0.031 C 
ATOM     46  C   UNL A   1      38.790  28.303  29.634  1.00  0.00     0.029 A 
ATOM     47  C   UNL A   1      39.847  29.308  29.704  1.00  0.00     0.049 A 
ATOM     48  H   UNL A   1      41.753  29.204  28.867  1.00  0.00     0.167 HD
ATOM     49  C   UNL A   1      45.837  28.701  27.388  1.00  0.00     0.034 A 
ATOM     50  C   UNL A   1      39.751  30.498  30.328  1.00  0.00     0.034 A 
ATOM     51  C   UNL A   1      45.770  30.059  27.857  1.00  0.00     0.049 A 
ATOM     52  C   UNL A   1      40.909  31.457  30.252  1.00  0.00     0.074 A 
ATOM     53  C   UNL A   1      46.749  31.035  27.814  1.00  0.00     0.029 A 
ATOM     54  N   UNL A   1      44.661  30.632  28.460  1.00  0.00    -0.354 N 
ATOM     55  N   UNL A   1      42.078  31.295  29.681  1.00  0.00    -0.248 NA
ATOM     56  C   UNL A   1      40.717  32.780  30.864  1.00  0.00     0.031 C 
ATOM     57  C   UNL A   1      46.238  32.194  28.408  1.00  0.00     0.029 A 
ATOM     58  C   UNL A   1      44.932  31.945  28.802  1.00  0.00     0.049 A 
ATOM     59  H   UNL A   1      43.805  30.171  28.621  1.00  0.00     0.167 HD
ATOM     60  C   UNL A   1      42.748  32.502  29.835  1.00  0.00     0.074 A 
ATOM     61  C   UNL A   1      41.844  33.395  30.532  1.00  0.00     0.031 C 
ATOM     62  C   UNL A   1      44.004  32.838  29.449  1.00  0.00     0.034 A 
BRANCH  49  63
ATOM     63  C   UNL A   1      47.145  28.202  26.827  1.00  0.00     0.023 A 
ATOM     64  C   UNL A   1      48.185  27.837  27.708  1.00  0.00     0.012 A 
ATOM     65  C   UNL A   1      47.330  28.049  25.440  1.00  0.00     0.148 A 
ATOM     66  C   UNL A   1      49.401  27.365  27.215  1.00  0.00     0.002 A 
ATOM     67  C   UNL A   1      48.529  27.535  24.959  1.00  0.00     0.091 A 
ATOM     68  F   UNL A   1      46.341  28.422  24.615  1.00  0.00    -0.205 F 
ATOM     69  C   UNL A   1      49.569  27.203  25.843  1.00  0.00     0.022 A 
BRANCH  67  70
ATOM     70  S   UNL A   1      48.812  27.214  23.214  1.00  0.00     0.127 S 
ATOM     71  O   UNL A   1      50.273  27.168  23.155  1.00  0.00    -0.237 OA
ATOM     72  O   UNL A   1      48.154  25.922  23.024  1.00  0.00    -0.237 OA
ATOM     73  O   UNL A   1      48.189  28.321  22.499  1.00  0.00    -0.744 OA
ENDBRANCH  67  70
ENDBRANCH  49  63
BRANCH  50  74
ATOM     74  C   UNL A   1      38.478  30.876  31.001  1.00  0.00     0.023 A 
ATOM     75  C   UNL A   1      38.327  30.639  32.381  1.00  0.00     0.012 A 
ATOM     76  C   UNL A   1      37.438  31.514  30.297  1.00  0.00     0.148 A 
ATOM     77  C   UNL A   1      37.154  31.003  33.042  1.00  0.00     0.002 A 
ATOM     78  C   UNL A   1      36.294  31.924  30.972  1.00  0.00     0.091 A 
ATOM     79  F   UNL A   1      37.598  31.722  28.982  1.00  0.00    -0.205 F 
ATOM     80  C   UNL A   1      36.143  31.655  32.341  1.00  0.00     0.022 A 
BRANCH  78  81
ATOM     81  S   UNL A   1      35.005  32.890  30.180  1.00  0.00     0.127 S 
ATOM     82  O   UNL A   1      34.106  33.165  31.298  1.00  0.00    -0.237 OA
ATOM     83  O   UNL A   1      35.752  34.050  29.691  1.00  0.00    -0.237 OA
ATOM     84  O   UNL A   1      34.467  32.039  29.127  1.00  0.00    -0.744 OA
ENDBRANCH  78  81
ENDBRANCH  50  74
BRANCH  62  85
ATOM     85  C   UNL A   1      44.474  34.238  29.744  1.00  0.00     0.023 A 
ATOM     86  C   UNL A   1      45.130  34.515  30.961  1.00  0.00     0.012 A 
ATOM     87  C   UNL A   1      44.326  35.264  28.790  1.00  0.00     0.148 A 
ATOM     88  C   UNL A   1      45.599  35.799  31.237  1.00  0.00     0.002 A 
ATOM     89  C   UNL A   1      44.839  36.529  29.053  1.00  0.00     0.091 A 
ATOM     90  F   UNL A   1      43.682  34.989  27.646  1.00  0.00    -0.205 F 
ATOM     91  C   UNL A   1      45.465  36.801  30.280  1.00  0.00     0.022 A 
BRANCH  89  92
ATOM     92  S   UNL A   1      44.796  37.849  27.835  1.00  0.00     0.127 S 
ATOM     93  O   UNL A   1      45.388  38.960  28.578  1.00  0.00    -0.237 OA
ATOM     94  O   UNL A   1      45.636  37.316  26.763  1.00  0.00    -0.237 OA
ATOM     95  O   UNL A   1      43.393  38.010  27.474  1.00  0.00    -0.744 OA
ENDBRANCH  89  92
ENDBRANCH  62  85
ENDBRANCH  36  37
ENDBRANCH  28  31
ENDBRANCH  26  27
ENDBRANCH  25  26
ENDBRANCH   1  25
TORSDOF 18
ENDMDL
