MODEL 1
REMARK VINA RESULT:     -12.1      0.000      0.000
REMARK SMILES Cc1cc(F)c([C@@H](C)[N@@H+]2C[C@H](C)[C@H](C(=O)NCCCCCCNC(=O)c3ccc(-c4c5nc(c(-c6cccc(S(=O)(=O)[O-])c6F)c6ccc([nH]6)c(-c6cccc(S(=O)(=O)[O-])c6F)c6nc(c(-c7cccc(S(=O)(=O)[O-])c7F)c7ccc4[nH]7)C=C6)C=C5)cc3)C2)cc1F
REMARK SMILES IDX 20 1 19 2 18 3 17 4 16 5 14 6 15 7 13 9 9 10 10 11 89 12
REMARK SMILES IDX 11 14 12 15 7 16 8 17 6 18 1 19 2 20 3 21 91 22 4 23 90 24
REMARK SMILES IDX 92 25 5 26 21 27 22 28 23 29 24 30 25 32 26 33 27 34 88 35
REMARK SMILES IDX 28 36 87 37 29 38 30 39 31 40 81 41 32 42 86 43 80 44 82 45
REMARK SMILES IDX 33 46 85 47 79 48 78 49 34 51 66 52 46 53 65 54 47 55 50 56
REMARK SMILES IDX 64 57 83 58 48 59 49 60 63 62 84 63 51 64 35 65 36 66 44 67
REMARK SMILES IDX 37 68 39 69 45 70 38 71 40 72 41 73 42 74 43 75 67 76 68 77
REMARK SMILES IDX 76 78 69 79 71 80 77 81 70 82 72 83 73 84 74 85 75 86 52 87
REMARK SMILES IDX 53 88 61 89 54 90 56 91 62 92 55 93 57 94 58 95 59 96 60 97
REMARK H PARENT 16 8 9 13 23 31 82 50 50 61
REMARK Flexibility Score: inf
ROOT
ATOM      1  C   UNL A   1      31.826  30.439  26.035  1.00  0.00     0.002 C 
ENDROOT
BRANCH   1   2
ATOM      2  C   UNL A   1      31.823  29.190  26.925  1.00  0.00     0.002 C 
BRANCH   2   3
ATOM      3  C   UNL A   1      32.194  27.874  26.234  1.00  0.00     0.021 C 
BRANCH   3   4
ATOM      4  C   UNL A   1      31.008  27.060  25.717  1.00  0.00     0.116 C 
BRANCH   4   5
ATOM      5  N   UNL A   1      30.656  27.425  24.358  1.00  0.00    -0.356 N 
ATOM      6  C   UNL A   1      30.724  26.746  23.184  1.00  0.00     0.229 C 
ATOM      7  O   UNL A   1      30.393  27.376  22.171  1.00  0.00    -0.275 OA
ATOM      8  H   UNL A   1      30.300  28.339  24.269  1.00  0.00     0.163 HD
BRANCH   6   9
ATOM      9  C   UNL A   1      31.180  25.298  23.044  1.00  0.00     0.142 C 
ATOM     10  N   UNL A   1      31.912  23.309  24.111  1.00  0.00    -0.328 N 
ATOM     11  C   UNL A   1      32.843  23.564  23.020  1.00  0.00     0.266 C 
ATOM     12  C   UNL A   1      30.942  24.390  24.242  1.00  0.00     0.276 C 
ATOM     13  H   UNL A   1      31.360  22.499  23.828  1.00  0.00     0.348 HD
ATOM     14  C   UNL A   1      32.596  24.998  22.541  1.00  0.00     0.059 C 
ATOM     15  C   UNL A   1      33.726  25.921  22.975  1.00  0.00     0.015 C 
BRANCH  10  16
ATOM     16  C   UNL A   1      32.427  22.664  25.324  1.00  0.00     0.215 C 
ATOM     17  C   UNL A   1      31.937  23.406  26.577  1.00  0.00     0.081 C 
BRANCH  16  18
ATOM     18  C   UNL A   1      33.925  22.387  25.323  1.00  0.00     0.048 A 
ATOM     19  C   UNL A   1      38.210  21.701  25.496  1.00  0.00     0.047 C 
ATOM     20  C   UNL A   1      36.735  21.938  25.395  1.00  0.00    -0.012 A 
ATOM     21  C   UNL A   1      35.866  20.948  24.931  1.00  0.00     0.046 A 
ATOM     22  C   UNL A   1      36.188  23.152  25.808  1.00  0.00     0.126 A 
ATOM     23  C   UNL A   1      34.488  21.176  24.898  1.00  0.00     0.132 A 
ATOM     24  C   UNL A   1      34.813  23.384  25.765  1.00  0.00     0.052 A 
ATOM     25  F   UNL A   1      36.989  24.121  26.271  1.00  0.00    -0.207 F 
ATOM     26  F   UNL A   1      33.710  20.166  24.485  1.00  0.00    -0.206 F 
ENDBRANCH  16  18
ENDBRANCH  10  16
ENDBRANCH   6   9
ENDBRANCH   4   5
ENDBRANCH   3   4
ENDBRANCH   2   3
ENDBRANCH   1   2
BRANCH   1  27
ATOM     27  C   UNL A   1      31.548  31.766  26.741  1.00  0.00     0.021 C 
BRANCH  27  28
ATOM     28  C   UNL A   1      32.777  32.526  27.230  1.00  0.00     0.116 C 
BRANCH  28  29
ATOM     29  N   UNL A   1      32.482  33.895  27.607  1.00  0.00    -0.352 N 
ATOM     30  C   UNL A   1      33.068  34.680  28.579  1.00  0.00     0.251 C 
ATOM     31  H   UNL A   1      31.759  34.327  27.097  1.00  0.00     0.163 HD
ATOM     32  O   UNL A   1      32.582  35.767  28.854  1.00  0.00    -0.269 OA
BRANCH  30  33
ATOM     33  C   UNL A   1      34.261  34.187  29.313  1.00  0.00     0.039 A 
ATOM     34  C   UNL A   1      35.557  34.462  28.867  1.00  0.00     0.014 A 
ATOM     35  C   UNL A   1      34.072  33.433  30.476  1.00  0.00     0.014 A 
ATOM     36  C   UNL A   1      36.651  33.862  29.493  1.00  0.00     0.010 A 
ATOM     37  C   UNL A   1      35.177  32.893  31.144  1.00  0.00     0.010 A 
ATOM     38  C   UNL A   1      36.474  33.065  30.635  1.00  0.00    -0.014 A 
BRANCH  38  39
ATOM     39  C   UNL A   1      37.644  32.430  31.300  1.00  0.00     0.031 A 
ATOM     40  C   UNL A   1      38.371  31.278  30.652  1.00  0.00     0.074 A 
ATOM     41  C   UNL A   1      38.057  32.882  32.501  1.00  0.00     0.049 A 
ATOM     42  N   UNL A   1      39.369  30.571  31.117  1.00  0.00    -0.248 NA
ATOM     43  C   UNL A   1      37.919  30.864  29.314  1.00  0.00     0.031 C 
ATOM     44  C   UNL A   1      37.436  33.978  33.249  1.00  0.00     0.029 A 
ATOM     45  N   UNL A   1      39.088  32.471  33.309  1.00  0.00    -0.354 N 
ATOM     46  C   UNL A   1      39.635  29.604  30.155  1.00  0.00     0.074 A 
ATOM     47  C   UNL A   1      38.695  29.815  29.075  1.00  0.00     0.031 C 
ATOM     48  C   UNL A   1      38.109  34.164  34.394  1.00  0.00     0.029 A 
ATOM     49  C   UNL A   1      39.175  33.171  34.488  1.00  0.00     0.049 A 
ATOM     50  H   UNL A   1      39.707  31.745  33.066  1.00  0.00     0.167 HD
ATOM     51  C   UNL A   1      40.585  28.639  30.160  1.00  0.00     0.034 A 
ATOM     52  C   UNL A   1      40.001  33.022  35.542  1.00  0.00     0.034 A 
ATOM     53  C   UNL A   1      41.557  28.455  31.205  1.00  0.00     0.049 A 
ATOM     54  C   UNL A   1      41.046  31.946  35.523  1.00  0.00     0.074 A 
ATOM     55  C   UNL A   1      42.590  27.534  31.261  1.00  0.00     0.029 A 
ATOM     56  N   UNL A   1      41.622  29.199  32.371  1.00  0.00    -0.354 N 
ATOM     57  N   UNL A   1      41.327  31.092  34.569  1.00  0.00    -0.248 NA
ATOM     58  C   UNL A   1      41.894  31.817  36.717  1.00  0.00     0.031 C 
ATOM     59  C   UNL A   1      43.276  27.717  32.466  1.00  0.00     0.029 A 
ATOM     60  C   UNL A   1      42.674  28.757  33.155  1.00  0.00     0.049 A 
ATOM     61  H   UNL A   1      41.009  29.933  32.608  1.00  0.00     0.167 HD
ATOM     62  C   UNL A   1      42.389  30.332  35.043  1.00  0.00     0.074 A 
ATOM     63  C   UNL A   1      42.717  30.840  36.359  1.00  0.00     0.031 C 
ATOM     64  C   UNL A   1      43.019  29.292  34.446  1.00  0.00     0.034 A 
BRANCH  51  65
ATOM     65  C   UNL A   1      40.669  27.721  28.972  1.00  0.00     0.023 A 
ATOM     66  C   UNL A   1      39.718  26.691  28.830  1.00  0.00     0.012 A 
ATOM     67  C   UNL A   1      41.610  27.945  27.948  1.00  0.00     0.148 A 
ATOM     68  C   UNL A   1      39.705  25.891  27.689  1.00  0.00     0.002 A 
ATOM     69  C   UNL A   1      41.573  27.162  26.800  1.00  0.00     0.091 A 
ATOM     70  F   UNL A   1      42.510  28.924  28.112  1.00  0.00    -0.205 F 
ATOM     71  C   UNL A   1      40.625  26.133  26.671  1.00  0.00     0.022 A 
BRANCH  69  72
ATOM     72  S   UNL A   1      42.675  27.423  25.405  1.00  0.00     0.127 S 
ATOM     73  O   UNL A   1      42.457  26.204  24.628  1.00  0.00    -0.237 OA
ATOM     74  O   UNL A   1      42.123  28.637  24.803  1.00  0.00    -0.237 OA
ATOM     75  O   UNL A   1      44.010  27.568  25.966  1.00  0.00    -0.744 OA
ENDBRANCH  69  72
ENDBRANCH  51  65
BRANCH  52  76
ATOM     76  C   UNL A   1      39.882  33.957  36.693  1.00  0.00     0.023 A 
ATOM     77  C   UNL A   1      40.269  35.300  36.530  1.00  0.00     0.012 A 
ATOM     78  C   UNL A   1      39.322  33.540  37.916  1.00  0.00     0.148 A 
ATOM     79  C   UNL A   1      40.102  36.216  37.569  1.00  0.00     0.002 A 
ATOM     80  C   UNL A   1      39.118  34.466  38.931  1.00  0.00     0.091 A 
ATOM     81  F   UNL A   1      38.968  32.253  38.044  1.00  0.00    -0.205 F 
ATOM     82  C   UNL A   1      39.518  35.802  38.764  1.00  0.00     0.022 A 
BRANCH  80  83
ATOM     83  S   UNL A   1      38.273  34.057  40.462  1.00  0.00     0.127 S 
ATOM     84  O   UNL A   1      36.983  33.577  39.972  1.00  0.00    -0.237 OA
ATOM     85  O   UNL A   1      39.147  33.022  41.014  1.00  0.00    -0.237 OA
ATOM     86  O   UNL A   1      38.229  35.290  41.235  1.00  0.00    -0.744 OA
ENDBRANCH  80  83
ENDBRANCH  52  76
BRANCH  64  87
ATOM     87  C   UNL A   1      44.135  28.621  35.198  1.00  0.00     0.023 A 
ATOM     88  C   UNL A   1      45.454  29.084  35.030  1.00  0.00     0.012 A 
ATOM     89  C   UNL A   1      43.869  27.607  36.139  1.00  0.00     0.148 A 
ATOM     90  C   UNL A   1      46.496  28.537  35.778  1.00  0.00     0.002 A 
ATOM     91  C   UNL A   1      44.907  27.090  36.905  1.00  0.00     0.091 A 
ATOM     92  F   UNL A   1      42.606  27.176  36.271  1.00  0.00    -0.205 F 
ATOM     93  C   UNL A   1      46.222  27.550  36.721  1.00  0.00     0.022 A 
BRANCH  91  94
ATOM     94  S   UNL A   1      44.641  25.867  38.194  1.00  0.00     0.127 S 
ATOM     95  O   UNL A   1      43.596  26.501  38.995  1.00  0.00    -0.237 OA
ATOM     96  O   UNL A   1      44.200  24.701  37.428  1.00  0.00    -0.237 OA
ATOM     97  O   UNL A   1      45.925  25.702  38.862  1.00  0.00    -0.744 OA
ENDBRANCH  91  94
ENDBRANCH  64  87
ENDBRANCH  38  39
ENDBRANCH  30  33
ENDBRANCH  28  29
ENDBRANCH  27  28
ENDBRANCH   1  27
TORSDOF 18
ENDMDL
MODEL 2
REMARK VINA RESULT:     -11.8      2.205      3.126
REMARK SMILES Cc1cc(F)c([C@@H](C)[N@@H+]2C[C@H](C)[C@H](C(=O)NCCCCCCNC(=O)c3ccc(-c4c5nc(c(-c6cccc(S(=O)(=O)[O-])c6F)c6ccc([nH]6)c(-c6cccc(S(=O)(=O)[O-])c6F)c6nc(c(-c7cccc(S(=O)(=O)[O-])c7F)c7ccc4[nH]7)C=C6)C=C5)cc3)C2)cc1F
REMARK SMILES IDX 20 1 19 2 18 3 17 4 16 5 14 6 15 7 13 9 9 10 10 11 89 12
REMARK SMILES IDX 11 14 12 15 7 16 8 17 6 18 1 19 2 20 3 21 91 22 4 23 90 24
REMARK SMILES IDX 92 25 5 26 21 27 22 28 23 29 24 30 25 32 26 33 27 34 88 35
REMARK SMILES IDX 28 36 87 37 29 38 30 39 31 40 81 41 32 42 86 43 80 44 82 45
REMARK SMILES IDX 33 46 85 47 79 48 78 49 34 51 66 52 46 53 65 54 47 55 50 56
REMARK SMILES IDX 64 57 83 58 48 59 49 60 63 62 84 63 51 64 35 65 36 66 44 67
REMARK SMILES IDX 37 68 39 69 45 70 38 71 40 72 41 73 42 74 43 75 67 76 68 77
REMARK SMILES IDX 76 78 69 79 71 80 77 81 70 82 72 83 73 84 74 85 75 86 52 87
REMARK SMILES IDX 53 88 61 89 54 90 56 91 62 92 55 93 57 94 58 95 59 96 60 97
REMARK H PARENT 16 8 9 13 23 31 82 50 50 61
REMARK Flexibility Score: inf
ROOT
ATOM      1  C   UNL A   1      30.882  28.808  24.521  1.00  0.00     0.002 C 
ENDROOT
BRANCH   1   2
ATOM      2  C   UNL A   1      30.634  28.789  23.007  1.00  0.00     0.002 C 
BRANCH   2   3
ATOM      3  C   UNL A   1      30.653  27.408  22.344  1.00  0.00     0.021 C 
BRANCH   3   4
ATOM      4  C   UNL A   1      31.938  27.074  21.585  1.00  0.00     0.116 C 
BRANCH   4   5
ATOM      5  N   UNL A   1      32.128  25.643  21.453  1.00  0.00    -0.356 N 
ATOM      6  C   UNL A   1      32.938  24.766  22.100  1.00  0.00     0.229 C 
ATOM      7  O   UNL A   1      32.903  23.595  21.702  1.00  0.00    -0.275 OA
ATOM      8  H   UNL A   1      31.563  25.226  20.762  1.00  0.00     0.163 HD
BRANCH   6   9
ATOM      9  C   UNL A   1      33.871  25.132  23.250  1.00  0.00     0.142 C 
ATOM     10  N   UNL A   1      35.174  24.398  25.093  1.00  0.00    -0.328 N 
ATOM     11  C   UNL A   1      34.373  25.518  25.568  1.00  0.00     0.266 C 
ATOM     12  C   UNL A   1      34.831  24.048  23.719  1.00  0.00     0.276 C 
ATOM     13  H   UNL A   1      36.133  24.739  25.041  1.00  0.00     0.348 HD
ATOM     14  C   UNL A   1      33.294  25.783  24.512  1.00  0.00     0.059 C 
ATOM     15  C   UNL A   1      31.927  25.325  25.000  1.00  0.00     0.015 C 
BRANCH  10  16
ATOM     16  C   UNL A   1      35.496  23.326  26.041  1.00  0.00     0.215 C 
ATOM     17  C   UNL A   1      36.995  23.336  26.375  1.00  0.00     0.081 C 
BRANCH  16  18
ATOM     18  C   UNL A   1      34.962  21.949  25.666  1.00  0.00     0.048 A 
ATOM     19  C   UNL A   1      33.604  17.940  24.691  1.00  0.00     0.047 C 
ATOM     20  C   UNL A   1      34.055  19.336  24.992  1.00  0.00    -0.012 A 
ATOM     21  C   UNL A   1      33.148  20.335  25.354  1.00  0.00     0.046 A 
ATOM     22  C   UNL A   1      35.410  19.660  24.959  1.00  0.00     0.126 A 
ATOM     23  C   UNL A   1      33.601  21.615  25.683  1.00  0.00     0.132 A 
ATOM     24  C   UNL A   1      35.862  20.941  25.276  1.00  0.00     0.052 A 
ATOM     25  F   UNL A   1      36.311  18.724  24.628  1.00  0.00    -0.207 F 
ATOM     26  F   UNL A   1      32.680  22.510  26.064  1.00  0.00    -0.206 F 
ENDBRANCH  16  18
ENDBRANCH  10  16
ENDBRANCH   6   9
ENDBRANCH   4   5
ENDBRANCH   3   4
ENDBRANCH   2   3
ENDBRANCH   1   2
BRANCH   1  27
ATOM     27  C   UNL A   1      32.063  29.655  24.995  1.00  0.00     0.021 C 
BRANCH  27  28
ATOM     28  C   UNL A   1      32.005  30.119  26.448  1.00  0.00     0.116 C 
BRANCH  28  29
ATOM     29  N   UNL A   1      31.917  31.561  26.578  1.00  0.00    -0.352 N 
ATOM     30  C   UNL A   1      32.757  32.431  27.242  1.00  0.00     0.251 C 
ATOM     31  H   UNL A   1      31.148  31.979  26.128  1.00  0.00     0.163 HD
ATOM     32  O   UNL A   1      32.437  33.604  27.368  1.00  0.00    -0.269 OA
BRANCH  30  33
ATOM     33  C   UNL A   1      34.024  31.934  27.835  1.00  0.00     0.039 A 
ATOM     34  C   UNL A   1      34.248  30.570  28.042  1.00  0.00     0.014 A 
ATOM     35  C   UNL A   1      35.010  32.861  28.190  1.00  0.00     0.014 A 
ATOM     36  C   UNL A   1      35.383  30.147  28.735  1.00  0.00     0.010 A 
ATOM     37  C   UNL A   1      36.181  32.426  28.820  1.00  0.00     0.010 A 
ATOM     38  C   UNL A   1      36.360  31.071  29.138  1.00  0.00    -0.014 A 
BRANCH  38  39
ATOM     39  C   UNL A   1      37.571  30.614  29.876  1.00  0.00     0.031 A 
ATOM     40  C   UNL A   1      38.557  29.670  29.235  1.00  0.00     0.074 A 
ATOM     41  C   UNL A   1      37.785  31.041  31.136  1.00  0.00     0.049 A 
ATOM     42  N   UNL A   1      39.629  29.127  29.752  1.00  0.00    -0.248 NA
ATOM     43  C   UNL A   1      38.308  29.284  27.836  1.00  0.00     0.031 C 
ATOM     44  C   UNL A   1      36.905  31.941  31.883  1.00  0.00     0.029 A 
ATOM     45  N   UNL A   1      38.804  30.768  32.015  1.00  0.00    -0.354 N 
ATOM     46  C   UNL A   1      40.157  28.303  28.764  1.00  0.00     0.074 A 
ATOM     47  C   UNL A   1      39.288  28.419  27.612  1.00  0.00     0.031 C 
ATOM     48  C   UNL A   1      37.430  32.161  33.098  1.00  0.00     0.029 A 
ATOM     49  C   UNL A   1      38.655  31.378  33.237  1.00  0.00     0.049 A 
ATOM     50  H   UNL A   1      39.569  30.190  31.791  1.00  0.00     0.167 HD
ATOM     51  C   UNL A   1      41.270  27.534  28.805  1.00  0.00     0.034 A 
ATOM     52  C   UNL A   1      39.401  31.305  34.356  1.00  0.00     0.034 A 
ATOM     53  C   UNL A   1      42.167  27.454  29.927  1.00  0.00     0.049 A 
ATOM     54  C   UNL A   1      40.631  30.445  34.375  1.00  0.00     0.074 A 
ATOM     55  C   UNL A   1      43.349  26.739  30.029  1.00  0.00     0.029 A 
ATOM     56  N   UNL A   1      41.989  28.105  31.136  1.00  0.00    -0.354 N 
ATOM     57  N   UNL A   1      41.150  29.735  33.404  1.00  0.00    -0.248 NA
ATOM     58  C   UNL A   1      41.383  30.385  35.637  1.00  0.00     0.031 C 
ATOM     59  C   UNL A   1      43.882  26.953  31.304  1.00  0.00     0.029 A 
ATOM     60  C   UNL A   1      43.035  27.807  31.992  1.00  0.00     0.049 A 
ATOM     61  H   UNL A   1      41.229  28.692  31.356  1.00  0.00     0.167 HD
ATOM     62  C   UNL A   1      42.295  29.151  33.933  1.00  0.00     0.074 A 
ATOM     63  C   UNL A   1      42.406  29.609  35.303  1.00  0.00     0.031 C 
ATOM     64  C   UNL A   1      43.161  28.295  33.340  1.00  0.00     0.034 A 
BRANCH  51  65
ATOM     65  C   UNL A   1      41.629  26.742  27.579  1.00  0.00     0.023 A 
ATOM     66  C   UNL A   1      42.237  27.397  26.490  1.00  0.00     0.012 A 
ATOM     67  C   UNL A   1      41.469  25.342  27.548  1.00  0.00     0.148 A 
ATOM     68  C   UNL A   1      42.675  26.672  25.383  1.00  0.00     0.002 A 
ATOM     69  C   UNL A   1      41.934  24.623  26.453  1.00  0.00     0.091 A 
ATOM     70  F   UNL A   1      40.878  24.745  28.592  1.00  0.00    -0.205 F 
ATOM     71  C   UNL A   1      42.533  25.286  25.369  1.00  0.00     0.022 A 
BRANCH  69  72
ATOM     72  S   UNL A   1      41.852  22.831  26.356  1.00  0.00     0.127 S 
ATOM     73  O   UNL A   1      40.407  22.604  26.342  1.00  0.00    -0.237 OA
ATOM     74  O   UNL A   1      42.525  22.562  25.085  1.00  0.00    -0.237 OA
ATOM     75  O   UNL A   1      42.544  22.330  27.534  1.00  0.00    -0.744 OA
ENDBRANCH  69  72
ENDBRANCH  51  65
BRANCH  52  76
ATOM     76  C   UNL A   1      39.008  32.109  35.543  1.00  0.00     0.023 A 
ATOM     77  C   UNL A   1      38.148  31.542  36.503  1.00  0.00     0.012 A 
ATOM     78  C   UNL A   1      39.539  33.395  35.762  1.00  0.00     0.148 A 
ATOM     79  C   UNL A   1      37.819  32.245  37.662  1.00  0.00     0.002 A 
ATOM     80  C   UNL A   1      39.243  34.071  36.939  1.00  0.00     0.091 A 
ATOM     81  F   UNL A   1      40.351  33.911  34.829  1.00  0.00    -0.205 F 
ATOM     82  C   UNL A   1      38.375  33.503  37.885  1.00  0.00     0.022 A 
BRANCH  80  83
ATOM     83  S   UNL A   1      39.994  35.645  37.368  1.00  0.00     0.127 S 
ATOM     84  O   UNL A   1      39.660  36.462  36.204  1.00  0.00    -0.237 OA
ATOM     85  O   UNL A   1      39.275  35.992  38.593  1.00  0.00    -0.237 OA
ATOM     86  O   UNL A   1      41.412  35.372  37.554  1.00  0.00    -0.744 OA
ENDBRANCH  80  83
ENDBRANCH  52  76
BRANCH  64  87
ATOM     87  C   UNL A   1      44.317  27.787  34.157  1.00  0.00     0.023 A 
ATOM     88  C   UNL A   1      45.500  28.547  34.222  1.00  0.00     0.012 A 
ATOM     89  C   UNL A   1      44.198  26.618  34.933  1.00  0.00     0.148 A 
ATOM     90  C   UNL A   1      46.556  28.143  35.038  1.00  0.00     0.002 A 
ATOM     91  C   UNL A   1      45.241  26.239  35.770  1.00  0.00     0.091 A 
ATOM     92  F   UNL A   1      43.065  25.905  34.844  1.00  0.00    -0.205 F 
ATOM     93  C   UNL A   1      46.423  26.998  35.819  1.00  0.00     0.022 A 
BRANCH  91  94
ATOM     94  S   UNL A   1      45.135  24.819  36.865  1.00  0.00     0.127 S 
ATOM     95  O   UNL A   1      46.465  24.814  37.475  1.00  0.00    -0.237 OA
ATOM     96  O   UNL A   1      44.052  25.205  37.769  1.00  0.00    -0.237 OA
ATOM     97  O   UNL A   1      44.836  23.676  36.015  1.00  0.00    -0.744 OA
ENDBRANCH  91  94
ENDBRANCH  64  87
ENDBRANCH  38  39
ENDBRANCH  30  33
ENDBRANCH  28  29
ENDBRANCH  27  28
ENDBRANCH   1  27
TORSDOF 18
ENDMDL
MODEL 3
REMARK VINA RESULT:     -11.8      2.244      8.283
REMARK SMILES Cc1cc(F)c([C@@H](C)[N@@H+]2C[C@H](C)[C@H](C(=O)NCCCCCCNC(=O)c3ccc(-c4c5nc(c(-c6cccc(S(=O)(=O)[O-])c6F)c6ccc([nH]6)c(-c6cccc(S(=O)(=O)[O-])c6F)c6nc(c(-c7cccc(S(=O)(=O)[O-])c7F)c7ccc4[nH]7)C=C6)C=C5)cc3)C2)cc1F
REMARK SMILES IDX 20 1 19 2 18 3 17 4 16 5 14 6 15 7 13 9 9 10 10 11 89 12
REMARK SMILES IDX 11 14 12 15 7 16 8 17 6 18 1 19 2 20 3 21 91 22 4 23 90 24
REMARK SMILES IDX 92 25 5 26 21 27 22 28 23 29 24 30 25 32 26 33 27 34 88 35
REMARK SMILES IDX 28 36 87 37 29 38 30 39 31 40 81 41 32 42 86 43 80 44 82 45
REMARK SMILES IDX 33 46 85 47 79 48 78 49 34 51 66 52 46 53 65 54 47 55 50 56
REMARK SMILES IDX 64 57 83 58 48 59 49 60 63 62 84 63 51 64 35 65 36 66 44 67
REMARK SMILES IDX 37 68 39 69 45 70 38 71 40 72 41 73 42 74 43 75 67 76 68 77
REMARK SMILES IDX 76 78 69 79 71 80 77 81 70 82 72 83 73 84 74 85 75 86 52 87
REMARK SMILES IDX 53 88 61 89 54 90 56 91 62 92 55 93 57 94 58 95 59 96 60 97
REMARK H PARENT 16 8 9 13 23 31 82 50 50 61
REMARK Flexibility Score: inf
ROOT
ATOM      1  C   UNL A   1      34.832  34.021  28.749  1.00  0.00     0.002 C 
ENDROOT
BRANCH   1   2
ATOM      2  C   UNL A   1      34.838  32.697  29.524  1.00  0.00     0.002 C 
BRANCH   2   3
ATOM      3  C   UNL A   1      35.039  31.432  28.684  1.00  0.00     0.021 C 
BRANCH   3   4
ATOM      4  C   UNL A   1      34.092  31.291  27.492  1.00  0.00     0.116 C 
BRANCH   4   5
ATOM      5  N   UNL A   1      33.065  30.296  27.735  1.00  0.00    -0.356 N 
ATOM      6  C   UNL A   1      32.380  29.470  26.903  1.00  0.00     0.229 C 
ATOM      7  O   UNL A   1      31.509  28.766  27.429  1.00  0.00    -0.275 OA
ATOM      8  H   UNL A   1      32.816  30.201  28.683  1.00  0.00     0.163 HD
BRANCH   6   9
ATOM      9  C   UNL A   1      32.607  29.370  25.398  1.00  0.00     0.142 C 
ATOM     10  N   UNL A   1      31.886  28.502  23.310  1.00  0.00    -0.328 N 
ATOM     11  C   UNL A   1      33.315  28.231  23.405  1.00  0.00     0.266 C 
ATOM     12  C   UNL A   1      31.379  29.097  24.541  1.00  0.00     0.276 C 
ATOM     13  H   UNL A   1      31.785  29.235  22.608  1.00  0.00     0.348 HD
ATOM     14  C   UNL A   1      33.726  28.471  24.861  1.00  0.00     0.059 C 
ATOM     15  C   UNL A   1      33.998  27.155  25.576  1.00  0.00     0.015 C 
BRANCH  10  16
ATOM     16  C   UNL A   1      31.046  27.544  22.584  1.00  0.00     0.215 C 
ATOM     17  C   UNL A   1      29.560  27.812  22.863  1.00  0.00     0.081 C 
BRANCH  16  18
ATOM     18  C   UNL A   1      31.446  26.082  22.743  1.00  0.00     0.048 A 
ATOM     19  C   UNL A   1      32.390  21.873  23.252  1.00  0.00     0.047 C 
ATOM     20  C   UNL A   1      32.102  23.334  23.089  1.00  0.00    -0.012 A 
ATOM     21  C   UNL A   1      32.688  24.084  22.067  1.00  0.00     0.046 A 
ATOM     22  C   UNL A   1      31.200  23.972  23.939  1.00  0.00     0.126 A 
ATOM     23  C   UNL A   1      32.361  25.433  21.905  1.00  0.00     0.132 A 
ATOM     24  C   UNL A   1      30.882  25.322  23.784  1.00  0.00     0.052 A 
ATOM     25  F   UNL A   1      30.609  23.281  24.924  1.00  0.00    -0.207 F 
ATOM     26  F   UNL A   1      32.926  26.080  20.876  1.00  0.00    -0.206 F 
ENDBRANCH  16  18
ENDBRANCH  10  16
ENDBRANCH   6   9
ENDBRANCH   4   5
ENDBRANCH   3   4
ENDBRANCH   2   3
ENDBRANCH   1   2
BRANCH   1  27
ATOM     27  C   UNL A   1      33.530  34.821  28.801  1.00  0.00     0.021 C 
BRANCH  27  28
ATOM     28  C   UNL A   1      33.572  36.103  29.628  1.00  0.00     0.116 C 
BRANCH  28  29
ATOM     29  N   UNL A   1      32.524  36.166  30.628  1.00  0.00    -0.352 N 
ATOM     30  C   UNL A   1      32.492  35.624  31.896  1.00  0.00     0.251 C 
ATOM     31  H   UNL A   1      31.719  36.668  30.365  1.00  0.00     0.163 HD
ATOM     32  O   UNL A   1      31.455  35.655  32.542  1.00  0.00    -0.269 OA
BRANCH  30  33
ATOM     33  C   UNL A   1      33.702  34.970  32.456  1.00  0.00     0.039 A 
ATOM     34  C   UNL A   1      34.944  35.610  32.454  1.00  0.00     0.014 A 
ATOM     35  C   UNL A   1      33.584  33.685  32.996  1.00  0.00     0.014 A 
ATOM     36  C   UNL A   1      36.087  34.914  32.850  1.00  0.00     0.010 A 
ATOM     37  C   UNL A   1      34.721  33.016  33.460  1.00  0.00     0.010 A 
ATOM     38  C   UNL A   1      35.991  33.606  33.352  1.00  0.00    -0.014 A 
BRANCH  38  39
ATOM     39  C   UNL A   1      37.213  32.869  33.775  1.00  0.00     0.031 A 
ATOM     40  C   UNL A   1      37.940  33.240  35.043  1.00  0.00     0.074 A 
ATOM     41  C   UNL A   1      37.683  31.861  33.012  1.00  0.00     0.049 A 
ATOM     42  N   UNL A   1      39.050  32.744  35.529  1.00  0.00    -0.248 NA
ATOM     43  C   UNL A   1      37.351  34.306  35.870  1.00  0.00     0.031 C 
ATOM     44  C   UNL A   1      37.087  31.408  31.754  1.00  0.00     0.029 A 
ATOM     45  N   UNL A   1      38.773  31.044  33.178  1.00  0.00    -0.354 N 
ATOM     46  C   UNL A   1      39.316  33.463  36.689  1.00  0.00     0.074 A 
ATOM     47  C   UNL A   1      38.249  34.430  36.838  1.00  0.00     0.031 C 
ATOM     48  C   UNL A   1      37.807  30.384  31.272  1.00  0.00     0.029 A 
ATOM     49  C   UNL A   1      38.942  30.140  32.157  1.00  0.00     0.049 A 
ATOM     50  H   UNL A   1      39.375  31.099  33.954  1.00  0.00     0.167 HD
ATOM     51  C   UNL A   1      40.344  33.321  37.559  1.00  0.00     0.034 A 
ATOM     52  C   UNL A   1      39.911  29.230  31.937  1.00  0.00     0.034 A 
ATOM     53  C   UNL A   1      41.379  32.328  37.445  1.00  0.00     0.049 A 
ATOM     54  C   UNL A   1      41.039  29.093  32.917  1.00  0.00     0.074 A 
ATOM     55  C   UNL A   1      42.427  32.081  38.316  1.00  0.00     0.029 A 
ATOM     56  N   UNL A   1      41.500  31.420  36.407  1.00  0.00    -0.354 N 
ATOM     57  N   UNL A   1      41.228  29.731  34.045  1.00  0.00    -0.248 NA
ATOM     58  C   UNL A   1      42.080  28.103  32.603  1.00  0.00     0.031 C 
ATOM     59  C   UNL A   1      43.187  31.028  37.800  1.00  0.00     0.029 A 
ATOM     60  C   UNL A   1      42.607  30.614  36.612  1.00  0.00     0.049 A 
ATOM     61  H   UNL A   1      40.890  31.358  35.636  1.00  0.00     0.167 HD
ATOM     62  C   UNL A   1      42.402  29.216  34.580  1.00  0.00     0.074 A 
ATOM     63  C   UNL A   1      42.869  28.195  33.665  1.00  0.00     0.031 C 
ATOM     64  C   UNL A   1      43.044  29.575  35.718  1.00  0.00     0.034 A 
BRANCH  51  65
ATOM     65  C   UNL A   1      40.387  34.229  38.757  1.00  0.00     0.023 A 
ATOM     66  C   UNL A   1      41.187  35.388  38.713  1.00  0.00     0.012 A 
ATOM     67  C   UNL A   1      39.557  33.997  39.872  1.00  0.00     0.148 A 
ATOM     68  C   UNL A   1      41.167  36.301  39.765  1.00  0.00     0.002 A 
ATOM     69  C   UNL A   1      39.522  34.927  40.904  1.00  0.00     0.091 A 
ATOM     70  F   UNL A   1      38.815  32.882  39.893  1.00  0.00    -0.205 F 
ATOM     71  C   UNL A   1      40.328  36.076  40.855  1.00  0.00     0.022 A 
BRANCH  69  72
ATOM     72  S   UNL A   1      38.437  34.764  42.327  1.00  0.00     0.127 S 
ATOM     73  O   UNL A   1      38.933  33.529  42.933  1.00  0.00    -0.237 OA
ATOM     74  O   UNL A   1      38.740  35.980  43.083  1.00  0.00    -0.237 OA
ATOM     75  O   UNL A   1      37.083  34.693  41.797  1.00  0.00    -0.744 OA
ENDBRANCH  69  72
ENDBRANCH  51  65
BRANCH  52  76
ATOM     76  C   UNL A   1      39.824  28.353  30.739  1.00  0.00     0.023 A 
ATOM     77  C   UNL A   1      39.011  27.205  30.788  1.00  0.00     0.012 A 
ATOM     78  C   UNL A   1      40.477  28.690  29.539  1.00  0.00     0.148 A 
ATOM     79  C   UNL A   1      38.852  26.402  29.658  1.00  0.00     0.002 A 
ATOM     80  C   UNL A   1      40.280  27.911  28.405  1.00  0.00     0.091 A 
ATOM     81  F   UNL A   1      41.248  29.786  29.524  1.00  0.00    -0.205 F 
ATOM     82  C   UNL A   1      39.477  26.760  28.465  1.00  0.00     0.022 A 
BRANCH  80  83
ATOM     83  S   UNL A   1      40.949  28.350  26.798  1.00  0.00     0.127 S 
ATOM     84  O   UNL A   1      42.247  28.917  27.160  1.00  0.00    -0.237 OA
ATOM     85  O   UNL A   1      41.008  27.047  26.136  1.00  0.00    -0.237 OA
ATOM     86  O   UNL A   1      40.000  29.286  26.213  1.00  0.00    -0.744 OA
ENDBRANCH  80  83
ENDBRANCH  52  76
BRANCH  64  87
ATOM     87  C   UNL A   1      44.327  28.865  36.054  1.00  0.00     0.023 A 
ATOM     88  C   UNL A   1      45.552  29.439  35.664  1.00  0.00     0.012 A 
ATOM     89  C   UNL A   1      44.325  27.694  36.835  1.00  0.00     0.148 A 
ATOM     90  C   UNL A   1      46.760  28.847  36.035  1.00  0.00     0.002 A 
ATOM     91  C   UNL A   1      45.532  27.128  37.230  1.00  0.00     0.091 A 
ATOM     92  F   UNL A   1      43.144  27.161  37.184  1.00  0.00    -0.205 F 
ATOM     93  C   UNL A   1      46.750  27.701  36.825  1.00  0.00     0.022 A 
BRANCH  91  94
ATOM     94  S   UNL A   1      45.621  25.693  38.307  1.00  0.00     0.127 S 
ATOM     95  O   UNL A   1      44.935  26.176  39.504  1.00  0.00    -0.237 OA
ATOM     96  O   UNL A   1      44.883  24.687  37.544  1.00  0.00    -0.237 OA
ATOM     97  O   UNL A   1      47.039  25.404  38.475  1.00  0.00    -0.744 OA
ENDBRANCH  91  94
ENDBRANCH  64  87
ENDBRANCH  38  39
ENDBRANCH  30  33
ENDBRANCH  28  29
ENDBRANCH  27  28
ENDBRANCH   1  27
TORSDOF 18
ENDMDL
