MODEL 1
REMARK VINA RESULT:      -7.6      0.000      0.000
REMARK SMILES CCOc1cccc(OCC)c1-c1ccc([C@@H](C)C(=O)NCCCCCCNC(=O)c2ccc(-c3c4nc(c(-c5cccc(S(=O)(=O)[O-])c5F)c5ccc([nH]5)c(-c5cccc(S(=O)(=O)[O-])c5F)c5nc(c(-c6cccc(S(=O)(=O)[O-])c6F)c6ccc3[nH]6)C=C5)C=C4)cc2)cc1F
REMARK SMILES IDX 24 1 23 2 22 3 21 4 19 5 20 6 17 8 18 9 16 10 13 11 14 12
REMARK SMILES IDX 95 13 15 14 94 15 96 16 12 17 4 18 5 19 6 20 8 21 7 22 3 23
REMARK SMILES IDX 2 24 1 25 9 26 10 27 11 28 25 29 26 30 27 31 28 32 29 33
REMARK SMILES IDX 30 35 31 36 32 37 93 38 33 39 92 40 34 41 35 42 36 43 86 44
REMARK SMILES IDX 37 45 91 46 85 47 87 48 38 49 90 50 84 51 83 52 39 54 71 55
REMARK SMILES IDX 51 56 70 57 52 58 55 59 69 60 88 61 53 62 54 63 68 65 89 66
REMARK SMILES IDX 56 67 40 68 41 69 49 70 42 71 44 72 50 73 43 74 45 75 46 76
REMARK SMILES IDX 47 77 48 78 72 79 73 80 81 81 74 82 76 83 82 84 75 85 77 86
REMARK SMILES IDX 78 87 79 88 80 89 57 90 58 91 66 92 59 93 61 94 67 95 60 96
REMARK SMILES IDX 62 97 63 98 64 99 65 100
REMARK H PARENT 21 7 28 34 87 53 55 64
REMARK Flexibility Score: inf
ROOT
ATOM      1  C   UNL A   1      43.975  25.595  25.754  1.00  0.00     0.002 C 
ENDROOT
BRANCH   1   2
ATOM      2  C   UNL A   1      45.407  26.091  25.581  1.00  0.00     0.021 C 
BRANCH   2   3
ATOM      3  C   UNL A   1      45.978  26.913  26.755  1.00  0.00     0.116 C 
BRANCH   3   4
ATOM      4  N   UNL A   1      46.486  28.204  26.302  1.00  0.00    -0.356 N 
ATOM      5  C   UNL A   1      46.011  29.482  26.312  1.00  0.00     0.227 C 
ATOM      6  O   UNL A   1      46.728  30.311  25.732  1.00  0.00    -0.274 OA
ATOM      7  H   UNL A   1      47.380  28.136  25.895  1.00  0.00     0.163 HD
BRANCH   5   8
ATOM      8  C   UNL A   1      44.697  29.962  26.973  1.00  0.00     0.105 C 
ATOM      9  C   UNL A   1      43.429  29.376  26.359  1.00  0.00     0.023 C 
BRANCH   8  10
ATOM     10  C   UNL A   1      44.610  31.462  27.195  1.00  0.00    -0.033 A 
ATOM     11  C   UNL A   1      44.453  34.292  27.458  1.00  0.00     0.025 A 
ATOM     12  C   UNL A   1      44.146  33.654  26.262  1.00  0.00     0.012 A 
ATOM     13  C   UNL A   1      44.883  33.489  28.521  1.00  0.00     0.131 A 
ATOM     14  C   UNL A   1      44.124  32.276  26.185  1.00  0.00     0.005 A 
ATOM     15  C   UNL A   1      44.990  32.092  28.388  1.00  0.00     0.044 A 
ATOM     16  F   UNL A   1      45.227  34.044  29.695  1.00  0.00    -0.206 F 
BRANCH  11  17
ATOM     17  C   UNL A   1      44.369  35.755  27.464  1.00  0.00     0.069 A 
ATOM     18  C   UNL A   1      43.350  36.344  28.258  1.00  0.00     0.130 A 
ATOM     19  C   UNL A   1      43.277  37.722  28.473  1.00  0.00     0.047 A 
ATOM     20  C   UNL A   1      44.239  38.550  27.914  1.00  0.00     0.008 A 
ATOM     21  C   UNL A   1      45.335  36.613  26.885  1.00  0.00     0.130 A 
ATOM     22  C   UNL A   1      45.243  37.998  27.119  1.00  0.00     0.047 A 
BRANCH  18  23
ATOM     23  O   UNL A   1      42.358  35.548  28.784  1.00  0.00    -0.493 OA
BRANCH  23  24
ATOM     24  C   UNL A   1      41.085  35.742  28.158  1.00  0.00     0.226 C 
ATOM     25  C   UNL A   1      40.007  35.093  29.014  1.00  0.00     0.049 C 
ENDBRANCH  23  24
ENDBRANCH  18  23
BRANCH  21  26
ATOM     26  O   UNL A   1      46.395  36.353  26.057  1.00  0.00    -0.493 OA
BRANCH  26  27
ATOM     27  C   UNL A   1      47.646  35.826  26.475  1.00  0.00     0.226 C 
ATOM     28  C   UNL A   1      47.820  34.383  26.017  1.00  0.00     0.049 C 
ENDBRANCH  26  27
ENDBRANCH  21  26
ENDBRANCH  11  17
ENDBRANCH   8  10
ENDBRANCH   5   8
ENDBRANCH   3   4
ENDBRANCH   2   3
ENDBRANCH   1   2
BRANCH   1  29
ATOM     29  C   UNL A   1      43.848  24.135  26.196  1.00  0.00     0.002 C 
BRANCH  29  30
ATOM     30  C   UNL A   1      42.852  23.281  25.403  1.00  0.00     0.021 C 
BRANCH  30  31
ATOM     31  C   UNL A   1      41.899  22.433  26.245  1.00  0.00     0.116 C 
BRANCH  31  32
ATOM     32  N   UNL A   1      40.515  22.587  25.821  1.00  0.00    -0.352 N 
ATOM     33  C   UNL A   1      39.577  23.508  26.210  1.00  0.00     0.251 C 
ATOM     34  H   UNL A   1      40.207  21.932  25.153  1.00  0.00     0.163 HD
ATOM     35  O   UNL A   1      38.391  23.327  25.925  1.00  0.00    -0.269 OA
BRANCH  33  36
ATOM     36  C   UNL A   1      39.974  24.712  26.971  1.00  0.00     0.039 A 
ATOM     37  C   UNL A   1      40.372  25.857  26.275  1.00  0.00     0.014 A 
ATOM     38  C   UNL A   1      39.993  24.701  28.368  1.00  0.00     0.014 A 
ATOM     39  C   UNL A   1      40.733  27.009  26.980  1.00  0.00     0.010 A 
ATOM     40  C   UNL A   1      40.290  25.870  29.068  1.00  0.00     0.010 A 
ATOM     41  C   UNL A   1      40.668  27.034  28.382  1.00  0.00    -0.014 A 
BRANCH  41  42
ATOM     42  C   UNL A   1      40.978  28.270  29.148  1.00  0.00     0.031 A 
ATOM     43  C   UNL A   1      42.364  28.505  29.687  1.00  0.00     0.074 A 
ATOM     44  C   UNL A   1      39.989  29.140  29.432  1.00  0.00     0.049 A 
ATOM     45  N   UNL A   1      42.804  29.487  30.431  1.00  0.00    -0.248 NA
ATOM     46  C   UNL A   1      43.385  27.493  29.369  1.00  0.00     0.031 C 
ATOM     47  C   UNL A   1      38.587  28.986  29.034  1.00  0.00     0.029 A 
ATOM     48  N   UNL A   1      40.001  30.311  30.150  1.00  0.00    -0.354 N 
ATOM     49  C   UNL A   1      44.137  29.197  30.697  1.00  0.00     0.074 A 
ATOM     50  C   UNL A   1      44.427  27.931  30.061  1.00  0.00     0.031 C 
ATOM     51  C   UNL A   1      37.877  30.019  29.515  1.00  0.00     0.029 A 
ATOM     52  C   UNL A   1      38.761  30.893  30.279  1.00  0.00     0.049 A 
ATOM     53  H   UNL A   1      40.820  30.697  30.535  1.00  0.00     0.167 HD
ATOM     54  C   UNL A   1      45.045  29.933  31.382  1.00  0.00     0.034 A 
ATOM     55  C   UNL A   1      38.377  31.998  30.947  1.00  0.00     0.034 A 
ATOM     56  C   UNL A   1      44.764  31.212  31.976  1.00  0.00     0.049 A 
ATOM     57  C   UNL A   1      39.416  32.815  31.666  1.00  0.00     0.074 A 
ATOM     58  C   UNL A   1      45.638  32.071  32.621  1.00  0.00     0.029 A 
ATOM     59  N   UNL A   1      43.518  31.815  32.004  1.00  0.00    -0.354 N 
ATOM     60  N   UNL A   1      40.705  32.603  31.772  1.00  0.00    -0.248 NA
ATOM     61  C   UNL A   1      38.956  34.047  32.326  1.00  0.00     0.031 C 
ATOM     62  C   UNL A   1      44.914  33.185  33.056  1.00  0.00     0.029 A 
ATOM     63  C   UNL A   1      43.596  33.032  32.659  1.00  0.00     0.049 A 
ATOM     64  H   UNL A   1      42.697  31.434  31.615  1.00  0.00     0.167 HD
ATOM     65  C   UNL A   1      41.214  33.688  32.476  1.00  0.00     0.074 A 
ATOM     66  C   UNL A   1      40.097  34.569  32.751  1.00  0.00     0.031 C 
ATOM     67  C   UNL A   1      42.487  33.926  32.875  1.00  0.00     0.034 A 
BRANCH  54  68
ATOM     68  C   UNL A   1      46.453  29.402  31.475  1.00  0.00     0.023 A 
ATOM     69  C   UNL A   1      46.840  28.664  32.613  1.00  0.00     0.012 A 
ATOM     70  C   UNL A   1      47.365  29.565  30.415  1.00  0.00     0.148 A 
ATOM     71  C   UNL A   1      48.121  28.122  32.706  1.00  0.00     0.002 A 
ATOM     72  C   UNL A   1      48.626  28.983  30.496  1.00  0.00     0.091 A 
ATOM     73  F   UNL A   1      46.985  30.284  29.349  1.00  0.00    -0.205 F 
ATOM     74  C   UNL A   1      49.008  28.271  31.645  1.00  0.00     0.022 A 
BRANCH  72  75
ATOM     75  S   UNL A   1      49.815  29.052  29.150  1.00  0.00     0.127 S 
ATOM     76  O   UNL A   1      49.040  28.485  28.045  1.00  0.00    -0.237 OA
ATOM     77  O   UNL A   1      50.066  30.492  29.039  1.00  0.00    -0.237 OA
ATOM     78  O   UNL A   1      50.957  28.266  29.580  1.00  0.00    -0.744 OA
ENDBRANCH  72  75
ENDBRANCH  54  68
BRANCH  55  79
ATOM     79  C   UNL A   1      36.951  32.432  30.918  1.00  0.00     0.023 A 
ATOM     80  C   UNL A   1      36.128  32.185  32.034  1.00  0.00     0.012 A 
ATOM     81  C   UNL A   1      36.410  33.098  29.801  1.00  0.00     0.148 A 
ATOM     82  C   UNL A   1      34.784  32.559  32.024  1.00  0.00     0.002 A 
ATOM     83  C   UNL A   1      35.085  33.520  29.821  1.00  0.00     0.091 A 
ATOM     84  F   UNL A   1      37.203  33.313  28.742  1.00  0.00    -0.205 F 
ATOM     85  C   UNL A   1      34.265  33.234  30.924  1.00  0.00     0.022 A 
BRANCH  83  86
ATOM     86  S   UNL A   1      34.381  34.518  28.503  1.00  0.00     0.127 S 
ATOM     87  O   UNL A   1      34.898  33.846  27.312  1.00  0.00    -0.237 OA
ATOM     88  O   UNL A   1      32.943  34.347  28.728  1.00  0.00    -0.237 OA
ATOM     89  O   UNL A   1      34.864  35.869  28.734  1.00  0.00    -0.744 OA
ENDBRANCH  83  86
ENDBRANCH  55  79
BRANCH  67  90
ATOM     90  C   UNL A   1      42.759  35.208  33.618  1.00  0.00     0.023 A 
ATOM     91  C   UNL A   1      42.667  35.238  35.024  1.00  0.00     0.012 A 
ATOM     92  C   UNL A   1      43.179  36.363  32.928  1.00  0.00     0.148 A 
ATOM     93  C   UNL A   1      42.956  36.405  35.728  1.00  0.00     0.002 A 
ATOM     94  C   UNL A   1      43.513  37.509  33.640  1.00  0.00     0.091 A 
ATOM     95  F   UNL A   1      43.243  36.321  31.589  1.00  0.00    -0.205 F 
ATOM     96  C   UNL A   1      43.389  37.536  35.039  1.00  0.00     0.022 A 
BRANCH  94  97
ATOM     97  S   UNL A   1      44.172  38.978  32.846  1.00  0.00     0.127 S 
ATOM     98  O   UNL A   1      42.958  39.761  32.614  1.00  0.00    -0.237 OA
ATOM     99  O   UNL A   1      45.058  39.518  33.877  1.00  0.00    -0.237 OA
ATOM    100  O   UNL A   1      44.855  38.514  31.646  1.00  0.00    -0.744 OA
ENDBRANCH  94  97
ENDBRANCH  67  90
ENDBRANCH  41  42
ENDBRANCH  33  36
ENDBRANCH  31  32
ENDBRANCH  30  31
ENDBRANCH  29  30
ENDBRANCH   1  29
TORSDOF 22
ENDMDL
MODEL 2
REMARK VINA RESULT:      -7.3      2.787      4.951
REMARK SMILES CCOc1cccc(OCC)c1-c1ccc([C@@H](C)C(=O)NCCCCCCNC(=O)c2ccc(-c3c4nc(c(-c5cccc(S(=O)(=O)[O-])c5F)c5ccc([nH]5)c(-c5cccc(S(=O)(=O)[O-])c5F)c5nc(c(-c6cccc(S(=O)(=O)[O-])c6F)c6ccc3[nH]6)C=C5)C=C4)cc2)cc1F
REMARK SMILES IDX 24 1 23 2 22 3 21 4 19 5 20 6 17 8 18 9 16 10 13 11 14 12
REMARK SMILES IDX 95 13 15 14 94 15 96 16 12 17 4 18 5 19 6 20 8 21 7 22 3 23
REMARK SMILES IDX 2 24 1 25 9 26 10 27 11 28 25 29 26 30 27 31 28 32 29 33
REMARK SMILES IDX 30 35 31 36 32 37 93 38 33 39 92 40 34 41 35 42 36 43 86 44
REMARK SMILES IDX 37 45 91 46 85 47 87 48 38 49 90 50 84 51 83 52 39 54 71 55
REMARK SMILES IDX 51 56 70 57 52 58 55 59 69 60 88 61 53 62 54 63 68 65 89 66
REMARK SMILES IDX 56 67 40 68 41 69 49 70 42 71 44 72 50 73 43 74 45 75 46 76
REMARK SMILES IDX 47 77 48 78 72 79 73 80 81 81 74 82 76 83 82 84 75 85 77 86
REMARK SMILES IDX 78 87 79 88 80 89 57 90 58 91 66 92 59 93 61 94 67 95 60 96
REMARK SMILES IDX 62 97 63 98 64 99 65 100
REMARK H PARENT 21 7 28 34 87 53 55 64
REMARK Flexibility Score: inf
ROOT
ATOM      1  C   UNL A   1      43.682  23.841  28.011  1.00  0.00     0.002 C 
ENDROOT
BRANCH   1   2
ATOM      2  C   UNL A   1      45.155  24.115  28.301  1.00  0.00     0.021 C 
BRANCH   2   3
ATOM      3  C   UNL A   1      45.460  24.746  29.676  1.00  0.00     0.116 C 
BRANCH   3   4
ATOM      4  N   UNL A   1      44.652  24.141  30.730  1.00  0.00    -0.356 N 
ATOM      5  C   UNL A   1      44.513  24.344  32.071  1.00  0.00     0.227 C 
ATOM      6  O   UNL A   1      43.766  23.538  32.647  1.00  0.00    -0.274 OA
ATOM      7  H   UNL A   1      44.072  23.420  30.394  1.00  0.00     0.163 HD
BRANCH   5   8
ATOM      8  C   UNL A   1      45.186  25.464  32.899  1.00  0.00     0.105 C 
ATOM      9  C   UNL A   1      46.030  24.967  34.069  1.00  0.00     0.023 C 
BRANCH   8  10
ATOM     10  C   UNL A   1      44.265  26.612  33.279  1.00  0.00    -0.033 A 
ATOM     11  C   UNL A   1      42.651  28.859  33.947  1.00  0.00     0.025 A 
ATOM     12  C   UNL A   1      43.734  28.972  33.084  1.00  0.00     0.012 A 
ATOM     13  C   UNL A   1      42.408  27.600  34.511  1.00  0.00     0.131 A 
ATOM     14  C   UNL A   1      44.438  27.853  32.687  1.00  0.00     0.005 A 
ATOM     15  C   UNL A   1      43.221  26.492  34.205  1.00  0.00     0.044 A 
ATOM     16  F   UNL A   1      41.398  27.428  35.378  1.00  0.00    -0.206 F 
BRANCH  11  17
ATOM     17  C   UNL A   1      41.915  30.090  34.245  1.00  0.00     0.069 A 
ATOM     18  C   UNL A   1      40.660  30.268  33.604  1.00  0.00     0.130 A 
ATOM     19  C   UNL A   1      39.798  31.315  33.934  1.00  0.00     0.047 A 
ATOM     20  C   UNL A   1      40.160  32.206  34.934  1.00  0.00     0.008 A 
ATOM     21  C   UNL A   1      42.280  31.016  35.251  1.00  0.00     0.130 A 
ATOM     22  C   UNL A   1      41.392  32.062  35.570  1.00  0.00     0.047 A 
BRANCH  18  23
ATOM     23  O   UNL A   1      40.300  29.425  32.577  1.00  0.00    -0.493 OA
BRANCH  23  24
ATOM     24  C   UNL A   1      38.978  28.896  32.717  1.00  0.00     0.226 C 
ATOM     25  C   UNL A   1      39.029  27.384  32.553  1.00  0.00     0.049 C 
ENDBRANCH  23  24
ENDBRANCH  18  23
BRANCH  21  26
ATOM     26  O   UNL A   1      43.416  31.129  36.008  1.00  0.00    -0.493 OA
BRANCH  26  27
ATOM     27  C   UNL A   1      44.167  32.322  36.180  1.00  0.00     0.226 C 
ATOM     28  C   UNL A   1      44.401  32.621  37.656  1.00  0.00     0.049 C 
ENDBRANCH  26  27
ENDBRANCH  21  26
ENDBRANCH  11  17
ENDBRANCH   8  10
ENDBRANCH   5   8
ENDBRANCH   3   4
ENDBRANCH   2   3
ENDBRANCH   1   2
BRANCH   1  29
ATOM     29  C   UNL A   1      43.258  22.379  28.163  1.00  0.00     0.002 C 
BRANCH  29  30
ATOM     30  C   UNL A   1      42.232  21.871  27.142  1.00  0.00     0.021 C 
BRANCH  30  31
ATOM     31  C   UNL A   1      40.818  21.662  27.681  1.00  0.00     0.116 C 
BRANCH  31  32
ATOM     32  N   UNL A   1      39.809  21.846  26.647  1.00  0.00    -0.352 N 
ATOM     33  C   UNL A   1      39.077  22.960  26.327  1.00  0.00     0.251 C 
ATOM     34  H   UNL A   1      39.627  21.052  26.095  1.00  0.00     0.163 HD
ATOM     35  O   UNL A   1      38.099  22.853  25.585  1.00  0.00    -0.269 OA
BRANCH  33  36
ATOM     36  C   UNL A   1      39.448  24.286  26.867  1.00  0.00     0.039 A 
ATOM     37  C   UNL A   1      39.067  24.623  28.169  1.00  0.00     0.014 A 
ATOM     38  C   UNL A   1      40.139  25.210  26.079  1.00  0.00     0.014 A 
ATOM     39  C   UNL A   1      39.426  25.865  28.699  1.00  0.00     0.010 A 
ATOM     40  C   UNL A   1      40.553  26.422  26.631  1.00  0.00     0.010 A 
ATOM     41  C   UNL A   1      40.197  26.765  27.944  1.00  0.00    -0.014 A 
BRANCH  41  42
ATOM     42  C   UNL A   1      40.651  28.060  28.515  1.00  0.00     0.031 A 
ATOM     43  C   UNL A   1      42.117  28.333  28.715  1.00  0.00     0.074 A 
ATOM     44  C   UNL A   1      39.736  28.956  28.934  1.00  0.00     0.049 A 
ATOM     45  N   UNL A   1      42.696  29.373  29.258  1.00  0.00    -0.248 NA
ATOM     46  C   UNL A   1      43.058  27.292  28.267  1.00  0.00     0.031 C 
ATOM     47  C   UNL A   1      38.283  28.776  28.868  1.00  0.00     0.029 A 
ATOM     48  N   UNL A   1      39.889  30.184  29.530  1.00  0.00    -0.354 N 
ATOM     49  C   UNL A   1      44.059  29.100  29.248  1.00  0.00     0.074 A 
ATOM     50  C   UNL A   1      44.221  27.782  28.675  1.00  0.00     0.031 C 
ATOM     51  C   UNL A   1      37.681  29.851  29.404  1.00  0.00     0.029 A 
ATOM     52  C   UNL A   1      38.699  30.782  29.878  1.00  0.00     0.049 A 
ATOM     53  H   UNL A   1      40.767  30.598  29.692  1.00  0.00     0.167 HD
ATOM     54  C   UNL A   1      45.085  29.887  29.652  1.00  0.00     0.034 A 
ATOM     55  C   UNL A   1      38.456  31.943  30.517  1.00  0.00     0.034 A 
ATOM     56  C   UNL A   1      44.924  31.214  30.182  1.00  0.00     0.049 A 
ATOM     57  C   UNL A   1      39.616  32.813  30.919  1.00  0.00     0.074 A 
ATOM     58  C   UNL A   1      45.906  32.120  30.545  1.00  0.00     0.029 A 
ATOM     59  N   UNL A   1      43.705  31.824  30.432  1.00  0.00    -0.354 N 
ATOM     60  N   UNL A   1      40.899  32.604  30.757  1.00  0.00    -0.248 NA
ATOM     61  C   UNL A   1      39.295  34.099  31.557  1.00  0.00     0.031 C 
ATOM     62  C   UNL A   1      45.279  33.272  31.031  1.00  0.00     0.029 A 
ATOM     63  C   UNL A   1      43.908  33.093  30.947  1.00  0.00     0.049 A 
ATOM     64  H   UNL A   1      42.825  31.416  30.267  1.00  0.00     0.167 HD
ATOM     65  C   UNL A   1      41.536  33.743  31.238  1.00  0.00     0.074 A 
ATOM     66  C   UNL A   1      40.494  34.650  31.675  1.00  0.00     0.031 C 
ATOM     67  C   UNL A   1      42.862  34.008  31.325  1.00  0.00     0.034 A 
BRANCH  54  68
ATOM     68  C   UNL A   1      46.486  29.359  29.479  1.00  0.00     0.023 A 
ATOM     69  C   UNL A   1      47.064  28.581  30.503  1.00  0.00     0.012 A 
ATOM     70  C   UNL A   1      47.200  29.564  28.282  1.00  0.00     0.148 A 
ATOM     71  C   UNL A   1      48.340  28.041  30.352  1.00  0.00     0.002 A 
ATOM     72  C   UNL A   1      48.454  28.985  28.121  1.00  0.00     0.091 A 
ATOM     73  F   UNL A   1      46.641  30.321  27.327  1.00  0.00    -0.205 F 
ATOM     74  C   UNL A   1      49.029  28.233  29.159  1.00  0.00     0.022 A 
BRANCH  72  75
ATOM     75  S   UNL A   1      49.391  29.108  26.592  1.00  0.00     0.127 S 
ATOM     76  O   UNL A   1      48.429  28.591  25.617  1.00  0.00    -0.237 OA
ATOM     77  O   UNL A   1      49.633  30.551  26.499  1.00  0.00    -0.237 OA
ATOM     78  O   UNL A   1      50.581  28.301  26.782  1.00  0.00    -0.744 OA
ENDBRANCH  72  75
ENDBRANCH  54  68
BRANCH  55  79
ATOM     79  C   UNL A   1      37.052  32.380  30.766  1.00  0.00     0.023 A 
ATOM     80  C   UNL A   1      36.501  32.242  32.054  1.00  0.00     0.012 A 
ATOM     81  C   UNL A   1      36.268  32.942  29.740  1.00  0.00     0.148 A 
ATOM     82  C   UNL A   1      35.182  32.622  32.308  1.00  0.00     0.002 A 
ATOM     83  C   UNL A   1      34.974  33.372  30.014  1.00  0.00     0.091 A 
ATOM     84  F   UNL A   1      36.804  33.053  28.516  1.00  0.00    -0.205 F 
ATOM     85  C   UNL A   1      34.423  33.195  31.293  1.00  0.00     0.022 A 
BRANCH  83  86
ATOM     86  S   UNL A   1      33.980  34.246  28.799  1.00  0.00     0.127 S 
ATOM     87  O   UNL A   1      32.855  34.708  29.611  1.00  0.00    -0.237 OA
ATOM     88  O   UNL A   1      34.896  35.303  28.362  1.00  0.00    -0.237 OA
ATOM     89  O   UNL A   1      33.666  33.267  27.773  1.00  0.00    -0.744 OA
ENDBRANCH  83  86
ENDBRANCH  55  79
BRANCH  67  90
ATOM     90  C   UNL A   1      43.273  35.347  31.879  1.00  0.00     0.023 A 
ATOM     91  C   UNL A   1      43.559  36.412  31.001  1.00  0.00     0.012 A 
ATOM     92  C   UNL A   1      43.303  35.570  33.270  1.00  0.00     0.148 A 
ATOM     93  C   UNL A   1      43.901  37.668  31.499  1.00  0.00     0.002 A 
ATOM     94  C   UNL A   1      43.596  36.838  33.759  1.00  0.00     0.091 A 
ATOM     95  F   UNL A   1      43.045  34.540  34.089  1.00  0.00    -0.205 F 
ATOM     96  C   UNL A   1      43.908  37.884  32.876  1.00  0.00     0.022 A 
BRANCH  94  97
ATOM     97  S   UNL A   1      43.534  37.232  35.509  1.00  0.00     0.127 S 
ATOM     98  O   UNL A   1      42.152  36.891  35.843  1.00  0.00    -0.237 OA
ATOM     99  O   UNL A   1      44.538  36.327  36.068  1.00  0.00    -0.237 OA
ATOM    100  O   UNL A   1      43.871  38.645  35.614  1.00  0.00    -0.744 OA
ENDBRANCH  94  97
ENDBRANCH  67  90
ENDBRANCH  41  42
ENDBRANCH  33  36
ENDBRANCH  31  32
ENDBRANCH  30  31
ENDBRANCH  29  30
ENDBRANCH   1  29
TORSDOF 22
ENDMDL
MODEL 3
REMARK VINA RESULT:      -7.1      1.802      2.079
REMARK SMILES CCOc1cccc(OCC)c1-c1ccc([C@@H](C)C(=O)NCCCCCCNC(=O)c2ccc(-c3c4nc(c(-c5cccc(S(=O)(=O)[O-])c5F)c5ccc([nH]5)c(-c5cccc(S(=O)(=O)[O-])c5F)c5nc(c(-c6cccc(S(=O)(=O)[O-])c6F)c6ccc3[nH]6)C=C5)C=C4)cc2)cc1F
REMARK SMILES IDX 24 1 23 2 22 3 21 4 19 5 20 6 17 8 18 9 16 10 13 11 14 12
REMARK SMILES IDX 95 13 15 14 94 15 96 16 12 17 4 18 5 19 6 20 8 21 7 22 3 23
REMARK SMILES IDX 2 24 1 25 9 26 10 27 11 28 25 29 26 30 27 31 28 32 29 33
REMARK SMILES IDX 30 35 31 36 32 37 93 38 33 39 92 40 34 41 35 42 36 43 86 44
REMARK SMILES IDX 37 45 91 46 85 47 87 48 38 49 90 50 84 51 83 52 39 54 71 55
REMARK SMILES IDX 51 56 70 57 52 58 55 59 69 60 88 61 53 62 54 63 68 65 89 66
REMARK SMILES IDX 56 67 40 68 41 69 49 70 42 71 44 72 50 73 43 74 45 75 46 76
REMARK SMILES IDX 47 77 48 78 72 79 73 80 81 81 74 82 76 83 82 84 75 85 77 86
REMARK SMILES IDX 78 87 79 88 80 89 57 90 58 91 66 92 59 93 61 94 67 95 60 96
REMARK SMILES IDX 62 97 63 98 64 99 65 100
REMARK H PARENT 21 7 28 34 87 53 55 64
REMARK Flexibility Score: inf
ROOT
ATOM      1  C   UNL A   1      43.522  25.116  25.901  1.00  0.00     0.002 C 
ENDROOT
BRANCH   1   2
ATOM      2  C   UNL A   1      44.961  25.571  25.678  1.00  0.00     0.021 C 
BRANCH   2   3
ATOM      3  C   UNL A   1      45.559  26.468  26.783  1.00  0.00     0.116 C 
BRANCH   3   4
ATOM      4  N   UNL A   1      46.102  27.704  26.229  1.00  0.00    -0.356 N 
ATOM      5  C   UNL A   1      45.671  28.995  26.156  1.00  0.00     0.227 C 
ATOM      6  O   UNL A   1      46.404  29.755  25.504  1.00  0.00    -0.274 OA
ATOM      7  H   UNL A   1      46.984  27.575  25.811  1.00  0.00     0.163 HD
BRANCH   5   8
ATOM      8  C   UNL A   1      44.388  29.567  26.804  1.00  0.00     0.105 C 
ATOM      9  C   UNL A   1      43.089  29.102  26.153  1.00  0.00     0.023 C 
BRANCH   8  10
ATOM     10  C   UNL A   1      44.420  31.064  27.059  1.00  0.00    -0.033 A 
ATOM     11  C   UNL A   1      44.498  33.891  27.385  1.00  0.00     0.025 A 
ATOM     12  C   UNL A   1      44.217  33.308  26.155  1.00  0.00     0.012 A 
ATOM     13  C   UNL A   1      44.783  33.031  28.453  1.00  0.00     0.131 A 
ATOM     14  C   UNL A   1      44.077  31.940  26.041  1.00  0.00     0.005 A 
ATOM     15  C   UNL A   1      44.774  31.633  28.290  1.00  0.00     0.044 A 
ATOM     16  F   UNL A   1      45.095  33.528  29.660  1.00  0.00    -0.206 F 
BRANCH  11  17
ATOM     17  C   UNL A   1      44.545  35.355  27.424  1.00  0.00     0.069 A 
ATOM     18  C   UNL A   1      43.359  36.033  27.812  1.00  0.00     0.130 A 
ATOM     19  C   UNL A   1      43.331  37.409  28.045  1.00  0.00     0.047 A 
ATOM     20  C   UNL A   1      44.500  38.145  27.916  1.00  0.00     0.008 A 
ATOM     21  C   UNL A   1      45.727  36.121  27.279  1.00  0.00     0.130 A 
ATOM     22  C   UNL A   1      45.675  37.507  27.523  1.00  0.00     0.047 A 
BRANCH  18  23
ATOM     23  O   UNL A   1      42.178  35.332  27.902  1.00  0.00    -0.493 OA
BRANCH  23  24
ATOM     24  C   UNL A   1      41.662  35.261  29.235  1.00  0.00     0.226 C 
ATOM     25  C   UNL A   1      40.170  34.969  29.174  1.00  0.00     0.049 C 
ENDBRANCH  23  24
ENDBRANCH  18  23
BRANCH  21  26
ATOM     26  O   UNL A   1      46.991  35.767  26.888  1.00  0.00    -0.493 OA
BRANCH  26  27
ATOM     27  C   UNL A   1      47.759  34.718  27.461  1.00  0.00     0.226 C 
ATOM     28  C   UNL A   1      47.875  33.534  26.509  1.00  0.00     0.049 C 
ENDBRANCH  26  27
ENDBRANCH  21  26
ENDBRANCH  11  17
ENDBRANCH   8  10
ENDBRANCH   5   8
ENDBRANCH   3   4
ENDBRANCH   2   3
ENDBRANCH   1   2
BRANCH   1  29
ATOM     29  C   UNL A   1      43.373  23.691  26.438  1.00  0.00     0.002 C 
BRANCH  29  30
ATOM     30  C   UNL A   1      42.368  22.800  25.700  1.00  0.00     0.021 C 
BRANCH  30  31
ATOM     31  C   UNL A   1      41.230  22.244  26.557  1.00  0.00     0.116 C 
BRANCH  31  32
ATOM     32  N   UNL A   1      39.925  22.532  25.980  1.00  0.00    -0.352 N 
ATOM     33  C   UNL A   1      39.057  23.559  26.247  1.00  0.00     0.251 C 
ATOM     34  H   UNL A   1      39.621  21.894  25.295  1.00  0.00     0.163 HD
ATOM     35  O   UNL A   1      37.896  23.496  25.837  1.00  0.00    -0.269 OA
BRANCH  33  36
ATOM     36  C   UNL A   1      39.499  24.736  27.025  1.00  0.00     0.039 A 
ATOM     37  C   UNL A   1      40.146  25.785  26.365  1.00  0.00     0.014 A 
ATOM     38  C   UNL A   1      39.312  24.790  28.408  1.00  0.00     0.014 A 
ATOM     39  C   UNL A   1      40.554  26.912  27.084  1.00  0.00     0.010 A 
ATOM     40  C   UNL A   1      39.660  25.942  29.112  1.00  0.00     0.010 A 
ATOM     41  C   UNL A   1      40.289  27.013  28.459  1.00  0.00    -0.014 A 
BRANCH  41  42
ATOM     42  C   UNL A   1      40.650  28.233  29.227  1.00  0.00     0.031 A 
ATOM     43  C   UNL A   1      42.062  28.445  29.703  1.00  0.00     0.074 A 
ATOM     44  C   UNL A   1      39.685  29.109  29.572  1.00  0.00     0.049 A 
ATOM     45  N   UNL A   1      42.548  29.411  30.440  1.00  0.00    -0.248 NA
ATOM     46  C   UNL A   1      43.055  27.427  29.320  1.00  0.00     0.031 C 
ATOM     47  C   UNL A   1      38.264  28.976  29.240  1.00  0.00     0.029 A 
ATOM     48  N   UNL A   1      39.745  30.268  30.307  1.00  0.00    -0.354 N 
ATOM     49  C   UNL A   1      43.889  29.102  30.636  1.00  0.00     0.074 A 
ATOM     50  C   UNL A   1      44.135  27.843  29.968  1.00  0.00     0.031 C 
ATOM     51  C   UNL A   1      37.589  30.009  29.770  1.00  0.00     0.029 A 
ATOM     52  C   UNL A   1      38.519  30.861  30.505  1.00  0.00     0.049 A 
ATOM     53  H   UNL A   1      40.586  30.640  30.658  1.00  0.00     0.167 HD
ATOM     54  C   UNL A   1      44.838  29.817  31.288  1.00  0.00     0.034 A 
ATOM     55  C   UNL A   1      38.180  31.960  31.207  1.00  0.00     0.034 A 
ATOM     56  C   UNL A   1      44.600  31.089  31.915  1.00  0.00     0.049 A 
ATOM     57  C   UNL A   1      39.262  32.754  31.888  1.00  0.00     0.074 A 
ATOM     58  C   UNL A   1      45.514  31.929  32.530  1.00  0.00     0.029 A 
ATOM     59  N   UNL A   1      43.363  31.706  32.012  1.00  0.00    -0.354 N 
ATOM     60  N   UNL A   1      40.551  32.527  31.928  1.00  0.00    -0.248 NA
ATOM     61  C   UNL A   1      38.847  33.979  32.588  1.00  0.00     0.031 C 
ATOM     62  C   UNL A   1      44.824  33.044  33.016  1.00  0.00     0.029 A 
ATOM     63  C   UNL A   1      43.486  32.911  32.681  1.00  0.00     0.049 A 
ATOM     64  H   UNL A   1      42.521  31.340  31.657  1.00  0.00     0.167 HD
ATOM     65  C   UNL A   1      41.106  33.595  32.624  1.00  0.00     0.074 A 
ATOM     66  C   UNL A   1      40.014  34.483  32.966  1.00  0.00     0.031 C 
ATOM     67  C   UNL A   1      42.399  33.813  32.964  1.00  0.00     0.034 A 
BRANCH  54  68
ATOM     68  C   UNL A   1      46.242  29.271  31.305  1.00  0.00     0.023 A 
ATOM     69  C   UNL A   1      47.145  29.651  30.290  1.00  0.00     0.012 A 
ATOM     70  C   UNL A   1      46.692  28.449  32.357  1.00  0.00     0.148 A 
ATOM     71  C   UNL A   1      48.463  29.198  30.305  1.00  0.00     0.002 A 
ATOM     72  C   UNL A   1      48.020  28.038  32.389  1.00  0.00     0.091 A 
ATOM     73  F   UNL A   1      45.815  28.085  33.303  1.00  0.00    -0.205 F 
ATOM     74  C   UNL A   1      48.903  28.403  31.358  1.00  0.00     0.022 A 
BRANCH  72  75
ATOM     75  S   UNL A   1      48.706  27.075  33.742  1.00  0.00     0.127 S 
ATOM     76  O   UNL A   1      49.821  26.393  33.082  1.00  0.00    -0.237 OA
ATOM     77  O   UNL A   1      49.109  28.121  34.686  1.00  0.00    -0.237 OA
ATOM     78  O   UNL A   1      47.636  26.214  34.208  1.00  0.00    -0.744 OA
ENDBRANCH  72  75
ENDBRANCH  54  68
BRANCH  55  79
ATOM     79  C   UNL A   1      36.759  32.408  31.253  1.00  0.00     0.023 A 
ATOM     80  C   UNL A   1      36.039  32.306  32.459  1.00  0.00     0.012 A 
ATOM     81  C   UNL A   1      36.124  32.948  30.118  1.00  0.00     0.148 A 
ATOM     82  C   UNL A   1      34.700  32.697  32.524  1.00  0.00     0.002 A 
ATOM     83  C   UNL A   1      34.808  33.390  30.206  1.00  0.00     0.091 A 
ATOM     84  F   UNL A   1      36.820  33.026  28.976  1.00  0.00    -0.205 F 
ATOM     85  C   UNL A   1      34.089  33.247  31.402  1.00  0.00     0.022 A 
BRANCH  83  86
ATOM     86  S   UNL A   1      33.993  34.238  28.847  1.00  0.00     0.127 S 
ATOM     87  O   UNL A   1      35.031  35.171  28.413  1.00  0.00    -0.237 OA
ATOM     88  O   UNL A   1      33.730  33.137  27.916  1.00  0.00    -0.237 OA
ATOM     89  O   UNL A   1      32.798  34.835  29.418  1.00  0.00    -0.744 OA
ENDBRANCH  83  86
ENDBRANCH  55  79
BRANCH  67  90
ATOM     90  C   UNL A   1      42.722  35.080  33.713  1.00  0.00     0.023 A 
ATOM     91  C   UNL A   1      43.082  36.243  33.003  1.00  0.00     0.012 A 
ATOM     92  C   UNL A   1      42.595  35.137  35.115  1.00  0.00     0.148 A 
ATOM     93  C   UNL A   1      43.343  37.433  33.680  1.00  0.00     0.002 A 
ATOM     94  C   UNL A   1      42.808  36.339  35.779  1.00  0.00     0.091 A 
ATOM     95  F   UNL A   1      42.269  34.016  35.774  1.00  0.00    -0.205 F 
ATOM     96  C   UNL A   1      43.195  37.485  35.064  1.00  0.00     0.022 A 
BRANCH  94  97
ATOM     97  S   UNL A   1      42.547  36.523  37.546  1.00  0.00     0.127 S 
ATOM     98  O   UNL A   1      42.953  35.210  38.045  1.00  0.00    -0.237 OA
ATOM     99  O   UNL A   1      43.463  37.613  37.883  1.00  0.00    -0.237 OA
ATOM    100  O   UNL A   1      41.137  36.847  37.712  1.00  0.00    -0.744 OA
ENDBRANCH  94  97
ENDBRANCH  67  90
ENDBRANCH  41  42
ENDBRANCH  33  36
ENDBRANCH  31  32
ENDBRANCH  30  31
ENDBRANCH  29  30
ENDBRANCH   1  29
TORSDOF 22
ENDMDL
