MODEL 1
REMARK VINA RESULT:     -11.1      0.000      0.000
REMARK SMILES O=C(NCCCCCCNC(=O)c1cccc(Oc2ncc([N+](=O)[O-])cc2Br)c1)c1ccc(-c2c3nc(c(-c4cccc(S(=O)(=O)[O-])c4F)c4ccc([nH]4)c(-c4cccc(S(=O)(=O)[O-])c4F)c4nc(c(-c5cccc(S(=O)(=O)[O-])c5F)c5ccc2[nH]5)C=C4)C=C3)cc1
REMARK SMILES IDX 6 1 5 2 4 3 3 4 1 5 2 6 30 8 31 9 92 10 32 11 91 12 33 13
REMARK SMILES IDX 34 14 35 15 85 16 36 17 90 18 84 19 86 20 37 21 89 22 83 23
REMARK SMILES IDX 82 24 38 26 70 27 50 28 69 29 51 30 54 31 68 32 87 33 52 34
REMARK SMILES IDX 53 35 67 37 88 38 55 39 39 40 40 41 48 42 41 43 43 44 49 45
REMARK SMILES IDX 42 46 44 47 45 48 46 49 47 50 71 51 72 52 80 53 73 54 75 55
REMARK SMILES IDX 81 56 74 57 76 58 77 59 78 60 79 61 56 62 57 63 65 64 58 65
REMARK SMILES IDX 60 66 66 67 59 68 61 69 62 70 63 71 64 72 7 73 8 74 9 75
REMARK SMILES IDX 10 76 11 77 12 79 13 80 14 81 29 82 15 83 17 84 16 85 18 86
REMARK SMILES IDX 19 87 20 88 27 89 21 90 26 91 28 92 22 93 23 94 24 95 25 96
REMARK H PARENT 3 7 86 25 54 36 10 78
REMARK Flexibility Score: inf
ROOT
ATOM      1  C   UNL A   1      31.753  28.272  26.007  1.00  0.00     0.002 C 
ENDROOT
BRANCH   1   2
ATOM      2  C   UNL A   1      33.013  27.932  26.802  1.00  0.00     0.021 C 
BRANCH   2   3
ATOM      3  C   UNL A   1      34.159  28.924  26.652  1.00  0.00     0.116 C 
BRANCH   3   4
ATOM      4  N   UNL A   1      33.783  30.283  27.007  1.00  0.00    -0.352 N 
ATOM      5  O   UNL A   1      33.880  32.229  28.146  1.00  0.00    -0.269 OA
ATOM      6  C   UNL A   1      34.417  31.160  27.854  1.00  0.00     0.251 C 
ATOM      7  H   UNL A   1      32.962  30.622  26.582  1.00  0.00     0.163 HD
BRANCH   6   8
ATOM      8  C   UNL A   1      35.724  30.793  28.441  1.00  0.00     0.039 A 
ATOM      9  C   UNL A   1      36.895  31.407  27.994  1.00  0.00     0.014 A 
ATOM     10  C   UNL A   1      35.783  29.798  29.419  1.00  0.00     0.014 A 
ATOM     11  C   UNL A   1      38.128  30.905  28.389  1.00  0.00     0.010 A 
ATOM     12  C   UNL A   1      37.026  29.365  29.893  1.00  0.00     0.010 A 
ATOM     13  C   UNL A   1      38.212  29.881  29.348  1.00  0.00    -0.014 A 
BRANCH  13  14
ATOM     14  C   UNL A   1      39.551  29.411  29.791  1.00  0.00     0.031 A 
ATOM     15  C   UNL A   1      40.256  30.033  30.967  1.00  0.00     0.074 A 
ATOM     16  C   UNL A   1      40.126  28.389  29.126  1.00  0.00     0.049 A 
ATOM     17  N   UNL A   1      41.397  29.695  31.512  1.00  0.00    -0.248 NA
ATOM     18  C   UNL A   1      39.608  31.187  31.610  1.00  0.00     0.031 C 
ATOM     19  C   UNL A   1      39.562  27.732  27.943  1.00  0.00     0.029 A 
ATOM     20  N   UNL A   1      41.300  27.716  29.348  1.00  0.00    -0.354 N 
ATOM     21  C   UNL A   1      41.629  30.620  32.525  1.00  0.00     0.074 A 
ATOM     22  C   UNL A   1      40.510  31.537  32.518  1.00  0.00     0.031 C 
ATOM     23  C   UNL A   1      40.366  26.726  27.572  1.00  0.00     0.029 A 
ATOM     24  C   UNL A   1      41.528  26.700  28.450  1.00  0.00     0.049 A 
ATOM     25  H   UNL A   1      41.919  27.939  30.081  1.00  0.00     0.167 HD
ATOM     26  C   UNL A   1      42.671  30.690  33.389  1.00  0.00     0.034 A 
ATOM     27  C   UNL A   1      42.562  25.844  28.336  1.00  0.00     0.034 A 
ATOM     28  C   UNL A   1      43.761  29.748  33.419  1.00  0.00     0.049 A 
ATOM     29  C   UNL A   1      43.685  25.927  29.330  1.00  0.00     0.074 A 
ATOM     30  C   UNL A   1      44.821  29.687  34.308  1.00  0.00     0.029 A 
ATOM     31  N   UNL A   1      43.938  28.710  32.516  1.00  0.00    -0.354 N 
ATOM     32  N   UNL A   1      43.814  26.721  30.365  1.00  0.00    -0.248 NA
ATOM     33  C   UNL A   1      44.791  24.976  29.157  1.00  0.00     0.031 C 
ATOM     34  C   UNL A   1      45.654  28.630  33.924  1.00  0.00     0.029 A 
ATOM     35  C   UNL A   1      45.097  28.013  32.816  1.00  0.00     0.049 A 
ATOM     36  H   UNL A   1      43.330  28.500  31.771  1.00  0.00     0.167 HD
ATOM     37  C   UNL A   1      44.998  26.344  30.987  1.00  0.00     0.074 A 
ATOM     38  C   UNL A   1      45.534  25.234  30.224  1.00  0.00     0.031 C 
ATOM     39  C   UNL A   1      45.594  26.878  32.080  1.00  0.00     0.034 A 
BRANCH  26  40
ATOM     40  C   UNL A   1      42.680  31.812  34.398  1.00  0.00     0.023 A 
ATOM     41  C   UNL A   1      43.260  33.052  34.064  1.00  0.00     0.012 A 
ATOM     42  C   UNL A   1      42.052  31.660  35.651  1.00  0.00     0.148 A 
ATOM     43  C   UNL A   1      43.244  34.111  34.971  1.00  0.00     0.002 A 
ATOM     44  C   UNL A   1      42.001  32.734  36.532  1.00  0.00     0.091 A 
ATOM     45  F   UNL A   1      41.522  30.468  35.960  1.00  0.00    -0.205 F 
ATOM     46  C   UNL A   1      42.607  33.956  36.199  1.00  0.00     0.022 A 
BRANCH  44  47
ATOM     47  S   UNL A   1      41.131  32.657  38.103  1.00  0.00     0.127 S 
ATOM     48  O   UNL A   1      41.133  34.062  38.510  1.00  0.00    -0.237 OA
ATOM     49  O   UNL A   1      39.820  32.142  37.705  1.00  0.00    -0.237 OA
ATOM     50  O   UNL A   1      41.905  31.758  38.946  1.00  0.00    -0.744 OA
ENDBRANCH  44  47
ENDBRANCH  26  40
BRANCH  27  51
ATOM     51  C   UNL A   1      42.548  24.802  27.273  1.00  0.00     0.023 A 
ATOM     52  C   UNL A   1      43.345  24.974  26.125  1.00  0.00     0.012 A 
ATOM     53  C   UNL A   1      41.785  23.626  27.411  1.00  0.00     0.148 A 
ATOM     54  C   UNL A   1      43.363  24.007  25.121  1.00  0.00     0.002 A 
ATOM     55  C   UNL A   1      41.854  22.640  26.435  1.00  0.00     0.091 A 
ATOM     56  F   UNL A   1      41.023  23.488  28.505  1.00  0.00    -0.205 F 
ATOM     57  C   UNL A   1      42.627  22.835  25.281  1.00  0.00     0.022 A 
BRANCH  55  58
ATOM     58  S   UNL A   1      41.052  21.044  26.625  1.00  0.00     0.127 S 
ATOM     59  O   UNL A   1      41.758  20.235  25.636  1.00  0.00    -0.237 OA
ATOM     60  O   UNL A   1      41.356  20.719  28.019  1.00  0.00    -0.237 OA
ATOM     61  O   UNL A   1      39.639  21.281  26.360  1.00  0.00    -0.744 OA
ENDBRANCH  55  58
ENDBRANCH  27  51
BRANCH  39  62
ATOM     62  C   UNL A   1      46.879  26.244  32.547  1.00  0.00     0.023 A 
ATOM     63  C   UNL A   1      48.117  26.745  32.095  1.00  0.00     0.012 A 
ATOM     64  C   UNL A   1      46.860  25.182  33.472  1.00  0.00     0.148 A 
ATOM     65  C   UNL A   1      49.312  26.173  32.527  1.00  0.00     0.002 A 
ATOM     66  C   UNL A   1      48.057  24.651  33.937  1.00  0.00     0.091 A 
ATOM     67  F   UNL A   1      45.673  24.704  33.873  1.00  0.00    -0.205 F 
ATOM     68  C   UNL A   1      49.283  25.136  33.456  1.00  0.00     0.022 A 
BRANCH  66  69
ATOM     69  S   UNL A   1      48.111  23.381  35.206  1.00  0.00     0.127 S 
ATOM     70  O   UNL A   1      47.513  24.073  36.346  1.00  0.00    -0.237 OA
ATOM     71  O   UNL A   1      47.279  22.326  34.627  1.00  0.00    -0.237 OA
ATOM     72  O   UNL A   1      49.516  23.025  35.354  1.00  0.00    -0.744 OA
ENDBRANCH  66  69
ENDBRANCH  39  62
ENDBRANCH  13  14
ENDBRANCH   6   8
ENDBRANCH   3   4
ENDBRANCH   2   3
ENDBRANCH   1   2
BRANCH   1  73
ATOM     73  C   UNL A   1      31.025  27.078  25.385  1.00  0.00     0.002 C 
BRANCH  73  74
ATOM     74  C   UNL A   1      30.639  27.229  23.910  1.00  0.00     0.021 C 
BRANCH  74  75
ATOM     75  C   UNL A   1      31.808  27.463  22.959  1.00  0.00     0.116 C 
BRANCH  75  76
ATOM     76  N   UNL A   1      31.983  26.351  22.037  1.00  0.00    -0.352 N 
ATOM     77  C   UNL A   1      32.726  25.213  22.197  1.00  0.00     0.251 C 
ATOM     78  H   UNL A   1      31.499  26.427  21.182  1.00  0.00     0.163 HD
ATOM     79  O   UNL A   1      32.946  24.472  21.237  1.00  0.00    -0.269 OA
BRANCH  77  80
ATOM     80  C   UNL A   1      33.250  24.854  23.530  1.00  0.00     0.043 A 
ATOM     81  C   UNL A   1      34.244  25.639  24.116  1.00  0.00     0.014 A 
ATOM     82  C   UNL A   1      32.800  23.691  24.165  1.00  0.00     0.061 A 
ATOM     83  C   UNL A   1      34.754  25.282  25.364  1.00  0.00     0.005 A 
ATOM     84  C   UNL A   1      33.314  23.325  25.409  1.00  0.00     0.130 A 
ATOM     85  C   UNL A   1      34.287  24.131  26.009  1.00  0.00     0.047 A 
BRANCH  84  86
ATOM     86  O   UNL A   1      32.971  22.180  26.102  1.00  0.00    -0.438 OA
BRANCH  86  87
ATOM     87  C   UNL A   1      33.179  20.973  25.471  1.00  0.00     0.234 A 
ATOM     88  N   UNL A   1      32.052  20.300  25.122  1.00  0.00    -0.214 NA
ATOM     89  C   UNL A   1      34.467  20.495  25.223  1.00  0.00     0.087 A 
ATOM     90  C   UNL A   1      32.211  19.119  24.472  1.00  0.00     0.200 A 
ATOM     91  C   UNL A   1      34.608  19.303  24.513  1.00  0.00     0.108 A 
ATOM     92  Br  UNL A   1      36.027  21.425  25.759  1.00  0.00    -0.045 Br
ATOM     93  C   UNL A   1      33.455  18.609  24.133  1.00  0.00     0.288 A 
BRANCH  93  94
ATOM     94  N   UNL A   1      33.550  17.378  23.362  1.00  0.00     0.064 N 
ATOM     95  O   UNL A   1      32.959  17.331  22.279  1.00  0.00    -0.258 OA
ATOM     96  O   UNL A   1      34.239  16.464  23.837  1.00  0.00    -0.258 OA
ENDBRANCH  93  94
ENDBRANCH  86  87
ENDBRANCH  84  86
ENDBRANCH  77  80
ENDBRANCH  75  76
ENDBRANCH  74  75
ENDBRANCH  73  74
ENDBRANCH   1  73
TORSDOF 19
ENDMDL
MODEL 2
REMARK VINA RESULT:     -11.1      1.927      2.588
REMARK SMILES O=C(NCCCCCCNC(=O)c1cccc(Oc2ncc([N+](=O)[O-])cc2Br)c1)c1ccc(-c2c3nc(c(-c4cccc(S(=O)(=O)[O-])c4F)c4ccc([nH]4)c(-c4cccc(S(=O)(=O)[O-])c4F)c4nc(c(-c5cccc(S(=O)(=O)[O-])c5F)c5ccc2[nH]5)C=C4)C=C3)cc1
REMARK SMILES IDX 6 1 5 2 4 3 3 4 1 5 2 6 30 8 31 9 92 10 32 11 91 12 33 13
REMARK SMILES IDX 34 14 35 15 85 16 36 17 90 18 84 19 86 20 37 21 89 22 83 23
REMARK SMILES IDX 82 24 38 26 70 27 50 28 69 29 51 30 54 31 68 32 87 33 52 34
REMARK SMILES IDX 53 35 67 37 88 38 55 39 39 40 40 41 48 42 41 43 43 44 49 45
REMARK SMILES IDX 42 46 44 47 45 48 46 49 47 50 71 51 72 52 80 53 73 54 75 55
REMARK SMILES IDX 81 56 74 57 76 58 77 59 78 60 79 61 56 62 57 63 65 64 58 65
REMARK SMILES IDX 60 66 66 67 59 68 61 69 62 70 63 71 64 72 7 73 8 74 9 75
REMARK SMILES IDX 10 76 11 77 12 79 13 80 14 81 29 82 15 83 17 84 16 85 18 86
REMARK SMILES IDX 19 87 20 88 27 89 21 90 26 91 28 92 22 93 23 94 24 95 25 96
REMARK H PARENT 3 7 86 25 54 36 10 78
REMARK Flexibility Score: inf
ROOT
ATOM      1  C   UNL A   1      30.712  28.478  24.728  1.00  0.00     0.002 C 
ENDROOT
BRANCH   1   2
ATOM      2  C   UNL A   1      31.823  28.281  25.758  1.00  0.00     0.021 C 
BRANCH   2   3
ATOM      3  C   UNL A   1      32.946  29.308  25.702  1.00  0.00     0.116 C 
BRANCH   3   4
ATOM      4  N   UNL A   1      32.524  30.634  26.126  1.00  0.00    -0.352 N 
ATOM      5  O   UNL A   1      32.547  32.516  27.371  1.00  0.00    -0.269 OA
ATOM      6  C   UNL A   1      33.120  31.481  27.028  1.00  0.00     0.251 C 
ATOM      7  H   UNL A   1      31.699  30.971  25.708  1.00  0.00     0.163 HD
BRANCH   6   8
ATOM      8  C   UNL A   1      34.430  31.121  27.613  1.00  0.00     0.039 A 
ATOM      9  C   UNL A   1      34.676  29.816  28.044  1.00  0.00     0.014 A 
ATOM     10  C   UNL A   1      35.408  32.107  27.767  1.00  0.00     0.014 A 
ATOM     11  C   UNL A   1      35.818  29.541  28.785  1.00  0.00     0.010 A 
ATOM     12  C   UNL A   1      36.604  31.800  28.425  1.00  0.00     0.010 A 
ATOM     13  C   UNL A   1      36.800  30.526  28.982  1.00  0.00    -0.014 A 
BRANCH  13  14
ATOM     14  C   UNL A   1      38.037  30.177  29.730  1.00  0.00     0.031 A 
ATOM     15  C   UNL A   1      38.265  30.655  31.140  1.00  0.00     0.074 A 
ATOM     16  C   UNL A   1      38.956  29.398  29.127  1.00  0.00     0.049 A 
ATOM     17  N   UNL A   1      39.261  30.386  31.946  1.00  0.00    -0.248 NA
ATOM     18  C   UNL A   1      37.258  31.556  31.720  1.00  0.00     0.031 C 
ATOM     19  C   UNL A   1      38.869  28.909  27.748  1.00  0.00     0.029 A 
ATOM     20  N   UNL A   1      40.135  28.871  29.589  1.00  0.00    -0.354 N 
ATOM     21  C   UNL A   1      39.029  31.119  33.104  1.00  0.00     0.074 A 
ATOM     22  C   UNL A   1      37.798  31.849  32.896  1.00  0.00     0.031 C 
ATOM     23  C   UNL A   1      39.922  28.120  27.492  1.00  0.00     0.029 A 
ATOM     24  C   UNL A   1      40.788  28.093  28.663  1.00  0.00     0.049 A 
ATOM     25  H   UNL A   1      40.479  29.035  30.497  1.00  0.00     0.167 HD
ATOM     26  C   UNL A   1      39.768  31.170  34.240  1.00  0.00     0.034 A 
ATOM     27  C   UNL A   1      41.960  27.434  28.740  1.00  0.00     0.034 A 
ATOM     28  C   UNL A   1      40.970  30.408  34.457  1.00  0.00     0.049 A 
ATOM     29  C   UNL A   1      42.737  27.483  30.025  1.00  0.00     0.074 A 
ATOM     30  C   UNL A   1      41.744  30.329  35.603  1.00  0.00     0.029 A 
ATOM     31  N   UNL A   1      41.581  29.602  33.508  1.00  0.00    -0.354 N 
ATOM     32  N   UNL A   1      42.427  28.071  31.153  1.00  0.00    -0.248 NA
ATOM     33  C   UNL A   1      44.012  26.753  30.052  1.00  0.00     0.031 C 
ATOM     34  C   UNL A   1      42.838  29.498  35.336  1.00  0.00     0.029 A 
ATOM     35  C   UNL A   1      42.730  29.034  34.035  1.00  0.00     0.049 A 
ATOM     36  H   UNL A   1      41.248  29.455  32.594  1.00  0.00     0.167 HD
ATOM     37  C   UNL A   1      43.451  27.755  32.039  1.00  0.00     0.074 A 
ATOM     38  C   UNL A   1      44.376  26.904  31.319  1.00  0.00     0.031 C 
ATOM     39  C   UNL A   1      43.617  28.148  33.325  1.00  0.00     0.034 A 
BRANCH  26  40
ATOM     40  C   UNL A   1      39.287  32.064  35.357  1.00  0.00     0.023 A 
ATOM     41  C   UNL A   1      38.371  31.570  36.307  1.00  0.00     0.012 A 
ATOM     42  C   UNL A   1      39.797  33.370  35.505  1.00  0.00     0.148 A 
ATOM     43  C   UNL A   1      37.944  32.371  37.366  1.00  0.00     0.002 A 
ATOM     44  C   UNL A   1      39.400  34.146  36.588  1.00  0.00     0.091 A 
ATOM     45  F   UNL A   1      40.653  33.831  34.582  1.00  0.00    -0.205 F 
ATOM     46  C   UNL A   1      38.465  33.653  37.512  1.00  0.00     0.022 A 
BRANCH  44  47
ATOM     47  S   UNL A   1      40.080  35.779  36.909  1.00  0.00     0.127 S 
ATOM     48  O   UNL A   1      41.511  35.491  36.998  1.00  0.00    -0.237 OA
ATOM     49  O   UNL A   1      39.683  36.520  35.710  1.00  0.00    -0.237 OA
ATOM     50  O   UNL A   1      39.454  36.239  38.140  1.00  0.00    -0.744 OA
ENDBRANCH  44  47
ENDBRANCH  26  40
BRANCH  27  51
ATOM     51  C   UNL A   1      42.434  26.627  27.582  1.00  0.00     0.023 A 
ATOM     52  C   UNL A   1      43.294  27.215  26.635  1.00  0.00     0.012 A 
ATOM     53  C   UNL A   1      42.073  25.273  27.437  1.00  0.00     0.148 A 
ATOM     54  C   UNL A   1      43.765  26.478  25.548  1.00  0.00     0.002 A 
ATOM     55  C   UNL A   1      42.595  24.528  26.386  1.00  0.00     0.091 A 
ATOM     56  F   UNL A   1      41.244  24.736  28.342  1.00  0.00    -0.205 F 
ATOM     57  C   UNL A   1      43.425  25.132  25.430  1.00  0.00     0.022 A 
BRANCH  55  58
ATOM     58  S   UNL A   1      42.324  22.759  26.237  1.00  0.00     0.127 S 
ATOM     59  O   UNL A   1      40.869  22.671  26.329  1.00  0.00    -0.237 OA
ATOM     60  O   UNL A   1      42.876  22.480  24.910  1.00  0.00    -0.237 OA
ATOM     61  O   UNL A   1      43.068  22.155  27.334  1.00  0.00    -0.744 OA
ENDBRANCH  55  58
ENDBRANCH  27  51
BRANCH  39  62
ATOM     62  C   UNL A   1      44.826  27.627  34.057  1.00  0.00     0.023 A 
ATOM     63  C   UNL A   1      46.024  28.371  34.057  1.00  0.00     0.012 A 
ATOM     64  C   UNL A   1      44.761  26.423  34.784  1.00  0.00     0.148 A 
ATOM     65  C   UNL A   1      47.147  27.905  34.738  1.00  0.00     0.002 A 
ATOM     66  C   UNL A   1      45.870  25.991  35.503  1.00  0.00     0.091 A 
ATOM     67  F   UNL A   1      43.621  25.717  34.754  1.00  0.00    -0.205 F 
ATOM     68  C   UNL A   1      47.067  26.722  35.470  1.00  0.00     0.022 A 
BRANCH  66  69
ATOM     69  S   UNL A   1      45.822  24.531  36.550  1.00  0.00     0.127 S 
ATOM     70  O   UNL A   1      45.587  23.471  35.571  1.00  0.00    -0.237 OA
ATOM     71  O   UNL A   1      47.159  24.528  37.142  1.00  0.00    -0.237 OA
ATOM     72  O   UNL A   1      44.742  24.758  37.501  1.00  0.00    -0.744 OA
ENDBRANCH  66  69
ENDBRANCH  39  62
ENDBRANCH  13  14
ENDBRANCH   6   8
ENDBRANCH   3   4
ENDBRANCH   2   3
ENDBRANCH   1   2
BRANCH   1  73
ATOM     73  C   UNL A   1      30.366  27.245  23.889  1.00  0.00     0.002 C 
BRANCH  73  74
ATOM     74  C   UNL A   1      30.894  27.251  22.451  1.00  0.00     0.021 C 
BRANCH  74  75
ATOM     75  C   UNL A   1      32.374  26.911  22.307  1.00  0.00     0.116 C 
BRANCH  75  76
ATOM     76  N   UNL A   1      32.571  25.657  21.595  1.00  0.00    -0.352 N 
ATOM     77  C   UNL A   1      33.299  24.561  21.973  1.00  0.00     0.251 C 
ATOM     78  H   UNL A   1      32.119  25.587  20.723  1.00  0.00     0.163 HD
ATOM     79  O   UNL A   1      33.546  23.666  21.162  1.00  0.00    -0.269 OA
BRANCH  77  80
ATOM     80  C   UNL A   1      33.774  24.434  23.366  1.00  0.00     0.043 A 
ATOM     81  C   UNL A   1      33.685  25.528  24.228  1.00  0.00     0.014 A 
ATOM     82  C   UNL A   1      34.375  23.245  23.791  1.00  0.00     0.061 A 
ATOM     83  C   UNL A   1      34.158  25.412  25.535  1.00  0.00     0.005 A 
ATOM     84  C   UNL A   1      34.857  23.127  25.095  1.00  0.00     0.130 A 
ATOM     85  C   UNL A   1      34.738  24.214  25.967  1.00  0.00     0.047 A 
BRANCH  84  86
ATOM     86  O   UNL A   1      35.502  22.016  25.604  1.00  0.00    -0.438 OA
BRANCH  86  87
ATOM     87  C   UNL A   1      35.033  20.780  25.216  1.00  0.00     0.234 A 
ATOM     88  N   UNL A   1      33.680  20.657  25.185  1.00  0.00    -0.214 NA
ATOM     89  C   UNL A   1      35.907  19.741  24.888  1.00  0.00     0.087 A 
ATOM     90  C   UNL A   1      33.175  19.463  24.781  1.00  0.00     0.200 A 
ATOM     91  C   UNL A   1      35.367  18.540  24.430  1.00  0.00     0.108 A 
ATOM     92  Br  UNL A   1      37.789  19.916  24.983  1.00  0.00    -0.045 Br
ATOM     93  C   UNL A   1      33.976  18.406  24.377  1.00  0.00     0.288 A 
BRANCH  93  94
ATOM     94  N   UNL A   1      33.367  17.182  23.877  1.00  0.00     0.064 N 
ATOM     95  O   UNL A   1      32.952  17.182  22.713  1.00  0.00    -0.258 OA
ATOM     96  O   UNL A   1      33.326  16.213  24.647  1.00  0.00    -0.258 OA
ENDBRANCH  93  94
ENDBRANCH  86  87
ENDBRANCH  84  86
ENDBRANCH  77  80
ENDBRANCH  75  76
ENDBRANCH  74  75
ENDBRANCH  73  74
ENDBRANCH   1  73
TORSDOF 19
ENDMDL
MODEL 3
REMARK VINA RESULT:     -10.7      1.765      2.160
REMARK SMILES O=C(NCCCCCCNC(=O)c1cccc(Oc2ncc([N+](=O)[O-])cc2Br)c1)c1ccc(-c2c3nc(c(-c4cccc(S(=O)(=O)[O-])c4F)c4ccc([nH]4)c(-c4cccc(S(=O)(=O)[O-])c4F)c4nc(c(-c5cccc(S(=O)(=O)[O-])c5F)c5ccc2[nH]5)C=C4)C=C3)cc1
REMARK SMILES IDX 6 1 5 2 4 3 3 4 1 5 2 6 30 8 31 9 92 10 32 11 91 12 33 13
REMARK SMILES IDX 34 14 35 15 85 16 36 17 90 18 84 19 86 20 37 21 89 22 83 23
REMARK SMILES IDX 82 24 38 26 70 27 50 28 69 29 51 30 54 31 68 32 87 33 52 34
REMARK SMILES IDX 53 35 67 37 88 38 55 39 39 40 40 41 48 42 41 43 43 44 49 45
REMARK SMILES IDX 42 46 44 47 45 48 46 49 47 50 71 51 72 52 80 53 73 54 75 55
REMARK SMILES IDX 81 56 74 57 76 58 77 59 78 60 79 61 56 62 57 63 65 64 58 65
REMARK SMILES IDX 60 66 66 67 59 68 61 69 62 70 63 71 64 72 7 73 8 74 9 75
REMARK SMILES IDX 10 76 11 77 12 79 13 80 14 81 29 82 15 83 17 84 16 85 18 86
REMARK SMILES IDX 19 87 20 88 27 89 21 90 26 91 28 92 22 93 23 94 24 95 25 96
REMARK H PARENT 3 7 86 25 54 36 10 78
REMARK Flexibility Score: inf
ROOT
ATOM      1  C   UNL A   1      32.390  29.459  25.555  1.00  0.00     0.002 C 
ENDROOT
BRANCH   1   2
ATOM      2  C   UNL A   1      33.149  28.635  26.594  1.00  0.00     0.021 C 
BRANCH   2   3
ATOM      3  C   UNL A   1      34.336  29.340  27.236  1.00  0.00     0.116 C 
BRANCH   3   4
ATOM      4  N   UNL A   1      34.022  30.686  27.687  1.00  0.00    -0.352 N 
ATOM      5  O   UNL A   1      34.198  32.537  28.967  1.00  0.00    -0.269 OA
ATOM      6  C   UNL A   1      34.687  31.467  28.601  1.00  0.00     0.251 C 
ATOM      7  H   UNL A   1      33.222  31.094  27.282  1.00  0.00     0.163 HD
BRANCH   6   8
ATOM      8  C   UNL A   1      35.969  30.996  29.169  1.00  0.00     0.039 A 
ATOM      9  C   UNL A   1      37.171  31.599  28.792  1.00  0.00     0.014 A 
ATOM     10  C   UNL A   1      35.972  29.917  30.055  1.00  0.00     0.014 A 
ATOM     11  C   UNL A   1      38.376  31.013  29.157  1.00  0.00     0.010 A 
ATOM     12  C   UNL A   1      37.189  29.393  30.504  1.00  0.00     0.010 A 
ATOM     13  C   UNL A   1      38.403  29.906  30.022  1.00  0.00    -0.014 A 
BRANCH  13  14
ATOM     14  C   UNL A   1      39.715  29.343  30.437  1.00  0.00     0.031 A 
ATOM     15  C   UNL A   1      40.422  29.825  31.676  1.00  0.00     0.074 A 
ATOM     16  C   UNL A   1      40.263  28.366  29.687  1.00  0.00     0.049 A 
ATOM     17  N   UNL A   1      41.540  29.392  32.203  1.00  0.00    -0.248 NA
ATOM     18  C   UNL A   1      39.808  30.938  32.416  1.00  0.00     0.031 C 
ATOM     19  C   UNL A   1      39.696  27.846  28.440  1.00  0.00     0.029 A 
ATOM     20  N   UNL A   1      41.406  27.629  29.861  1.00  0.00    -0.354 N 
ATOM     21  C   UNL A   1      41.789  30.208  33.302  1.00  0.00     0.074 A 
ATOM     22  C   UNL A   1      40.706  31.165  33.365  1.00  0.00     0.031 C 
ATOM     23  C   UNL A   1      40.467  26.847  27.987  1.00  0.00     0.029 A 
ATOM     24  C   UNL A   1      41.612  26.693  28.875  1.00  0.00     0.049 A 
ATOM     25  H   UNL A   1      42.020  27.758  30.621  1.00  0.00     0.167 HD
ATOM     26  C   UNL A   1      42.818  30.155  34.184  1.00  0.00     0.034 A 
ATOM     27  C   UNL A   1      42.614  25.812  28.696  1.00  0.00     0.034 A 
ATOM     28  C   UNL A   1      43.869  29.173  34.141  1.00  0.00     0.049 A 
ATOM     29  C   UNL A   1      43.721  25.756  29.710  1.00  0.00     0.074 A 
ATOM     30  C   UNL A   1      44.910  28.986  35.034  1.00  0.00     0.029 A 
ATOM     31  N   UNL A   1      44.023  28.217  33.146  1.00  0.00    -0.354 N 
ATOM     32  N   UNL A   1      43.862  26.444  30.816  1.00  0.00    -0.248 NA
ATOM     33  C   UNL A   1      44.793  24.782  29.463  1.00  0.00     0.031 C 
ATOM     34  C   UNL A   1      45.709  27.938  34.565  1.00  0.00     0.029 A 
ATOM     35  C   UNL A   1      45.149  27.449  33.396  1.00  0.00     0.049 A 
ATOM     36  H   UNL A   1      43.421  28.102  32.376  1.00  0.00     0.167 HD
ATOM     37  C   UNL A   1      45.019  25.964  31.416  1.00  0.00     0.074 A 
ATOM     38  C   UNL A   1      45.526  24.910  30.561  1.00  0.00     0.031 C 
ATOM     39  C   UNL A   1      45.616  26.370  32.563  1.00  0.00     0.034 A 
BRANCH  26  40
ATOM     40  C   UNL A   1      42.851  31.177  35.294  1.00  0.00     0.023 A 
ATOM     41  C   UNL A   1      42.183  30.917  36.507  1.00  0.00     0.012 A 
ATOM     42  C   UNL A   1      43.601  32.363  35.160  1.00  0.00     0.148 A 
ATOM     43  C   UNL A   1      42.233  31.834  37.557  1.00  0.00     0.002 A 
ATOM     44  C   UNL A   1      43.683  33.251  36.227  1.00  0.00     0.091 A 
ATOM     45  F   UNL A   1      44.214  32.604  33.993  1.00  0.00    -0.205 F 
ATOM     46  C   UNL A   1      42.990  32.994  37.421  1.00  0.00     0.022 A 
BRANCH  44  47
ATOM     47  S   UNL A   1      44.700  34.732  36.177  1.00  0.00     0.127 S 
ATOM     48  O   UNL A   1      44.481  35.285  37.513  1.00  0.00    -0.237 OA
ATOM     49  O   UNL A   1      46.039  34.180  35.960  1.00  0.00    -0.237 OA
ATOM     50  O   UNL A   1      44.189  35.532  35.074  1.00  0.00    -0.744 OA
ENDBRANCH  44  47
ENDBRANCH  26  40
BRANCH  27  51
ATOM     51  C   UNL A   1      42.579  24.875  27.540  1.00  0.00     0.023 A 
ATOM     52  C   UNL A   1      43.377  25.140  26.411  1.00  0.00     0.012 A 
ATOM     53  C   UNL A   1      41.795  23.705  27.569  1.00  0.00     0.148 A 
ATOM     54  C   UNL A   1      43.375  24.272  25.319  1.00  0.00     0.002 A 
ATOM     55  C   UNL A   1      41.844  22.814  26.504  1.00  0.00     0.091 A 
ATOM     56  F   UNL A   1      41.032  23.478  28.647  1.00  0.00    -0.205 F 
ATOM     57  C   UNL A   1      42.618  23.103  25.370  1.00  0.00     0.022 A 
BRANCH  55  58
ATOM     58  S   UNL A   1      41.014  21.222  26.546  1.00  0.00     0.127 S 
ATOM     59  O   UNL A   1      39.739  21.533  25.904  1.00  0.00    -0.237 OA
ATOM     60  O   UNL A   1      41.918  20.389  25.751  1.00  0.00    -0.237 OA
ATOM     61  O   UNL A   1      40.943  20.854  27.954  1.00  0.00    -0.744 OA
ENDBRANCH  55  58
ENDBRANCH  27  51
BRANCH  39  62
ATOM     62  C   UNL A   1      46.866  25.644  32.987  1.00  0.00     0.023 A 
ATOM     63  C   UNL A   1      46.796  24.635  33.969  1.00  0.00     0.012 A 
ATOM     64  C   UNL A   1      48.103  25.929  32.376  1.00  0.00     0.148 A 
ATOM     65  C   UNL A   1      47.944  23.949  34.362  1.00  0.00     0.002 A 
ATOM     66  C   UNL A   1      49.233  25.205  32.737  1.00  0.00     0.091 A 
ATOM     67  F   UNL A   1      48.155  26.907  31.460  1.00  0.00    -0.205 F 
ATOM     68  C   UNL A   1      49.159  24.225  33.739  1.00  0.00     0.022 A 
BRANCH  66  69
ATOM     69  S   UNL A   1      50.816  25.429  31.917  1.00  0.00     0.127 S 
ATOM     70  O   UNL A   1      51.653  24.453  32.612  1.00  0.00    -0.237 OA
ATOM     71  O   UNL A   1      50.500  25.085  30.530  1.00  0.00    -0.237 OA
ATOM     72  O   UNL A   1      51.177  26.826  32.122  1.00  0.00    -0.744 OA
ENDBRANCH  66  69
ENDBRANCH  39  62
ENDBRANCH  13  14
ENDBRANCH   6   8
ENDBRANCH   3   4
ENDBRANCH   2   3
ENDBRANCH   1   2
BRANCH   1  73
ATOM     73  C   UNL A   1      31.310  28.704  24.777  1.00  0.00     0.002 C 
BRANCH  73  74
ATOM     74  C   UNL A   1      31.645  28.381  23.317  1.00  0.00     0.021 C 
BRANCH  74  75
ATOM     75  C   UNL A   1      33.014  27.746  23.096  1.00  0.00     0.116 C 
BRANCH  75  76
ATOM     76  N   UNL A   1      33.073  27.018  21.838  1.00  0.00    -0.352 N 
ATOM     77  C   UNL A   1      32.890  25.681  21.610  1.00  0.00     0.251 C 
ATOM     78  H   UNL A   1      33.269  27.562  21.040  1.00  0.00     0.163 HD
ATOM     79  O   UNL A   1      33.189  25.187  20.521  1.00  0.00    -0.269 OA
BRANCH  77  80
ATOM     80  C   UNL A   1      32.310  24.825  22.665  1.00  0.00     0.043 A 
ATOM     81  C   UNL A   1      30.943  24.893  22.935  1.00  0.00     0.014 A 
ATOM     82  C   UNL A   1      33.144  24.007  23.434  1.00  0.00     0.061 A 
ATOM     83  C   UNL A   1      30.403  24.103  23.950  1.00  0.00     0.005 A 
ATOM     84  C   UNL A   1      32.610  23.221  24.455  1.00  0.00     0.130 A 
ATOM     85  C   UNL A   1      31.235  23.266  24.703  1.00  0.00     0.047 A 
BRANCH  84  86
ATOM     86  O   UNL A   1      33.346  22.410  25.299  1.00  0.00    -0.438 OA
BRANCH  86  87
ATOM     87  C   UNL A   1      33.463  21.081  24.955  1.00  0.00     0.234 A 
ATOM     88  N   UNL A   1      32.295  20.453  24.659  1.00  0.00    -0.214 NA
ATOM     89  C   UNL A   1      34.706  20.445  24.924  1.00  0.00     0.087 A 
ATOM     90  C   UNL A   1      32.368  19.150  24.288  1.00  0.00     0.200 A 
ATOM     91  C   UNL A   1      34.764  19.120  24.495  1.00  0.00     0.108 A 
ATOM     92  Br  UNL A   1      36.319  21.324  25.386  1.00  0.00    -0.045 Br
ATOM     93  C   UNL A   1      33.570  18.467  24.171  1.00  0.00     0.288 A 
BRANCH  93  94
ATOM     94  N   UNL A   1      33.582  17.095  23.687  1.00  0.00     0.064 N 
ATOM     95  O   UNL A   1      33.917  16.903  22.513  1.00  0.00    -0.258 OA
ATOM     96  O   UNL A   1      33.278  16.207  24.495  1.00  0.00    -0.258 OA
ENDBRANCH  93  94
ENDBRANCH  86  87
ENDBRANCH  84  86
ENDBRANCH  77  80
ENDBRANCH  75  76
ENDBRANCH  74  75
ENDBRANCH  73  74
ENDBRANCH   1  73
TORSDOF 19
ENDMDL
