MODEL 1
REMARK VINA RESULT:     -10.5      0.000      0.000
REMARK SMILES C=CCN(CC(=O)NCCCCCCNC(=O)c1ccc(-c2c3nc(c(-c4cccc(S(=O)(=O)[O-])c4F)c4ccc([nH]4)c(-c4cccc(S(=O)(=O)[O-])c4F)c4nc(c(-c5cccc(S(=O)(=O)[O-])c5F)c5ccc2[nH]5)C=C4)C=C3)cc1)C(=O)NCC(C)C
REMARK SMILES IDX 11 1 10 2 9 3 8 4 6 5 7 6 5 8 4 9 3 10 2 11 1 12 81 13 82 14
REMARK SMILES IDX 83 15 84 17 85 18 86 19 87 20 12 21 13 22 14 23 15 24 16 25
REMARK SMILES IDX 17 27 18 28 19 29 80 30 20 31 79 32 21 33 22 34 23 35 73 36
REMARK SMILES IDX 24 37 78 38 72 39 74 40 25 41 77 42 71 43 70 44 26 46 58 47
REMARK SMILES IDX 38 48 57 49 39 50 42 51 56 52 75 53 40 54 41 55 55 57 76 58
REMARK SMILES IDX 43 59 27 60 28 61 36 62 29 63 31 64 37 65 30 66 32 67 33 68
REMARK SMILES IDX 34 69 35 70 59 71 60 72 68 73 61 74 63 75 69 76 62 77 64 78
REMARK SMILES IDX 65 79 66 80 67 81 44 82 45 83 53 84 46 85 48 86 54 87 47 88
REMARK SMILES IDX 49 89 50 90 51 91 52 92
REMARK H PARENT 8 7 83 16 15 26 74 45 42 56
REMARK Flexibility Score: inf
ROOT
ATOM      1  C   UNL A   1      32.017  28.000  26.093  1.00  0.00     0.002 C 
ENDROOT
BRANCH   1   2
ATOM      2  C   UNL A   1      32.234  26.548  25.648  1.00  0.00     0.021 C 
BRANCH   2   3
ATOM      3  C   UNL A   1      30.953  25.778  25.343  1.00  0.00     0.116 C 
BRANCH   3   4
ATOM      4  N   UNL A   1      30.628  24.791  26.347  1.00  0.00    -0.355 N 
ATOM      5  C   UNL A   1      31.098  23.520  26.485  1.00  0.00     0.239 C 
ATOM      6  O   UNL A   1      31.045  23.026  27.617  1.00  0.00    -0.273 OA
ATOM      7  H   UNL A   1      29.978  25.078  27.028  1.00  0.00     0.163 HD
BRANCH   5   8
ATOM      8  C   UNL A   1      31.816  22.773  25.346  1.00  0.00     0.221 C 
BRANCH   8   9
ATOM      9  N   UNL A   1      33.273  22.686  25.443  1.00  0.00    -0.312 N 
BRANCH   9  10
ATOM     10  C   UNL A   1      34.033  23.600  24.585  1.00  0.00     0.149 C 
BRANCH  10  11
ATOM     11  C   UNL A   1      33.320  23.858  23.291  1.00  0.00    -0.013 C 
ATOM     12  C   UNL A   1      33.405  23.031  22.239  1.00  0.00     0.006 C 
ENDBRANCH  10  11
ENDBRANCH   9  10
BRANCH   9  13
ATOM     13  C   UNL A   1      33.994  21.872  26.267  1.00  0.00     0.318 C 
ATOM     14  O   UNL A   1      34.194  22.162  27.452  1.00  0.00    -0.249 OA
ATOM     15  N   UNL A   1      34.550  20.708  25.895  1.00  0.00    -0.338 N 
ATOM     16  H   UNL A   1      34.999  20.289  26.663  1.00  0.00     0.165 HD
BRANCH  15  17
ATOM     17  C   UNL A   1      34.698  19.872  24.712  1.00  0.00     0.120 C 
BRANCH  17  18
ATOM     18  C   UNL A   1      33.461  18.977  24.500  1.00  0.00     0.002 C 
ATOM     19  C   UNL A   1      32.518  19.573  23.449  1.00  0.00     0.009 C 
ATOM     20  C   UNL A   1      33.870  17.570  24.061  1.00  0.00     0.009 C 
ENDBRANCH  17  18
ENDBRANCH  15  17
ENDBRANCH   9  13
ENDBRANCH   8   9
ENDBRANCH   5   8
ENDBRANCH   3   4
ENDBRANCH   2   3
ENDBRANCH   1   2
BRANCH   1  21
ATOM     21  C   UNL A   1      31.430  28.940  25.032  1.00  0.00     0.002 C 
BRANCH  21  22
ATOM     22  C   UNL A   1      31.467  30.432  25.375  1.00  0.00     0.021 C 
BRANCH  22  23
ATOM     23  C   UNL A   1      32.199  30.775  26.667  1.00  0.00     0.116 C 
BRANCH  23  24
ATOM     24  N   UNL A   1      32.314  32.213  26.868  1.00  0.00    -0.352 N 
ATOM     25  C   UNL A   1      33.265  32.919  27.564  1.00  0.00     0.251 C 
ATOM     26  H   UNL A   1      31.610  32.756  26.447  1.00  0.00     0.163 HD
ATOM     27  O   UNL A   1      33.103  34.115  27.792  1.00  0.00    -0.269 OA
BRANCH  25  28
ATOM     28  C   UNL A   1      34.475  32.227  28.057  1.00  0.00     0.039 A 
ATOM     29  C   UNL A   1      35.651  32.961  28.243  1.00  0.00     0.014 A 
ATOM     30  C   UNL A   1      34.442  30.863  28.357  1.00  0.00     0.014 A 
ATOM     31  C   UNL A   1      36.768  32.345  28.811  1.00  0.00     0.010 A 
ATOM     32  C   UNL A   1      35.532  30.269  28.985  1.00  0.00     0.010 A 
ATOM     33  C   UNL A   1      36.702  31.004  29.228  1.00  0.00    -0.014 A 
BRANCH  33  34
ATOM     34  C   UNL A   1      37.816  30.367  29.974  1.00  0.00     0.031 A 
ATOM     35  C   UNL A   1      38.106  30.759  31.395  1.00  0.00     0.074 A 
ATOM     36  C   UNL A   1      38.641  29.519  29.328  1.00  0.00     0.049 A 
ATOM     37  N   UNL A   1      39.081  30.369  32.176  1.00  0.00    -0.248 NA
ATOM     38  C   UNL A   1      37.194  31.734  32.014  1.00  0.00     0.031 C 
ATOM     39  C   UNL A   1      38.504  29.111  27.928  1.00  0.00     0.029 A 
ATOM     40  N   UNL A   1      39.773  28.871  29.753  1.00  0.00    -0.354 N 
ATOM     41  C   UNL A   1      38.926  31.078  33.360  1.00  0.00     0.074 A 
ATOM     42  C   UNL A   1      37.777  31.942  33.186  1.00  0.00     0.031 C 
ATOM     43  C   UNL A   1      39.507  28.276  27.613  1.00  0.00     0.029 A 
ATOM     44  C   UNL A   1      40.380  28.120  28.772  1.00  0.00     0.049 A 
ATOM     45  H   UNL A   1      40.120  28.939  30.672  1.00  0.00     0.167 HD
ATOM     46  C   UNL A   1      39.657  31.002  34.498  1.00  0.00     0.034 A 
ATOM     47  C   UNL A   1      41.515  27.395  28.799  1.00  0.00     0.034 A 
ATOM     48  C   UNL A   1      40.779  30.120  34.675  1.00  0.00     0.049 A 
ATOM     49  C   UNL A   1      42.313  27.329  30.072  1.00  0.00     0.074 A 
ATOM     50  C   UNL A   1      41.521  29.890  35.820  1.00  0.00     0.029 A 
ATOM     51  N   UNL A   1      41.338  29.338  33.674  1.00  0.00    -0.354 N 
ATOM     52  N   UNL A   1      42.053  27.873  31.237  1.00  0.00    -0.248 NA
ATOM     53  C   UNL A   1      43.547  26.532  30.042  1.00  0.00     0.031 C 
ATOM     54  C   UNL A   1      42.551  28.997  35.503  1.00  0.00     0.029 A 
ATOM     55  C   UNL A   1      42.434  28.648  34.167  1.00  0.00     0.049 A 
ATOM     56  H   UNL A   1      41.005  29.283  32.749  1.00  0.00     0.167 HD
ATOM     57  C   UNL A   1      43.072  27.459  32.086  1.00  0.00     0.074 A 
ATOM     58  C   UNL A   1      43.945  26.604  31.306  1.00  0.00     0.031 C 
ATOM     59  C   UNL A   1      43.274  27.769  33.392  1.00  0.00     0.034 A 
BRANCH  46  60
ATOM     60  C   UNL A   1      39.241  31.876  35.653  1.00  0.00     0.023 A 
ATOM     61  C   UNL A   1      39.659  33.222  35.695  1.00  0.00     0.012 A 
ATOM     62  C   UNL A   1      38.414  31.379  36.679  1.00  0.00     0.148 A 
ATOM     63  C   UNL A   1      39.301  34.045  36.763  1.00  0.00     0.002 A 
ATOM     64  C   UNL A   1      38.023  32.219  37.716  1.00  0.00     0.091 A 
ATOM     65  F   UNL A   1      38.043  30.091  36.637  1.00  0.00    -0.205 F 
ATOM     66  C   UNL A   1      38.476  33.547  37.767  1.00  0.00     0.022 A 
BRANCH  64  67
ATOM     67  S   UNL A   1      36.898  31.687  39.012  1.00  0.00     0.127 S 
ATOM     68  O   UNL A   1      37.727  31.847  40.206  1.00  0.00    -0.237 OA
ATOM     69  O   UNL A   1      35.808  32.658  38.893  1.00  0.00    -0.237 OA
ATOM     70  O   UNL A   1      36.526  30.320  38.679  1.00  0.00    -0.744 OA
ENDBRANCH  64  67
ENDBRANCH  46  60
BRANCH  47  71
ATOM     71  C   UNL A   1      41.921  26.612  27.597  1.00  0.00     0.023 A 
ATOM     72  C   UNL A   1      42.610  27.267  26.558  1.00  0.00     0.012 A 
ATOM     73  C   UNL A   1      41.678  25.229  27.497  1.00  0.00     0.148 A 
ATOM     74  C   UNL A   1      43.032  26.563  25.431  1.00  0.00     0.002 A 
ATOM     75  C   UNL A   1      42.148  24.522  26.396  1.00  0.00     0.091 A 
ATOM     76  F   UNL A   1      41.014  24.627  28.495  1.00  0.00    -0.205 F 
ATOM     77  C   UNL A   1      42.811  25.190  25.354  1.00  0.00     0.022 A 
BRANCH  75  78
ATOM     78  S   UNL A   1      42.024  22.735  26.266  1.00  0.00     0.127 S 
ATOM     79  O   UNL A   1      42.684  22.481  24.988  1.00  0.00    -0.237 OA
ATOM     80  O   UNL A   1      42.772  22.297  27.445  1.00  0.00    -0.237 OA
ATOM     81  O   UNL A   1      40.600  22.431  26.309  1.00  0.00    -0.744 OA
ENDBRANCH  75  78
ENDBRANCH  47  71
BRANCH  59  82
ATOM     82  C   UNL A   1      44.475  27.169  34.076  1.00  0.00     0.023 A 
ATOM     83  C   UNL A   1      45.691  27.880  34.101  1.00  0.00     0.012 A 
ATOM     84  C   UNL A   1      44.377  25.943  34.763  1.00  0.00     0.148 A 
ATOM     85  C   UNL A   1      46.798  27.368  34.777  1.00  0.00     0.002 A 
ATOM     86  C   UNL A   1      45.469  25.462  35.475  1.00  0.00     0.091 A 
ATOM     87  F   UNL A   1      43.216  25.273  34.712  1.00  0.00    -0.205 F 
ATOM     88  C   UNL A   1      46.684  26.167  35.474  1.00  0.00     0.022 A 
BRANCH  86  89
ATOM     89  S   UNL A   1      45.390  23.975  36.481  1.00  0.00     0.127 S 
ATOM     90  O   UNL A   1      46.800  23.598  36.566  1.00  0.00    -0.237 OA
ATOM     91  O   UNL A   1      44.815  24.477  37.729  1.00  0.00    -0.237 OA
ATOM     92  O   UNL A   1      44.541  23.042  35.754  1.00  0.00    -0.744 OA
ENDBRANCH  86  89
ENDBRANCH  59  82
ENDBRANCH  33  34
ENDBRANCH  25  28
ENDBRANCH  23  24
ENDBRANCH  22  23
ENDBRANCH  21  22
ENDBRANCH   1  21
TORSDOF 22
ENDMDL
MODEL 2
REMARK VINA RESULT:      -9.4      1.297      7.813
REMARK SMILES C=CCN(CC(=O)NCCCCCCNC(=O)c1ccc(-c2c3nc(c(-c4cccc(S(=O)(=O)[O-])c4F)c4ccc([nH]4)c(-c4cccc(S(=O)(=O)[O-])c4F)c4nc(c(-c5cccc(S(=O)(=O)[O-])c5F)c5ccc2[nH]5)C=C4)C=C3)cc1)C(=O)NCC(C)C
REMARK SMILES IDX 11 1 10 2 9 3 8 4 6 5 7 6 5 8 4 9 3 10 2 11 1 12 81 13 82 14
REMARK SMILES IDX 83 15 84 17 85 18 86 19 87 20 12 21 13 22 14 23 15 24 16 25
REMARK SMILES IDX 17 27 18 28 19 29 80 30 20 31 79 32 21 33 22 34 23 35 73 36
REMARK SMILES IDX 24 37 78 38 72 39 74 40 25 41 77 42 71 43 70 44 26 46 58 47
REMARK SMILES IDX 38 48 57 49 39 50 42 51 56 52 75 53 40 54 41 55 55 57 76 58
REMARK SMILES IDX 43 59 27 60 28 61 36 62 29 63 31 64 37 65 30 66 32 67 33 68
REMARK SMILES IDX 34 69 35 70 59 71 60 72 68 73 61 74 63 75 69 76 62 77 64 78
REMARK SMILES IDX 65 79 66 80 67 81 44 82 45 83 53 84 46 85 48 86 54 87 47 88
REMARK SMILES IDX 49 89 50 90 51 91 52 92
REMARK H PARENT 8 7 83 16 15 26 74 45 42 56
REMARK Flexibility Score: inf
ROOT
ATOM      1  C   UNL A   1      31.205  28.596  24.909  1.00  0.00     0.002 C 
ENDROOT
BRANCH   1   2
ATOM      2  C   UNL A   1      31.416  27.227  25.570  1.00  0.00     0.021 C 
BRANCH   2   3
ATOM      3  C   UNL A   1      30.699  26.070  24.880  1.00  0.00     0.116 C 
BRANCH   3   4
ATOM      4  N   UNL A   1      30.828  24.817  25.587  1.00  0.00    -0.355 N 
ATOM      5  C   UNL A   1      31.105  23.579  25.093  1.00  0.00     0.239 C 
ATOM      6  O   UNL A   1      31.600  22.763  25.880  1.00  0.00    -0.273 OA
ATOM      7  H   UNL A   1      30.699  24.865  26.562  1.00  0.00     0.163 HD
BRANCH   5   8
ATOM      8  C   UNL A   1      30.974  23.232  23.599  1.00  0.00     0.221 C 
BRANCH   8   9
ATOM      9  N   UNL A   1      32.167  22.688  22.952  1.00  0.00    -0.312 N 
BRANCH   9  10
ATOM     10  C   UNL A   1      32.124  21.263  22.610  1.00  0.00     0.149 C 
BRANCH  10  11
ATOM     11  C   UNL A   1      32.200  20.402  23.837  1.00  0.00    -0.013 C 
ATOM     12  C   UNL A   1      32.779  19.193  23.839  1.00  0.00     0.006 C 
ENDBRANCH  10  11
ENDBRANCH   9  10
BRANCH   9  13
ATOM     13  C   UNL A   1      33.297  23.370  22.605  1.00  0.00     0.318 C 
ATOM     14  O   UNL A   1      33.319  24.136  21.635  1.00  0.00    -0.249 OA
ATOM     15  N   UNL A   1      34.470  23.284  23.252  1.00  0.00    -0.338 N 
ATOM     16  H   UNL A   1      35.129  23.883  22.834  1.00  0.00     0.165 HD
BRANCH  15  17
ATOM     17  C   UNL A   1      35.073  22.585  24.378  1.00  0.00     0.120 C 
BRANCH  17  18
ATOM     18  C   UNL A   1      35.251  23.520  25.588  1.00  0.00     0.002 C 
ATOM     19  C   UNL A   1      34.702  22.882  26.870  1.00  0.00     0.009 C 
ATOM     20  C   UNL A   1      36.725  23.872  25.799  1.00  0.00     0.009 C 
ENDBRANCH  17  18
ENDBRANCH  15  17
ENDBRANCH   9  13
ENDBRANCH   8   9
ENDBRANCH   5   8
ENDBRANCH   3   4
ENDBRANCH   2   3
ENDBRANCH   1   2
BRANCH   1  21
ATOM     21  C   UNL A   1      32.460  29.466  24.768  1.00  0.00     0.002 C 
BRANCH  21  22
ATOM     22  C   UNL A   1      33.347  29.555  26.012  1.00  0.00     0.021 C 
BRANCH  22  23
ATOM     23  C   UNL A   1      32.662  30.119  27.251  1.00  0.00     0.116 C 
BRANCH  23  24
ATOM     24  N   UNL A   1      32.392  31.545  27.129  1.00  0.00    -0.352 N 
ATOM     25  C   UNL A   1      33.059  32.607  27.691  1.00  0.00     0.251 C 
ATOM     26  H   UNL A   1      31.622  31.783  26.565  1.00  0.00     0.163 HD
ATOM     27  O   UNL A   1      32.580  33.737  27.636  1.00  0.00    -0.269 OA
BRANCH  25  28
ATOM     28  C   UNL A   1      34.346  32.379  28.382  1.00  0.00     0.039 A 
ATOM     29  C   UNL A   1      34.386  32.419  29.779  1.00  0.00     0.014 A 
ATOM     30  C   UNL A   1      35.506  32.105  27.652  1.00  0.00     0.014 A 
ATOM     31  C   UNL A   1      35.569  32.097  30.446  1.00  0.00     0.010 A 
ATOM     32  C   UNL A   1      36.664  31.719  28.319  1.00  0.00     0.010 A 
ATOM     33  C   UNL A   1      36.706  31.700  29.721  1.00  0.00    -0.014 A 
BRANCH  33  34
ATOM     34  C   UNL A   1      37.928  31.204  30.403  1.00  0.00     0.031 A 
ATOM     35  C   UNL A   1      38.805  30.177  29.745  1.00  0.00     0.074 A 
ATOM     36  C   UNL A   1      38.181  31.594  31.669  1.00  0.00     0.049 A 
ATOM     37  N   UNL A   1      39.864  29.572  30.218  1.00  0.00    -0.248 NA
ATOM     38  C   UNL A   1      38.432  29.759  28.385  1.00  0.00     0.031 C 
ATOM     39  C   UNL A   1      37.366  32.536  32.440  1.00  0.00     0.029 A 
ATOM     40  N   UNL A   1      39.175  31.227  32.538  1.00  0.00    -0.354 N 
ATOM     41  C   UNL A   1      40.260  28.674  29.235  1.00  0.00     0.074 A 
ATOM     42  C   UNL A   1      39.311  28.795  28.148  1.00  0.00     0.031 C 
ATOM     43  C   UNL A   1      37.899  32.679  33.663  1.00  0.00     0.029 A 
ATOM     44  C   UNL A   1      39.067  31.811  33.779  1.00  0.00     0.049 A 
ATOM     45  H   UNL A   1      39.898  30.602  32.298  1.00  0.00     0.167 HD
ATOM     46  C   UNL A   1      41.328  27.841  29.226  1.00  0.00     0.034 A 
ATOM     47  C   UNL A   1      39.816  31.660  34.889  1.00  0.00     0.034 A 
ATOM     48  C   UNL A   1      42.284  27.746  30.297  1.00  0.00     0.049 A 
ATOM     49  C   UNL A   1      40.994  30.725  34.856  1.00  0.00     0.074 A 
ATOM     50  C   UNL A   1      43.456  27.012  30.342  1.00  0.00     0.029 A 
ATOM     51  N   UNL A   1      42.168  28.388  31.521  1.00  0.00    -0.354 N 
ATOM     52  N   UNL A   1      41.453  30.013  33.855  1.00  0.00    -0.248 NA
ATOM     53  C   UNL A   1      41.770  30.592  36.096  1.00  0.00     0.031 C 
ATOM     54  C   UNL A   1      44.030  27.182  31.607  1.00  0.00     0.029 A 
ATOM     55  C   UNL A   1      43.231  28.044  32.341  1.00  0.00     0.049 A 
ATOM     56  H   UNL A   1      41.437  28.998  31.772  1.00  0.00     0.167 HD
ATOM     57  C   UNL A   1      42.589  29.371  34.335  1.00  0.00     0.074 A 
ATOM     58  C   UNL A   1      42.758  29.793  35.711  1.00  0.00     0.031 C 
ATOM     59  C   UNL A   1      43.411  28.500  33.696  1.00  0.00     0.034 A 
BRANCH  46  60
ATOM     60  C   UNL A   1      41.535  26.988  28.000  1.00  0.00     0.023 A 
ATOM     61  C   UNL A   1      42.005  27.581  26.810  1.00  0.00     0.012 A 
ATOM     62  C   UNL A   1      41.297  25.601  28.031  1.00  0.00     0.148 A 
ATOM     63  C   UNL A   1      42.187  26.816  25.658  1.00  0.00     0.002 A 
ATOM     64  C   UNL A   1      41.525  24.837  26.892  1.00  0.00     0.091 A 
ATOM     65  F   UNL A   1      40.829  25.056  29.163  1.00  0.00    -0.205 F 
ATOM     66  C   UNL A   1      41.957  25.444  25.702  1.00  0.00     0.022 A 
BRANCH  64  67
ATOM     67  S   UNL A   1      41.332  23.051  26.877  1.00  0.00     0.127 S 
ATOM     68  O   UNL A   1      42.116  22.660  28.047  1.00  0.00    -0.237 OA
ATOM     69  O   UNL A   1      39.884  22.894  27.033  1.00  0.00    -0.237 OA
ATOM     70  O   UNL A   1      41.851  22.607  25.592  1.00  0.00    -0.744 OA
ENDBRANCH  64  67
ENDBRANCH  46  60
BRANCH  47  71
ATOM     71  C   UNL A   1      39.515  32.473  36.102  1.00  0.00     0.023 A 
ATOM     72  C   UNL A   1      40.093  33.750  36.227  1.00  0.00     0.012 A 
ATOM     73  C   UNL A   1      38.630  32.017  37.098  1.00  0.00     0.148 A 
ATOM     74  C   UNL A   1      39.814  34.552  37.333  1.00  0.00     0.002 A 
ATOM     75  C   UNL A   1      38.313  32.842  38.171  1.00  0.00     0.091 A 
ATOM     76  F   UNL A   1      38.096  30.794  36.962  1.00  0.00    -0.205 F 
ATOM     77  C   UNL A   1      38.916  34.103  38.299  1.00  0.00     0.022 A 
BRANCH  75  78
ATOM     78  S   UNL A   1      37.074  32.406  39.396  1.00  0.00     0.127 S 
ATOM     79  O   UNL A   1      35.843  32.464  38.610  1.00  0.00    -0.237 OA
ATOM     80  O   UNL A   1      37.496  31.060  39.783  1.00  0.00    -0.237 OA
ATOM     81  O   UNL A   1      37.192  33.401  40.453  1.00  0.00    -0.744 OA
ENDBRANCH  75  78
ENDBRANCH  47  71
BRANCH  59  82
ATOM     82  C   UNL A   1      44.584  27.953  34.467  1.00  0.00     0.023 A 
ATOM     83  C   UNL A   1      45.799  28.665  34.489  1.00  0.00     0.012 A 
ATOM     84  C   UNL A   1      44.458  26.778  35.235  1.00  0.00     0.148 A 
ATOM     85  C   UNL A   1      46.878  28.205  35.242  1.00  0.00     0.002 A 
ATOM     86  C   UNL A   1      45.521  26.351  36.021  1.00  0.00     0.091 A 
ATOM     87  F   UNL A   1      43.299  26.104  35.186  1.00  0.00    -0.205 F 
ATOM     88  C   UNL A   1      46.736  27.056  36.018  1.00  0.00     0.022 A 
BRANCH  86  89
ATOM     89  S   UNL A   1      45.402  24.938  37.125  1.00  0.00     0.127 S 
ATOM     90  O   UNL A   1      46.693  24.985  37.809  1.00  0.00    -0.237 OA
ATOM     91  O   UNL A   1      44.255  25.295  37.961  1.00  0.00    -0.237 OA
ATOM     92  O   UNL A   1      45.192  23.777  36.273  1.00  0.00    -0.744 OA
ENDBRANCH  86  89
ENDBRANCH  59  82
ENDBRANCH  33  34
ENDBRANCH  25  28
ENDBRANCH  23  24
ENDBRANCH  22  23
ENDBRANCH  21  22
ENDBRANCH   1  21
TORSDOF 22
ENDMDL
MODEL 3
REMARK VINA RESULT:      -9.3      5.337     10.259
REMARK SMILES C=CCN(CC(=O)NCCCCCCNC(=O)c1ccc(-c2c3nc(c(-c4cccc(S(=O)(=O)[O-])c4F)c4ccc([nH]4)c(-c4cccc(S(=O)(=O)[O-])c4F)c4nc(c(-c5cccc(S(=O)(=O)[O-])c5F)c5ccc2[nH]5)C=C4)C=C3)cc1)C(=O)NCC(C)C
REMARK SMILES IDX 11 1 10 2 9 3 8 4 6 5 7 6 5 8 4 9 3 10 2 11 1 12 81 13 82 14
REMARK SMILES IDX 83 15 84 17 85 18 86 19 87 20 12 21 13 22 14 23 15 24 16 25
REMARK SMILES IDX 17 27 18 28 19 29 80 30 20 31 79 32 21 33 22 34 23 35 73 36
REMARK SMILES IDX 24 37 78 38 72 39 74 40 25 41 77 42 71 43 70 44 26 46 58 47
REMARK SMILES IDX 38 48 57 49 39 50 42 51 56 52 75 53 40 54 41 55 55 57 76 58
REMARK SMILES IDX 43 59 27 60 28 61 36 62 29 63 31 64 37 65 30 66 32 67 33 68
REMARK SMILES IDX 34 69 35 70 59 71 60 72 68 73 61 74 63 75 69 76 62 77 64 78
REMARK SMILES IDX 65 79 66 80 67 81 44 82 45 83 53 84 46 85 48 86 54 87 47 88
REMARK SMILES IDX 49 89 50 90 51 91 52 92
REMARK H PARENT 8 7 83 16 15 26 74 45 42 56
REMARK Flexibility Score: inf
ROOT
ATOM      1  C   UNL A   1      34.335  21.317  24.996  1.00  0.00     0.002 C 
ENDROOT
BRANCH   1   2
ATOM      2  C   UNL A   1      33.188  21.965  25.782  1.00  0.00     0.021 C 
BRANCH   2   3
ATOM      3  C   UNL A   1      32.493  23.117  25.061  1.00  0.00     0.116 C 
BRANCH   3   4
ATOM      4  N   UNL A   1      31.795  24.011  25.955  1.00  0.00    -0.355 N 
ATOM      5  C   UNL A   1      31.078  25.131  25.661  1.00  0.00     0.239 C 
ATOM      6  O   UNL A   1      30.221  25.476  26.482  1.00  0.00    -0.273 OA
ATOM      7  H   UNL A   1      31.842  23.777  26.910  1.00  0.00     0.163 HD
BRANCH   5   8
ATOM      8  C   UNL A   1      31.191  25.856  24.308  1.00  0.00     0.221 C 
BRANCH   8   9
ATOM      9  N   UNL A   1      30.418  27.090  24.166  1.00  0.00    -0.312 N 
BRANCH   9  10
ATOM     10  C   UNL A   1      31.110  28.331  24.530  1.00  0.00     0.149 C 
BRANCH  10  11
ATOM     11  C   UNL A   1      32.525  28.336  24.035  1.00  0.00    -0.013 C 
ATOM     12  C   UNL A   1      32.871  28.816  22.832  1.00  0.00     0.006 C 
ENDBRANCH  10  11
ENDBRANCH   9  10
BRANCH   9  13
ATOM     13  C   UNL A   1      29.141  27.210  23.703  1.00  0.00     0.318 C 
ATOM     14  O   UNL A   1      28.312  26.303  23.842  1.00  0.00    -0.249 OA
ATOM     15  N   UNL A   1      28.659  28.287  23.063  1.00  0.00    -0.338 N 
ATOM     16  H   UNL A   1      27.709  28.152  22.846  1.00  0.00     0.165 HD
BRANCH  15  17
ATOM     17  C   UNL A   1      29.099  29.592  22.589  1.00  0.00     0.120 C 
BRANCH  17  18
ATOM     18  C   UNL A   1      27.901  30.512  22.287  1.00  0.00     0.002 C 
ATOM     19  C   UNL A   1      27.692  31.538  23.406  1.00  0.00     0.009 C 
ATOM     20  C   UNL A   1      28.098  31.253  20.963  1.00  0.00     0.009 C 
ENDBRANCH  17  18
ENDBRANCH  15  17
ENDBRANCH   9  13
ENDBRANCH   8   9
ENDBRANCH   5   8
ENDBRANCH   3   4
ENDBRANCH   2   3
ENDBRANCH   1   2
BRANCH   1  21
ATOM     21  C   UNL A   1      35.745  21.801  25.356  1.00  0.00     0.002 C 
BRANCH  21  22
ATOM     22  C   UNL A   1      35.836  23.230  25.897  1.00  0.00     0.021 C 
BRANCH  22  23
ATOM     23  C   UNL A   1      37.254  23.752  26.097  1.00  0.00     0.116 C 
BRANCH  23  24
ATOM     24  N   UNL A   1      38.224  22.672  26.225  1.00  0.00    -0.352 N 
ATOM     25  C   UNL A   1      39.571  22.740  26.489  1.00  0.00     0.251 C 
ATOM     26  H   UNL A   1      37.864  21.764  26.103  1.00  0.00     0.163 HD
ATOM     27  O   UNL A   1      40.275  21.741  26.373  1.00  0.00    -0.269 OA
BRANCH  25  28
ATOM     28  C   UNL A   1      40.172  24.029  26.893  1.00  0.00     0.039 A 
ATOM     29  C   UNL A   1      40.376  25.018  25.926  1.00  0.00     0.014 A 
ATOM     30  C   UNL A   1      40.512  24.268  28.227  1.00  0.00     0.014 A 
ATOM     31  C   UNL A   1      40.840  26.277  26.312  1.00  0.00     0.010 A 
ATOM     32  C   UNL A   1      40.909  25.543  28.619  1.00  0.00     0.010 A 
ATOM     33  C   UNL A   1      41.067  26.563  27.669  1.00  0.00    -0.014 A 
BRANCH  33  34
ATOM     34  C   UNL A   1      41.411  27.933  28.128  1.00  0.00     0.031 A 
ATOM     35  C   UNL A   1      42.842  28.388  28.167  1.00  0.00     0.074 A 
ATOM     36  C   UNL A   1      40.438  28.726  28.620  1.00  0.00     0.049 A 
ATOM     37  N   UNL A   1      43.337  29.515  28.610  1.00  0.00    -0.248 NA
ATOM     38  C   UNL A   1      43.853  27.444  27.665  1.00  0.00     0.031 C 
ATOM     39  C   UNL A   1      39.018  28.372  28.697  1.00  0.00     0.029 A 
ATOM     40  N   UNL A   1      40.498  29.978  29.176  1.00  0.00    -0.354 N 
ATOM     41  C   UNL A   1      44.715  29.403  28.479  1.00  0.00     0.074 A 
ATOM     42  C   UNL A   1      44.980  28.086  27.939  1.00  0.00     0.031 C 
ATOM     43  C   UNL A   1      38.342  29.387  29.257  1.00  0.00     0.029 A 
ATOM     44  C   UNL A   1      39.280  30.445  29.617  1.00  0.00     0.049 A 
ATOM     45  H   UNL A   1      41.333  30.495  29.254  1.00  0.00     0.167 HD
ATOM     46  C   UNL A   1      45.673  30.319  28.759  1.00  0.00     0.034 A 
ATOM     47  C   UNL A   1      38.956  31.590  30.247  1.00  0.00     0.034 A 
ATOM     48  C   UNL A   1      45.401  31.637  29.268  1.00  0.00     0.049 A 
ATOM     49  C   UNL A   1      40.038  32.590  30.553  1.00  0.00     0.074 A 
ATOM     50  C   UNL A   1      46.289  32.675  29.486  1.00  0.00     0.029 A 
ATOM     51  N   UNL A   1      44.151  32.092  29.660  1.00  0.00    -0.354 N 
ATOM     52  N   UNL A   1      41.316  32.536  30.263  1.00  0.00    -0.248 NA
ATOM     53  C   UNL A   1      39.629  33.817  31.250  1.00  0.00     0.031 C 
ATOM     54  C   UNL A   1      45.581  33.746  30.044  1.00  0.00     0.029 A 
ATOM     55  C   UNL A   1      44.247  33.386  30.147  1.00  0.00     0.049 A 
ATOM     56  H   UNL A   1      43.317  31.572  29.601  1.00  0.00     0.167 HD
ATOM     57  C   UNL A   1      41.858  33.734  30.714  1.00  0.00     0.074 A 
ATOM     58  C   UNL A   1      40.767  34.501  31.280  1.00  0.00     0.031 C 
ATOM     59  C   UNL A   1      43.148  34.155  30.673  1.00  0.00     0.034 A 
BRANCH  46  60
ATOM     60  C   UNL A   1      47.105  29.934  28.489  1.00  0.00     0.023 A 
ATOM     61  C   UNL A   1      47.685  30.242  27.240  1.00  0.00     0.012 A 
ATOM     62  C   UNL A   1      47.885  29.298  29.473  1.00  0.00     0.148 A 
ATOM     63  C   UNL A   1      49.003  29.881  26.960  1.00  0.00     0.002 A 
ATOM     64  C   UNL A   1      49.211  28.982  29.202  1.00  0.00     0.091 A 
ATOM     65  F   UNL A   1      47.312  28.991  30.646  1.00  0.00    -0.205 F 
ATOM     66  C   UNL A   1      49.768  29.260  27.943  1.00  0.00     0.022 A 
BRANCH  64  67
ATOM     67  S   UNL A   1      50.297  28.253  30.434  1.00  0.00     0.127 S 
ATOM     68  O   UNL A   1      50.001  26.829  30.283  1.00  0.00    -0.237 OA
ATOM     69  O   UNL A   1      51.622  28.653  29.956  1.00  0.00    -0.237 OA
ATOM     70  O   UNL A   1      49.911  28.847  31.705  1.00  0.00    -0.744 OA
ENDBRANCH  64  67
ENDBRANCH  46  60
BRANCH  47  71
ATOM     71  C   UNL A   1      37.529  31.883  30.564  1.00  0.00     0.023 A 
ATOM     72  C   UNL A   1      37.019  31.508  31.821  1.00  0.00     0.012 A 
ATOM     73  C   UNL A   1      36.695  32.565  29.658  1.00  0.00     0.148 A 
ATOM     74  C   UNL A   1      35.697  31.789  32.165  1.00  0.00     0.002 A 
ATOM     75  C   UNL A   1      35.394  32.890  30.026  1.00  0.00     0.091 A 
ATOM     76  F   UNL A   1      37.198  32.906  28.463  1.00  0.00    -0.205 F 
ATOM     77  C   UNL A   1      34.889  32.489  31.273  1.00  0.00     0.022 A 
BRANCH  75  78
ATOM     78  S   UNL A   1      34.319  33.898  29.000  1.00  0.00     0.127 S 
ATOM     79  O   UNL A   1      33.371  34.421  29.981  1.00  0.00    -0.237 OA
ATOM     80  O   UNL A   1      35.256  34.884  28.462  1.00  0.00    -0.237 OA
ATOM     81  O   UNL A   1      33.758  32.995  28.004  1.00  0.00    -0.744 OA
ENDBRANCH  75  78
ENDBRANCH  47  71
BRANCH  59  82
ATOM     82  C   UNL A   1      43.457  35.517  31.240  1.00  0.00     0.023 A 
ATOM     83  C   UNL A   1      43.741  35.654  32.612  1.00  0.00     0.012 A 
ATOM     84  C   UNL A   1      43.546  36.645  30.399  1.00  0.00     0.148 A 
ATOM     85  C   UNL A   1      44.086  36.896  33.145  1.00  0.00     0.002 A 
ATOM     86  C   UNL A   1      43.937  37.869  30.927  1.00  0.00     0.091 A 
ATOM     87  F   UNL A   1      43.254  36.497  29.099  1.00  0.00    -0.205 F 
ATOM     88  C   UNL A   1      44.196  38.000  32.302  1.00  0.00     0.022 A 
BRANCH  86  89
ATOM     89  S   UNL A   1      44.199  39.324  29.907  1.00  0.00     0.127 S 
ATOM     90  O   UNL A   1      42.929  40.030  30.063  1.00  0.00    -0.237 OA
ATOM     91  O   UNL A   1      45.338  39.963  30.567  1.00  0.00    -0.237 OA
ATOM     92  O   UNL A   1      44.476  38.832  28.565  1.00  0.00    -0.744 OA
ENDBRANCH  86  89
ENDBRANCH  59  82
ENDBRANCH  33  34
ENDBRANCH  25  28
ENDBRANCH  23  24
ENDBRANCH  22  23
ENDBRANCH  21  22
ENDBRANCH   1  21
TORSDOF 22
ENDMDL
