MODEL 1
REMARK VINA RESULT:     -11.1      0.000      0.000
REMARK SMILES C[C@H]1CN(C(=O)C[N@H+]2CCO[C@H](CC(=O)NCCCCCCNC(=O)c3ccc(-c4c5nc(c(-c6cccc(S(=O)(=O)[O-])c6F)c6ccc([nH]6)c(-c6cccc(S(=O)(=O)[O-])c6F)c6nc(c(-c7cccc(S(=O)(=O)[O-])c7F)c7ccc4[nH]7)C=C6)C=C5)cc3)C2)CCO1
REMARK SMILES IDX 19 1 18 2 17 3 16 4 14 5 15 6 13 8 12 9 8 10 9 11 89 12
REMARK SMILES IDX 10 14 11 15 7 16 5 17 6 18 4 19 1 20 2 21 3 22 92 23 91 24
REMARK SMILES IDX 90 25 20 26 21 27 22 28 23 29 24 30 25 32 26 33 27 34 88 35
REMARK SMILES IDX 28 36 87 37 29 38 30 39 31 40 81 41 32 42 86 43 80 44 82 45
REMARK SMILES IDX 33 46 85 47 79 48 78 49 34 51 66 52 46 53 65 54 47 55 50 56
REMARK SMILES IDX 64 57 83 58 48 59 49 60 63 62 84 63 51 64 35 65 36 66 44 67
REMARK SMILES IDX 37 68 39 69 45 70 38 71 40 72 41 73 42 74 43 75 67 76 68 77
REMARK SMILES IDX 76 78 69 79 71 80 77 81 70 82 72 83 73 84 74 85 75 86 52 87
REMARK SMILES IDX 53 88 61 89 54 90 56 91 62 92 55 93 57 94 58 95 59 96 60 97
REMARK H PARENT 16 7 8 13 23 31 82 50 50 61
REMARK Flexibility Score: inf
ROOT
ATOM      1  C   UNL A   1      31.814  28.981  27.270  1.00  0.00     0.002 C 
ENDROOT
BRANCH   1   2
ATOM      2  C   UNL A   1      32.466  27.621  26.988  1.00  0.00     0.021 C 
BRANCH   2   3
ATOM      3  C   UNL A   1      31.559  26.659  26.216  1.00  0.00     0.116 C 
BRANCH   3   4
ATOM      4  N   UNL A   1      31.410  25.415  26.954  1.00  0.00    -0.356 N 
ATOM      5  C   UNL A   1      30.953  24.206  26.535  1.00  0.00     0.222 C 
ATOM      6  O   UNL A   1      30.768  23.314  27.363  1.00  0.00    -0.275 OA
ATOM      7  H   UNL A   1      31.681  25.456  27.899  1.00  0.00     0.163 HD
BRANCH   5   8
ATOM      8  C   UNL A   1      30.734  23.967  25.072  1.00  0.00     0.138 C 
BRANCH   8   9
ATOM      9  C   UNL A   1      31.921  23.363  24.337  1.00  0.00     0.182 C 
ATOM     10  N   UNL A   1      33.915  23.871  22.808  1.00  0.00    -0.323 N 
ATOM     11  C   UNL A   1      33.152  23.072  21.835  1.00  0.00     0.291 C 
ATOM     12  C   UNL A   1      32.910  24.419  23.767  1.00  0.00     0.295 C 
ATOM     13  H   UNL A   1      34.417  24.618  22.329  1.00  0.00     0.348 HD
ATOM     14  C   UNL A   1      32.302  21.967  22.479  1.00  0.00     0.222 C 
ATOM     15  O   UNL A   1      31.313  22.567  23.301  1.00  0.00    -0.366 OA
BRANCH  10  16
ATOM     16  C   UNL A   1      35.009  23.121  23.486  1.00  0.00     0.363 C 
BRANCH  16  17
ATOM     17  C   UNL A   1      35.565  23.817  24.764  1.00  0.00     0.277 C 
ATOM     18  O   UNL A   1      35.310  25.009  24.974  1.00  0.00    -0.268 OA
BRANCH  17  19
ATOM     19  N   UNL A   1      36.269  23.071  25.710  1.00  0.00    -0.333 N 
ATOM     20  C   UNL A   1      37.721  19.697  24.836  1.00  0.00     0.040 C 
ATOM     21  C   UNL A   1      37.637  21.191  25.100  1.00  0.00     0.134 C 
ATOM     22  C   UNL A   1      36.315  21.615  25.771  1.00  0.00     0.151 C 
ATOM     23  O   UNL A   1      38.728  21.626  25.931  1.00  0.00    -0.375 OA
ATOM     24  C   UNL A   1      38.742  23.070  26.010  1.00  0.00     0.182 C 
ATOM     25  C   UNL A   1      37.387  23.666  26.455  1.00  0.00     0.148 C 
ENDBRANCH  17  19
ENDBRANCH  16  17
ENDBRANCH  10  16
ENDBRANCH   8   9
ENDBRANCH   5   8
ENDBRANCH   3   4
ENDBRANCH   2   3
ENDBRANCH   1   2
BRANCH   1  26
ATOM     26  C   UNL A   1      32.321  30.123  26.383  1.00  0.00     0.002 C 
BRANCH  26  27
ATOM     27  C   UNL A   1      31.910  31.518  26.855  1.00  0.00     0.021 C 
BRANCH  27  28
ATOM     28  C   UNL A   1      33.053  32.335  27.451  1.00  0.00     0.116 C 
BRANCH  28  29
ATOM     29  N   UNL A   1      32.677  33.728  27.650  1.00  0.00    -0.352 N 
ATOM     30  C   UNL A   1      33.134  34.621  28.588  1.00  0.00     0.251 C 
ATOM     31  H   UNL A   1      32.002  34.079  27.026  1.00  0.00     0.163 HD
ATOM     32  O   UNL A   1      32.561  35.694  28.756  1.00  0.00    -0.269 OA
BRANCH  30  33
ATOM     33  C   UNL A   1      34.311  34.268  29.406  1.00  0.00     0.039 A 
ATOM     34  C   UNL A   1      34.130  33.523  30.573  1.00  0.00     0.014 A 
ATOM     35  C   UNL A   1      35.593  34.642  28.995  1.00  0.00     0.014 A 
ATOM     36  C   UNL A   1      35.246  33.080  31.286  1.00  0.00     0.010 A 
ATOM     37  C   UNL A   1      36.704  34.142  29.666  1.00  0.00     0.010 A 
ATOM     38  C   UNL A   1      36.542  33.345  30.810  1.00  0.00    -0.014 A 
BRANCH  38  39
ATOM     39  C   UNL A   1      37.741  32.752  31.453  1.00  0.00     0.031 A 
ATOM     40  C   UNL A   1      38.442  31.582  30.821  1.00  0.00     0.074 A 
ATOM     41  C   UNL A   1      38.123  33.192  32.669  1.00  0.00     0.049 A 
ATOM     42  N   UNL A   1      39.429  30.864  31.290  1.00  0.00    -0.248 NA
ATOM     43  C   UNL A   1      37.954  31.146  29.502  1.00  0.00     0.031 C 
ATOM     44  C   UNL A   1      37.478  34.274  33.417  1.00  0.00     0.029 A 
ATOM     45  N   UNL A   1      39.120  32.758  33.508  1.00  0.00    -0.354 N 
ATOM     46  C   UNL A   1      39.657  29.870  30.346  1.00  0.00     0.074 A 
ATOM     47  C   UNL A   1      38.691  30.065  29.287  1.00  0.00     0.031 C 
ATOM     48  C   UNL A   1      38.087  34.412  34.605  1.00  0.00     0.029 A 
ATOM     49  C   UNL A   1      39.134  33.402  34.724  1.00  0.00     0.049 A 
ATOM     50  H   UNL A   1      39.762  32.053  33.263  1.00  0.00     0.167 HD
ATOM     51  C   UNL A   1      40.598  28.897  30.352  1.00  0.00     0.034 A 
ATOM     52  C   UNL A   1      39.884  33.189  35.824  1.00  0.00     0.034 A 
ATOM     53  C   UNL A   1      41.575  28.726  31.394  1.00  0.00     0.049 A 
ATOM     54  C   UNL A   1      40.927  32.105  35.799  1.00  0.00     0.074 A 
ATOM     55  C   UNL A   1      42.631  27.832  31.441  1.00  0.00     0.029 A 
ATOM     56  N   UNL A   1      41.609  29.446  32.578  1.00  0.00    -0.354 N 
ATOM     57  N   UNL A   1      41.239  31.282  34.827  1.00  0.00    -0.248 NA
ATOM     58  C   UNL A   1      41.740  31.935  37.012  1.00  0.00     0.031 C 
ATOM     59  C   UNL A   1      43.276  27.984  32.673  1.00  0.00     0.029 A 
ATOM     60  C   UNL A   1      42.647  28.998  33.375  1.00  0.00     0.049 A 
ATOM     61  H   UNL A   1      40.984  30.170  32.816  1.00  0.00     0.167 HD
ATOM     62  C   UNL A   1      42.299  30.518  35.299  1.00  0.00     0.074 A 
ATOM     63  C   UNL A   1      42.594  30.993  36.635  1.00  0.00     0.031 C 
ATOM     64  C   UNL A   1      42.958  29.505  34.688  1.00  0.00     0.034 A 
BRANCH  51  65
ATOM     65  C   UNL A   1      40.643  27.955  29.179  1.00  0.00     0.023 A 
ATOM     66  C   UNL A   1      39.724  26.889  29.101  1.00  0.00     0.012 A 
ATOM     67  C   UNL A   1      41.547  28.166  28.119  1.00  0.00     0.148 A 
ATOM     68  C   UNL A   1      39.724  26.030  28.003  1.00  0.00     0.002 A 
ATOM     69  C   UNL A   1      41.509  27.333  27.006  1.00  0.00     0.091 A 
ATOM     70  F   UNL A   1      42.427  29.172  28.219  1.00  0.00    -0.205 F 
ATOM     71  C   UNL A   1      40.606  26.259  26.953  1.00  0.00     0.022 A 
BRANCH  69  72
ATOM     72  S   UNL A   1      42.551  27.593  25.566  1.00  0.00     0.127 S 
ATOM     73  O   UNL A   1      42.012  28.845  25.035  1.00  0.00    -0.237 OA
ATOM     74  O   UNL A   1      43.880  27.708  26.166  1.00  0.00    -0.237 OA
ATOM     75  O   UNL A   1      42.364  26.425  24.718  1.00  0.00    -0.744 OA
ENDBRANCH  69  72
ENDBRANCH  51  65
BRANCH  52  76
ATOM     76  C   UNL A   1      39.691  34.038  37.033  1.00  0.00     0.023 A 
ATOM     77  C   UNL A   1      40.126  35.376  37.019  1.00  0.00     0.012 A 
ATOM     78  C   UNL A   1      39.059  33.532  38.186  1.00  0.00     0.148 A 
ATOM     79  C   UNL A   1      39.965  36.187  38.143  1.00  0.00     0.002 A 
ATOM     80  C   UNL A   1      38.849  34.362  39.281  1.00  0.00     0.091 A 
ATOM     81  F   UNL A   1      38.663  32.251  38.183  1.00  0.00    -0.205 F 
ATOM     82  C   UNL A   1      39.318  35.685  39.268  1.00  0.00     0.022 A 
BRANCH  80  83
ATOM     83  S   UNL A   1      37.905  33.838  40.717  1.00  0.00     0.127 S 
ATOM     84  O   UNL A   1      38.910  33.107  41.484  1.00  0.00    -0.237 OA
ATOM     85  O   UNL A   1      37.500  35.120  41.294  1.00  0.00    -0.237 OA
ATOM     86  O   UNL A   1      36.804  33.041  40.196  1.00  0.00    -0.744 OA
ENDBRANCH  80  83
ENDBRANCH  52  76
BRANCH  64  87
ATOM     87  C   UNL A   1      44.084  28.844  35.441  1.00  0.00     0.023 A 
ATOM     88  C   UNL A   1      45.386  29.378  35.367  1.00  0.00     0.012 A 
ATOM     89  C   UNL A   1      43.834  27.745  36.288  1.00  0.00     0.148 A 
ATOM     90  C   UNL A   1      46.426  28.813  36.104  1.00  0.00     0.002 A 
ATOM     91  C   UNL A   1      44.864  27.220  37.058  1.00  0.00     0.091 A 
ATOM     92  F   UNL A   1      42.591  27.243  36.332  1.00  0.00    -0.205 F 
ATOM     93  C   UNL A   1      46.163  27.745  36.958  1.00  0.00     0.022 A 
BRANCH  91  94
ATOM     94  S   UNL A   1      44.606  25.908  38.257  1.00  0.00     0.127 S 
ATOM     95  O   UNL A   1      45.962  25.388  38.427  1.00  0.00    -0.237 OA
ATOM     96  O   UNL A   1      44.084  26.642  39.409  1.00  0.00    -0.237 OA
ATOM     97  O   UNL A   1      43.660  24.983  37.645  1.00  0.00    -0.744 OA
ENDBRANCH  91  94
ENDBRANCH  64  87
ENDBRANCH  38  39
ENDBRANCH  30  33
ENDBRANCH  28  29
ENDBRANCH  27  28
ENDBRANCH  26  27
ENDBRANCH   1  26
TORSDOF 20
ENDMDL
MODEL 2
REMARK VINA RESULT:     -11.1      1.885      8.195
REMARK SMILES C[C@H]1CN(C(=O)C[N@H+]2CCO[C@H](CC(=O)NCCCCCCNC(=O)c3ccc(-c4c5nc(c(-c6cccc(S(=O)(=O)[O-])c6F)c6ccc([nH]6)c(-c6cccc(S(=O)(=O)[O-])c6F)c6nc(c(-c7cccc(S(=O)(=O)[O-])c7F)c7ccc4[nH]7)C=C6)C=C5)cc3)C2)CCO1
REMARK SMILES IDX 19 1 18 2 17 3 16 4 14 5 15 6 13 8 12 9 8 10 9 11 89 12
REMARK SMILES IDX 10 14 11 15 7 16 5 17 6 18 4 19 1 20 2 21 3 22 92 23 91 24
REMARK SMILES IDX 90 25 20 26 21 27 22 28 23 29 24 30 25 32 26 33 27 34 88 35
REMARK SMILES IDX 28 36 87 37 29 38 30 39 31 40 81 41 32 42 86 43 80 44 82 45
REMARK SMILES IDX 33 46 85 47 79 48 78 49 34 51 66 52 46 53 65 54 47 55 50 56
REMARK SMILES IDX 64 57 83 58 48 59 49 60 63 62 84 63 51 64 35 65 36 66 44 67
REMARK SMILES IDX 37 68 39 69 45 70 38 71 40 72 41 73 42 74 43 75 67 76 68 77
REMARK SMILES IDX 76 78 69 79 71 80 77 81 70 82 72 83 73 84 74 85 75 86 52 87
REMARK SMILES IDX 53 88 61 89 54 90 56 91 62 92 55 93 57 94 58 95 59 96 60 97
REMARK H PARENT 16 7 8 13 23 31 82 50 50 61
REMARK Flexibility Score: inf
ROOT
ATOM      1  C   UNL A   1      35.455  31.914  28.688  1.00  0.00     0.002 C 
ENDROOT
BRANCH   1   2
ATOM      2  C   UNL A   1      35.859  30.723  27.807  1.00  0.00     0.021 C 
BRANCH   2   3
ATOM      3  C   UNL A   1      34.670  29.870  27.354  1.00  0.00     0.116 C 
BRANCH   3   4
ATOM      4  N   UNL A   1      33.489  30.704  27.201  1.00  0.00    -0.356 N 
ATOM      5  C   UNL A   1      32.216  30.356  26.877  1.00  0.00     0.222 C 
ATOM      6  O   UNL A   1      31.391  31.241  26.654  1.00  0.00    -0.275 OA
ATOM      7  H   UNL A   1      33.634  31.665  27.355  1.00  0.00     0.163 HD
BRANCH   5   8
ATOM      8  C   UNL A   1      31.833  28.908  26.849  1.00  0.00     0.138 C 
BRANCH   8   9
ATOM      9  C   UNL A   1      32.054  28.213  25.514  1.00  0.00     0.182 C 
ATOM     10  N   UNL A   1      33.605  26.649  24.201  1.00  0.00    -0.323 N 
ATOM     11  C   UNL A   1      33.855  27.856  23.395  1.00  0.00     0.291 C 
ATOM     12  C   UNL A   1      33.176  27.136  25.546  1.00  0.00     0.295 C 
ATOM     13  H   UNL A   1      34.454  26.088  24.263  1.00  0.00     0.348 HD
ATOM     14  C   UNL A   1      32.647  28.801  23.312  1.00  0.00     0.222 C 
ATOM     15  O   UNL A   1      32.360  29.294  24.612  1.00  0.00    -0.366 OA
BRANCH  10  16
ATOM     16  C   UNL A   1      32.628  25.703  23.592  1.00  0.00     0.363 C 
BRANCH  16  17
ATOM     17  C   UNL A   1      33.211  24.290  23.288  1.00  0.00     0.277 C 
ATOM     18  O   UNL A   1      33.712  24.059  22.181  1.00  0.00    -0.268 OA
BRANCH  17  19
ATOM     19  N   UNL A   1      33.248  23.325  24.293  1.00  0.00    -0.333 N 
ATOM     20  C   UNL A   1      30.347  22.876  26.668  1.00  0.00     0.040 C 
ATOM     21  C   UNL A   1      31.278  22.643  25.490  1.00  0.00     0.134 C 
ATOM     22  C   UNL A   1      32.597  23.434  25.594  1.00  0.00     0.151 C 
ATOM     23  O   UNL A   1      31.597  21.245  25.359  1.00  0.00    -0.375 OA
ATOM     24  C   UNL A   1      32.320  21.019  24.127  1.00  0.00     0.182 C 
ATOM     25  C   UNL A   1      33.564  21.925  23.978  1.00  0.00     0.148 C 
ENDBRANCH  17  19
ENDBRANCH  16  17
ENDBRANCH  10  16
ENDBRANCH   8   9
ENDBRANCH   5   8
ENDBRANCH   3   4
ENDBRANCH   2   3
ENDBRANCH   1   2
BRANCH   1  26
ATOM     26  C   UNL A   1      35.907  33.278  28.156  1.00  0.00     0.002 C 
BRANCH  26  27
ATOM     27  C   UNL A   1      34.822  34.354  28.176  1.00  0.00     0.021 C 
BRANCH  27  28
ATOM     28  C   UNL A   1      33.532  33.925  28.869  1.00  0.00     0.116 C 
BRANCH  28  29
ATOM     29  N   UNL A   1      32.956  35.004  29.659  1.00  0.00    -0.352 N 
ATOM     30  C   UNL A   1      33.171  35.320  30.978  1.00  0.00     0.251 C 
ATOM     31  H   UNL A   1      32.324  35.589  29.182  1.00  0.00     0.163 HD
ATOM     32  O   UNL A   1      32.446  36.129  31.550  1.00  0.00    -0.269 OA
BRANCH  30  33
ATOM     33  C   UNL A   1      34.272  34.660  31.707  1.00  0.00     0.039 A 
ATOM     34  C   UNL A   1      34.006  33.498  32.436  1.00  0.00     0.014 A 
ATOM     35  C   UNL A   1      35.571  35.170  31.635  1.00  0.00     0.014 A 
ATOM     36  C   UNL A   1      35.061  32.799  33.025  1.00  0.00     0.010 A 
ATOM     37  C   UNL A   1      36.628  34.436  32.163  1.00  0.00     0.010 A 
ATOM     38  C   UNL A   1      36.385  33.237  32.852  1.00  0.00    -0.014 A 
BRANCH  38  39
ATOM     39  C   UNL A   1      37.538  32.431  33.326  1.00  0.00     0.031 A 
ATOM     40  C   UNL A   1      38.293  32.835  34.560  1.00  0.00     0.074 A 
ATOM     41  C   UNL A   1      37.977  31.403  32.571  1.00  0.00     0.049 A 
ATOM     42  N   UNL A   1      39.388  32.323  35.059  1.00  0.00    -0.248 NA
ATOM     43  C   UNL A   1      37.764  33.980  35.320  1.00  0.00     0.031 C 
ATOM     44  C   UNL A   1      37.372  30.958  31.314  1.00  0.00     0.029 A 
ATOM     45  N   UNL A   1      39.059  30.572  32.730  1.00  0.00    -0.354 N 
ATOM     46  C   UNL A   1      39.701  33.102  36.167  1.00  0.00     0.074 A 
ATOM     47  C   UNL A   1      38.691  34.135  36.254  1.00  0.00     0.031 C 
ATOM     48  C   UNL A   1      38.094  29.945  30.811  1.00  0.00     0.029 A 
ATOM     49  C   UNL A   1      39.238  29.697  31.682  1.00  0.00     0.049 A 
ATOM     50  H   UNL A   1      39.650  30.600  33.516  1.00  0.00     0.167 HD
ATOM     51  C   UNL A   1      40.724  32.959  37.041  1.00  0.00     0.034 A 
ATOM     52  C   UNL A   1      40.225  28.813  31.434  1.00  0.00     0.034 A 
ATOM     53  C   UNL A   1      41.708  31.911  36.966  1.00  0.00     0.049 A 
ATOM     54  C   UNL A   1      41.346  28.669  32.427  1.00  0.00     0.074 A 
ATOM     55  C   UNL A   1      42.724  31.623  37.861  1.00  0.00     0.029 A 
ATOM     56  N   UNL A   1      41.815  30.994  35.932  1.00  0.00    -0.354 N 
ATOM     57  N   UNL A   1      41.532  29.305  33.558  1.00  0.00    -0.248 NA
ATOM     58  C   UNL A   1      42.379  27.668  32.125  1.00  0.00     0.031 C 
ATOM     59  C   UNL A   1      43.470  30.559  37.346  1.00  0.00     0.029 A 
ATOM     60  C   UNL A   1      42.896  30.158  36.151  1.00  0.00     0.049 A 
ATOM     61  H   UNL A   1      41.210  30.945  35.156  1.00  0.00     0.167 HD
ATOM     62  C   UNL A   1      42.685  28.764  34.115  1.00  0.00     0.074 A 
ATOM     63  C   UNL A   1      43.141  27.730  33.209  1.00  0.00     0.031 C 
ATOM     64  C   UNL A   1      43.318  29.104  35.264  1.00  0.00     0.034 A 
BRANCH  51  65
ATOM     65  C   UNL A   1      40.819  33.937  38.181  1.00  0.00     0.023 A 
ATOM     66  C   UNL A   1      41.673  35.054  38.075  1.00  0.00     0.012 A 
ATOM     67  C   UNL A   1      40.010  33.792  39.325  1.00  0.00     0.148 A 
ATOM     68  C   UNL A   1      41.744  35.993  39.103  1.00  0.00     0.002 A 
ATOM     69  C   UNL A   1      40.052  34.757  40.324  1.00  0.00     0.091 A 
ATOM     70  F   UNL A   1      39.219  32.714  39.416  1.00  0.00    -0.205 F 
ATOM     71  C   UNL A   1      40.927  35.851  40.220  1.00  0.00     0.022 A 
BRANCH  69  72
ATOM     72  S   UNL A   1      38.982  34.707  41.766  1.00  0.00     0.127 S 
ATOM     73  O   UNL A   1      38.978  36.110  42.179  1.00  0.00    -0.237 OA
ATOM     74  O   UNL A   1      37.720  34.238  41.193  1.00  0.00    -0.237 OA
ATOM     75  O   UNL A   1      39.608  33.784  42.701  1.00  0.00    -0.744 OA
ENDBRANCH  69  72
ENDBRANCH  51  65
BRANCH  52  76
ATOM     76  C   UNL A   1      40.183  27.977  30.201  1.00  0.00     0.023 A 
ATOM     77  C   UNL A   1      39.305  26.879  30.136  1.00  0.00     0.012 A 
ATOM     78  C   UNL A   1      40.991  28.278  29.088  1.00  0.00     0.148 A 
ATOM     79  C   UNL A   1      39.256  26.076  28.995  1.00  0.00     0.002 A 
ATOM     80  C   UNL A   1      40.894  27.510  27.934  1.00  0.00     0.091 A 
ATOM     81  F   UNL A   1      41.829  29.322  29.174  1.00  0.00    -0.205 F 
ATOM     82  C   UNL A   1      40.041  26.397  27.892  1.00  0.00     0.022 A 
BRANCH  80  83
ATOM     83  S   UNL A   1      41.766  27.933  26.421  1.00  0.00     0.127 S 
ATOM     84  O   UNL A   1      41.398  26.825  25.544  1.00  0.00    -0.237 OA
ATOM     85  O   UNL A   1      41.163  29.221  26.076  1.00  0.00    -0.237 OA
ATOM     86  O   UNL A   1      43.174  28.009  26.786  1.00  0.00    -0.744 OA
ENDBRANCH  80  83
ENDBRANCH  52  76
BRANCH  64  87
ATOM     87  C   UNL A   1      44.564  28.342  35.631  1.00  0.00     0.023 A 
ATOM     88  C   UNL A   1      45.825  28.822  35.227  1.00  0.00     0.012 A 
ATOM     89  C   UNL A   1      44.491  27.195  36.448  1.00  0.00     0.148 A 
ATOM     90  C   UNL A   1      46.991  28.161  35.608  1.00  0.00     0.002 A 
ATOM     91  C   UNL A   1      45.659  26.571  36.866  1.00  0.00     0.091 A 
ATOM     92  F   UNL A   1      43.280  26.746  36.809  1.00  0.00    -0.205 F 
ATOM     93  C   UNL A   1      46.910  27.044  36.437  1.00  0.00     0.022 A 
BRANCH  91  94
ATOM     94  S   UNL A   1      45.661  25.186  38.010  1.00  0.00     0.127 S 
ATOM     95  O   UNL A   1      47.093  24.949  38.189  1.00  0.00    -0.237 OA
ATOM     96  O   UNL A   1      44.985  25.750  39.178  1.00  0.00    -0.237 OA
ATOM     97  O   UNL A   1      44.934  24.112  37.346  1.00  0.00    -0.744 OA
ENDBRANCH  91  94
ENDBRANCH  64  87
ENDBRANCH  38  39
ENDBRANCH  30  33
ENDBRANCH  28  29
ENDBRANCH  27  28
ENDBRANCH  26  27
ENDBRANCH   1  26
TORSDOF 20
ENDMDL
MODEL 3
REMARK VINA RESULT:     -11.0      1.496      2.602
REMARK SMILES C[C@H]1CN(C(=O)C[N@H+]2CCO[C@H](CC(=O)NCCCCCCNC(=O)c3ccc(-c4c5nc(c(-c6cccc(S(=O)(=O)[O-])c6F)c6ccc([nH]6)c(-c6cccc(S(=O)(=O)[O-])c6F)c6nc(c(-c7cccc(S(=O)(=O)[O-])c7F)c7ccc4[nH]7)C=C6)C=C5)cc3)C2)CCO1
REMARK SMILES IDX 19 1 18 2 17 3 16 4 14 5 15 6 13 8 12 9 8 10 9 11 89 12
REMARK SMILES IDX 10 14 11 15 7 16 5 17 6 18 4 19 1 20 2 21 3 22 92 23 91 24
REMARK SMILES IDX 90 25 20 26 21 27 22 28 23 29 24 30 25 32 26 33 27 34 88 35
REMARK SMILES IDX 28 36 87 37 29 38 30 39 31 40 81 41 32 42 86 43 80 44 82 45
REMARK SMILES IDX 33 46 85 47 79 48 78 49 34 51 66 52 46 53 65 54 47 55 50 56
REMARK SMILES IDX 64 57 83 58 48 59 49 60 63 62 84 63 51 64 35 65 36 66 44 67
REMARK SMILES IDX 37 68 39 69 45 70 38 71 40 72 41 73 42 74 43 75 67 76 68 77
REMARK SMILES IDX 76 78 69 79 71 80 77 81 70 82 72 83 73 84 74 85 75 86 52 87
REMARK SMILES IDX 53 88 61 89 54 90 56 91 62 92 55 93 57 94 58 95 59 96 60 97
REMARK H PARENT 16 7 8 13 23 31 82 50 50 61
REMARK Flexibility Score: inf
ROOT
ATOM      1  C   UNL A   1      32.528  29.814  25.403  1.00  0.00     0.002 C 
ENDROOT
BRANCH   1   2
ATOM      2  C   UNL A   1      32.183  28.401  24.914  1.00  0.00     0.021 C 
BRANCH   2   3
ATOM      3  C   UNL A   1      33.414  27.523  24.668  1.00  0.00     0.116 C 
BRANCH   3   4
ATOM      4  N   UNL A   1      33.538  27.226  23.251  1.00  0.00    -0.356 N 
ATOM      5  C   UNL A   1      33.399  26.044  22.595  1.00  0.00     0.222 C 
ATOM      6  O   UNL A   1      33.692  25.982  21.402  1.00  0.00    -0.275 OA
ATOM      7  H   UNL A   1      33.755  27.998  22.680  1.00  0.00     0.163 HD
BRANCH   5   8
ATOM      8  C   UNL A   1      32.844  24.858  23.325  1.00  0.00     0.138 C 
BRANCH   8   9
ATOM      9  C   UNL A   1      33.882  23.849  23.790  1.00  0.00     0.182 C 
ATOM     10  N   UNL A   1      35.304  23.077  25.778  1.00  0.00    -0.323 N 
ATOM     11  C   UNL A   1      36.420  23.551  24.943  1.00  0.00     0.291 C 
ATOM     12  C   UNL A   1      34.103  23.841  25.330  1.00  0.00     0.295 C 
ATOM     13  H   UNL A   1      35.508  23.248  26.763  1.00  0.00     0.348 HD
ATOM     14  C   UNL A   1      36.167  23.401  23.436  1.00  0.00     0.222 C 
ATOM     15  O   UNL A   1      35.073  24.227  23.070  1.00  0.00    -0.366 OA
BRANCH  10  16
ATOM     16  C   UNL A   1      35.098  21.602  25.737  1.00  0.00     0.363 C 
BRANCH  16  17
ATOM     17  C   UNL A   1      33.831  21.112  26.501  1.00  0.00     0.277 C 
ATOM     18  O   UNL A   1      33.657  21.445  27.679  1.00  0.00    -0.268 OA
BRANCH  17  19
ATOM     19  N   UNL A   1      32.856  20.378  25.826  1.00  0.00    -0.333 N 
ATOM     20  C   UNL A   1      31.940  21.185  22.252  1.00  0.00     0.040 C 
ATOM     21  C   UNL A   1      32.587  20.492  23.439  1.00  0.00     0.134 C 
ATOM     22  C   UNL A   1      31.970  20.902  24.791  1.00  0.00     0.151 C 
ATOM     23  O   UNL A   1      32.491  19.062  23.312  1.00  0.00    -0.375 OA
ATOM     24  C   UNL A   1      33.278  18.421  24.343  1.00  0.00     0.182 C 
ATOM     25  C   UNL A   1      32.927  18.912  25.766  1.00  0.00     0.148 C 
ENDBRANCH  17  19
ENDBRANCH  16  17
ENDBRANCH  10  16
ENDBRANCH   8   9
ENDBRANCH   5   8
ENDBRANCH   3   4
ENDBRANCH   2   3
ENDBRANCH   1   2
BRANCH   1  26
ATOM     26  C   UNL A   1      31.806  30.236  26.687  1.00  0.00     0.002 C 
BRANCH  26  27
ATOM     27  C   UNL A   1      31.532  31.736  26.792  1.00  0.00     0.021 C 
BRANCH  27  28
ATOM     28  C   UNL A   1      32.790  32.596  26.861  1.00  0.00     0.116 C 
BRANCH  28  29
ATOM     29  N   UNL A   1      32.562  33.832  27.598  1.00  0.00    -0.352 N 
ATOM     30  C   UNL A   1      33.212  34.307  28.710  1.00  0.00     0.251 C 
ATOM     31  H   UNL A   1      31.842  34.406  27.252  1.00  0.00     0.163 HD
ATOM     32  O   UNL A   1      32.759  35.261  29.335  1.00  0.00    -0.269 OA
BRANCH  30  33
ATOM     33  C   UNL A   1      34.454  33.644  29.158  1.00  0.00     0.039 A 
ATOM     34  C   UNL A   1      35.686  34.173  28.767  1.00  0.00     0.014 A 
ATOM     35  C   UNL A   1      34.394  32.527  29.994  1.00  0.00     0.014 A 
ATOM     36  C   UNL A   1      36.863  33.629  29.285  1.00  0.00     0.010 A 
ATOM     37  C   UNL A   1      35.562  32.031  30.563  1.00  0.00     0.010 A 
ATOM     38  C   UNL A   1      36.807  32.585  30.225  1.00  0.00    -0.014 A 
BRANCH  38  39
ATOM     39  C   UNL A   1      38.027  32.096  30.915  1.00  0.00     0.031 A 
ATOM     40  C   UNL A   1      38.796  30.928  30.364  1.00  0.00     0.074 A 
ATOM     41  C   UNL A   1      38.369  32.630  32.106  1.00  0.00     0.049 A 
ATOM     42  N   UNL A   1      39.812  30.293  30.887  1.00  0.00    -0.248 NA
ATOM     43  C   UNL A   1      38.350  30.388  29.070  1.00  0.00     0.031 C 
ATOM     44  C   UNL A   1      37.659  33.720  32.779  1.00  0.00     0.029 A 
ATOM     45  N   UNL A   1      39.376  32.301  32.980  1.00  0.00    -0.354 N 
ATOM     46  C   UNL A   1      40.105  29.258  30.008  1.00  0.00     0.074 A 
ATOM     47  C   UNL A   1      39.144  29.336  28.929  1.00  0.00     0.031 C 
ATOM     48  C   UNL A   1      38.244  33.962  33.962  1.00  0.00     0.029 A 
ATOM     49  C   UNL A   1      39.340  33.019  34.154  1.00  0.00     0.049 A 
ATOM     50  H   UNL A   1      40.057  31.618  32.786  1.00  0.00     0.167 HD
ATOM     51  C   UNL A   1      41.095  28.337  30.084  1.00  0.00     0.034 A 
ATOM     52  C   UNL A   1      40.085  32.912  35.272  1.00  0.00     0.034 A 
ATOM     53  C   UNL A   1      42.066  28.283  31.144  1.00  0.00     0.049 A 
ATOM     54  C   UNL A   1      41.184  31.886  35.325  1.00  0.00     0.074 A 
ATOM     55  C   UNL A   1      43.166  27.450  31.257  1.00  0.00     0.029 A 
ATOM     56  N   UNL A   1      42.046  29.074  32.282  1.00  0.00    -0.354 N 
ATOM     57  N   UNL A   1      41.551  31.023  34.409  1.00  0.00    -0.248 NA
ATOM     58  C   UNL A   1      41.988  31.834  36.554  1.00  0.00     0.031 C 
ATOM     59  C   UNL A   1      43.786  27.711  32.483  1.00  0.00     0.029 A 
ATOM     60  C   UNL A   1      43.096  28.731  33.116  1.00  0.00     0.049 A 
ATOM     61  H   UNL A   1      41.382  29.778  32.468  1.00  0.00     0.167 HD
ATOM     62  C   UNL A   1      42.643  30.346  34.939  1.00  0.00     0.074 A 
ATOM     63  C   UNL A   1      42.895  30.916  36.245  1.00  0.00     0.031 C 
ATOM     64  C   UNL A   1      43.362  29.333  34.397  1.00  0.00     0.034 A 
BRANCH  51  65
ATOM     65  C   UNL A   1      41.205  27.328  28.972  1.00  0.00     0.023 A 
ATOM     66  C   UNL A   1      40.409  26.165  29.001  1.00  0.00     0.012 A 
ATOM     67  C   UNL A   1      42.041  27.566  27.863  1.00  0.00     0.148 A 
ATOM     68  C   UNL A   1      40.467  25.239  27.961  1.00  0.00     0.002 A 
ATOM     69  C   UNL A   1      42.058  26.661  26.808  1.00  0.00     0.091 A 
ATOM     70  F   UNL A   1      42.804  28.668  27.862  1.00  0.00    -0.205 F 
ATOM     71  C   UNL A   1      41.281  25.492  26.861  1.00  0.00     0.022 A 
BRANCH  69  72
ATOM     72  S   UNL A   1      43.012  26.936  25.311  1.00  0.00     0.127 S 
ATOM     73  O   UNL A   1      44.359  27.119  25.850  1.00  0.00    -0.237 OA
ATOM     74  O   UNL A   1      42.812  25.681  24.586  1.00  0.00    -0.237 OA
ATOM     75  O   UNL A   1      42.432  28.108  24.672  1.00  0.00    -0.744 OA
ENDBRANCH  69  72
ENDBRANCH  51  65
BRANCH  52  76
ATOM     76  C   UNL A   1      39.833  33.822  36.424  1.00  0.00     0.023 A 
ATOM     77  C   UNL A   1      40.148  35.189  36.313  1.00  0.00     0.012 A 
ATOM     78  C   UNL A   1      39.260  33.345  37.619  1.00  0.00     0.148 A 
ATOM     79  C   UNL A   1      39.930  36.059  37.383  1.00  0.00     0.002 A 
ATOM     80  C   UNL A   1      38.991  34.227  38.659  1.00  0.00     0.091 A 
ATOM     81  F   UNL A   1      38.978  32.037  37.710  1.00  0.00    -0.205 F 
ATOM     82  C   UNL A   1      39.342  35.581  38.550  1.00  0.00     0.022 A 
BRANCH  80  83
ATOM     83  S   UNL A   1      38.112  33.723  40.143  1.00  0.00     0.127 S 
ATOM     84  O   UNL A   1      36.880  33.170  39.588  1.00  0.00    -0.237 OA
ATOM     85  O   UNL A   1      39.029  32.736  40.715  1.00  0.00    -0.237 OA
ATOM     86  O   UNL A   1      37.960  34.932  40.941  1.00  0.00    -0.744 OA
ENDBRANCH  80  83
ENDBRANCH  52  76
BRANCH  64  87
ATOM     87  C   UNL A   1      44.511  28.780  35.201  1.00  0.00     0.023 A 
ATOM     88  C   UNL A   1      45.816  29.266  34.986  1.00  0.00     0.012 A 
ATOM     89  C   UNL A   1      44.283  27.841  36.227  1.00  0.00     0.148 A 
ATOM     90  C   UNL A   1      46.879  28.807  35.762  1.00  0.00     0.002 A 
ATOM     91  C   UNL A   1      45.338  27.426  37.030  1.00  0.00     0.091 A 
ATOM     92  F   UNL A   1      43.036  27.380  36.405  1.00  0.00    -0.205 F 
ATOM     93  C   UNL A   1      46.640  27.898  36.790  1.00  0.00     0.022 A 
BRANCH  91  94
ATOM     94  S   UNL A   1      45.115  26.334  38.438  1.00  0.00     0.127 S 
ATOM     95  O   UNL A   1      43.686  26.488  38.710  1.00  0.00    -0.237 OA
ATOM     96  O   UNL A   1      45.493  25.035  37.882  1.00  0.00    -0.237 OA
ATOM     97  O   UNL A   1      46.002  26.832  39.481  1.00  0.00    -0.744 OA
ENDBRANCH  91  94
ENDBRANCH  64  87
ENDBRANCH  38  39
ENDBRANCH  30  33
ENDBRANCH  28  29
ENDBRANCH  27  28
ENDBRANCH  26  27
ENDBRANCH   1  26
TORSDOF 20
ENDMDL
