MODEL 1
REMARK VINA RESULT:     -10.7      0.000      0.000
REMARK SMILES COCCCN1C(=O)C[C@@H](Sc2ncccc2C(=O)NCCCCCCNC(=O)c2ccc(-c3c4nc(c(-c5cccc(S(=O)(=O)[O-])c5F)c5ccc([nH]5)c(-c5cccc(S(=O)(=O)[O-])c5F)c5nc(c(-c6cccc(S(=O)(=O)[O-])c6F)c6ccc3[nH]6)C=C5)C=C4)cc2)C1=O
REMARK SMILES IDX 22 1 21 2 20 3 18 4 19 5 17 7 12 8 13 9 14 10 16 11 15 12
REMARK SMILES IDX 11 13 10 14 6 15 7 16 93 17 8 18 9 19 94 20 5 21 4 22 3 23
REMARK SMILES IDX 2 24 1 25 23 26 24 27 25 28 26 29 27 30 28 31 29 33 30 34
REMARK SMILES IDX 31 35 92 36 32 37 91 38 33 39 34 40 35 41 85 42 36 43 90 44
REMARK SMILES IDX 84 45 86 46 37 47 89 48 83 49 82 50 38 52 70 53 50 54 69 55
REMARK SMILES IDX 51 56 54 57 68 58 87 59 52 60 53 61 67 63 88 64 55 65 39 66
REMARK SMILES IDX 40 67 48 68 41 69 43 70 49 71 42 72 44 73 45 74 46 75 47 76
REMARK SMILES IDX 71 77 72 78 80 79 73 80 75 81 81 82 74 83 76 84 77 85 78 86
REMARK SMILES IDX 79 87 56 88 57 89 65 90 58 91 60 92 66 93 59 94 61 95 62 96
REMARK SMILES IDX 63 97 64 98
REMARK H PARENT 20 6 27 32 86 51 54 62
REMARK Flexibility Score: inf
ROOT
ATOM      1  C   UNL A   1      31.480  29.463  23.358  1.00  0.00     0.021 C 
ENDROOT
BRANCH   1   2
ATOM      2  C   UNL A   1      30.776  28.310  22.637  1.00  0.00     0.116 C 
BRANCH   2   3
ATOM      3  N   UNL A   1      31.772  27.508  21.954  1.00  0.00    -0.352 N 
ATOM      4  C   UNL A   1      32.836  26.735  22.338  1.00  0.00     0.254 C 
ATOM      5  O   UNL A   1      33.602  26.458  21.416  1.00  0.00    -0.269 OA
ATOM      6  H   UNL A   1      31.656  27.523  20.977  1.00  0.00     0.163 HD
BRANCH   4   7
ATOM      7  C   UNL A   1      33.034  26.187  23.719  1.00  0.00     0.072 A 
ATOM      8  C   UNL A   1      32.335  25.049  24.164  1.00  0.00     0.109 A 
ATOM      9  N   UNL A   1      32.329  24.676  25.472  1.00  0.00    -0.249 NA
ATOM     10  C   UNL A   1      33.064  25.373  26.360  1.00  0.00     0.112 A 
ATOM     11  C   UNL A   1      33.880  26.797  24.657  1.00  0.00     0.018 A 
ATOM     12  C   UNL A   1      33.879  26.414  25.995  1.00  0.00     0.021 A 
BRANCH   8  13
ATOM     13  S   UNL A   1      31.419  23.934  23.092  1.00  0.00    -0.092 SA
BRANCH  13  14
ATOM     14  C   UNL A   1      32.440  22.432  22.969  1.00  0.00     0.152 C 
ATOM     15  N   UNL A   1      34.370  21.916  24.184  1.00  0.00    -0.282 N 
ATOM     16  C   UNL A   1      33.360  21.218  24.787  1.00  0.00     0.230 C 
ATOM     17  C   UNL A   1      33.920  22.669  23.129  1.00  0.00     0.243 C 
ATOM     18  O   UNL A   1      33.449  20.522  25.790  1.00  0.00    -0.274 OA
ATOM     19  C   UNL A   1      32.097  21.370  23.994  1.00  0.00     0.125 C 
ATOM     20  O   UNL A   1      34.606  23.383  22.408  1.00  0.00    -0.273 OA
BRANCH  15  21
ATOM     21  C   UNL A   1      35.714  22.049  24.721  1.00  0.00     0.131 C 
BRANCH  21  22
ATOM     22  C   UNL A   1      35.846  22.930  25.964  1.00  0.00     0.050 C 
BRANCH  22  23
ATOM     23  C   UNL A   1      37.006  23.919  25.956  1.00  0.00     0.161 C 
BRANCH  23  24
ATOM     24  O   UNL A   1      38.221  23.373  25.449  1.00  0.00    -0.385 OA
ATOM     25  C   UNL A   1      38.776  22.333  26.240  1.00  0.00     0.194 C 
ENDBRANCH  23  24
ENDBRANCH  22  23
ENDBRANCH  21  22
ENDBRANCH  15  21
ENDBRANCH  13  14
ENDBRANCH   8  13
ENDBRANCH   4   7
ENDBRANCH   2   3
ENDBRANCH   1   2
BRANCH   1  26
ATOM     26  C   UNL A   1      30.874  29.759  24.741  1.00  0.00     0.002 C 
BRANCH  26  27
ATOM     27  C   UNL A   1      31.891  30.197  25.802  1.00  0.00     0.002 C 
BRANCH  27  28
ATOM     28  C   UNL A   1      31.613  31.571  26.416  1.00  0.00     0.021 C 
BRANCH  28  29
ATOM     29  C   UNL A   1      32.794  32.156  27.179  1.00  0.00     0.116 C 
BRANCH  29  30
ATOM     30  N   UNL A   1      32.597  33.570  27.454  1.00  0.00    -0.352 N 
ATOM     31  C   UNL A   1      33.157  34.340  28.441  1.00  0.00     0.251 C 
ATOM     32  H   UNL A   1      31.978  34.039  26.849  1.00  0.00     0.163 HD
ATOM     33  O   UNL A   1      32.695  35.448  28.695  1.00  0.00    -0.269 OA
BRANCH  31  34
ATOM     34  C   UNL A   1      34.315  33.821  29.198  1.00  0.00     0.039 A 
ATOM     35  C   UNL A   1      34.093  32.951  30.268  1.00  0.00     0.014 A 
ATOM     36  C   UNL A   1      35.616  34.203  28.857  1.00  0.00     0.014 A 
ATOM     37  C   UNL A   1      35.181  32.432  30.971  1.00  0.00     0.010 A 
ATOM     38  C   UNL A   1      36.700  33.625  29.508  1.00  0.00     0.010 A 
ATOM     39  C   UNL A   1      36.494  32.747  30.582  1.00  0.00    -0.014 A 
BRANCH  39  40
ATOM     40  C   UNL A   1      37.663  32.169  31.291  1.00  0.00     0.031 A 
ATOM     41  C   UNL A   1      38.434  31.031  30.679  1.00  0.00     0.074 A 
ATOM     42  C   UNL A   1      37.982  32.621  32.520  1.00  0.00     0.049 A 
ATOM     43  N   UNL A   1      39.454  30.372  31.165  1.00  0.00    -0.248 NA
ATOM     44  C   UNL A   1      37.984  30.550  29.362  1.00  0.00     0.031 C 
ATOM     45  C   UNL A   1      37.261  33.664  33.253  1.00  0.00     0.029 A 
ATOM     46  N   UNL A   1      38.982  32.241  33.382  1.00  0.00    -0.354 N 
ATOM     47  C   UNL A   1      39.744  29.381  30.236  1.00  0.00     0.074 A 
ATOM     48  C   UNL A   1      38.772  29.501  29.172  1.00  0.00     0.031 C 
ATOM     49  C   UNL A   1      37.843  33.844  34.449  1.00  0.00     0.029 A 
ATOM     50  C   UNL A   1      38.958  32.913  34.583  1.00  0.00     0.049 A 
ATOM     51  H   UNL A   1      39.652  31.556  33.161  1.00  0.00     0.167 HD
ATOM     52  C   UNL A   1      40.748  28.471  30.251  1.00  0.00     0.034 A 
ATOM     53  C   UNL A   1      39.741  32.783  35.671  1.00  0.00     0.034 A 
ATOM     54  C   UNL A   1      41.737  28.384  31.291  1.00  0.00     0.049 A 
ATOM     55  C   UNL A   1      40.875  31.795  35.643  1.00  0.00     0.074 A 
ATOM     56  C   UNL A   1      42.846  27.559  31.354  1.00  0.00     0.029 A 
ATOM     57  N   UNL A   1      41.733  29.141  32.452  1.00  0.00    -0.354 N 
ATOM     58  N   UNL A   1      41.231  30.977  34.683  1.00  0.00    -0.248 NA
ATOM     59  C   UNL A   1      41.739  31.741  36.830  1.00  0.00     0.031 C 
ATOM     60  C   UNL A   1      43.496  27.796  32.569  1.00  0.00     0.029 A 
ATOM     61  C   UNL A   1      42.813  28.794  33.245  1.00  0.00     0.049 A 
ATOM     62  H   UNL A   1      41.062  29.823  32.680  1.00  0.00     0.167 HD
ATOM     63  C   UNL A   1      42.380  30.339  35.134  1.00  0.00     0.074 A 
ATOM     64  C   UNL A   1      42.673  30.883  36.445  1.00  0.00     0.031 C 
ATOM     65  C   UNL A   1      43.121  29.380  34.525  1.00  0.00     0.034 A 
BRANCH  52  66
ATOM     66  C   UNL A   1      40.855  27.524  29.085  1.00  0.00     0.023 A 
ATOM     67  C   UNL A   1      40.029  26.382  29.034  1.00  0.00     0.012 A 
ATOM     68  C   UNL A   1      41.725  27.795  28.011  1.00  0.00     0.148 A 
ATOM     69  C   UNL A   1      40.090  25.508  27.948  1.00  0.00     0.002 A 
ATOM     70  C   UNL A   1      41.745  26.945  26.911  1.00  0.00     0.091 A 
ATOM     71  F   UNL A   1      42.517  28.873  28.087  1.00  0.00    -0.205 F 
ATOM     72  C   UNL A   1      40.939  25.796  26.884  1.00  0.00     0.022 A 
BRANCH  70  73
ATOM     73  S   UNL A   1      42.743  27.270  25.452  1.00  0.00     0.127 S 
ATOM     74  O   UNL A   1      44.061  27.502  26.042  1.00  0.00    -0.237 OA
ATOM     75  O   UNL A   1      42.619  26.015  24.710  1.00  0.00    -0.237 OA
ATOM     76  O   UNL A   1      42.139  28.425  24.801  1.00  0.00    -0.744 OA
ENDBRANCH  70  73
ENDBRANCH  52  66
BRANCH  53  77
ATOM     77  C   UNL A   1      39.513  33.654  36.859  1.00  0.00     0.023 A 
ATOM     78  C   UNL A   1      39.904  35.007  36.814  1.00  0.00     0.012 A 
ATOM     79  C   UNL A   1      38.894  33.157  38.022  1.00  0.00     0.148 A 
ATOM     80  C   UNL A   1      39.717  35.838  37.919  1.00  0.00     0.002 A 
ATOM     81  C   UNL A   1      38.659  34.004  39.098  1.00  0.00     0.091 A 
ATOM     82  F   UNL A   1      38.539  31.864  38.049  1.00  0.00    -0.205 F 
ATOM     83  C   UNL A   1      39.087  35.341  39.056  1.00  0.00     0.022 A 
BRANCH  81  84
ATOM     84  S   UNL A   1      37.735  33.484  40.548  1.00  0.00     0.127 S 
ATOM     85  O   UNL A   1      38.609  32.456  41.107  1.00  0.00    -0.237 OA
ATOM     86  O   UNL A   1      37.665  34.723  41.323  1.00  0.00    -0.237 OA
ATOM     87  O   UNL A   1      36.448  33.018  40.047  1.00  0.00    -0.744 OA
ENDBRANCH  81  84
ENDBRANCH  53  77
BRANCH  65  88
ATOM     88  C   UNL A   1      44.347  28.882  35.244  1.00  0.00     0.023 A 
ATOM     89  C   UNL A   1      45.597  29.491  35.013  1.00  0.00     0.012 A 
ATOM     90  C   UNL A   1      44.245  27.855  36.203  1.00  0.00     0.148 A 
ATOM     91  C   UNL A   1      46.732  29.059  35.697  1.00  0.00     0.002 A 
ATOM     92  C   UNL A   1      45.371  27.466  36.919  1.00  0.00     0.091 A 
ATOM     93  F   UNL A   1      43.051  27.276  36.396  1.00  0.00    -0.205 F 
ATOM     94  C   UNL A   1      46.617  28.057  36.657  1.00  0.00     0.022 A 
BRANCH  92  95
ATOM     95  S   UNL A   1      45.297  26.255  38.243  1.00  0.00     0.127 S 
ATOM     96  O   UNL A   1      44.316  26.858  39.144  1.00  0.00    -0.237 OA
ATOM     97  O   UNL A   1      44.828  25.059  37.544  1.00  0.00    -0.237 OA
ATOM     98  O   UNL A   1      46.651  26.153  38.771  1.00  0.00    -0.744 OA
ENDBRANCH  92  95
ENDBRANCH  65  88
ENDBRANCH  39  40
ENDBRANCH  31  34
ENDBRANCH  29  30
ENDBRANCH  28  29
ENDBRANCH  27  28
ENDBRANCH  26  27
ENDBRANCH   1  26
TORSDOF 22
ENDMDL
MODEL 2
REMARK VINA RESULT:      -9.8      2.983      4.049
REMARK SMILES COCCCN1C(=O)C[C@@H](Sc2ncccc2C(=O)NCCCCCCNC(=O)c2ccc(-c3c4nc(c(-c5cccc(S(=O)(=O)[O-])c5F)c5ccc([nH]5)c(-c5cccc(S(=O)(=O)[O-])c5F)c5nc(c(-c6cccc(S(=O)(=O)[O-])c6F)c6ccc3[nH]6)C=C5)C=C4)cc2)C1=O
REMARK SMILES IDX 22 1 21 2 20 3 18 4 19 5 17 7 12 8 13 9 14 10 16 11 15 12
REMARK SMILES IDX 11 13 10 14 6 15 7 16 93 17 8 18 9 19 94 20 5 21 4 22 3 23
REMARK SMILES IDX 2 24 1 25 23 26 24 27 25 28 26 29 27 30 28 31 29 33 30 34
REMARK SMILES IDX 31 35 92 36 32 37 91 38 33 39 34 40 35 41 85 42 36 43 90 44
REMARK SMILES IDX 84 45 86 46 37 47 89 48 83 49 82 50 38 52 70 53 50 54 69 55
REMARK SMILES IDX 51 56 54 57 68 58 87 59 52 60 53 61 67 63 88 64 55 65 39 66
REMARK SMILES IDX 40 67 48 68 41 69 43 70 49 71 42 72 44 73 45 74 46 75 47 76
REMARK SMILES IDX 71 77 72 78 80 79 73 80 75 81 81 82 74 83 76 84 77 85 78 86
REMARK SMILES IDX 79 87 56 88 57 89 65 90 58 91 60 92 66 93 59 94 61 95 62 96
REMARK SMILES IDX 63 97 64 98
REMARK H PARENT 20 6 27 32 86 51 54 62
REMARK Flexibility Score: inf
ROOT
ATOM      1  C   UNL A   1      33.582  26.551  22.155  1.00  0.00     0.021 C 
ENDROOT
BRANCH   1   2
ATOM      2  C   UNL A   1      32.826  25.848  21.024  1.00  0.00     0.116 C 
BRANCH   2   3
ATOM      3  N   UNL A   1      32.681  24.446  21.358  1.00  0.00    -0.352 N 
ATOM      4  C   UNL A   1      32.463  23.732  22.507  1.00  0.00     0.254 C 
ATOM      5  O   UNL A   1      32.697  22.530  22.393  1.00  0.00    -0.269 OA
ATOM      6  H   UNL A   1      32.760  23.864  20.568  1.00  0.00     0.163 HD
BRANCH   4   7
ATOM      7  C   UNL A   1      31.908  24.309  23.774  1.00  0.00     0.072 A 
ATOM      8  C   UNL A   1      32.596  24.194  24.996  1.00  0.00     0.109 A 
ATOM      9  N   UNL A   1      32.009  24.506  26.182  1.00  0.00    -0.249 NA
ATOM     10  C   UNL A   1      30.757  25.001  26.190  1.00  0.00     0.112 A 
ATOM     11  C   UNL A   1      30.659  24.947  23.827  1.00  0.00     0.018 A 
ATOM     12  C   UNL A   1      30.059  25.271  25.040  1.00  0.00     0.021 A 
BRANCH   8  13
ATOM     13  S   UNL A   1      34.311  23.680  25.153  1.00  0.00    -0.092 SA
BRANCH  13  14
ATOM     14  C   UNL A   1      34.254  22.024  25.907  1.00  0.00     0.152 C 
ATOM     15  N   UNL A   1      33.850  19.984  24.839  1.00  0.00    -0.282 N 
ATOM     16  C   UNL A   1      35.206  20.048  25.004  1.00  0.00     0.230 C 
ATOM     17  C   UNL A   1      33.217  21.104  25.315  1.00  0.00     0.243 C 
ATOM     18  O   UNL A   1      36.030  19.231  24.615  1.00  0.00    -0.274 OA
ATOM     19  C   UNL A   1      35.560  21.261  25.811  1.00  0.00     0.125 C 
ATOM     20  O   UNL A   1      32.011  21.311  25.303  1.00  0.00    -0.273 OA
BRANCH  15  21
ATOM     21  C   UNL A   1      33.164  18.978  24.045  1.00  0.00     0.131 C 
BRANCH  21  22
ATOM     22  C   UNL A   1      32.862  17.661  24.762  1.00  0.00     0.050 C 
BRANCH  22  23
ATOM     23  C   UNL A   1      33.321  16.395  24.047  1.00  0.00     0.161 C 
BRANCH  23  24
ATOM     24  O   UNL A   1      33.611  15.314  24.929  1.00  0.00    -0.385 OA
ATOM     25  C   UNL A   1      32.533  14.936  25.772  1.00  0.00     0.194 C 
ENDBRANCH  23  24
ENDBRANCH  22  23
ENDBRANCH  21  22
ENDBRANCH  15  21
ENDBRANCH  13  14
ENDBRANCH   8  13
ENDBRANCH   4   7
ENDBRANCH   2   3
ENDBRANCH   1   2
BRANCH   1  26
ATOM     26  C   UNL A   1      33.699  28.070  21.939  1.00  0.00     0.002 C 
BRANCH  26  27
ATOM     27  C   UNL A   1      33.465  28.913  23.199  1.00  0.00     0.002 C 
BRANCH  27  28
ATOM     28  C   UNL A   1      32.892  28.132  24.385  1.00  0.00     0.021 C 
BRANCH  28  29
ATOM     29  C   UNL A   1      33.290  28.695  25.743  1.00  0.00     0.116 C 
BRANCH  29  30
ATOM     30  N   UNL A   1      32.840  30.070  25.897  1.00  0.00    -0.352 N 
ATOM     31  C   UNL A   1      33.249  31.011  26.805  1.00  0.00     0.251 C 
ATOM     32  H   UNL A   1      32.149  30.364  25.261  1.00  0.00     0.163 HD
ATOM     33  O   UNL A   1      32.593  32.036  26.968  1.00  0.00    -0.269 OA
BRANCH  31  34
ATOM     34  C   UNL A   1      34.479  30.778  27.590  1.00  0.00     0.039 A 
ATOM     35  C   UNL A   1      34.630  29.570  28.273  1.00  0.00     0.014 A 
ATOM     36  C   UNL A   1      35.475  31.757  27.658  1.00  0.00     0.014 A 
ATOM     37  C   UNL A   1      35.801  29.328  28.993  1.00  0.00     0.010 A 
ATOM     38  C   UNL A   1      36.671  31.483  28.311  1.00  0.00     0.010 A 
ATOM     39  C   UNL A   1      36.840  30.273  28.999  1.00  0.00    -0.014 A 
BRANCH  39  40
ATOM     40  C   UNL A   1      38.110  30.013  29.723  1.00  0.00     0.031 A 
ATOM     41  C   UNL A   1      39.144  29.092  29.134  1.00  0.00     0.074 A 
ATOM     42  C   UNL A   1      38.296  30.547  30.946  1.00  0.00     0.049 A 
ATOM     43  N   UNL A   1      40.290  28.714  29.635  1.00  0.00    -0.248 NA
ATOM     44  C   UNL A   1      38.839  28.496  27.821  1.00  0.00     0.031 C 
ATOM     45  C   UNL A   1      37.332  31.389  31.659  1.00  0.00     0.029 A 
ATOM     46  N   UNL A   1      39.350  30.439  31.819  1.00  0.00    -0.354 N 
ATOM     47  C   UNL A   1      40.825  27.812  28.723  1.00  0.00     0.074 A 
ATOM     48  C   UNL A   1      39.864  27.672  27.653  1.00  0.00     0.031 C 
ATOM     49  C   UNL A   1      37.841  31.724  32.855  1.00  0.00     0.029 A 
ATOM     50  C   UNL A   1      39.150  31.100  33.009  1.00  0.00     0.049 A 
ATOM     51  H   UNL A   1      40.171  29.937  31.613  1.00  0.00     0.167 HD
ATOM     52  C   UNL A   1      42.023  27.179  28.758  1.00  0.00     0.034 A 
ATOM     53  C   UNL A   1      39.931  31.184  34.104  1.00  0.00     0.034 A 
ATOM     54  C   UNL A   1      42.993  27.355  29.804  1.00  0.00     0.049 A 
ATOM     55  C   UNL A   1      41.274  30.507  34.097  1.00  0.00     0.074 A 
ATOM     56  C   UNL A   1      44.272  26.831  29.887  1.00  0.00     0.029 A 
ATOM     57  N   UNL A   1      42.792  28.103  30.954  1.00  0.00    -0.354 N 
ATOM     58  N   UNL A   1      41.830  29.789  33.152  1.00  0.00    -0.248 NA
ATOM     59  C   UNL A   1      42.114  30.686  35.290  1.00  0.00     0.031 C 
ATOM     60  C   UNL A   1      44.832  27.239  31.101  1.00  0.00     0.029 A 
ATOM     61  C   UNL A   1      43.917  28.046  31.758  1.00  0.00     0.049 A 
ATOM     62  H   UNL A   1      41.970  28.601  31.167  1.00  0.00     0.167 HD
ATOM     63  C   UNL A   1      43.098  29.462  33.619  1.00  0.00     0.074 A 
ATOM     64  C   UNL A   1      43.235  30.080  34.923  1.00  0.00     0.031 C 
ATOM     65  C   UNL A   1      44.059  28.708  33.030  1.00  0.00     0.034 A 
BRANCH  52  66
ATOM     66  C   UNL A   1      42.372  26.272  27.608  1.00  0.00     0.023 A 
ATOM     67  C   UNL A   1      43.138  26.769  26.533  1.00  0.00     0.012 A 
ATOM     68  C   UNL A   1      42.000  24.914  27.619  1.00  0.00     0.148 A 
ATOM     69  C   UNL A   1      43.500  25.939  25.473  1.00  0.00     0.002 A 
ATOM     70  C   UNL A   1      42.405  24.081  26.583  1.00  0.00     0.091 A 
ATOM     71  F   UNL A   1      41.255  24.464  28.638  1.00  0.00    -0.205 F 
ATOM     72  C   UNL A   1      43.143  24.594  25.504  1.00  0.00     0.022 A 
BRANCH  70  73
ATOM     73  S   UNL A   1      42.068  22.316  26.568  1.00  0.00     0.127 S 
ATOM     74  O   UNL A   1      40.610  22.296  26.448  1.00  0.00    -0.237 OA
ATOM     75  O   UNL A   1      42.784  21.877  25.370  1.00  0.00    -0.237 OA
ATOM     76  O   UNL A   1      42.598  21.794  27.820  1.00  0.00    -0.744 OA
ENDBRANCH  70  73
ENDBRANCH  52  66
BRANCH  53  77
ATOM     77  C   UNL A   1      39.483  31.987  35.277  1.00  0.00     0.023 A 
ATOM     78  C   UNL A   1      38.608  31.413  36.220  1.00  0.00     0.012 A 
ATOM     79  C   UNL A   1      39.934  33.306  35.474  1.00  0.00     0.148 A 
ATOM     80  C   UNL A   1      38.161  32.150  37.317  1.00  0.00     0.002 A 
ATOM     81  C   UNL A   1      39.531  34.016  36.599  1.00  0.00     0.091 A 
ATOM     82  F   UNL A   1      40.758  33.838  34.560  1.00  0.00    -0.205 F 
ATOM     83  C   UNL A   1      38.629  33.446  37.512  1.00  0.00     0.022 A 
BRANCH  81  84
ATOM     84  S   UNL A   1      40.188  35.639  37.000  1.00  0.00     0.127 S 
ATOM     85  O   UNL A   1      39.652  36.455  35.913  1.00  0.00    -0.237 OA
ATOM     86  O   UNL A   1      39.593  35.890  38.312  1.00  0.00    -0.237 OA
ATOM     87  O   UNL A   1      41.636  35.482  37.019  1.00  0.00    -0.744 OA
ENDBRANCH  81  84
ENDBRANCH  53  77
BRANCH  65  88
ATOM     88  C   UNL A   1      45.363  28.540  33.763  1.00  0.00     0.023 A 
ATOM     89  C   UNL A   1      45.549  27.446  34.632  1.00  0.00     0.012 A 
ATOM     90  C   UNL A   1      46.430  29.432  33.536  1.00  0.00     0.148 A 
ATOM     91  C   UNL A   1      46.764  27.264  35.292  1.00  0.00     0.002 A 
ATOM     92  C   UNL A   1      47.655  29.213  34.156  1.00  0.00     0.091 A 
ATOM     93  F   UNL A   1      46.229  30.477  32.720  1.00  0.00    -0.205 F 
ATOM     94  C   UNL A   1      47.819  28.139  35.044  1.00  0.00     0.022 A 
BRANCH  92  95
ATOM     95  S   UNL A   1      49.097  30.230  33.820  1.00  0.00     0.127 S 
ATOM     96  O   UNL A   1      50.104  29.609  34.678  1.00  0.00    -0.237 OA
ATOM     97  O   UNL A   1      49.301  30.015  32.387  1.00  0.00    -0.237 OA
ATOM     98  O   UNL A   1      48.723  31.591  34.179  1.00  0.00    -0.744 OA
ENDBRANCH  92  95
ENDBRANCH  65  88
ENDBRANCH  39  40
ENDBRANCH  31  34
ENDBRANCH  29  30
ENDBRANCH  28  29
ENDBRANCH  27  28
ENDBRANCH  26  27
ENDBRANCH   1  26
TORSDOF 22
ENDMDL
MODEL 3
REMARK VINA RESULT:      -9.2      6.407     10.131
REMARK SMILES COCCCN1C(=O)C[C@@H](Sc2ncccc2C(=O)NCCCCCCNC(=O)c2ccc(-c3c4nc(c(-c5cccc(S(=O)(=O)[O-])c5F)c5ccc([nH]5)c(-c5cccc(S(=O)(=O)[O-])c5F)c5nc(c(-c6cccc(S(=O)(=O)[O-])c6F)c6ccc3[nH]6)C=C5)C=C4)cc2)C1=O
REMARK SMILES IDX 22 1 21 2 20 3 18 4 19 5 17 7 12 8 13 9 14 10 16 11 15 12
REMARK SMILES IDX 11 13 10 14 6 15 7 16 93 17 8 18 9 19 94 20 5 21 4 22 3 23
REMARK SMILES IDX 2 24 1 25 23 26 24 27 25 28 26 29 27 30 28 31 29 33 30 34
REMARK SMILES IDX 31 35 92 36 32 37 91 38 33 39 34 40 35 41 85 42 36 43 90 44
REMARK SMILES IDX 84 45 86 46 37 47 89 48 83 49 82 50 38 52 70 53 50 54 69 55
REMARK SMILES IDX 51 56 54 57 68 58 87 59 52 60 53 61 67 63 88 64 55 65 39 66
REMARK SMILES IDX 40 67 48 68 41 69 43 70 49 71 42 72 44 73 45 74 46 75 47 76
REMARK SMILES IDX 71 77 72 78 80 79 73 80 75 81 81 82 74 83 76 84 77 85 78 86
REMARK SMILES IDX 79 87 56 88 57 89 65 90 58 91 60 92 66 93 59 94 61 95 62 96
REMARK SMILES IDX 63 97 64 98
REMARK H PARENT 20 6 27 32 86 51 54 62
REMARK Flexibility Score: inf
ROOT
ATOM      1  C   UNL A   1      34.705  29.186  27.446  1.00  0.00     0.021 C 
ENDROOT
BRANCH   1   2
ATOM      2  C   UNL A   1      34.042  28.496  26.250  1.00  0.00     0.116 C 
BRANCH   2   3
ATOM      3  N   UNL A   1      32.949  27.675  26.729  1.00  0.00    -0.352 N 
ATOM      4  C   UNL A   1      31.655  27.447  26.341  1.00  0.00     0.254 C 
ATOM      5  O   UNL A   1      30.973  26.891  27.201  1.00  0.00    -0.269 OA
ATOM      6  H   UNL A   1      33.195  27.156  27.528  1.00  0.00     0.163 HD
BRANCH   4   7
ATOM      7  C   UNL A   1      31.110  27.749  24.978  1.00  0.00     0.072 A 
ATOM      8  C   UNL A   1      30.790  26.722  24.071  1.00  0.00     0.109 A 
ATOM      9  N   UNL A   1      30.514  26.978  22.764  1.00  0.00    -0.249 NA
ATOM     10  C   UNL A   1      30.481  28.254  22.334  1.00  0.00     0.112 A 
ATOM     11  C   UNL A   1      30.936  29.061  24.511  1.00  0.00     0.018 A 
ATOM     12  C   UNL A   1      30.649  29.325  23.174  1.00  0.00     0.021 A 
BRANCH   8  13
ATOM     13  S   UNL A   1      30.657  24.984  24.508  1.00  0.00    -0.092 SA
BRANCH  13  14
ATOM     14  C   UNL A   1      32.247  24.239  24.027  1.00  0.00     0.152 C 
ATOM     15  N   UNL A   1      33.368  22.473  25.070  1.00  0.00    -0.282 N 
ATOM     16  C   UNL A   1      32.745  21.921  23.985  1.00  0.00     0.230 C 
ATOM     17  C   UNL A   1      33.114  23.816  25.185  1.00  0.00     0.243 C 
ATOM     18  O   UNL A   1      32.733  20.738  23.672  1.00  0.00    -0.274 OA
ATOM     19  C   UNL A   1      32.109  23.002  23.163  1.00  0.00     0.125 C 
ATOM     20  O   UNL A   1      33.547  24.560  26.055  1.00  0.00    -0.273 OA
BRANCH  15  21
ATOM     21  C   UNL A   1      34.025  21.710  26.119  1.00  0.00     0.131 C 
BRANCH  21  22
ATOM     22  C   UNL A   1      35.548  21.833  26.173  1.00  0.00     0.050 C 
BRANCH  22  23
ATOM     23  C   UNL A   1      36.317  21.032  25.127  1.00  0.00     0.161 C 
BRANCH  23  24
ATOM     24  O   UNL A   1      37.540  21.642  24.725  1.00  0.00    -0.385 OA
ATOM     25  C   UNL A   1      38.659  21.310  25.532  1.00  0.00     0.194 C 
ENDBRANCH  23  24
ENDBRANCH  22  23
ENDBRANCH  21  22
ENDBRANCH  15  21
ENDBRANCH  13  14
ENDBRANCH   8  13
ENDBRANCH   4   7
ENDBRANCH   2   3
ENDBRANCH   1   2
BRANCH   1  26
ATOM     26  C   UNL A   1      34.297  30.662  27.583  1.00  0.00     0.002 C 
BRANCH  26  27
ATOM     27  C   UNL A   1      35.368  31.563  28.212  1.00  0.00     0.002 C 
BRANCH  27  28
ATOM     28  C   UNL A   1      34.853  32.472  29.331  1.00  0.00     0.021 C 
BRANCH  28  29
ATOM     29  C   UNL A   1      35.742  32.491  30.567  1.00  0.00     0.116 C 
BRANCH  29  30
ATOM     30  N   UNL A   1      35.740  31.201  31.239  1.00  0.00    -0.352 N 
ATOM     31  C   UNL A   1      36.742  30.268  31.310  1.00  0.00     0.251 C 
ATOM     32  H   UNL A   1      34.906  30.966  31.706  1.00  0.00     0.163 HD
ATOM     33  O   UNL A   1      36.496  29.128  31.694  1.00  0.00    -0.269 OA
BRANCH  31  34
ATOM     34  C   UNL A   1      38.115  30.644  30.916  1.00  0.00     0.039 A 
ATOM     35  C   UNL A   1      39.035  30.991  31.908  1.00  0.00     0.014 A 
ATOM     36  C   UNL A   1      38.488  30.663  29.569  1.00  0.00     0.014 A 
ATOM     37  C   UNL A   1      40.343  31.319  31.548  1.00  0.00     0.010 A 
ATOM     38  C   UNL A   1      39.810  30.915  29.220  1.00  0.00     0.010 A 
ATOM     39  C   UNL A   1      40.747  31.262  30.204  1.00  0.00    -0.014 A 
BRANCH  39  40
ATOM     40  C   UNL A   1      42.146  31.566  29.809  1.00  0.00     0.031 A 
ATOM     41  C   UNL A   1      42.599  32.993  29.664  1.00  0.00     0.074 A 
ATOM     42  C   UNL A   1      42.984  30.554  29.508  1.00  0.00     0.049 A 
ATOM     43  N   UNL A   1      43.765  33.452  29.290  1.00  0.00    -0.248 NA
ATOM     44  C   UNL A   1      41.606  34.043  29.948  1.00  0.00     0.031 C 
ATOM     45  C   UNL A   1      42.637  29.131  29.532  1.00  0.00     0.029 A 
ATOM     46  N   UNL A   1      44.294  30.569  29.098  1.00  0.00    -0.354 N 
ATOM     47  C   UNL A   1      43.637  34.835  29.260  1.00  0.00     0.074 A 
ATOM     48  C   UNL A   1      42.270  35.142  29.618  1.00  0.00     0.031 C 
ATOM     49  C   UNL A   1      43.707  28.412  29.159  1.00  0.00     0.029 A 
ATOM     50  C   UNL A   1      44.805  29.318  28.840  1.00  0.00     0.049 A 
ATOM     51  H   UNL A   1      44.818  31.396  28.999  1.00  0.00     0.167 HD
ATOM     52  C   UNL A   1      44.579  35.770  28.986  1.00  0.00     0.034 A 
ATOM     53  C   UNL A   1      46.018  28.946  28.388  1.00  0.00     0.034 A 
ATOM     54  C   UNL A   1      45.948  35.460  28.671  1.00  0.00     0.049 A 
ATOM     55  C   UNL A   1      47.059  30.002  28.135  1.00  0.00     0.074 A 
ATOM     56  C   UNL A   1      47.001  36.335  28.468  1.00  0.00     0.029 A 
ATOM     57  N   UNL A   1      46.452  34.180  28.504  1.00  0.00    -0.354 N 
ATOM     58  N   UNL A   1      46.963  31.302  28.269  1.00  0.00    -0.248 NA
ATOM     59  C   UNL A   1      48.386  29.537  27.707  1.00  0.00     0.031 C 
ATOM     60  C   UNL A   1      48.136  35.584  28.149  1.00  0.00     0.029 A 
ATOM     61  C   UNL A   1      47.799  34.240  28.189  1.00  0.00     0.049 A 
ATOM     62  H   UNL A   1      45.931  33.351  28.596  1.00  0.00     0.167 HD
ATOM     63  C   UNL A   1      48.225  31.808  27.980  1.00  0.00     0.074 A 
ATOM     64  C   UNL A   1      49.073  30.671  27.685  1.00  0.00     0.031 C 
ATOM     65  C   UNL A   1      48.643  33.098  27.948  1.00  0.00     0.034 A 
BRANCH  52  66
ATOM     66  C   UNL A   1      44.175  37.219  29.059  1.00  0.00     0.023 A 
ATOM     67  C   UNL A   1      44.045  37.844  30.316  1.00  0.00     0.012 A 
ATOM     68  C   UNL A   1      43.988  37.978  27.888  1.00  0.00     0.148 A 
ATOM     69  C   UNL A   1      43.702  39.193  30.408  1.00  0.00     0.002 A 
ATOM     70  C   UNL A   1      43.695  39.333  27.986  1.00  0.00     0.091 A 
ATOM     71  F   UNL A   1      44.096  37.361  26.703  1.00  0.00    -0.205 F 
ATOM     72  C   UNL A   1      43.539  39.939  29.244  1.00  0.00     0.022 A 
BRANCH  70  73
ATOM     73  S   UNL A   1      43.545  40.400  26.548  1.00  0.00     0.127 S 
ATOM     74  O   UNL A   1      42.228  40.023  26.037  1.00  0.00    -0.237 OA
ATOM     75  O   UNL A   1      43.608  41.733  27.148  1.00  0.00    -0.237 OA
ATOM     76  O   UNL A   1      44.668  40.068  25.683  1.00  0.00    -0.744 OA
ENDBRANCH  70  73
ENDBRANCH  52  66
BRANCH  53  77
ATOM     77  C   UNL A   1      46.331  27.501  28.202  1.00  0.00     0.023 A 
ATOM     78  C   UNL A   1      46.752  26.733  29.307  1.00  0.00     0.012 A 
ATOM     79  C   UNL A   1      46.197  26.879  26.946  1.00  0.00     0.148 A 
ATOM     80  C   UNL A   1      47.068  25.382  29.155  1.00  0.00     0.002 A 
ATOM     81  C   UNL A   1      46.458  25.520  26.814  1.00  0.00     0.091 A 
ATOM     82  F   UNL A   1      45.806  27.629  25.906  1.00  0.00    -0.205 F 
ATOM     83  C   UNL A   1      46.912  24.774  27.913  1.00  0.00     0.022 A 
BRANCH  81  84
ATOM     84  S   UNL A   1      46.155  24.628  25.285  1.00  0.00     0.127 S 
ATOM     85  O   UNL A   1      44.723  24.838  25.094  1.00  0.00    -0.237 OA
ATOM     86  O   UNL A   1      47.015  25.344  24.342  1.00  0.00    -0.237 OA
ATOM     87  O   UNL A   1      46.565  23.254  25.544  1.00  0.00    -0.744 OA
ENDBRANCH  81  84
ENDBRANCH  53  77
BRANCH  65  88
ATOM     88  C   UNL A   1      50.092  33.356  27.626  1.00  0.00     0.023 A 
ATOM     89  C   UNL A   1      51.071  33.236  28.632  1.00  0.00     0.012 A 
ATOM     90  C   UNL A   1      50.488  33.648  26.305  1.00  0.00     0.148 A 
ATOM     91  C   UNL A   1      52.418  33.442  28.337  1.00  0.00     0.002 A 
ATOM     92  C   UNL A   1      51.837  33.799  26.009  1.00  0.00     0.091 A 
ATOM     93  F   UNL A   1      49.540  33.776  25.366  1.00  0.00    -0.205 F 
ATOM     94  C   UNL A   1      52.802  33.710  27.025  1.00  0.00     0.022 A 
BRANCH  92  95
ATOM     95  S   UNL A   1      52.431  34.048  24.332  1.00  0.00     0.127 S 
ATOM     96  O   UNL A   1      51.890  35.369  24.017  1.00  0.00    -0.237 OA
ATOM     97  O   UNL A   1      53.883  34.010  24.508  1.00  0.00    -0.237 OA
ATOM     98  O   UNL A   1      51.889  32.947  23.546  1.00  0.00    -0.744 OA
ENDBRANCH  92  95
ENDBRANCH  65  88
ENDBRANCH  39  40
ENDBRANCH  31  34
ENDBRANCH  29  30
ENDBRANCH  28  29
ENDBRANCH  27  28
ENDBRANCH  26  27
ENDBRANCH   1  26
TORSDOF 22
ENDMDL
