MODEL 1
REMARK VINA RESULT:     -11.8      0.000      0.000
REMARK SMILES Cc1n[nH]c(C(=O)N2CCCC[C@H]2CCC(=O)NCCCCCCNC(=O)c2ccc(-c3c4nc(c(-c5cccc(S(=O)(=O)[O-])c5F)c5ccc([nH]5)c(-c5cccc(S(=O)(=O)[O-])c5F)c5nc(c(-c6cccc(S(=O)(=O)[O-])c6F)c6ccc3[nH]6)C=C5)C=C4)cc2)n1
REMARK SMILES IDX 21 1 20 2 19 3 18 4 16 5 17 6 15 8 14 9 13 10 8 11 9 12
REMARK SMILES IDX 10 13 12 14 11 15 6 16 7 17 5 18 1 19 2 20 3 21 91 22 4 23
REMARK SMILES IDX 22 25 23 26 24 27 25 28 26 29 27 31 28 32 29 33 90 34 30 35
REMARK SMILES IDX 89 36 31 37 32 38 33 39 83 40 34 41 88 42 82 43 84 44 35 45
REMARK SMILES IDX 87 46 81 47 80 48 36 50 68 51 48 52 67 53 49 54 52 55 66 56
REMARK SMILES IDX 85 57 50 58 51 59 65 61 86 62 53 63 37 64 38 65 46 66 39 67
REMARK SMILES IDX 41 68 47 69 40 70 42 71 43 72 44 73 45 74 69 75 70 76 78 77
REMARK SMILES IDX 71 78 73 79 79 80 72 81 74 82 75 83 76 84 77 85 54 86 55 87
REMARK SMILES IDX 63 88 56 89 58 90 64 91 57 92 59 93 60 94 61 95 62 96
REMARK H PARENT 18 7 4 24 25 30 84 49 52 60
REMARK Flexibility Score: inf
ROOT
ATOM      1  C   UNL A   1      31.553  29.168  24.967  1.00  0.00     0.002 C 
ENDROOT
BRANCH   1   2
ATOM      2  C   UNL A   1      31.545  28.814  23.476  1.00  0.00     0.021 C 
BRANCH   2   3
ATOM      3  C   UNL A   1      32.903  28.669  22.771  1.00  0.00     0.116 C 
BRANCH   3   4
ATOM      4  N   UNL A   1      33.064  27.490  21.928  1.00  0.00    -0.356 N 
ATOM      5  C   UNL A   1      33.352  26.187  22.214  1.00  0.00     0.220 C 
ATOM      6  O   UNL A   1      33.377  25.382  21.278  1.00  0.00    -0.275 OA
ATOM      7  H   UNL A   1      32.941  27.669  20.968  1.00  0.00     0.163 HD
BRANCH   5   8
ATOM      8  C   UNL A   1      33.685  25.737  23.625  1.00  0.00     0.102 C 
BRANCH   8   9
ATOM      9  C   UNL A   1      34.376  24.361  23.754  1.00  0.00     0.035 C 
BRANCH   9  10
ATOM     10  C   UNL A   1      33.835  23.501  24.907  1.00  0.00     0.086 C 
ATOM     11  N   UNL A   1      33.479  22.127  24.540  1.00  0.00    -0.333 N 
ATOM     12  C   UNL A   1      34.565  21.141  24.493  1.00  0.00     0.120 C 
ATOM     13  C   UNL A   1      35.503  21.191  25.702  1.00  0.00     0.022 C 
ATOM     14  C   UNL A   1      34.747  23.471  26.148  1.00  0.00     0.025 C 
ATOM     15  C   UNL A   1      35.977  22.607  25.949  1.00  0.00     0.004 C 
BRANCH  11  16
ATOM     16  C   UNL A   1      32.244  21.657  25.060  1.00  0.00     0.291 C 
ATOM     17  O   UNL A   1      32.055  20.442  25.173  1.00  0.00    -0.265 OA
BRANCH  16  18
ATOM     18  C   UNL A   1      31.388  22.693  25.609  1.00  0.00     0.214 A 
ATOM     19  C   UNL A   1      29.864  25.865  25.826  1.00  0.00     0.092 C 
ATOM     20  C   UNL A   1      30.268  24.450  25.969  1.00  0.00     0.148 A 
ATOM     21  N   UNL A   1      30.083  23.753  27.099  1.00  0.00    -0.159 NA
ATOM     22  N   UNL A   1      30.919  23.756  24.975  1.00  0.00    -0.207 NA
ATOM     23  N   UNL A   1      30.937  22.736  26.894  1.00  0.00    -0.255 N 
ATOM     24  H   UNL A   1      31.206  22.097  27.592  1.00  0.00     0.192 HD
ENDBRANCH  16  18
ENDBRANCH  11  16
ENDBRANCH   9  10
ENDBRANCH   8   9
ENDBRANCH   5   8
ENDBRANCH   3   4
ENDBRANCH   2   3
ENDBRANCH   1   2
BRANCH   1  25
ATOM     25  C   UNL A   1      32.921  29.466  25.579  1.00  0.00     0.002 C 
BRANCH  25  26
ATOM     26  C   UNL A   1      32.905  30.162  26.945  1.00  0.00     0.021 C 
BRANCH  26  27
ATOM     27  C   UNL A   1      34.262  30.691  27.385  1.00  0.00     0.116 C 
BRANCH  27  28
ATOM     28  N   UNL A   1      34.145  31.696  28.441  1.00  0.00    -0.352 N 
ATOM     29  C   UNL A   1      34.906  31.797  29.592  1.00  0.00     0.251 C 
ATOM     30  H   UNL A   1      33.446  32.377  28.319  1.00  0.00     0.163 HD
ATOM     31  O   UNL A   1      34.486  32.383  30.574  1.00  0.00    -0.269 OA
BRANCH  29  32
ATOM     32  C   UNL A   1      36.255  31.198  29.589  1.00  0.00     0.039 A 
ATOM     33  C   UNL A   1      37.400  31.967  29.363  1.00  0.00     0.014 A 
ATOM     34  C   UNL A   1      36.347  29.824  29.801  1.00  0.00     0.014 A 
ATOM     35  C   UNL A   1      38.642  31.336  29.382  1.00  0.00     0.010 A 
ATOM     36  C   UNL A   1      37.569  29.243  29.998  1.00  0.00     0.010 A 
ATOM     37  C   UNL A   1      38.711  29.970  29.692  1.00  0.00    -0.014 A 
BRANCH  37  38
ATOM     38  C   UNL A   1      39.982  29.265  29.731  1.00  0.00     0.031 A 
ATOM     39  C   UNL A   1      40.525  29.021  31.092  1.00  0.00     0.074 A 
ATOM     40  C   UNL A   1      40.506  28.683  28.632  1.00  0.00     0.049 A 
ATOM     41  N   UNL A   1      41.580  29.542  31.628  1.00  0.00    -0.248 NA
ATOM     42  C   UNL A   1      39.726  28.206  32.018  1.00  0.00     0.031 C 
ATOM     43  C   UNL A   1      39.908  28.532  27.295  1.00  0.00     0.029 A 
ATOM     44  N   UNL A   1      41.645  27.956  28.525  1.00  0.00    -0.354 N 
ATOM     45  C   UNL A   1      41.697  28.952  32.886  1.00  0.00     0.074 A 
ATOM     46  C   UNL A   1      40.439  28.300  33.142  1.00  0.00     0.031 C 
ATOM     47  C   UNL A   1      40.551  27.553  26.621  1.00  0.00     0.029 A 
ATOM     48  C   UNL A   1      41.711  27.154  27.391  1.00  0.00     0.049 A 
ATOM     49  H   UNL A   1      42.367  27.993  29.195  1.00  0.00     0.167 HD
ATOM     50  C   UNL A   1      42.900  28.856  33.519  1.00  0.00     0.034 A 
ATOM     51  C   UNL A   1      42.641  26.205  27.136  1.00  0.00     0.034 A 
ATOM     52  C   UNL A   1      43.893  29.684  32.882  1.00  0.00     0.049 A 
ATOM     53  C   UNL A   1      43.803  26.508  28.007  1.00  0.00     0.074 A 
ATOM     54  C   UNL A   1      44.032  31.037  32.647  1.00  0.00     0.029 A 
ATOM     55  N   UNL A   1      44.757  29.060  32.014  1.00  0.00    -0.354 N 
ATOM     56  N   UNL A   1      44.534  27.584  27.895  1.00  0.00    -0.248 NA
ATOM     57  C   UNL A   1      43.876  25.833  29.293  1.00  0.00     0.031 C 
ATOM     58  C   UNL A   1      44.588  31.123  31.336  1.00  0.00     0.029 A 
ATOM     59  C   UNL A   1      44.818  29.823  30.876  1.00  0.00     0.049 A 
ATOM     60  H   UNL A   1      45.243  28.219  32.179  1.00  0.00     0.167 HD
ATOM     61  C   UNL A   1      44.796  27.967  29.205  1.00  0.00     0.074 A 
ATOM     62  C   UNL A   1      44.459  26.795  30.013  1.00  0.00     0.031 C 
ATOM     63  C   UNL A   1      44.982  29.279  29.543  1.00  0.00     0.034 A 
BRANCH  50  64
ATOM     64  C   UNL A   1      43.299  27.778  34.503  1.00  0.00     0.023 A 
ATOM     65  C   UNL A   1      43.729  28.198  35.784  1.00  0.00     0.012 A 
ATOM     66  C   UNL A   1      43.524  26.424  34.169  1.00  0.00     0.148 A 
ATOM     67  C   UNL A   1      44.391  27.332  36.660  1.00  0.00     0.002 A 
ATOM     68  C   UNL A   1      44.114  25.547  35.072  1.00  0.00     0.091 A 
ATOM     69  F   UNL A   1      43.293  25.994  32.926  1.00  0.00    -0.205 F 
ATOM     70  C   UNL A   1      44.578  26.003  36.308  1.00  0.00     0.022 A 
BRANCH  68  71
ATOM     71  S   UNL A   1      44.338  23.805  34.686  1.00  0.00     0.127 S 
ATOM     72  O   UNL A   1      45.311  23.868  33.599  1.00  0.00    -0.237 OA
ATOM     73  O   UNL A   1      44.854  23.280  35.950  1.00  0.00    -0.237 OA
ATOM     74  O   UNL A   1      43.014  23.310  34.333  1.00  0.00    -0.744 OA
ENDBRANCH  68  71
ENDBRANCH  50  64
BRANCH  51  75
ATOM     75  C   UNL A   1      42.535  24.942  26.370  1.00  0.00     0.023 A 
ATOM     76  C   UNL A   1      43.533  24.624  25.428  1.00  0.00     0.012 A 
ATOM     77  C   UNL A   1      41.628  23.924  26.748  1.00  0.00     0.148 A 
ATOM     78  C   UNL A   1      43.649  23.331  24.905  1.00  0.00     0.002 A 
ATOM     79  C   UNL A   1      41.751  22.637  26.225  1.00  0.00     0.091 A 
ATOM     80  F   UNL A   1      40.706  24.191  27.683  1.00  0.00    -0.205 F 
ATOM     81  C   UNL A   1      42.767  22.336  25.310  1.00  0.00     0.022 A 
BRANCH  79  82
ATOM     82  S   UNL A   1      40.674  21.289  26.721  1.00  0.00     0.127 S 
ATOM     83  O   UNL A   1      41.294  20.125  26.085  1.00  0.00    -0.237 OA
ATOM     84  O   UNL A   1      40.780  21.317  28.174  1.00  0.00    -0.237 OA
ATOM     85  O   UNL A   1      39.365  21.612  26.175  1.00  0.00    -0.744 OA
ENDBRANCH  79  82
ENDBRANCH  51  75
BRANCH  63  86
ATOM     86  C   UNL A   1      45.108  30.294  28.428  1.00  0.00     0.023 A 
ATOM     87  C   UNL A   1      43.983  30.910  27.840  1.00  0.00     0.012 A 
ATOM     88  C   UNL A   1      46.387  30.781  28.110  1.00  0.00     0.148 A 
ATOM     89  C   UNL A   1      44.131  31.976  26.945  1.00  0.00     0.002 A 
ATOM     90  C   UNL A   1      46.528  31.871  27.256  1.00  0.00     0.091 A 
ATOM     91  F   UNL A   1      47.450  30.192  28.679  1.00  0.00    -0.205 F 
ATOM     92  C   UNL A   1      45.403  32.465  26.665  1.00  0.00     0.022 A 
BRANCH  90  93
ATOM     93  S   UNL A   1      48.128  32.631  26.964  1.00  0.00     0.127 S 
ATOM     94  O   UNL A   1      48.480  33.124  28.294  1.00  0.00    -0.237 OA
ATOM     95  O   UNL A   1      48.934  31.502  26.497  1.00  0.00    -0.237 OA
ATOM     96  O   UNL A   1      47.904  33.657  25.953  1.00  0.00    -0.744 OA
ENDBRANCH  90  93
ENDBRANCH  63  86
ENDBRANCH  37  38
ENDBRANCH  29  32
ENDBRANCH  27  28
ENDBRANCH  26  27
ENDBRANCH  25  26
ENDBRANCH   1  25
TORSDOF 20
ENDMDL
MODEL 2
REMARK VINA RESULT:     -11.6      1.316      2.542
REMARK SMILES Cc1n[nH]c(C(=O)N2CCCC[C@H]2CCC(=O)NCCCCCCNC(=O)c2ccc(-c3c4nc(c(-c5cccc(S(=O)(=O)[O-])c5F)c5ccc([nH]5)c(-c5cccc(S(=O)(=O)[O-])c5F)c5nc(c(-c6cccc(S(=O)(=O)[O-])c6F)c6ccc3[nH]6)C=C5)C=C4)cc2)n1
REMARK SMILES IDX 21 1 20 2 19 3 18 4 16 5 17 6 15 8 14 9 13 10 8 11 9 12
REMARK SMILES IDX 10 13 12 14 11 15 6 16 7 17 5 18 1 19 2 20 3 21 91 22 4 23
REMARK SMILES IDX 22 25 23 26 24 27 25 28 26 29 27 31 28 32 29 33 90 34 30 35
REMARK SMILES IDX 89 36 31 37 32 38 33 39 83 40 34 41 88 42 82 43 84 44 35 45
REMARK SMILES IDX 87 46 81 47 80 48 36 50 68 51 48 52 67 53 49 54 52 55 66 56
REMARK SMILES IDX 85 57 50 58 51 59 65 61 86 62 53 63 37 64 38 65 46 66 39 67
REMARK SMILES IDX 41 68 47 69 40 70 42 71 43 72 44 73 45 74 69 75 70 76 78 77
REMARK SMILES IDX 71 78 73 79 79 80 72 81 74 82 75 83 76 84 77 85 54 86 55 87
REMARK SMILES IDX 63 88 56 89 58 90 64 91 57 92 59 93 60 94 61 95 62 96
REMARK H PARENT 18 7 4 24 25 30 84 49 52 60
REMARK Flexibility Score: inf
ROOT
ATOM      1  C   UNL A   1      32.149  27.935  25.788  1.00  0.00     0.002 C 
ENDROOT
BRANCH   1   2
ATOM      2  C   UNL A   1      31.502  26.753  26.519  1.00  0.00     0.021 C 
BRANCH   2   3
ATOM      3  C   UNL A   1      30.474  25.913  25.744  1.00  0.00     0.116 C 
BRANCH   3   4
ATOM      4  N   UNL A   1      29.797  24.869  26.504  1.00  0.00    -0.356 N 
ATOM      5  C   UNL A   1      30.148  23.589  26.824  1.00  0.00     0.220 C 
ATOM      6  O   UNL A   1      29.378  22.941  27.539  1.00  0.00    -0.275 OA
ATOM      7  H   UNL A   1      28.918  25.140  26.854  1.00  0.00     0.163 HD
BRANCH   5   8
ATOM      8  C   UNL A   1      31.416  22.953  26.283  1.00  0.00     0.102 C 
BRANCH   8   9
ATOM      9  C   UNL A   1      32.740  23.425  26.926  1.00  0.00     0.035 C 
BRANCH   9  10
ATOM     10  C   UNL A   1      33.993  22.998  26.147  1.00  0.00     0.086 C 
ATOM     11  N   UNL A   1      33.743  22.088  25.025  1.00  0.00    -0.333 N 
ATOM     12  C   UNL A   1      33.322  22.689  23.753  1.00  0.00     0.120 C 
ATOM     13  C   UNL A   1      34.150  23.906  23.336  1.00  0.00     0.022 C 
ATOM     14  C   UNL A   1      34.859  24.174  25.659  1.00  0.00     0.025 C 
ATOM     15  C   UNL A   1      34.249  24.898  24.475  1.00  0.00     0.004 C 
BRANCH  11  16
ATOM     16  C   UNL A   1      34.637  20.990  24.919  1.00  0.00     0.291 C 
ATOM     17  O   UNL A   1      35.854  21.196  24.898  1.00  0.00    -0.265 OA
BRANCH  16  18
ATOM     18  C   UNL A   1      34.010  19.687  25.053  1.00  0.00     0.214 A 
ATOM     19  C   UNL A   1      33.156  16.388  24.149  1.00  0.00     0.092 C 
ATOM     20  C   UNL A   1      33.386  17.680  24.831  1.00  0.00     0.148 A 
ATOM     21  N   UNL A   1      32.625  18.108  25.850  1.00  0.00    -0.159 NA
ATOM     22  N   UNL A   1      34.359  18.569  24.438  1.00  0.00    -0.207 NA
ATOM     23  N   UNL A   1      32.932  19.415  25.842  1.00  0.00    -0.255 N 
ATOM     24  H   UNL A   1      32.437  20.098  26.348  1.00  0.00     0.192 HD
ENDBRANCH  16  18
ENDBRANCH  11  16
ENDBRANCH   9  10
ENDBRANCH   8   9
ENDBRANCH   5   8
ENDBRANCH   3   4
ENDBRANCH   2   3
ENDBRANCH   1   2
BRANCH   1  25
ATOM     25  C   UNL A   1      33.333  28.594  26.494  1.00  0.00     0.002 C 
BRANCH  25  26
ATOM     26  C   UNL A   1      33.057  29.967  27.119  1.00  0.00     0.021 C 
BRANCH  26  27
ATOM     27  C   UNL A   1      34.304  30.817  27.319  1.00  0.00     0.116 C 
BRANCH  27  28
ATOM     28  N   UNL A   1      34.140  31.791  28.396  1.00  0.00    -0.352 N 
ATOM     29  C   UNL A   1      34.865  31.874  29.572  1.00  0.00     0.251 C 
ATOM     30  H   UNL A   1      33.433  32.465  28.271  1.00  0.00     0.163 HD
ATOM     31  O   UNL A   1      34.406  32.427  30.555  1.00  0.00    -0.269 OA
BRANCH  29  32
ATOM     32  C   UNL A   1      36.222  31.296  29.593  1.00  0.00     0.039 A 
ATOM     33  C   UNL A   1      37.364  32.097  29.490  1.00  0.00     0.014 A 
ATOM     34  C   UNL A   1      36.329  29.911  29.702  1.00  0.00     0.014 A 
ATOM     35  C   UNL A   1      38.614  31.484  29.525  1.00  0.00     0.010 A 
ATOM     36  C   UNL A   1      37.549  29.334  29.917  1.00  0.00     0.010 A 
ATOM     37  C   UNL A   1      38.692  30.099  29.731  1.00  0.00    -0.014 A 
BRANCH  37  38
ATOM     38  C   UNL A   1      39.972  29.412  29.783  1.00  0.00     0.031 A 
ATOM     39  C   UNL A   1      40.482  29.132  31.149  1.00  0.00     0.074 A 
ATOM     40  C   UNL A   1      40.534  28.873  28.679  1.00  0.00     0.049 A 
ATOM     41  N   UNL A   1      41.514  29.650  31.730  1.00  0.00    -0.248 NA
ATOM     42  C   UNL A   1      39.670  28.276  32.026  1.00  0.00     0.031 C 
ATOM     43  C   UNL A   1      39.975  28.756  27.323  1.00  0.00     0.029 A 
ATOM     44  N   UNL A   1      41.687  28.166  28.581  1.00  0.00    -0.354 N 
ATOM     45  C   UNL A   1      41.606  29.021  32.971  1.00  0.00     0.074 A 
ATOM     46  C   UNL A   1      40.351  28.344  33.172  1.00  0.00     0.031 C 
ATOM     47  C   UNL A   1      40.651  27.809  26.636  1.00  0.00     0.029 A 
ATOM     48  C   UNL A   1      41.795  27.403  27.425  1.00  0.00     0.049 A 
ATOM     49  H   UNL A   1      42.389  28.192  29.271  1.00  0.00     0.167 HD
ATOM     50  C   UNL A   1      42.793  28.922  33.634  1.00  0.00     0.034 A 
ATOM     51  C   UNL A   1      42.746  26.476  27.165  1.00  0.00     0.034 A 
ATOM     52  C   UNL A   1      43.790  29.785  33.051  1.00  0.00     0.049 A 
ATOM     53  C   UNL A   1      43.880  26.767  28.077  1.00  0.00     0.074 A 
ATOM     54  C   UNL A   1      43.914  31.147  32.863  1.00  0.00     0.029 A 
ATOM     55  N   UNL A   1      44.687  29.202  32.187  1.00  0.00    -0.354 N 
ATOM     56  N   UNL A   1      44.597  27.856  28.019  1.00  0.00    -0.248 NA
ATOM     57  C   UNL A   1      43.929  26.052  29.342  1.00  0.00     0.031 C 
ATOM     58  C   UNL A   1      44.504  31.283  31.572  1.00  0.00     0.029 A 
ATOM     59  C   UNL A   1      44.767  30.002  31.077  1.00  0.00     0.049 A 
ATOM     60  H   UNL A   1      45.180  28.363  32.338  1.00  0.00     0.167 HD
ATOM     61  C   UNL A   1      44.818  28.201  29.348  1.00  0.00     0.074 A 
ATOM     62  C   UNL A   1      44.477  26.999  30.108  1.00  0.00     0.031 C 
ATOM     63  C   UNL A   1      44.974  29.504  29.732  1.00  0.00     0.034 A 
BRANCH  50  64
ATOM     64  C   UNL A   1      43.181  27.820  34.593  1.00  0.00     0.023 A 
ATOM     65  C   UNL A   1      43.582  28.205  35.894  1.00  0.00     0.012 A 
ATOM     66  C   UNL A   1      43.425  26.478  34.224  1.00  0.00     0.148 A 
ATOM     67  C   UNL A   1      44.234  27.319  36.759  1.00  0.00     0.002 A 
ATOM     68  C   UNL A   1      44.005  25.579  35.113  1.00  0.00     0.091 A 
ATOM     69  F   UNL A   1      43.223  26.083  32.964  1.00  0.00    -0.205 F 
ATOM     70  C   UNL A   1      44.440  26.002  36.371  1.00  0.00     0.022 A 
BRANCH  68  71
ATOM     71  S   UNL A   1      44.252  23.852  34.680  1.00  0.00     0.127 S 
ATOM     72  O   UNL A   1      45.296  23.949  33.664  1.00  0.00    -0.237 OA
ATOM     73  O   UNL A   1      44.680  23.280  35.957  1.00  0.00    -0.237 OA
ATOM     74  O   UNL A   1      42.954  23.375  34.221  1.00  0.00    -0.744 OA
ENDBRANCH  68  71
ENDBRANCH  50  64
BRANCH  51  75
ATOM     75  C   UNL A   1      42.680  25.237  26.357  1.00  0.00     0.023 A 
ATOM     76  C   UNL A   1      43.651  25.014  25.360  1.00  0.00     0.012 A 
ATOM     77  C   UNL A   1      41.853  24.152  26.734  1.00  0.00     0.148 A 
ATOM     78  C   UNL A   1      43.820  23.750  24.784  1.00  0.00     0.002 A 
ATOM     79  C   UNL A   1      42.029  22.895  26.158  1.00  0.00     0.091 A 
ATOM     80  F   UNL A   1      40.961  24.329  27.719  1.00  0.00    -0.205 F 
ATOM     81  C   UNL A   1      43.017  22.690  25.188  1.00  0.00     0.022 A 
BRANCH  79  82
ATOM     82  S   UNL A   1      41.057  21.467  26.648  1.00  0.00     0.127 S 
ATOM     83  O   UNL A   1      39.686  21.894  26.363  1.00  0.00    -0.237 OA
ATOM     84  O   UNL A   1      41.564  20.422  25.767  1.00  0.00    -0.237 OA
ATOM     85  O   UNL A   1      41.319  21.282  28.066  1.00  0.00    -0.744 OA
ENDBRANCH  79  82
ENDBRANCH  51  75
BRANCH  63  86
ATOM     86  C   UNL A   1      45.115  30.556  28.654  1.00  0.00     0.023 A 
ATOM     87  C   UNL A   1      43.997  31.134  28.015  1.00  0.00     0.012 A 
ATOM     88  C   UNL A   1      46.384  31.114  28.427  1.00  0.00     0.148 A 
ATOM     89  C   UNL A   1      44.144  32.231  27.159  1.00  0.00     0.002 A 
ATOM     90  C   UNL A   1      46.521  32.234  27.613  1.00  0.00     0.091 A 
ATOM     91  F   UNL A   1      47.440  30.561  29.043  1.00  0.00    -0.205 F 
ATOM     92  C   UNL A   1      45.404  32.790  26.970  1.00  0.00     0.022 A 
BRANCH  90  93
ATOM     93  S   UNL A   1      48.094  33.079  27.437  1.00  0.00     0.127 S 
ATOM     94  O   UNL A   1      48.317  33.014  25.994  1.00  0.00    -0.237 OA
ATOM     95  O   UNL A   1      47.794  34.417  27.950  1.00  0.00    -0.237 OA
ATOM     96  O   UNL A   1      49.043  32.332  28.253  1.00  0.00    -0.744 OA
ENDBRANCH  90  93
ENDBRANCH  63  86
ENDBRANCH  37  38
ENDBRANCH  29  32
ENDBRANCH  27  28
ENDBRANCH  26  27
ENDBRANCH  25  26
ENDBRANCH   1  25
TORSDOF 20
ENDMDL
MODEL 3
REMARK VINA RESULT:     -11.3      3.373      8.813
REMARK SMILES Cc1n[nH]c(C(=O)N2CCCC[C@H]2CCC(=O)NCCCCCCNC(=O)c2ccc(-c3c4nc(c(-c5cccc(S(=O)(=O)[O-])c5F)c5ccc([nH]5)c(-c5cccc(S(=O)(=O)[O-])c5F)c5nc(c(-c6cccc(S(=O)(=O)[O-])c6F)c6ccc3[nH]6)C=C5)C=C4)cc2)n1
REMARK SMILES IDX 21 1 20 2 19 3 18 4 16 5 17 6 15 8 14 9 13 10 8 11 9 12
REMARK SMILES IDX 10 13 12 14 11 15 6 16 7 17 5 18 1 19 2 20 3 21 91 22 4 23
REMARK SMILES IDX 22 25 23 26 24 27 25 28 26 29 27 31 28 32 29 33 90 34 30 35
REMARK SMILES IDX 89 36 31 37 32 38 33 39 83 40 34 41 88 42 82 43 84 44 35 45
REMARK SMILES IDX 87 46 81 47 80 48 36 50 68 51 48 52 67 53 49 54 52 55 66 56
REMARK SMILES IDX 85 57 50 58 51 59 65 61 86 62 53 63 37 64 38 65 46 66 39 67
REMARK SMILES IDX 41 68 47 69 40 70 42 71 43 72 44 73 45 74 69 75 70 76 78 77
REMARK SMILES IDX 71 78 73 79 79 80 72 81 74 82 75 83 76 84 77 85 54 86 55 87
REMARK SMILES IDX 63 88 56 89 58 90 64 91 57 92 59 93 60 94 61 95 62 96
REMARK H PARENT 18 7 4 24 25 30 84 49 52 60
REMARK Flexibility Score: inf
ROOT
ATOM      1  C   UNL A   1      35.232  22.716  24.483  1.00  0.00     0.002 C 
ENDROOT
BRANCH   1   2
ATOM      2  C   UNL A   1      34.714  21.773  25.576  1.00  0.00     0.021 C 
BRANCH   2   3
ATOM      3  C   UNL A   1      34.462  22.370  26.970  1.00  0.00     0.116 C 
BRANCH   3   4
ATOM      4  N   UNL A   1      33.069  22.632  27.312  1.00  0.00    -0.356 N 
ATOM      5  C   UNL A   1      32.209  23.635  26.965  1.00  0.00     0.220 C 
ATOM      6  O   UNL A   1      31.047  23.567  27.375  1.00  0.00    -0.275 OA
ATOM      7  H   UNL A   1      32.672  21.956  27.907  1.00  0.00     0.163 HD
BRANCH   5   8
ATOM      8  C   UNL A   1      32.668  24.827  26.144  1.00  0.00     0.102 C 
BRANCH   8   9
ATOM      9  C   UNL A   1      31.550  25.735  25.583  1.00  0.00     0.035 C 
BRANCH   9  10
ATOM     10  C   UNL A   1      31.939  26.469  24.291  1.00  0.00     0.086 C 
ATOM     11  N   UNL A   1      31.111  27.636  23.970  1.00  0.00    -0.333 N 
ATOM     12  C   UNL A   1      31.449  28.902  24.632  1.00  0.00     0.120 C 
ATOM     13  C   UNL A   1      32.943  29.233  24.617  1.00  0.00     0.022 C 
ATOM     14  C   UNL A   1      33.424  26.870  24.220  1.00  0.00     0.025 C 
ATOM     15  C   UNL A   1      33.754  28.053  25.109  1.00  0.00     0.004 C 
BRANCH  11  16
ATOM     16  C   UNL A   1      30.704  27.741  22.614  1.00  0.00     0.291 C 
ATOM     17  O   UNL A   1      31.092  26.902  21.796  1.00  0.00    -0.265 OA
BRANCH  16  18
ATOM     18  C   UNL A   1      29.682  28.742  22.367  1.00  0.00     0.214 A 
ATOM     19  C   UNL A   1      28.366  31.871  21.413  1.00  0.00     0.092 C 
ATOM     20  C   UNL A   1      28.590  30.462  21.802  1.00  0.00     0.148 A 
ATOM     21  N   UNL A   1      27.664  29.729  22.437  1.00  0.00    -0.159 NA
ATOM     22  N   UNL A   1      29.785  29.812  21.595  1.00  0.00    -0.207 NA
ATOM     23  N   UNL A   1      28.435  28.738  22.918  1.00  0.00    -0.255 N 
ATOM     24  H   UNL A   1      28.133  28.086  23.589  1.00  0.00     0.192 HD
ENDBRANCH  16  18
ENDBRANCH  11  16
ENDBRANCH   9  10
ENDBRANCH   8   9
ENDBRANCH   5   8
ENDBRANCH   3   4
ENDBRANCH   2   3
ENDBRANCH   1   2
BRANCH   1  25
ATOM     25  C   UNL A   1      36.750  22.859  24.385  1.00  0.00     0.002 C 
BRANCH  25  26
ATOM     26  C   UNL A   1      37.570  21.887  25.242  1.00  0.00     0.021 C 
BRANCH  26  27
ATOM     27  C   UNL A   1      38.604  22.566  26.128  1.00  0.00     0.116 C 
BRANCH  27  28
ATOM     28  N   UNL A   1      39.944  22.014  25.933  1.00  0.00    -0.352 N 
ATOM     29  C   UNL A   1      41.147  22.696  25.972  1.00  0.00     0.251 C 
ATOM     30  H   UNL A   1      39.996  21.048  25.752  1.00  0.00     0.163 HD
ATOM     31  O   UNL A   1      42.135  22.260  25.409  1.00  0.00    -0.269 OA
BRANCH  29  32
ATOM     32  C   UNL A   1      41.209  23.954  26.741  1.00  0.00     0.039 A 
ATOM     33  C   UNL A   1      41.895  24.041  27.956  1.00  0.00     0.014 A 
ATOM     34  C   UNL A   1      40.536  25.057  26.220  1.00  0.00     0.014 A 
ATOM     35  C   UNL A   1      41.918  25.263  28.623  1.00  0.00     0.010 A 
ATOM     36  C   UNL A   1      40.711  26.292  26.781  1.00  0.00     0.010 A 
ATOM     37  C   UNL A   1      41.313  26.380  28.027  1.00  0.00    -0.014 A 
BRANCH  37  38
ATOM     38  C   UNL A   1      41.314  27.679  28.679  1.00  0.00     0.031 A 
ATOM     39  C   UNL A   1      42.301  28.651  28.145  1.00  0.00     0.074 A 
ATOM     40  C   UNL A   1      40.342  28.042  29.544  1.00  0.00     0.049 A 
ATOM     41  N   UNL A   1      43.351  29.120  28.735  1.00  0.00    -0.248 NA
ATOM     42  C   UNL A   1      42.185  29.047  26.733  1.00  0.00     0.031 C 
ATOM     43  C   UNL A   1      39.107  27.323  29.895  1.00  0.00     0.029 A 
ATOM     44  N   UNL A   1      40.183  29.226  30.184  1.00  0.00    -0.354 N 
ATOM     45  C   UNL A   1      43.910  30.038  27.847  1.00  0.00     0.074 A 
ATOM     46  C   UNL A   1      43.272  29.805  26.577  1.00  0.00     0.031 C 
ATOM     47  C   UNL A   1      38.226  28.185  30.450  1.00  0.00     0.029 A 
ATOM     48  C   UNL A   1      38.900  29.448  30.671  1.00  0.00     0.049 A 
ATOM     49  H   UNL A   1      40.916  29.875  30.296  1.00  0.00     0.167 HD
ATOM     50  C   UNL A   1      44.690  31.066  28.281  1.00  0.00     0.034 A 
ATOM     51  C   UNL A   1      38.428  30.609  31.181  1.00  0.00     0.034 A 
ATOM     52  C   UNL A   1      45.082  30.880  29.656  1.00  0.00     0.049 A 
ATOM     53  C   UNL A   1      39.613  31.411  31.570  1.00  0.00     0.074 A 
ATOM     54  C   UNL A   1      45.809  29.929  30.344  1.00  0.00     0.029 A 
ATOM     55  N   UNL A   1      44.359  31.561  30.606  1.00  0.00    -0.354 N 
ATOM     56  N   UNL A   1      40.446  31.065  32.513  1.00  0.00    -0.248 NA
ATOM     57  C   UNL A   1      40.125  32.371  30.605  1.00  0.00     0.031 C 
ATOM     58  C   UNL A   1      45.118  29.768  31.581  1.00  0.00     0.029 A 
ATOM     59  C   UNL A   1      44.053  30.673  31.604  1.00  0.00     0.049 A 
ATOM     60  H   UNL A   1      44.108  32.513  30.575  1.00  0.00     0.167 HD
ATOM     61  C   UNL A   1      41.700  31.403  32.015  1.00  0.00     0.074 A 
ATOM     62  C   UNL A   1      41.427  32.297  30.890  1.00  0.00     0.031 C 
ATOM     63  C   UNL A   1      42.822  30.705  32.368  1.00  0.00     0.034 A 
BRANCH  50  64
ATOM     64  C   UNL A   1      44.841  32.410  27.604  1.00  0.00     0.023 A 
ATOM     65  C   UNL A   1      46.037  32.642  26.884  1.00  0.00     0.012 A 
ATOM     66  C   UNL A   1      44.016  33.532  27.843  1.00  0.00     0.148 A 
ATOM     67  C   UNL A   1      46.415  33.924  26.473  1.00  0.00     0.002 A 
ATOM     68  C   UNL A   1      44.357  34.793  27.366  1.00  0.00     0.091 A 
ATOM     69  F   UNL A   1      42.956  33.423  28.648  1.00  0.00    -0.205 F 
ATOM     70  C   UNL A   1      45.571  35.001  26.707  1.00  0.00     0.022 A 
BRANCH  68  71
ATOM     71  S   UNL A   1      43.279  36.212  27.600  1.00  0.00     0.127 S 
ATOM     72  O   UNL A   1      44.040  37.272  26.943  1.00  0.00    -0.237 OA
ATOM     73  O   UNL A   1      42.069  35.790  26.894  1.00  0.00    -0.237 OA
ATOM     74  O   UNL A   1      43.112  36.343  29.041  1.00  0.00    -0.744 OA
ENDBRANCH  68  71
ENDBRANCH  50  64
BRANCH  51  75
ATOM     75  C   UNL A   1      37.060  31.175  31.166  1.00  0.00     0.023 A 
ATOM     76  C   UNL A   1      36.389  31.383  32.387  1.00  0.00     0.012 A 
ATOM     77  C   UNL A   1      36.519  31.768  30.000  1.00  0.00     0.148 A 
ATOM     78  C   UNL A   1      35.242  32.182  32.456  1.00  0.00     0.002 A 
ATOM     79  C   UNL A   1      35.378  32.566  30.076  1.00  0.00     0.091 A 
ATOM     80  F   UNL A   1      37.173  31.628  28.839  1.00  0.00    -0.205 F 
ATOM     81  C   UNL A   1      34.742  32.780  31.304  1.00  0.00     0.022 A 
BRANCH  79  82
ATOM     82  S   UNL A   1      34.689  33.399  28.644  1.00  0.00     0.127 S 
ATOM     83  O   UNL A   1      35.518  34.601  28.536  1.00  0.00    -0.237 OA
ATOM     84  O   UNL A   1      34.892  32.423  27.581  1.00  0.00    -0.237 OA
ATOM     85  O   UNL A   1      33.304  33.685  28.984  1.00  0.00    -0.744 OA
ENDBRANCH  79  82
ENDBRANCH  51  75
BRANCH  63  86
ATOM     86  C   UNL A   1      42.710  29.687  33.481  1.00  0.00     0.023 A 
ATOM     87  C   UNL A   1      42.198  28.389  33.266  1.00  0.00     0.012 A 
ATOM     88  C   UNL A   1      43.318  29.976  34.715  1.00  0.00     0.148 A 
ATOM     89  C   UNL A   1      42.277  27.410  34.262  1.00  0.00     0.002 A 
ATOM     90  C   UNL A   1      43.436  28.986  35.685  1.00  0.00     0.091 A 
ATOM     91  F   UNL A   1      43.806  31.211  34.907  1.00  0.00    -0.205 F 
ATOM     92  C   UNL A   1      42.909  27.704  35.466  1.00  0.00     0.022 A 
BRANCH  90  93
ATOM     93  S   UNL A   1      44.358  29.265  37.200  1.00  0.00     0.127 S 
ATOM     94  O   UNL A   1      45.662  29.684  36.691  1.00  0.00    -0.237 OA
ATOM     95  O   UNL A   1      43.585  30.325  37.851  1.00  0.00    -0.237 OA
ATOM     96  O   UNL A   1      44.342  27.996  37.917  1.00  0.00    -0.744 OA
ENDBRANCH  90  93
ENDBRANCH  63  86
ENDBRANCH  37  38
ENDBRANCH  29  32
ENDBRANCH  27  28
ENDBRANCH  26  27
ENDBRANCH  25  26
ENDBRANCH   1  25
TORSDOF 20
ENDMDL
