MODEL 1
REMARK VINA RESULT:     -12.9      0.000      0.000
REMARK SMILES Cc1nc(-c2ccccc2)sc1C(=O)N[C@@H](CC1=c2ccccc2=NC1)C(=O)NCCCCCCNC(=O)c1ccc(-c2c3nc(c(-c4cccc(S(=O)(=O)[O-])c4F)c4ccc([nH]4)c(-c4cccc(S(=O)(=O)[O-])c4F)c4nc(c(-c5cccc(S(=O)(=O)[O-])c5F)c5ccc2[nH]5)C=C4)C=C3)cc1
REMARK SMILES IDX 32 1 31 2 30 3 29 4 27 5 28 6 16 8 15 9 13 10 14 11 12 13
REMARK SMILES IDX 1 14 2 15 3 16 4 17 11 18 5 19 6 20 10 21 7 22 9 23 8 24
REMARK SMILES IDX 17 25 18 26 19 27 26 28 20 29 24 30 25 31 21 32 23 33 22 34
REMARK SMILES IDX 33 35 34 36 35 37 36 38 37 39 38 41 39 42 40 43 101 44 41 45
REMARK SMILES IDX 100 46 42 47 43 48 44 49 94 50 45 51 99 52 93 53 95 54 46 55
REMARK SMILES IDX 98 56 92 57 91 58 47 60 79 61 59 62 78 63 60 64 63 65 77 66
REMARK SMILES IDX 96 67 61 68 62 69 76 71 97 72 64 73 48 74 49 75 57 76 50 77
REMARK SMILES IDX 52 78 58 79 51 80 53 81 54 82 55 83 56 84 80 85 81 86 89 87
REMARK SMILES IDX 82 88 84 89 90 90 83 91 85 92 86 93 87 94 88 95 65 96 66 97
REMARK SMILES IDX 74 98 67 99 69 100 75 101 68 102 70 103 71 104 72 105 73 106
REMARK H PARENT 29 7 15 12 36 40 95 59 63 70
REMARK Flexibility Score: inf
ROOT
ATOM      1  C   UNL A   1      32.985  29.618  25.888  1.00  0.00     0.002 C 
ENDROOT
BRANCH   1   2
ATOM      2  C   UNL A   1      34.168  28.874  26.508  1.00  0.00     0.021 C 
BRANCH   2   3
ATOM      3  C   UNL A   1      34.320  27.440  26.041  1.00  0.00     0.116 C 
BRANCH   3   4
ATOM      4  N   UNL A   1      33.126  26.651  26.198  1.00  0.00    -0.354 N 
ATOM      5  C   UNL A   1      32.918  25.351  25.873  1.00  0.00     0.242 C 
ATOM      6  O   UNL A   1      31.929  24.801  26.374  1.00  0.00    -0.273 OA
ATOM      7  H   UNL A   1      32.357  27.118  26.594  1.00  0.00     0.163 HD
BRANCH   5   8
ATOM      8  C   UNL A   1      33.864  24.540  24.963  1.00  0.00     0.175 C 
BRANCH   8   9
ATOM      9  N   UNL A   1      34.166  25.132  23.674  1.00  0.00    -0.339 N 
ATOM     10  C   UNL A   1      33.415  25.834  22.770  1.00  0.00     0.263 C 
ATOM     11  O   UNL A   1      34.046  26.073  21.731  1.00  0.00    -0.268 OA
ATOM     12  H   UNL A   1      35.100  25.003  23.393  1.00  0.00     0.164 HD
BRANCH  10  13
ATOM     13  C   UNL A   1      32.041  26.296  22.974  1.00  0.00     0.115 A 
ATOM     14  C   UNL A   1      30.204  24.399  23.323  1.00  0.00     0.068 C 
ATOM     15  C   UNL A   1      30.768  25.771  23.221  1.00  0.00     0.062 A 
ATOM     16  N   UNL A   1      29.781  26.714  23.436  1.00  0.00    -0.241 NA
ATOM     17  C   UNL A   1      30.222  27.928  23.255  1.00  0.00     0.124 A 
ATOM     18  S   UNL A   1      31.863  28.051  22.867  1.00  0.00    -0.108 S 
BRANCH  17  19
ATOM     19  C   UNL A   1      29.343  29.075  23.406  1.00  0.00     0.010 A 
ATOM     20  C   UNL A   1      28.043  28.985  22.883  1.00  0.00     0.011 A 
ATOM     21  C   UNL A   1      29.823  30.308  23.859  1.00  0.00     0.011 A 
ATOM     22  C   UNL A   1      27.243  30.118  22.786  1.00  0.00     0.001 A 
ATOM     23  C   UNL A   1      29.021  31.444  23.753  1.00  0.00     0.001 A 
ATOM     24  C   UNL A   1      27.738  31.350  23.210  1.00  0.00     0.000 A 
ENDBRANCH  17  19
ENDBRANCH  10  13
ENDBRANCH   8   9
BRANCH   8  25
ATOM     25  C   UNL A   1      35.094  23.877  25.636  1.00  0.00     0.068 C 
BRANCH  25  26
ATOM     26  C   UNL A   1      35.237  22.391  25.538  1.00  0.00    -0.037 C 
ATOM     27  C   UNL A   1      34.292  21.455  25.446  1.00  0.00     0.001 A 
ATOM     28  C   UNL A   1      36.600  21.766  25.454  1.00  0.00     0.174 C 
ATOM     29  C   UNL A   1      32.865  21.447  25.468  1.00  0.00     0.010 A 
ATOM     30  C   UNL A   1      35.066  20.270  25.032  1.00  0.00     0.065 A 
ATOM     31  N   UNL A   1      36.359  20.379  25.004  1.00  0.00    -0.280 NA
ATOM     32  C   UNL A   1      32.220  20.369  24.995  1.00  0.00     0.001 A 
ATOM     33  C   UNL A   1      34.284  19.113  24.546  1.00  0.00     0.028 A 
ATOM     34  C   UNL A   1      32.943  19.209  24.501  1.00  0.00     0.002 A 
ENDBRANCH  25  26
ENDBRANCH   8  25
ENDBRANCH   5   8
ENDBRANCH   3   4
ENDBRANCH   2   3
ENDBRANCH   1   2
BRANCH   1  35
ATOM     35  C   UNL A   1      31.932  30.137  26.874  1.00  0.00     0.002 C 
BRANCH  35  36
ATOM     36  C   UNL A   1      31.724  31.653  26.892  1.00  0.00     0.021 C 
BRANCH  36  37
ATOM     37  C   UNL A   1      32.928  32.467  27.342  1.00  0.00     0.116 C 
BRANCH  37  38
ATOM     38  N   UNL A   1      32.586  33.856  27.599  1.00  0.00    -0.352 N 
ATOM     39  C   UNL A   1      33.069  34.702  28.568  1.00  0.00     0.251 C 
ATOM     40  H   UNL A   1      31.915  34.246  26.993  1.00  0.00     0.163 HD
ATOM     41  O   UNL A   1      32.540  35.786  28.763  1.00  0.00    -0.269 OA
BRANCH  39  42
ATOM     42  C   UNL A   1      34.223  34.271  29.381  1.00  0.00     0.039 A 
ATOM     43  C   UNL A   1      34.010  33.372  30.428  1.00  0.00     0.014 A 
ATOM     44  C   UNL A   1      35.509  34.730  29.087  1.00  0.00     0.014 A 
ATOM     45  C   UNL A   1      35.104  32.878  31.141  1.00  0.00     0.010 A 
ATOM     46  C   UNL A   1      36.601  34.182  29.749  1.00  0.00     0.010 A 
ATOM     47  C   UNL A   1      36.410  33.249  30.780  1.00  0.00    -0.014 A 
BRANCH  47  48
ATOM     48  C   UNL A   1      37.593  32.650  31.444  1.00  0.00     0.031 A 
ATOM     49  C   UNL A   1      38.310  31.493  30.808  1.00  0.00     0.074 A 
ATOM     50  C   UNL A   1      37.956  33.086  32.665  1.00  0.00     0.049 A 
ATOM     51  N   UNL A   1      39.306  30.786  31.273  1.00  0.00    -0.248 NA
ATOM     52  C   UNL A   1      37.830  31.059  29.486  1.00  0.00     0.031 C 
ATOM     53  C   UNL A   1      37.298  34.163  33.409  1.00  0.00     0.029 A 
ATOM     54  N   UNL A   1      38.950  32.659  33.509  1.00  0.00    -0.354 N 
ATOM     55  C   UNL A   1      39.553  29.806  30.319  1.00  0.00     0.074 A 
ATOM     56  C   UNL A   1      38.577  29.987  29.266  1.00  0.00     0.031 C 
ATOM     57  C   UNL A   1      37.910  34.317  34.593  1.00  0.00     0.029 A 
ATOM     58  C   UNL A   1      38.973  33.325  34.713  1.00  0.00     0.049 A 
ATOM     59  H   UNL A   1      39.585  31.945  33.276  1.00  0.00     0.167 HD
ATOM     60  C   UNL A   1      40.521  28.859  30.308  1.00  0.00     0.034 A 
ATOM     61  C   UNL A   1      39.752  33.144  35.797  1.00  0.00     0.034 A 
ATOM     62  C   UNL A   1      41.500  28.698  31.349  1.00  0.00     0.049 A 
ATOM     63  C   UNL A   1      40.806  32.071  35.769  1.00  0.00     0.074 A 
ATOM     64  C   UNL A   1      42.567  27.820  31.398  1.00  0.00     0.029 A 
ATOM     65  N   UNL A   1      41.520  29.419  32.534  1.00  0.00    -0.354 N 
ATOM     66  N   UNL A   1      41.123  31.252  34.796  1.00  0.00    -0.248 NA
ATOM     67  C   UNL A   1      41.624  31.911  36.980  1.00  0.00     0.031 C 
ATOM     68  C   UNL A   1      43.210  27.983  32.630  1.00  0.00     0.029 A 
ATOM     69  C   UNL A   1      42.564  28.987  33.334  1.00  0.00     0.049 A 
ATOM     70  H   UNL A   1      40.885  30.132  32.772  1.00  0.00     0.167 HD
ATOM     71  C   UNL A   1      42.195  30.501  35.263  1.00  0.00     0.074 A 
ATOM     72  C   UNL A   1      42.487  30.978  36.600  1.00  0.00     0.031 C 
ATOM     73  C   UNL A   1      42.869  29.498  34.647  1.00  0.00     0.034 A 
BRANCH  60  74
ATOM     74  C   UNL A   1      40.586  27.946  29.110  1.00  0.00     0.023 A 
ATOM     75  C   UNL A   1      39.714  26.840  29.027  1.00  0.00     0.012 A 
ATOM     76  C   UNL A   1      41.482  28.197  28.053  1.00  0.00     0.148 A 
ATOM     77  C   UNL A   1      39.765  25.974  27.936  1.00  0.00     0.002 A 
ATOM     78  C   UNL A   1      41.493  27.357  26.946  1.00  0.00     0.091 A 
ATOM     79  F   UNL A   1      42.319  29.241  28.156  1.00  0.00    -0.205 F 
ATOM     80  C   UNL A   1      40.646  26.237  26.892  1.00  0.00     0.022 A 
BRANCH  78  81
ATOM     81  S   UNL A   1      42.536  27.654  25.514  1.00  0.00     0.127 S 
ATOM     82  O   UNL A   1      41.982  28.906  25.001  1.00  0.00    -0.237 OA
ATOM     83  O   UNL A   1      43.862  27.777  26.118  1.00  0.00    -0.237 OA
ATOM     84  O   UNL A   1      42.369  26.495  24.648  1.00  0.00    -0.744 OA
ENDBRANCH  78  81
ENDBRANCH  60  74
BRANCH  61  85
ATOM     85  C   UNL A   1      39.596  34.034  36.983  1.00  0.00     0.023 A 
ATOM     86  C   UNL A   1      40.031  35.371  36.901  1.00  0.00     0.012 A 
ATOM     87  C   UNL A   1      38.997  33.577  38.172  1.00  0.00     0.148 A 
ATOM     88  C   UNL A   1      39.898  36.231  37.991  1.00  0.00     0.002 A 
ATOM     89  C   UNL A   1      38.818  34.453  39.237  1.00  0.00     0.091 A 
ATOM     90  F   UNL A   1      38.596  32.300  38.231  1.00  0.00    -0.205 F 
ATOM     91  C   UNL A   1      39.283  35.775  39.155  1.00  0.00     0.022 A 
BRANCH  89  92
ATOM     92  S   UNL A   1      37.934  33.995  40.731  1.00  0.00     0.127 S 
ATOM     93  O   UNL A   1      38.888  33.097  41.380  1.00  0.00    -0.237 OA
ATOM     94  O   UNL A   1      37.763  35.291  41.388  1.00  0.00    -0.237 OA
ATOM     95  O   UNL A   1      36.695  33.375  40.283  1.00  0.00    -0.744 OA
ENDBRANCH  89  92
ENDBRANCH  61  85
BRANCH  73  96
ATOM     96  C   UNL A   1      44.006  28.853  35.397  1.00  0.00     0.023 A 
ATOM     97  C   UNL A   1      45.294  29.420  35.336  1.00  0.00     0.012 A 
ATOM     98  C   UNL A   1      43.777  27.743  36.234  1.00  0.00     0.148 A 
ATOM     99  C   UNL A   1      46.343  28.877  36.077  1.00  0.00     0.002 A 
ATOM    100  C   UNL A   1      44.815  27.239  37.009  1.00  0.00     0.091 A 
ATOM    101  F   UNL A   1      42.547  27.211  36.266  1.00  0.00    -0.205 F 
ATOM    102  C   UNL A   1      46.100  27.797  36.923  1.00  0.00     0.022 A 
BRANCH 100 103
ATOM    103  S   UNL A   1      44.580  25.913  38.198  1.00  0.00     0.127 S 
ATOM    104  O   UNL A   1      43.558  26.480  39.078  1.00  0.00    -0.237 OA
ATOM    105  O   UNL A   1      44.113  24.818  37.348  1.00  0.00    -0.237 OA
ATOM    106  O   UNL A   1      45.878  25.691  38.820  1.00  0.00    -0.744 OA
ENDBRANCH 100 103
ENDBRANCH  73  96
ENDBRANCH  47  48
ENDBRANCH  39  42
ENDBRANCH  37  38
ENDBRANCH  36  37
ENDBRANCH  35  36
ENDBRANCH   1  35
TORSDOF 21
ENDMDL
MODEL 2
REMARK VINA RESULT:     -12.8      1.570      8.173
REMARK SMILES Cc1nc(-c2ccccc2)sc1C(=O)N[C@@H](CC1=c2ccccc2=NC1)C(=O)NCCCCCCNC(=O)c1ccc(-c2c3nc(c(-c4cccc(S(=O)(=O)[O-])c4F)c4ccc([nH]4)c(-c4cccc(S(=O)(=O)[O-])c4F)c4nc(c(-c5cccc(S(=O)(=O)[O-])c5F)c5ccc2[nH]5)C=C4)C=C3)cc1
REMARK SMILES IDX 32 1 31 2 30 3 29 4 27 5 28 6 16 8 15 9 13 10 14 11 12 13
REMARK SMILES IDX 1 14 2 15 3 16 4 17 11 18 5 19 6 20 10 21 7 22 9 23 8 24
REMARK SMILES IDX 17 25 18 26 19 27 26 28 20 29 24 30 25 31 21 32 23 33 22 34
REMARK SMILES IDX 33 35 34 36 35 37 36 38 37 39 38 41 39 42 40 43 101 44 41 45
REMARK SMILES IDX 100 46 42 47 43 48 44 49 94 50 45 51 99 52 93 53 95 54 46 55
REMARK SMILES IDX 98 56 92 57 91 58 47 60 79 61 59 62 78 63 60 64 63 65 77 66
REMARK SMILES IDX 96 67 61 68 62 69 76 71 97 72 64 73 48 74 49 75 57 76 50 77
REMARK SMILES IDX 52 78 58 79 51 80 53 81 54 82 55 83 56 84 80 85 81 86 89 87
REMARK SMILES IDX 82 88 84 89 90 90 83 91 85 92 86 93 87 94 88 95 65 96 66 97
REMARK SMILES IDX 74 98 67 99 69 100 75 101 68 102 70 103 71 104 72 105 73 106
REMARK H PARENT 29 7 15 12 36 40 95 59 63 70
REMARK Flexibility Score: inf
ROOT
ATOM      1  C   UNL A   1      32.661  29.831  27.077  1.00  0.00     0.002 C 
ENDROOT
BRANCH   1   2
ATOM      2  C   UNL A   1      32.212  28.411  27.423  1.00  0.00     0.021 C 
BRANCH   2   3
ATOM      3  C   UNL A   1      32.901  27.324  26.620  1.00  0.00     0.116 C 
BRANCH   3   4
ATOM      4  N   UNL A   1      33.572  27.811  25.445  1.00  0.00    -0.354 N 
ATOM      5  C   UNL A   1      33.624  27.261  24.206  1.00  0.00     0.242 C 
ATOM      6  O   UNL A   1      33.993  27.997  23.282  1.00  0.00    -0.273 OA
ATOM      7  H   UNL A   1      34.060  28.659  25.553  1.00  0.00     0.163 HD
BRANCH   5   8
ATOM      8  C   UNL A   1      33.212  25.805  23.905  1.00  0.00     0.175 C 
BRANCH   8   9
ATOM      9  N   UNL A   1      31.830  25.605  23.516  1.00  0.00    -0.339 N 
ATOM     10  C   UNL A   1      31.000  24.516  23.543  1.00  0.00     0.263 C 
ATOM     11  O   UNL A   1      29.905  24.755  23.014  1.00  0.00    -0.268 OA
ATOM     12  H   UNL A   1      31.401  26.416  23.161  1.00  0.00     0.164 HD
BRANCH  10  13
ATOM     13  C   UNL A   1      31.312  23.217  24.142  1.00  0.00     0.115 A 
ATOM     14  C   UNL A   1      30.619  22.904  26.694  1.00  0.00     0.068 C 
ATOM     15  C   UNL A   1      31.154  22.540  25.356  1.00  0.00     0.062 A 
ATOM     16  N   UNL A   1      31.571  21.223  25.346  1.00  0.00    -0.241 NA
ATOM     17  C   UNL A   1      32.137  20.901  24.216  1.00  0.00     0.124 A 
ATOM     18  S   UNL A   1      32.172  22.126  23.051  1.00  0.00    -0.108 S 
BRANCH  17  19
ATOM     19  C   UNL A   1      32.670  19.567  23.999  1.00  0.00     0.010 A 
ATOM     20  C   UNL A   1      33.811  19.185  24.722  1.00  0.00     0.011 A 
ATOM     21  C   UNL A   1      32.210  18.758  22.955  1.00  0.00     0.011 A 
ATOM     22  C   UNL A   1      34.501  18.024  24.388  1.00  0.00     0.001 A 
ATOM     23  C   UNL A   1      32.908  17.599  22.618  1.00  0.00     0.001 A 
ATOM     24  C   UNL A   1      34.056  17.239  23.327  1.00  0.00     0.000 A 
ENDBRANCH  17  19
ENDBRANCH  10  13
ENDBRANCH   8   9
BRANCH   8  25
ATOM     25  C   UNL A   1      34.210  24.945  23.086  1.00  0.00     0.068 C 
BRANCH  25  26
ATOM     26  C   UNL A   1      35.039  23.937  23.817  1.00  0.00    -0.037 C 
ATOM     27  C   UNL A   1      34.969  23.548  25.090  1.00  0.00     0.001 A 
ATOM     28  C   UNL A   1      36.083  23.142  23.086  1.00  0.00     0.174 C 
ATOM     29  C   UNL A   1      34.196  23.930  26.228  1.00  0.00     0.010 A 
ATOM     30  C   UNL A   1      35.784  22.319  25.087  1.00  0.00     0.065 A 
ATOM     31  N   UNL A   1      36.424  22.028  23.996  1.00  0.00    -0.280 NA
ATOM     32  C   UNL A   1      34.130  23.091  27.274  1.00  0.00     0.001 A 
ATOM     33  C   UNL A   1      35.677  21.458  26.284  1.00  0.00     0.028 A 
ATOM     34  C   UNL A   1      34.853  21.830  27.280  1.00  0.00     0.002 A 
ENDBRANCH  25  26
ENDBRANCH   8  25
ENDBRANCH   5   8
ENDBRANCH   3   4
ENDBRANCH   2   3
ENDBRANCH   1   2
BRANCH   1  35
ATOM     35  C   UNL A   1      31.667  30.666  26.262  1.00  0.00     0.002 C 
BRANCH  35  36
ATOM     36  C   UNL A   1      31.479  32.114  26.717  1.00  0.00     0.021 C 
BRANCH  36  37
ATOM     37  C   UNL A   1      32.655  32.713  27.474  1.00  0.00     0.116 C 
BRANCH  37  38
ATOM     38  N   UNL A   1      32.481  34.135  27.721  1.00  0.00    -0.352 N 
ATOM     39  C   UNL A   1      33.083  34.930  28.666  1.00  0.00     0.251 C 
ATOM     40  H   UNL A   1      31.843  34.593  27.127  1.00  0.00     0.163 HD
ATOM     41  O   UNL A   1      32.687  36.070  28.860  1.00  0.00    -0.269 OA
BRANCH  39  42
ATOM     42  C   UNL A   1      34.201  34.378  29.456  1.00  0.00     0.039 A 
ATOM     43  C   UNL A   1      33.913  33.628  30.597  1.00  0.00     0.014 A 
ATOM     44  C   UNL A   1      35.523  34.576  29.048  1.00  0.00     0.014 A 
ATOM     45  C   UNL A   1      34.954  33.016  31.297  1.00  0.00     0.010 A 
ATOM     46  C   UNL A   1      36.550  33.906  29.703  1.00  0.00     0.010 A 
ATOM     47  C   UNL A   1      36.276  33.118  30.831  1.00  0.00    -0.014 A 
BRANCH  47  48
ATOM     48  C   UNL A   1      37.384  32.382  31.487  1.00  0.00     0.031 A 
ATOM     49  C   UNL A   1      37.908  32.838  32.820  1.00  0.00     0.074 A 
ATOM     50  C   UNL A   1      37.980  31.367  30.834  1.00  0.00     0.049 A 
ATOM     51  N   UNL A   1      38.920  32.379  33.507  1.00  0.00    -0.248 NA
ATOM     52  C   UNL A   1      37.218  33.975  33.451  1.00  0.00     0.031 C 
ATOM     53  C   UNL A   1      37.599  30.873  29.509  1.00  0.00     0.029 A 
ATOM     54  N   UNL A   1      39.053  30.585  31.183  1.00  0.00    -0.354 N 
ATOM     55  C   UNL A   1      39.010  33.185  34.635  1.00  0.00     0.074 A 
ATOM     56  C   UNL A   1      37.972  34.188  34.520  1.00  0.00     0.031 C 
ATOM     57  C   UNL A   1      38.418  29.869  29.161  1.00  0.00     0.029 A 
ATOM     58  C   UNL A   1      39.409  29.676  30.214  1.00  0.00     0.049 A 
ATOM     59  H   UNL A   1      39.523  30.668  32.044  1.00  0.00     0.167 HD
ATOM     60  C   UNL A   1      39.860  33.085  35.683  1.00  0.00     0.034 A 
ATOM     61  C   UNL A   1      40.429  28.797  30.173  1.00  0.00     0.034 A 
ATOM     62  C   UNL A   1      40.876  32.074  35.800  1.00  0.00     0.049 A 
ATOM     63  C   UNL A   1      41.375  28.719  31.340  1.00  0.00     0.074 A 
ATOM     64  C   UNL A   1      41.740  31.839  36.854  1.00  0.00     0.029 A 
ATOM     65  N   UNL A   1      41.180  31.142  34.819  1.00  0.00    -0.354 N 
ATOM     66  N   UNL A   1      41.351  29.390  32.467  1.00  0.00    -0.248 NA
ATOM     67  C   UNL A   1      42.474  27.748  31.242  1.00  0.00     0.031 C 
ATOM     68  C   UNL A   1      42.591  30.790  36.496  1.00  0.00     0.029 A 
ATOM     69  C   UNL A   1      42.236  30.347  35.231  1.00  0.00     0.049 A 
ATOM     70  H   UNL A   1      40.714  31.058  33.956  1.00  0.00     0.167 HD
ATOM     71  C   UNL A   1      42.411  28.903  33.222  1.00  0.00     0.074 A 
ATOM     72  C   UNL A   1      43.043  27.865  32.434  1.00  0.00     0.031 C 
ATOM     73  C   UNL A   1      42.831  29.290  34.453  1.00  0.00     0.034 A 
BRANCH  60  74
ATOM     74  C   UNL A   1      39.701  34.078  36.806  1.00  0.00     0.023 A 
ATOM     75  C   UNL A   1      40.044  35.431  36.596  1.00  0.00     0.012 A 
ATOM     76  C   UNL A   1      39.181  33.687  38.054  1.00  0.00     0.148 A 
ATOM     77  C   UNL A   1      39.918  36.366  37.622  1.00  0.00     0.002 A 
ATOM     78  C   UNL A   1      39.012  34.634  39.058  1.00  0.00     0.091 A 
ATOM     79  F   UNL A   1      38.877  32.394  38.246  1.00  0.00    -0.205 F 
ATOM     80  C   UNL A   1      39.394  35.970  38.849  1.00  0.00     0.022 A 
BRANCH  78  81
ATOM     81  S   UNL A   1      38.272  34.241  40.647  1.00  0.00     0.127 S 
ATOM     82  O   UNL A   1      37.047  33.554  40.239  1.00  0.00    -0.237 OA
ATOM     83  O   UNL A   1      39.283  33.376  41.253  1.00  0.00    -0.237 OA
ATOM     84  O   UNL A   1      38.078  35.515  41.325  1.00  0.00    -0.744 OA
ENDBRANCH  78  81
ENDBRANCH  60  74
BRANCH  61  85
ATOM     85  C   UNL A   1      40.579  27.884  29.003  1.00  0.00     0.023 A 
ATOM     86  C   UNL A   1      39.762  26.741  28.914  1.00  0.00     0.012 A 
ATOM     87  C   UNL A   1      41.497  28.156  27.971  1.00  0.00     0.148 A 
ATOM     88  C   UNL A   1      39.875  25.868  27.833  1.00  0.00     0.002 A 
ATOM     89  C   UNL A   1      41.568  27.311  26.869  1.00  0.00     0.091 A 
ATOM     90  F   UNL A   1      42.270  29.246  28.079  1.00  0.00    -0.205 F 
ATOM     91  C   UNL A   1      40.771  26.157  26.806  1.00  0.00     0.022 A 
BRANCH  89  92
ATOM     92  S   UNL A   1      42.603  27.662  25.444  1.00  0.00     0.127 S 
ATOM     93  O   UNL A   1      42.499  26.417  24.685  1.00  0.00    -0.237 OA
ATOM     94  O   UNL A   1      41.915  28.806  24.848  1.00  0.00    -0.237 OA
ATOM     95  O   UNL A   1      43.925  27.961  25.979  1.00  0.00    -0.744 OA
ENDBRANCH  89  92
ENDBRANCH  61  85
BRANCH  73  96
ATOM     96  C   UNL A   1      44.021  28.577  35.043  1.00  0.00     0.023 A 
ATOM     97  C   UNL A   1      45.323  28.978  34.686  1.00  0.00     0.012 A 
ATOM     98  C   UNL A   1      43.848  27.576  36.019  1.00  0.00     0.148 A 
ATOM     99  C   UNL A   1      46.436  28.377  35.272  1.00  0.00     0.002 A 
ATOM    100  C   UNL A   1      44.960  27.017  36.637  1.00  0.00     0.091 A 
ATOM    101  F   UNL A   1      42.600  27.201  36.333  1.00  0.00    -0.205 F 
ATOM    102  C   UNL A   1      46.254  27.407  36.257  1.00  0.00     0.022 A 
BRANCH 100 103
ATOM    103  S   UNL A   1      44.829  25.832  37.980  1.00  0.00     0.127 S 
ATOM    104  O   UNL A   1      44.220  24.685  37.307  1.00  0.00    -0.237 OA
ATOM    105  O   UNL A   1      46.229  25.642  38.360  1.00  0.00    -0.237 OA
ATOM    106  O   UNL A   1      44.000  26.463  38.999  1.00  0.00    -0.744 OA
ENDBRANCH 100 103
ENDBRANCH  73  96
ENDBRANCH  47  48
ENDBRANCH  39  42
ENDBRANCH  37  38
ENDBRANCH  36  37
ENDBRANCH  35  36
ENDBRANCH   1  35
TORSDOF 21
ENDMDL
MODEL 3
REMARK VINA RESULT:     -12.7      0.332      7.295
REMARK SMILES Cc1nc(-c2ccccc2)sc1C(=O)N[C@@H](CC1=c2ccccc2=NC1)C(=O)NCCCCCCNC(=O)c1ccc(-c2c3nc(c(-c4cccc(S(=O)(=O)[O-])c4F)c4ccc([nH]4)c(-c4cccc(S(=O)(=O)[O-])c4F)c4nc(c(-c5cccc(S(=O)(=O)[O-])c5F)c5ccc2[nH]5)C=C4)C=C3)cc1
REMARK SMILES IDX 32 1 31 2 30 3 29 4 27 5 28 6 16 8 15 9 13 10 14 11 12 13
REMARK SMILES IDX 1 14 2 15 3 16 4 17 11 18 5 19 6 20 10 21 7 22 9 23 8 24
REMARK SMILES IDX 17 25 18 26 19 27 26 28 20 29 24 30 25 31 21 32 23 33 22 34
REMARK SMILES IDX 33 35 34 36 35 37 36 38 37 39 38 41 39 42 40 43 101 44 41 45
REMARK SMILES IDX 100 46 42 47 43 48 44 49 94 50 45 51 99 52 93 53 95 54 46 55
REMARK SMILES IDX 98 56 92 57 91 58 47 60 79 61 59 62 78 63 60 64 63 65 77 66
REMARK SMILES IDX 96 67 61 68 62 69 76 71 97 72 64 73 48 74 49 75 57 76 50 77
REMARK SMILES IDX 52 78 58 79 51 80 53 81 54 82 55 83 56 84 80 85 81 86 89 87
REMARK SMILES IDX 82 88 84 89 90 90 83 91 85 92 86 93 87 94 88 95 65 96 66 97
REMARK SMILES IDX 74 98 67 99 69 100 75 101 68 102 70 103 71 104 72 105 73 106
REMARK H PARENT 29 7 15 12 36 40 95 59 63 70
REMARK Flexibility Score: inf
ROOT
ATOM      1  C   UNL A   1      32.896  29.902  25.893  1.00  0.00     0.002 C 
ENDROOT
BRANCH   1   2
ATOM      2  C   UNL A   1      34.105  29.219  26.532  1.00  0.00     0.021 C 
BRANCH   2   3
ATOM      3  C   UNL A   1      34.264  27.757  26.164  1.00  0.00     0.116 C 
BRANCH   3   4
ATOM      4  N   UNL A   1      33.050  26.995  26.283  1.00  0.00    -0.354 N 
ATOM      5  C   UNL A   1      32.827  25.695  25.966  1.00  0.00     0.242 C 
ATOM      6  O   UNL A   1      31.808  25.172  26.434  1.00  0.00    -0.273 OA
ATOM      7  H   UNL A   1      32.275  27.482  26.643  1.00  0.00     0.163 HD
BRANCH   5   8
ATOM      8  C   UNL A   1      33.790  24.853  25.103  1.00  0.00     0.175 C 
BRANCH   8   9
ATOM      9  N   UNL A   1      34.134  25.410  23.809  1.00  0.00    -0.339 N 
ATOM     10  C   UNL A   1      33.414  26.090  22.865  1.00  0.00     0.263 C 
ATOM     11  O   UNL A   1      34.078  26.301  21.839  1.00  0.00    -0.268 OA
ATOM     12  H   UNL A   1      35.076  25.272  23.561  1.00  0.00     0.164 HD
BRANCH  10  13
ATOM     13  C   UNL A   1      32.036  26.561  23.013  1.00  0.00     0.115 A 
ATOM     14  C   UNL A   1      30.176  24.676  23.293  1.00  0.00     0.068 C 
ATOM     15  C   UNL A   1      30.751  26.043  23.211  1.00  0.00     0.062 A 
ATOM     16  N   UNL A   1      29.762  26.993  23.384  1.00  0.00    -0.241 NA
ATOM     17  C   UNL A   1      30.217  28.204  23.219  1.00  0.00     0.124 A 
ATOM     18  S   UNL A   1      31.873  28.316  22.895  1.00  0.00    -0.108 S 
BRANCH  17  19
ATOM     19  C   UNL A   1      29.339  29.356  23.333  1.00  0.00     0.010 A 
ATOM     20  C   UNL A   1      28.129  29.338  22.623  1.00  0.00     0.011 A 
ATOM     21  C   UNL A   1      29.764  30.539  23.947  1.00  0.00     0.011 A 
ATOM     22  C   UNL A   1      27.365  30.494  22.502  1.00  0.00     0.001 A 
ATOM     23  C   UNL A   1      28.999  31.699  23.818  1.00  0.00     0.001 A 
ATOM     24  C   UNL A   1      27.808  31.677  23.090  1.00  0.00     0.000 A 
ENDBRANCH  17  19
ENDBRANCH  10  13
ENDBRANCH   8   9
BRANCH   8  25
ATOM     25  C   UNL A   1      34.995  24.197  25.827  1.00  0.00     0.068 C 
BRANCH  25  26
ATOM     26  C   UNL A   1      35.171  22.717  25.705  1.00  0.00    -0.037 C 
ATOM     27  C   UNL A   1      34.249  21.764  25.572  1.00  0.00     0.001 A 
ATOM     28  C   UNL A   1      36.548  22.121  25.641  1.00  0.00     0.174 C 
ATOM     29  C   UNL A   1      32.822  21.725  25.559  1.00  0.00     0.010 A 
ATOM     30  C   UNL A   1      35.056  20.603  25.153  1.00  0.00     0.065 A 
ATOM     31  N   UNL A   1      36.347  20.738  25.158  1.00  0.00    -0.280 NA
ATOM     32  C   UNL A   1      32.210  20.644  25.051  1.00  0.00     0.001 A 
ATOM     33  C   UNL A   1      34.310  19.440  24.626  1.00  0.00     0.028 A 
ATOM     34  C   UNL A   1      32.969  19.509  24.551  1.00  0.00     0.002 A 
ENDBRANCH  25  26
ENDBRANCH   8  25
ENDBRANCH   5   8
ENDBRANCH   3   4
ENDBRANCH   2   3
ENDBRANCH   1   2
BRANCH   1  35
ATOM     35  C   UNL A   1      31.838  30.436  26.866  1.00  0.00     0.002 C 
BRANCH  35  36
ATOM     36  C   UNL A   1      31.677  31.957  26.909  1.00  0.00     0.021 C 
BRANCH  36  37
ATOM     37  C   UNL A   1      32.911  32.727  27.353  1.00  0.00     0.116 C 
BRANCH  37  38
ATOM     38  N   UNL A   1      32.600  34.099  27.718  1.00  0.00    -0.352 N 
ATOM     39  C   UNL A   1      33.083  34.848  28.763  1.00  0.00     0.251 C 
ATOM     40  H   UNL A   1      31.953  34.556  27.134  1.00  0.00     0.163 HD
ATOM     41  O   UNL A   1      32.579  35.927  29.038  1.00  0.00    -0.269 OA
BRANCH  39  42
ATOM     42  C   UNL A   1      34.208  34.320  29.560  1.00  0.00     0.039 A 
ATOM     43  C   UNL A   1      33.929  33.586  30.714  1.00  0.00     0.014 A 
ATOM     44  C   UNL A   1      35.527  34.524  29.147  1.00  0.00     0.014 A 
ATOM     45  C   UNL A   1      34.977  32.996  31.422  1.00  0.00     0.010 A 
ATOM     46  C   UNL A   1      36.562  33.875  29.811  1.00  0.00     0.010 A 
ATOM     47  C   UNL A   1      36.297  33.102  30.952  1.00  0.00    -0.014 A 
BRANCH  47  48
ATOM     48  C   UNL A   1      37.413  32.388  31.619  1.00  0.00     0.031 A 
ATOM     49  C   UNL A   1      37.940  32.876  32.938  1.00  0.00     0.074 A 
ATOM     50  C   UNL A   1      38.013  31.363  30.984  1.00  0.00     0.049 A 
ATOM     51  N   UNL A   1      38.959  32.438  33.630  1.00  0.00    -0.248 NA
ATOM     52  C   UNL A   1      37.246  34.021  33.549  1.00  0.00     0.031 C 
ATOM     53  C   UNL A   1      37.629  30.839  29.671  1.00  0.00     0.029 A 
ATOM     54  N   UNL A   1      39.093  30.596  31.344  1.00  0.00    -0.354 N 
ATOM     55  C   UNL A   1      39.048  33.269  34.741  1.00  0.00     0.074 A 
ATOM     56  C   UNL A   1      38.003  34.261  34.609  1.00  0.00     0.031 C 
ATOM     57  C   UNL A   1      38.453  29.833  29.340  1.00  0.00     0.029 A 
ATOM     58  C   UNL A   1      39.451  29.669  30.393  1.00  0.00     0.049 A 
ATOM     59  H   UNL A   1      39.566  30.701  32.200  1.00  0.00     0.167 HD
ATOM     60  C   UNL A   1      39.904  33.196  35.787  1.00  0.00     0.034 A 
ATOM     61  C   UNL A   1      40.476  28.796  30.365  1.00  0.00     0.034 A 
ATOM     62  C   UNL A   1      40.928  32.195  35.919  1.00  0.00     0.049 A 
ATOM     63  C   UNL A   1      41.428  28.749  31.529  1.00  0.00     0.074 A 
ATOM     64  C   UNL A   1      41.798  31.988  36.974  1.00  0.00     0.029 A 
ATOM     65  N   UNL A   1      41.233  31.244  34.957  1.00  0.00    -0.354 N 
ATOM     66  N   UNL A   1      41.405  29.443  32.641  1.00  0.00    -0.248 NA
ATOM     67  C   UNL A   1      42.533  27.784  31.446  1.00  0.00     0.031 C 
ATOM     68  C   UNL A   1      42.655  30.937  36.634  1.00  0.00     0.029 A 
ATOM     69  C   UNL A   1      42.296  30.465  35.381  1.00  0.00     0.049 A 
ATOM     70  H   UNL A   1      40.764  31.138  34.099  1.00  0.00     0.167 HD
ATOM     71  C   UNL A   1      42.471  28.980  33.402  1.00  0.00     0.074 A 
ATOM     72  C   UNL A   1      43.107  27.929  32.633  1.00  0.00     0.031 C 
ATOM     73  C   UNL A   1      42.894  29.396  34.623  1.00  0.00     0.034 A 
BRANCH  60  74
ATOM     74  C   UNL A   1      39.743  34.212  36.889  1.00  0.00     0.023 A 
ATOM     75  C   UNL A   1      40.102  35.557  36.657  1.00  0.00     0.012 A 
ATOM     76  C   UNL A   1      39.207  33.849  38.139  1.00  0.00     0.148 A 
ATOM     77  C   UNL A   1      39.974  36.512  37.664  1.00  0.00     0.002 A 
ATOM     78  C   UNL A   1      39.038  34.816  39.123  1.00  0.00     0.091 A 
ATOM     79  F   UNL A   1      38.890  32.563  38.351  1.00  0.00    -0.205 F 
ATOM     80  C   UNL A   1      39.434  36.144  38.893  1.00  0.00     0.022 A 
BRANCH  78  81
ATOM     81  S   UNL A   1      38.279  34.461  40.711  1.00  0.00     0.127 S 
ATOM     82  O   UNL A   1      37.169  33.592  40.320  1.00  0.00    -0.237 OA
ATOM     83  O   UNL A   1      39.361  33.783  41.426  1.00  0.00    -0.237 OA
ATOM     84  O   UNL A   1      37.896  35.749  41.271  1.00  0.00    -0.744 OA
ENDBRANCH  78  81
ENDBRANCH  60  74
BRANCH  61  85
ATOM     85  C   UNL A   1      40.627  27.860  29.214  1.00  0.00     0.023 A 
ATOM     86  C   UNL A   1      39.852  26.685  29.178  1.00  0.00     0.012 A 
ATOM     87  C   UNL A   1      41.504  28.139  28.149  1.00  0.00     0.148 A 
ATOM     88  C   UNL A   1      39.967  25.789  28.115  1.00  0.00     0.002 A 
ATOM     89  C   UNL A   1      41.575  27.269  27.067  1.00  0.00     0.091 A 
ATOM     90  F   UNL A   1      42.237  29.259  28.206  1.00  0.00    -0.205 F 
ATOM     91  C   UNL A   1      40.821  26.086  27.055  1.00  0.00     0.022 A 
BRANCH  89  92
ATOM     92  S   UNL A   1      42.554  27.622  25.603  1.00  0.00     0.127 S 
ATOM     93  O   UNL A   1      43.909  27.654  26.150  1.00  0.00    -0.237 OA
ATOM     94  O   UNL A   1      42.258  26.465  24.759  1.00  0.00    -0.237 OA
ATOM     95  O   UNL A   1      42.055  28.890  25.089  1.00  0.00    -0.744 OA
ENDBRANCH  89  92
ENDBRANCH  61  85
BRANCH  73  96
ATOM     96  C   UNL A   1      44.092  28.704  35.221  1.00  0.00     0.023 A 
ATOM     97  C   UNL A   1      45.378  29.253  35.045  1.00  0.00     0.012 A 
ATOM     98  C   UNL A   1      43.932  27.565  36.035  1.00  0.00     0.148 A 
ATOM     99  C   UNL A   1      46.488  28.665  35.648  1.00  0.00     0.002 A 
ATOM    100  C   UNL A   1      45.036  27.013  36.674  1.00  0.00     0.091 A 
ATOM    101  F   UNL A   1      42.702  27.051  36.178  1.00  0.00    -0.205 F 
ATOM    102  C   UNL A   1      46.315  27.555  36.473  1.00  0.00     0.022 A 
BRANCH 100 103
ATOM    103  S   UNL A   1      44.903  25.645  37.829  1.00  0.00     0.127 S 
ATOM    104  O   UNL A   1      43.869  26.127  38.745  1.00  0.00    -0.237 OA
ATOM    105  O   UNL A   1      44.482  24.547  36.958  1.00  0.00    -0.237 OA
ATOM    106  O   UNL A   1      46.225  25.482  38.420  1.00  0.00    -0.744 OA
ENDBRANCH 100 103
ENDBRANCH  73  96
ENDBRANCH  47  48
ENDBRANCH  39  42
ENDBRANCH  37  38
ENDBRANCH  36  37
ENDBRANCH  35  36
ENDBRANCH   1  35
TORSDOF 21
ENDMDL
