MODEL 1
REMARK VINA RESULT:     -13.1      0.000      0.000
REMARK SMILES C[N@H+]1CCO[C@H](c2noc(-c3ccccc3C(=O)NCCCCCCNC(=O)c3ccc(-c4c5nc(c(-c6cccc(S(=O)(=O)[O-])c6F)c6ccc([nH]6)c(-c6cccc(S(=O)(=O)[O-])c6F)c6nc(c(-c7cccc(S(=O)(=O)[O-])c7F)c7ccc4[nH]7)C=C6)C=C5)cc3)n2)C1
REMARK SMILES IDX 23 1 22 2 21 3 20 4 19 5 17 6 18 7 16 9 11 10 12 11 13 12
REMARK SMILES IDX 15 13 14 14 10 15 7 16 8 17 92 18 9 19 6 20 1 21 2 22 3 23
REMARK SMILES IDX 93 24 4 26 5 27 24 28 25 29 26 30 27 31 28 33 29 34 30 35
REMARK SMILES IDX 91 36 31 37 90 38 32 39 33 40 34 41 84 42 35 43 89 44 83 45
REMARK SMILES IDX 85 46 36 47 88 48 82 49 81 50 37 52 69 53 49 54 68 55 50 56
REMARK SMILES IDX 53 57 67 58 86 59 51 60 52 61 66 63 87 64 54 65 38 66 39 67
REMARK SMILES IDX 47 68 40 69 42 70 48 71 41 72 43 73 44 74 45 75 46 76 70 77
REMARK SMILES IDX 71 78 79 79 72 80 74 81 80 82 73 83 75 84 76 85 77 86 78 87
REMARK SMILES IDX 55 88 56 89 64 90 57 91 59 92 65 93 58 94 60 95 61 96 62 97
REMARK SMILES IDX 63 98
REMARK H PARENT 19 8 2 25 26 32 85 51 53 62
REMARK Flexibility Score: inf
ROOT
ATOM      1  C   UNL A   1      36.629  21.673  24.184  1.00  0.00     0.002 C 
ENDROOT
BRANCH   1   2
ATOM      2  C   UNL A   1      36.334  23.364  24.207  1.00  0.00     0.002 C 
BRANCH   2   3
ATOM      3  C   UNL A   1      36.105  24.028  25.558  1.00  0.00     0.021 C 
BRANCH   3   4
ATOM      4  C   UNL A   1      34.647  24.144  25.952  1.00  0.00     0.116 C 
BRANCH   4   5
ATOM      5  N   UNL A   1      34.232  22.987  26.678  1.00  0.00    -0.352 N 
ATOM      6  C   UNL A   1      33.636  21.804  26.405  1.00  0.00     0.252 C 
ATOM      7  O   UNL A   1      33.535  21.125  27.442  1.00  0.00    -0.269 OA
ATOM      8  H   UNL A   1      34.435  23.074  27.638  1.00  0.00     0.163 HD
BRANCH   6   9
ATOM      9  C   UNL A   1      33.112  21.220  25.111  1.00  0.00     0.052 A 
ATOM     10  C   UNL A   1      32.539  21.747  23.925  1.00  0.00     0.053 A 
ATOM     11  C   UNL A   1      32.174  20.823  22.890  1.00  0.00     0.015 A 
ATOM     12  C   UNL A   1      32.293  19.439  23.014  1.00  0.00     0.001 A 
ATOM     13  C   UNL A   1      33.206  19.790  25.184  1.00  0.00     0.014 A 
ATOM     14  C   UNL A   1      32.798  18.917  24.179  1.00  0.00     0.001 A 
BRANCH  10  15
ATOM     15  C   UNL A   1      32.104  23.115  23.623  1.00  0.00     0.258 A 
ATOM     16  C   UNL A   1      31.686  25.151  23.207  1.00  0.00     0.206 A 
ATOM     17  N   UNL A   1      30.524  24.689  23.686  1.00  0.00    -0.059 NA
ATOM     18  N   UNL A   1      32.654  24.167  23.048  1.00  0.00    -0.189 NA
ATOM     19  O   UNL A   1      30.793  23.355  23.967  1.00  0.00    -0.334 OA
BRANCH  16  20
ATOM     20  C   UNL A   1      31.892  26.653  23.019  1.00  0.00     0.245 C 
ATOM     21  C   UNL A   1      32.304  30.130  25.712  1.00  0.00     0.332 C 
ATOM     22  N   UNL A   1      31.384  29.126  25.167  1.00  0.00    -0.333 N 
ATOM     23  C   UNL A   1      30.244  29.909  23.971  1.00  0.00     0.290 C 
ATOM     24  C   UNL A   1      32.296  27.629  24.681  1.00  0.00     0.303 C 
ATOM     25  H   UNL A   1      30.740  28.756  25.866  1.00  0.00     0.348 HD
ATOM     26  C   UNL A   1      29.750  29.011  22.336  1.00  0.00     0.222 C 
ATOM     27  O   UNL A   1      30.648  27.436  21.892  1.00  0.00    -0.358 OA
ENDBRANCH  16  20
ENDBRANCH  10  15
ENDBRANCH   6   9
ENDBRANCH   4   5
ENDBRANCH   3   4
ENDBRANCH   2   3
ENDBRANCH   1   2
BRANCH   1  28
ATOM     28  C   UNL A   1      38.227  20.458  24.872  1.00  0.00     0.021 C 
BRANCH  28  29
ATOM     29  C   UNL A   1      39.324  20.557  26.107  1.00  0.00     0.116 C 
BRANCH  29  30
ATOM     30  N   UNL A   1      40.328  19.473  26.047  1.00  0.00    -0.352 N 
ATOM     31  C   UNL A   1      41.693  19.555  26.101  1.00  0.00     0.251 C 
ATOM     32  H   UNL A   1      39.963  18.563  25.956  1.00  0.00     0.163 HD
ATOM     33  O   UNL A   1      42.386  18.562  25.900  1.00  0.00    -0.269 OA
BRANCH  31  34
ATOM     34  C   UNL A   1      42.298  20.864  26.370  1.00  0.00     0.039 A 
ATOM     35  C   UNL A   1      42.507  21.747  25.312  1.00  0.00     0.014 A 
ATOM     36  C   UNL A   1      42.571  21.230  27.689  1.00  0.00     0.014 A 
ATOM     37  C   UNL A   1      42.971  23.029  25.589  1.00  0.00     0.010 A 
ATOM     38  C   UNL A   1      42.900  22.539  27.971  1.00  0.00     0.010 A 
ATOM     39  C   UNL A   1      43.155  23.430  26.921  1.00  0.00    -0.014 A 
BRANCH  39  40
ATOM     40  C   UNL A   1      43.739  24.741  27.261  1.00  0.00     0.031 A 
ATOM     41  C   UNL A   1      42.825  25.798  27.820  1.00  0.00     0.074 A 
ATOM     42  C   UNL A   1      45.029  24.997  26.983  1.00  0.00     0.049 A 
ATOM     43  N   UNL A   1      43.069  27.055  28.063  1.00  0.00    -0.248 NA
ATOM     44  C   UNL A   1      41.427  25.398  28.086  1.00  0.00     0.031 C 
ATOM     45  C   UNL A   1      45.969  24.056  26.367  1.00  0.00     0.029 A 
ATOM     46  N   UNL A   1      45.765  26.137  27.158  1.00  0.00    -0.354 N 
ATOM     47  C   UNL A   1      41.850  27.603  28.446  1.00  0.00     0.074 A 
ATOM     48  C   UNL A   1      40.857  26.561  28.350  1.00  0.00     0.031 C 
ATOM     49  C   UNL A   1      47.161  24.657  26.225  1.00  0.00     0.029 A 
ATOM     50  C   UNL A   1      47.061  26.029  26.710  1.00  0.00     0.049 A 
ATOM     51  H   UNL A   1      45.402  26.956  27.565  1.00  0.00     0.167 HD
ATOM     52  C   UNL A   1      41.591  28.856  28.883  1.00  0.00     0.034 A 
ATOM     53  C   UNL A   1      48.047  26.946  26.697  1.00  0.00     0.034 A 
ATOM     54  C   UNL A   1      42.614  29.847  29.051  1.00  0.00     0.049 A 
ATOM     55  C   UNL A   1      47.758  28.305  27.275  1.00  0.00     0.074 A 
ATOM     56  C   UNL A   1      42.505  31.119  29.577  1.00  0.00     0.029 A 
ATOM     57  N   UNL A   1      43.945  29.662  28.705  1.00  0.00    -0.354 N 
ATOM     58  N   UNL A   1      46.631  28.772  27.761  1.00  0.00    -0.248 NA
ATOM     59  C   UNL A   1      48.878  29.252  27.343  1.00  0.00     0.031 C 
ATOM     60  C   UNL A   1      43.771  31.710  29.538  1.00  0.00     0.029 A 
ATOM     61  C   UNL A   1      44.673  30.794  29.012  1.00  0.00     0.049 A 
ATOM     62  H   UNL A   1      44.316  28.845  28.301  1.00  0.00     0.167 HD
ATOM     63  C   UNL A   1      46.916  30.046  28.232  1.00  0.00     0.074 A 
ATOM     64  C   UNL A   1      48.325  30.274  27.984  1.00  0.00     0.031 C 
ATOM     65  C   UNL A   1      46.090  30.953  28.809  1.00  0.00     0.034 A 
BRANCH  52  66
ATOM     66  C   UNL A   1      40.172  29.188  29.260  1.00  0.00     0.023 A 
ATOM     67  C   UNL A   1      39.257  29.584  28.262  1.00  0.00     0.012 A 
ATOM     68  C   UNL A   1      39.736  29.091  30.595  1.00  0.00     0.148 A 
ATOM     69  C   UNL A   1      37.945  29.922  28.591  1.00  0.00     0.002 A 
ATOM     70  C   UNL A   1      38.412  29.379  30.907  1.00  0.00     0.091 A 
ATOM     71  F   UNL A   1      40.624  28.739  31.534  1.00  0.00    -0.205 F 
ATOM     72  C   UNL A   1      37.520  29.809  29.911  1.00  0.00     0.022 A 
BRANCH  70  73
ATOM     73  S   UNL A   1      37.743  29.185  32.563  1.00  0.00     0.127 S 
ATOM     74  O   UNL A   1      38.568  30.121  33.326  1.00  0.00    -0.237 OA
ATOM     75  O   UNL A   1      36.353  29.605  32.382  1.00  0.00    -0.237 OA
ATOM     76  O   UNL A   1      37.915  27.779  32.904  1.00  0.00    -0.744 OA
ENDBRANCH  70  73
ENDBRANCH  52  66
BRANCH  53  77
ATOM     77  C   UNL A   1      49.404  26.576  26.207  1.00  0.00     0.023 A 
ATOM     78  C   UNL A   1      50.183  25.669  26.952  1.00  0.00     0.012 A 
ATOM     79  C   UNL A   1      49.910  27.075  24.991  1.00  0.00     0.148 A 
ATOM     80  C   UNL A   1      51.454  25.293  26.515  1.00  0.00     0.002 A 
ATOM     81  C   UNL A   1      51.155  26.655  24.535  1.00  0.00     0.091 A 
ATOM     82  F   UNL A   1      49.157  27.939  24.297  1.00  0.00    -0.205 F 
ATOM     83  C   UNL A   1      51.936  25.779  25.303  1.00  0.00     0.022 A 
BRANCH  81  84
ATOM     84  S   UNL A   1      51.796  27.124  22.922  1.00  0.00     0.127 S 
ATOM     85  O   UNL A   1      51.957  28.568  23.073  1.00  0.00    -0.237 OA
ATOM     86  O   UNL A   1      53.048  26.367  22.863  1.00  0.00    -0.237 OA
ATOM     87  O   UNL A   1      50.791  26.693  21.961  1.00  0.00    -0.744 OA
ENDBRANCH  81  84
ENDBRANCH  53  77
BRANCH  65  88
ATOM     88  C   UNL A   1      46.693  32.253  29.265  1.00  0.00     0.023 A 
ATOM     89  C   UNL A   1      47.281  32.343  30.541  1.00  0.00     0.012 A 
ATOM     90  C   UNL A   1      46.774  33.344  28.378  1.00  0.00     0.148 A 
ATOM     91  C   UNL A   1      47.923  33.514  30.937  1.00  0.00     0.002 A 
ATOM     92  C   UNL A   1      47.461  34.487  28.761  1.00  0.00     0.091 A 
ATOM     93  F   UNL A   1      46.190  33.235  27.176  1.00  0.00    -0.205 F 
ATOM     94  C   UNL A   1      48.026  34.579  30.043  1.00  0.00     0.022 A 
BRANCH  92  95
ATOM     95  S   UNL A   1      47.735  35.861  27.638  1.00  0.00     0.127 S 
ATOM     96  O   UNL A   1      46.382  36.389  27.478  1.00  0.00    -0.237 OA
ATOM     97  O   UNL A   1      48.637  36.716  28.409  1.00  0.00    -0.237 OA
ATOM     98  O   UNL A   1      48.327  35.287  26.437  1.00  0.00    -0.744 OA
ENDBRANCH  92  95
ENDBRANCH  65  88
ENDBRANCH  39  40
ENDBRANCH  31  34
ENDBRANCH  29  30
ENDBRANCH  28  29
ENDBRANCH   1  28
TORSDOF 18
ENDMDL
MODEL 2
REMARK VINA RESULT:     -12.8      6.152     10.560
REMARK SMILES C[N@H+]1CCO[C@H](c2noc(-c3ccccc3C(=O)NCCCCCCNC(=O)c3ccc(-c4c5nc(c(-c6cccc(S(=O)(=O)[O-])c6F)c6ccc([nH]6)c(-c6cccc(S(=O)(=O)[O-])c6F)c6nc(c(-c7cccc(S(=O)(=O)[O-])c7F)c7ccc4[nH]7)C=C6)C=C5)cc3)n2)C1
REMARK SMILES IDX 23 1 22 2 21 3 20 4 19 5 17 6 18 7 16 9 11 10 12 11 13 12
REMARK SMILES IDX 15 13 14 14 10 15 7 16 8 17 92 18 9 19 6 20 1 21 2 22 3 23
REMARK SMILES IDX 93 24 4 26 5 27 24 28 25 29 26 30 27 31 28 33 29 34 30 35
REMARK SMILES IDX 91 36 31 37 90 38 32 39 33 40 34 41 84 42 35 43 89 44 83 45
REMARK SMILES IDX 85 46 36 47 88 48 82 49 81 50 37 52 69 53 49 54 68 55 50 56
REMARK SMILES IDX 53 57 67 58 86 59 51 60 52 61 66 63 87 64 54 65 38 66 39 67
REMARK SMILES IDX 47 68 40 69 42 70 48 71 41 72 43 73 44 74 45 75 46 76 70 77
REMARK SMILES IDX 71 78 79 79 72 80 74 81 80 82 73 83 75 84 76 85 77 86 78 87
REMARK SMILES IDX 55 88 56 89 64 90 57 91 59 92 65 93 58 94 60 95 61 96 62 97
REMARK SMILES IDX 63 98
REMARK H PARENT 19 8 2 25 26 32 85 51 53 62
REMARK Flexibility Score: inf
ROOT
ATOM      1  C   UNL A   1      34.417  32.038  28.657  1.00  0.00     0.002 C 
ENDROOT
BRANCH   1   2
ATOM      2  C   UNL A   1      35.246  30.959  27.610  1.00  0.00     0.002 C 
BRANCH   2   3
ATOM      3  C   UNL A   1      34.875  29.483  27.669  1.00  0.00     0.021 C 
BRANCH   3   4
ATOM      4  C   UNL A   1      34.297  28.938  26.379  1.00  0.00     0.116 C 
BRANCH   4   5
ATOM      5  N   UNL A   1      33.275  27.980  26.656  1.00  0.00    -0.352 N 
ATOM      6  C   UNL A   1      32.158  27.516  26.052  1.00  0.00     0.252 C 
ATOM      7  O   UNL A   1      31.635  26.624  26.743  1.00  0.00    -0.269 OA
ATOM      8  H   UNL A   1      33.425  27.536  27.523  1.00  0.00     0.163 HD
BRANCH   6   9
ATOM      9  C   UNL A   1      31.494  27.894  24.745  1.00  0.00     0.052 A 
ATOM     10  C   UNL A   1      31.349  27.283  23.473  1.00  0.00     0.053 A 
ATOM     11  C   UNL A   1      30.610  27.994  22.470  1.00  0.00     0.015 A 
ATOM     12  C   UNL A   1      30.084  29.271  22.659  1.00  0.00     0.001 A 
ATOM     13  C   UNL A   1      30.936  29.209  24.881  1.00  0.00     0.014 A 
ATOM     14  C   UNL A   1      30.264  29.892  23.870  1.00  0.00     0.001 A 
BRANCH  10  15
ATOM     15  C   UNL A   1      31.976  26.068  22.941  1.00  0.00     0.258 A 
ATOM     16  C   UNL A   1      32.947  24.270  22.378  1.00  0.00     0.206 A 
ATOM     17  N   UNL A   1      32.951  24.990  21.248  1.00  0.00    -0.059 NA
ATOM     18  N   UNL A   1      32.245  24.868  23.418  1.00  0.00    -0.189 NA
ATOM     19  O   UNL A   1      32.321  26.174  21.613  1.00  0.00    -0.334 OA
BRANCH  16  20
ATOM     20  C   UNL A   1      33.782  22.994  22.475  1.00  0.00     0.245 C 
ATOM     21  C   UNL A   1      33.583  19.284  24.863  1.00  0.00     0.332 C 
ATOM     22  N   UNL A   1      33.868  20.723  24.887  1.00  0.00    -0.333 N 
ATOM     23  C   UNL A   1      35.667  20.999  25.061  1.00  0.00     0.290 C 
ATOM     24  C   UNL A   1      32.960  21.570  23.558  1.00  0.00     0.303 C 
ATOM     25  H   UNL A   1      33.499  21.186  25.716  1.00  0.00     0.348 HD
ATOM     26  C   UNL A   1      36.556  22.402  24.077  1.00  0.00     0.222 C 
ATOM     27  O   UNL A   1      35.583  23.309  22.768  1.00  0.00    -0.358 OA
ENDBRANCH  16  20
ENDBRANCH  10  15
ENDBRANCH   6   9
ENDBRANCH   4   5
ENDBRANCH   3   4
ENDBRANCH   2   3
ENDBRANCH   1   2
BRANCH   1  28
ATOM     28  C   UNL A   1      33.446  33.902  28.364  1.00  0.00     0.021 C 
BRANCH  28  29
ATOM     29  C   UNL A   1      33.686  35.445  28.913  1.00  0.00     0.116 C 
BRANCH  29  30
ATOM     30  N   UNL A   1      32.790  35.780  30.040  1.00  0.00    -0.352 N 
ATOM     31  C   UNL A   1      32.871  35.399  31.352  1.00  0.00     0.251 C 
ATOM     32  H   UNL A   1      32.027  36.361  29.816  1.00  0.00     0.163 HD
ATOM     33  O   UNL A   1      31.962  35.658  32.135  1.00  0.00    -0.269 OA
BRANCH  31  34
ATOM     34  C   UNL A   1      34.053  34.645  31.782  1.00  0.00     0.039 A 
ATOM     35  C   UNL A   1      33.924  33.289  32.081  1.00  0.00     0.014 A 
ATOM     36  C   UNL A   1      35.297  35.280  31.799  1.00  0.00     0.014 A 
ATOM     37  C   UNL A   1      35.069  32.554  32.374  1.00  0.00     0.010 A 
ATOM     38  C   UNL A   1      36.438  34.522  31.956  1.00  0.00     0.010 A 
ATOM     39  C   UNL A   1      36.328  33.168  32.298  1.00  0.00    -0.014 A 
BRANCH  39  40
ATOM     40  C   UNL A   1      37.560  32.460  32.696  1.00  0.00     0.031 A 
ATOM     41  C   UNL A   1      38.119  32.730  34.066  1.00  0.00     0.074 A 
ATOM     42  C   UNL A   1      38.202  31.676  31.811  1.00  0.00     0.049 A 
ATOM     43  N   UNL A   1      39.249  32.341  34.588  1.00  0.00    -0.248 NA
ATOM     44  C   UNL A   1      37.322  33.606  34.950  1.00  0.00     0.031 C 
ATOM     45  C   UNL A   1      37.773  31.421  30.433  1.00  0.00     0.029 A 
ATOM     46  N   UNL A   1      39.368  30.971  31.933  1.00  0.00    -0.354 N 
ATOM     47  C   UNL A   1      39.325  32.973  35.823  1.00  0.00     0.074 A 
ATOM     48  C   UNL A   1      38.159  33.812  35.953  1.00  0.00     0.031 C 
ATOM     49  C   UNL A   1      38.662  30.607  29.841  1.00  0.00     0.029 A 
ATOM     50  C   UNL A   1      39.734  30.310  30.785  1.00  0.00     0.049 A 
ATOM     51  H   UNL A   1      39.895  30.941  32.764  1.00  0.00     0.167 HD
ATOM     52  C   UNL A   1      40.264  32.830  36.785  1.00  0.00     0.034 A 
ATOM     53  C   UNL A   1      40.819  29.552  30.536  1.00  0.00     0.034 A 
ATOM     54  C   UNL A   1      41.368  31.922  36.664  1.00  0.00     0.049 A 
ATOM     55  C   UNL A   1      41.802  29.334  31.654  1.00  0.00     0.074 A 
ATOM     56  C   UNL A   1      42.332  31.607  37.600  1.00  0.00     0.029 A 
ATOM     57  N   UNL A   1      41.639  31.168  35.531  1.00  0.00    -0.354 N 
ATOM     58  N   UNL A   1      41.793  29.832  32.869  1.00  0.00    -0.248 NA
ATOM     59  C   UNL A   1      42.921  28.422  31.388  1.00  0.00     0.031 C 
ATOM     60  C   UNL A   1      43.197  30.669  37.028  1.00  0.00     0.029 A 
ATOM     61  C   UNL A   1      42.753  30.382  35.744  1.00  0.00     0.049 A 
ATOM     62  H   UNL A   1      41.114  31.191  34.698  1.00  0.00     0.167 HD
ATOM     63  C   UNL A   1      42.875  29.260  33.525  1.00  0.00     0.074 A 
ATOM     64  C   UNL A   1      43.512  28.369  32.575  1.00  0.00     0.031 C 
ATOM     65  C   UNL A   1      43.314  29.458  34.792  1.00  0.00     0.034 A 
BRANCH  52  66
ATOM     66  C   UNL A   1      40.096  33.622  38.054  1.00  0.00     0.023 A 
ATOM     67  C   UNL A   1      40.826  34.815  38.236  1.00  0.00     0.012 A 
ATOM     68  C   UNL A   1      39.202  33.202  39.056  1.00  0.00     0.148 A 
ATOM     69  C   UNL A   1      40.707  35.552  39.414  1.00  0.00     0.002 A 
ATOM     70  C   UNL A   1      39.049  33.970  40.206  1.00  0.00     0.091 A 
ATOM     71  F   UNL A   1      38.535  32.054  38.879  1.00  0.00    -0.205 F 
ATOM     72  C   UNL A   1      39.810  35.135  40.393  1.00  0.00     0.022 A 
BRANCH  70  73
ATOM     73  S   UNL A   1      37.860  33.565  41.490  1.00  0.00     0.127 S 
ATOM     74  O   UNL A   1      37.878  34.781  42.303  1.00  0.00    -0.237 OA
ATOM     75  O   UNL A   1      36.632  33.367  40.718  1.00  0.00    -0.237 OA
ATOM     76  O   UNL A   1      38.367  32.367  42.145  1.00  0.00    -0.744 OA
ENDBRANCH  70  73
ENDBRANCH  52  66
BRANCH  53  77
ATOM     77  C   UNL A   1      40.974  28.882  29.214  1.00  0.00     0.023 A 
ATOM     78  C   UNL A   1      41.622  29.566  28.166  1.00  0.00     0.012 A 
ATOM     79  C   UNL A   1      40.530  27.563  29.001  1.00  0.00     0.148 A 
ATOM     80  C   UNL A   1      41.794  28.962  26.920  1.00  0.00     0.002 A 
ATOM     81  C   UNL A   1      40.752  26.948  27.772  1.00  0.00     0.091 A 
ATOM     82  F   UNL A   1      39.913  26.929  30.007  1.00  0.00    -0.205 F 
ATOM     83  C   UNL A   1      41.367  27.651  26.726  1.00  0.00     0.022 A 
BRANCH  81  84
ATOM     84  S   UNL A   1      40.358  25.220  27.477  1.00  0.00     0.127 S 
ATOM     85  O   UNL A   1      40.841  25.032  26.112  1.00  0.00    -0.237 OA
ATOM     86  O   UNL A   1      41.150  24.548  28.509  1.00  0.00    -0.237 OA
ATOM     87  O   UNL A   1      38.918  25.108  27.664  1.00  0.00    -0.744 OA
ENDBRANCH  81  84
ENDBRANCH  53  77
BRANCH  65  88
ATOM     88  C   UNL A   1      44.502  28.659  35.250  1.00  0.00     0.023 A 
ATOM     89  C   UNL A   1      45.789  29.227  35.202  1.00  0.00     0.012 A 
ATOM     90  C   UNL A   1      44.318  27.391  35.834  1.00  0.00     0.148 A 
ATOM     91  C   UNL A   1      46.884  28.529  35.709  1.00  0.00     0.002 A 
ATOM     92  C   UNL A   1      45.405  26.726  36.384  1.00  0.00     0.091 A 
ATOM     93  F   UNL A   1      43.082  26.868  35.851  1.00  0.00    -0.205 F 
ATOM     94  C   UNL A   1      46.690  27.288  36.313  1.00  0.00     0.022 A 
BRANCH  92  95
ATOM     95  S   UNL A   1      45.230  25.176  37.274  1.00  0.00     0.127 S 
ATOM     96  O   UNL A   1      46.621  24.745  37.396  1.00  0.00    -0.237 OA
ATOM     97  O   UNL A   1      44.612  25.608  38.528  1.00  0.00    -0.237 OA
ATOM     98  O   UNL A   1      44.384  24.328  36.445  1.00  0.00    -0.744 OA
ENDBRANCH  92  95
ENDBRANCH  65  88
ENDBRANCH  39  40
ENDBRANCH  31  34
ENDBRANCH  29  30
ENDBRANCH  28  29
ENDBRANCH   1  28
TORSDOF 18
ENDMDL
MODEL 3
REMARK VINA RESULT:     -12.7      5.890      9.401
REMARK SMILES C[N@H+]1CCO[C@H](c2noc(-c3ccccc3C(=O)NCCCCCCNC(=O)c3ccc(-c4c5nc(c(-c6cccc(S(=O)(=O)[O-])c6F)c6ccc([nH]6)c(-c6cccc(S(=O)(=O)[O-])c6F)c6nc(c(-c7cccc(S(=O)(=O)[O-])c7F)c7ccc4[nH]7)C=C6)C=C5)cc3)n2)C1
REMARK SMILES IDX 23 1 22 2 21 3 20 4 19 5 17 6 18 7 16 9 11 10 12 11 13 12
REMARK SMILES IDX 15 13 14 14 10 15 7 16 8 17 92 18 9 19 6 20 1 21 2 22 3 23
REMARK SMILES IDX 93 24 4 26 5 27 24 28 25 29 26 30 27 31 28 33 29 34 30 35
REMARK SMILES IDX 91 36 31 37 90 38 32 39 33 40 34 41 84 42 35 43 89 44 83 45
REMARK SMILES IDX 85 46 36 47 88 48 82 49 81 50 37 52 69 53 49 54 68 55 50 56
REMARK SMILES IDX 53 57 67 58 86 59 51 60 52 61 66 63 87 64 54 65 38 66 39 67
REMARK SMILES IDX 47 68 40 69 42 70 48 71 41 72 43 73 44 74 45 75 46 76 70 77
REMARK SMILES IDX 71 78 79 79 72 80 74 81 80 82 73 83 75 84 76 85 77 86 78 87
REMARK SMILES IDX 55 88 56 89 64 90 57 91 59 92 65 93 58 94 60 95 61 96 62 97
REMARK SMILES IDX 63 98
REMARK H PARENT 19 8 2 25 26 32 85 51 53 62
REMARK Flexibility Score: inf
ROOT
ATOM      1  C   UNL A   1      30.505  29.952  24.545  1.00  0.00     0.002 C 
ENDROOT
BRANCH   1   2
ATOM      2  C   UNL A   1      30.196  28.686  23.427  1.00  0.00     0.002 C 
BRANCH   2   3
ATOM      3  C   UNL A   1      28.872  27.941  23.544  1.00  0.00     0.021 C 
BRANCH   3   4
ATOM      4  C   UNL A   1      29.007  26.432  23.513  1.00  0.00     0.116 C 
BRANCH   4   5
ATOM      5  N   UNL A   1      29.003  25.903  24.839  1.00  0.00    -0.352 N 
ATOM      6  C   UNL A   1      29.906  25.666  25.816  1.00  0.00     0.252 C 
ATOM      7  O   UNL A   1      29.338  25.206  26.823  1.00  0.00    -0.269 OA
ATOM      8  H   UNL A   1      28.095  25.639  25.116  1.00  0.00     0.163 HD
BRANCH   6   9
ATOM      9  C   UNL A   1      31.406  25.866  25.866  1.00  0.00     0.052 A 
ATOM     10  C   UNL A   1      32.538  25.122  25.447  1.00  0.00     0.053 A 
ATOM     11  C   UNL A   1      33.834  25.690  25.676  1.00  0.00     0.015 A 
ATOM     12  C   UNL A   1      34.041  26.898  26.343  1.00  0.00     0.001 A 
ATOM     13  C   UNL A   1      31.678  27.099  26.550  1.00  0.00     0.014 A 
ATOM     14  C   UNL A   1      32.953  27.600  26.799  1.00  0.00     0.001 A 
BRANCH  10  15
ATOM     15  C   UNL A   1      32.618  23.751  24.930  1.00  0.00     0.258 A 
ATOM     16  C   UNL A   1      32.548  21.731  24.293  1.00  0.00     0.206 A 
ATOM     17  N   UNL A   1      33.852  22.030  24.228  1.00  0.00    -0.059 NA
ATOM     18  N   UNL A   1      31.742  22.817  24.616  1.00  0.00    -0.189 NA
ATOM     19  O   UNL A   1      33.906  23.352  24.651  1.00  0.00    -0.334 OA
BRANCH  16  20
ATOM     20  C   UNL A   1      32.087  20.280  24.156  1.00  0.00     0.245 C 
ATOM     21  C   UNL A   1      33.341  16.411  25.877  1.00  0.00     0.332 C 
ATOM     22  N   UNL A   1      33.690  17.488  24.945  1.00  0.00    -0.333 N 
ATOM     23  C   UNL A   1      33.496  16.909  23.221  1.00  0.00     0.290 C 
ATOM     24  C   UNL A   1      32.903  19.046  25.456  1.00  0.00     0.303 C 
ATOM     25  H   UNL A   1      34.678  17.737  24.977  1.00  0.00     0.348 HD
ATOM     26  C   UNL A   1      32.751  18.062  21.864  1.00  0.00     0.222 C 
ATOM     27  O   UNL A   1      32.014  19.690  22.402  1.00  0.00    -0.358 OA
ENDBRANCH  16  20
ENDBRANCH  10  15
ENDBRANCH   6   9
ENDBRANCH   4   5
ENDBRANCH   3   4
ENDBRANCH   2   3
ENDBRANCH   1   2
BRANCH   1  28
ATOM     28  C   UNL A   1      32.235  30.576  25.604  1.00  0.00     0.021 C 
BRANCH  28  29
ATOM     29  C   UNL A   1      32.543  31.075  27.152  1.00  0.00     0.116 C 
BRANCH  29  30
ATOM     30  N   UNL A   1      32.622  32.548  27.256  1.00  0.00    -0.352 N 
ATOM     31  C   UNL A   1      33.572  33.322  27.865  1.00  0.00     0.251 C 
ATOM     32  H   UNL A   1      31.888  33.042  26.825  1.00  0.00     0.163 HD
ATOM     33  O   UNL A   1      33.413  34.534  27.975  1.00  0.00    -0.269 OA
BRANCH  31  34
ATOM     34  C   UNL A   1      34.761  32.657  28.410  1.00  0.00     0.039 A 
ATOM     35  C   UNL A   1      36.024  33.067  27.985  1.00  0.00     0.014 A 
ATOM     36  C   UNL A   1      34.605  31.691  29.405  1.00  0.00     0.014 A 
ATOM     37  C   UNL A   1      37.148  32.515  28.591  1.00  0.00     0.010 A 
ATOM     38  C   UNL A   1      35.714  31.248  30.094  1.00  0.00     0.010 A 
ATOM     39  C   UNL A   1      36.994  31.615  29.656  1.00  0.00    -0.014 A 
BRANCH  39  40
ATOM     40  C   UNL A   1      38.149  30.929  30.264  1.00  0.00     0.031 A 
ATOM     41  C   UNL A   1      38.571  31.346  31.647  1.00  0.00     0.074 A 
ATOM     42  C   UNL A   1      38.849  30.029  29.551  1.00  0.00     0.049 A 
ATOM     43  N   UNL A   1      39.625  30.994  32.329  1.00  0.00    -0.248 NA
ATOM     44  C   UNL A   1      37.721  32.342  32.332  1.00  0.00     0.031 C 
ATOM     45  C   UNL A   1      38.558  29.622  28.174  1.00  0.00     0.029 A 
ATOM     46  N   UNL A   1      39.969  29.314  29.880  1.00  0.00    -0.354 N 
ATOM     47  C   UNL A   1      39.596  31.767  33.484  1.00  0.00     0.074 A 
ATOM     48  C   UNL A   1      38.455  32.645  33.388  1.00  0.00     0.031 C 
ATOM     49  C   UNL A   1      39.473  28.721  27.780  1.00  0.00     0.029 A 
ATOM     50  C   UNL A   1      40.427  28.512  28.863  1.00  0.00     0.049 A 
ATOM     51  H   UNL A   1      40.404  29.370  30.761  1.00  0.00     0.167 HD
ATOM     52  C   UNL A   1      40.423  31.716  34.552  1.00  0.00     0.034 A 
ATOM     53  C   UNL A   1      41.503  27.702  28.822  1.00  0.00     0.034 A 
ATOM     54  C   UNL A   1      41.498  30.772  34.657  1.00  0.00     0.049 A 
ATOM     55  C   UNL A   1      42.355  27.594  30.058  1.00  0.00     0.074 A 
ATOM     56  C   UNL A   1      42.346  30.547  35.723  1.00  0.00     0.029 A 
ATOM     57  N   UNL A   1      41.857  29.882  33.655  1.00  0.00    -0.354 N 
ATOM     58  N   UNL A   1      42.238  28.233  31.199  1.00  0.00    -0.248 NA
ATOM     59  C   UNL A   1      43.460  26.628  30.022  1.00  0.00     0.031 C 
ATOM     60  C   UNL A   1      43.230  29.526  35.360  1.00  0.00     0.029 A 
ATOM     61  C   UNL A   1      42.912  29.099  34.078  1.00  0.00     0.049 A 
ATOM     62  H   UNL A   1      41.423  29.818  32.774  1.00  0.00     0.167 HD
ATOM     63  C   UNL A   1      43.223  27.717  32.030  1.00  0.00     0.074 A 
ATOM     64  C   UNL A   1      43.921  26.703  31.265  1.00  0.00     0.031 C 
ATOM     65  C   UNL A   1      43.533  28.054  33.306  1.00  0.00     0.034 A 
BRANCH  52  66
ATOM     66  C   UNL A   1      40.153  32.658  35.695  1.00  0.00     0.023 A 
ATOM     67  C   UNL A   1      40.819  33.900  35.749  1.00  0.00     0.012 A 
ATOM     68  C   UNL A   1      39.227  32.328  36.702  1.00  0.00     0.148 A 
ATOM     69  C   UNL A   1      40.605  34.778  36.812  1.00  0.00     0.002 A 
ATOM     70  C   UNL A   1      38.980  33.231  37.730  1.00  0.00     0.091 A 
ATOM     71  F   UNL A   1      38.622  31.134  36.648  1.00  0.00    -0.205 F 
ATOM     72  C   UNL A   1      39.678  34.448  37.795  1.00  0.00     0.022 A 
BRANCH  70  73
ATOM     73  S   UNL A   1      37.744  32.938  39.000  1.00  0.00     0.127 S 
ATOM     74  O   UNL A   1      36.511  32.921  38.214  1.00  0.00    -0.237 OA
ATOM     75  O   UNL A   1      38.150  31.634  39.526  1.00  0.00    -0.237 OA
ATOM     76  O   UNL A   1      37.868  34.041  39.945  1.00  0.00    -0.744 OA
ENDBRANCH  70  73
ENDBRANCH  52  66
BRANCH  53  77
ATOM     77  C   UNL A   1      41.770  26.875  27.612  1.00  0.00     0.023 A 
ATOM     78  C   UNL A   1      42.349  27.479  26.478  1.00  0.00     0.012 A 
ATOM     79  C   UNL A   1      41.501  25.493  27.590  1.00  0.00     0.148 A 
ATOM     80  C   UNL A   1      42.622  26.730  25.333  1.00  0.00     0.002 A 
ATOM     81  C   UNL A   1      41.825  24.743  26.465  1.00  0.00     0.091 A 
ATOM     82  F   UNL A   1      40.947  24.936  28.676  1.00  0.00    -0.205 F 
ATOM     83  C   UNL A   1      42.369  25.361  25.329  1.00  0.00     0.022 A 
BRANCH  81  84
ATOM     84  S   UNL A   1      41.658  22.953  26.422  1.00  0.00     0.127 S 
ATOM     85  O   UNL A   1      40.209  22.790  26.343  1.00  0.00    -0.237 OA
ATOM     86  O   UNL A   1      42.385  22.611  25.198  1.00  0.00    -0.237 OA
ATOM     87  O   UNL A   1      42.286  22.472  27.644  1.00  0.00    -0.744 OA
ENDBRANCH  81  84
ENDBRANCH  53  77
BRANCH  65  88
ATOM     88  C   UNL A   1      44.636  27.285  33.980  1.00  0.00     0.023 A 
ATOM     89  C   UNL A   1      45.949  27.793  33.974  1.00  0.00     0.012 A 
ATOM     90  C   UNL A   1      44.339  26.120  34.714  1.00  0.00     0.148 A 
ATOM     91  C   UNL A   1      46.959  27.135  34.674  1.00  0.00     0.002 A 
ATOM     92  C   UNL A   1      45.339  25.501  35.450  1.00  0.00     0.091 A 
ATOM     93  F   UNL A   1      43.083  25.651  34.687  1.00  0.00    -0.205 F 
ATOM     94  C   UNL A   1      46.652  26.000  35.422  1.00  0.00     0.022 A 
BRANCH  92  95
ATOM     95  S   UNL A   1      45.010  24.101  36.526  1.00  0.00     0.127 S 
ATOM     96  O   UNL A   1      44.123  24.696  37.523  1.00  0.00    -0.237 OA
ATOM     97  O   UNL A   1      44.362  23.158  35.616  1.00  0.00    -0.237 OA
ATOM     98  O   UNL A   1      46.307  23.664  37.025  1.00  0.00    -0.744 OA
ENDBRANCH  92  95
ENDBRANCH  65  88
ENDBRANCH  39  40
ENDBRANCH  31  34
ENDBRANCH  29  30
ENDBRANCH  28  29
ENDBRANCH   1  28
TORSDOF 18
ENDMDL
