MODEL 1
REMARK VINA RESULT:     -11.7      0.000      0.000
REMARK SMILES O=C(Nc1c(F)cc(F)cc1F)N[C@H]1C=C[C@@H](C(=O)NCCCCCCNC(=O)c2ccc(-c3c4nc(c(-c5cccc(S(=O)(=O)[O-])c5F)c5ccc([nH]5)c(-c5cccc(S(=O)(=O)[O-])c5F)c5nc(c(-c6cccc(S(=O)(=O)[O-])c6F)c6ccc3[nH]6)C=C5)C=C4)cc2)C1
REMARK SMILES IDX 24 1 23 2 22 3 21 4 20 5 18 6 19 7 17 9 14 10 15 11 93 12
REMARK SMILES IDX 16 13 13 14 1 15 2 16 3 17 4 20 5 21 11 22 6 23 7 24 10 25
REMARK SMILES IDX 12 26 8 27 9 28 25 29 26 30 27 31 28 32 29 34 30 35 31 36
REMARK SMILES IDX 92 37 32 38 91 39 33 40 34 41 35 42 85 43 36 44 90 45 84 46
REMARK SMILES IDX 86 47 37 48 89 49 83 50 82 51 38 53 70 54 50 55 69 56 51 57
REMARK SMILES IDX 54 58 68 59 87 60 52 61 53 62 67 64 88 65 55 66 39 67 40 68
REMARK SMILES IDX 48 69 41 70 43 71 49 72 42 73 44 74 45 75 46 76 47 77 71 78
REMARK SMILES IDX 72 79 80 80 73 81 75 82 81 83 74 84 76 85 77 86 78 87 79 88
REMARK SMILES IDX 56 89 57 90 65 91 58 92 60 93 66 94 59 95 61 96 62 97 63 98
REMARK SMILES IDX 64 99
REMARK H PARENT 20 8 3 18 13 19 27 33 86 52 54 63
REMARK Flexibility Score: inf
ROOT
ATOM      1  C   UNL A   1      33.008  26.486  26.292  1.00  0.00     0.002 C 
ENDROOT
BRANCH   1   2
ATOM      2  C   UNL A   1      31.606  25.902  26.088  1.00  0.00     0.002 C 
BRANCH   2   3
ATOM      3  C   UNL A   1      31.491  24.395  26.337  1.00  0.00     0.021 C 
BRANCH   3   4
ATOM      4  C   UNL A   1      31.012  23.598  25.126  1.00  0.00     0.116 C 
BRANCH   4   5
ATOM      5  N   UNL A   1      31.142  22.169  25.330  1.00  0.00    -0.356 N 
ATOM      6  C   UNL A   1      32.128  21.310  24.958  1.00  0.00     0.227 C 
ATOM      7  O   UNL A   1      32.008  20.129  25.308  1.00  0.00    -0.274 OA
ATOM      8  H   UNL A   1      30.395  21.754  25.820  1.00  0.00     0.163 HD
BRANCH   6   9
ATOM      9  C   UNL A   1      33.342  21.744  24.127  1.00  0.00     0.103 C 
ATOM     10  C   UNL A   1      33.784  23.691  22.663  1.00  0.00     0.107 C 
ATOM     11  C   UNL A   1      34.497  23.783  23.980  1.00  0.00    -0.006 C 
ATOM     12  C   UNL A   1      32.983  22.380  22.781  1.00  0.00     0.047 C 
ATOM     13  C   UNL A   1      34.240  22.744  24.784  1.00  0.00    -0.016 C 
BRANCH  10  14
ATOM     14  N   UNL A   1      32.986  24.888  22.510  1.00  0.00    -0.332 N 
ATOM     15  O   UNL A   1      33.075  25.005  20.232  1.00  0.00    -0.248 OA
ATOM     16  C   UNL A   1      32.722  25.477  21.311  1.00  0.00     0.319 C 
ATOM     17  N   UNL A   1      31.858  26.533  21.329  1.00  0.00    -0.303 N 
ATOM     18  H   UNL A   1      31.338  26.647  20.500  1.00  0.00     0.172 HD
ATOM     19  H   UNL A   1      32.611  25.300  23.322  1.00  0.00     0.165 HD
BRANCH  17  20
ATOM     20  C   UNL A   1      31.578  27.489  22.327  1.00  0.00     0.115 A 
ATOM     21  C   UNL A   1      30.397  27.517  23.077  1.00  0.00     0.152 A 
ATOM     22  C   UNL A   1      32.579  28.416  22.645  1.00  0.00     0.152 A 
ATOM     23  F   UNL A   1      29.428  26.614  22.864  1.00  0.00    -0.204 F 
ATOM     24  C   UNL A   1      30.211  28.443  24.097  1.00  0.00     0.081 A 
ATOM     25  C   UNL A   1      32.402  29.364  23.647  1.00  0.00     0.081 A 
ATOM     26  F   UNL A   1      33.724  28.420  21.944  1.00  0.00    -0.204 F 
ATOM     27  C   UNL A   1      31.216  29.362  24.368  1.00  0.00     0.129 A 
ATOM     28  F   UNL A   1      31.042  30.253  25.350  1.00  0.00    -0.207 F 
ENDBRANCH  17  20
ENDBRANCH  10  14
ENDBRANCH   6   9
ENDBRANCH   4   5
ENDBRANCH   3   4
ENDBRANCH   2   3
ENDBRANCH   1   2
BRANCH   1  29
ATOM     29  C   UNL A   1      33.049  27.851  26.986  1.00  0.00     0.021 C 
BRANCH  29  30
ATOM     30  C   UNL A   1      34.180  28.761  26.524  1.00  0.00     0.116 C 
BRANCH  30  31
ATOM     31  N   UNL A   1      33.939  30.151  26.884  1.00  0.00    -0.352 N 
ATOM     32  C   UNL A   1      34.628  30.950  27.760  1.00  0.00     0.251 C 
ATOM     33  H   UNL A   1      33.173  30.577  26.436  1.00  0.00     0.163 HD
ATOM     34  O   UNL A   1      34.160  32.036  28.101  1.00  0.00    -0.269 OA
BRANCH  32  35
ATOM     35  C   UNL A   1      35.926  30.499  28.302  1.00  0.00     0.039 A 
ATOM     36  C   UNL A   1      35.945  29.730  29.468  1.00  0.00     0.014 A 
ATOM     37  C   UNL A   1      37.121  30.836  27.661  1.00  0.00     0.014 A 
ATOM     38  C   UNL A   1      37.161  29.252  29.960  1.00  0.00     0.010 A 
ATOM     39  C   UNL A   1      38.322  30.296  28.110  1.00  0.00     0.010 A 
ATOM     40  C   UNL A   1      38.356  29.504  29.268  1.00  0.00    -0.014 A 
BRANCH  40  41
ATOM     41  C   UNL A   1      39.652  28.949  29.736  1.00  0.00     0.031 A 
ATOM     42  C   UNL A   1      40.403  29.623  30.853  1.00  0.00     0.074 A 
ATOM     43  C   UNL A   1      40.192  27.890  29.103  1.00  0.00     0.049 A 
ATOM     44  N   UNL A   1      41.576  29.329  31.352  1.00  0.00    -0.248 NA
ATOM     45  C   UNL A   1      39.768  30.799  31.471  1.00  0.00     0.031 C 
ATOM     46  C   UNL A   1      39.593  27.189  27.964  1.00  0.00     0.029 A 
ATOM     47  N   UNL A   1      41.378  27.231  29.309  1.00  0.00    -0.354 N 
ATOM     48  C   UNL A   1      41.833  30.298  32.315  1.00  0.00     0.074 A 
ATOM     49  C   UNL A   1      40.714  31.213  32.301  1.00  0.00     0.031 C 
ATOM     50  C   UNL A   1      40.410  26.196  27.580  1.00  0.00     0.029 A 
ATOM     51  C   UNL A   1      41.605  26.210  28.416  1.00  0.00     0.049 A 
ATOM     52  H   UNL A   1      42.007  27.467  30.028  1.00  0.00     0.167 HD
ATOM     53  C   UNL A   1      42.890  30.402  33.155  1.00  0.00     0.034 A 
ATOM     54  C   UNL A   1      42.662  25.385  28.279  1.00  0.00     0.034 A 
ATOM     55  C   UNL A   1      43.986  29.471  33.188  1.00  0.00     0.049 A 
ATOM     56  C   UNL A   1      43.819  25.513  29.235  1.00  0.00     0.074 A 
ATOM     57  C   UNL A   1      45.066  29.444  34.052  1.00  0.00     0.029 A 
ATOM     58  N   UNL A   1      44.148  28.407  32.312  1.00  0.00    -0.354 N 
ATOM     59  N   UNL A   1      43.976  26.348  30.232  1.00  0.00    -0.248 NA
ATOM     60  C   UNL A   1      44.927  24.562  29.067  1.00  0.00     0.031 C 
ATOM     61  C   UNL A   1      45.899  28.385  33.677  1.00  0.00     0.029 A 
ATOM     62  C   UNL A   1      45.317  27.726  32.606  1.00  0.00     0.049 A 
ATOM     63  H   UNL A   1      43.523  28.172  31.589  1.00  0.00     0.167 HD
ATOM     64  C   UNL A   1      45.177  25.997  30.837  1.00  0.00     0.074 A 
ATOM     65  C   UNL A   1      45.699  24.862  30.102  1.00  0.00     0.031 C 
ATOM     66  C   UNL A   1      45.798  26.567  31.899  1.00  0.00     0.034 A 
BRANCH  53  67
ATOM     67  C   UNL A   1      42.893  31.546  34.136  1.00  0.00     0.023 A 
ATOM     68  C   UNL A   1      43.530  32.758  33.795  1.00  0.00     0.012 A 
ATOM     69  C   UNL A   1      42.229  31.441  35.373  1.00  0.00     0.148 A 
ATOM     70  C   UNL A   1      43.543  33.830  34.687  1.00  0.00     0.002 A 
ATOM     71  C   UNL A   1      42.202  32.531  36.236  1.00  0.00     0.091 A 
ATOM     72  F   UNL A   1      41.645  30.276  35.690  1.00  0.00    -0.205 F 
ATOM     73  C   UNL A   1      42.871  33.720  35.900  1.00  0.00     0.022 A 
BRANCH  71  74
ATOM     74  S   UNL A   1      41.295  32.519  37.786  1.00  0.00     0.127 S 
ATOM     75  O   UNL A   1      42.064  31.552  38.568  1.00  0.00    -0.237 OA
ATOM     76  O   UNL A   1      41.427  33.906  38.230  1.00  0.00    -0.237 OA
ATOM     77  O   UNL A   1      39.937  32.114  37.453  1.00  0.00    -0.744 OA
ENDBRANCH  71  74
ENDBRANCH  53  67
BRANCH  54  78
ATOM     78  C   UNL A   1      42.652  24.326  27.230  1.00  0.00     0.023 A 
ATOM     79  C   UNL A   1      43.283  24.570  25.994  1.00  0.00     0.012 A 
ATOM     80  C   UNL A   1      42.039  23.078  27.453  1.00  0.00     0.148 A 
ATOM     81  C   UNL A   1      43.271  23.605  24.986  1.00  0.00     0.002 A 
ATOM     82  C   UNL A   1      42.081  22.100  26.467  1.00  0.00     0.091 A 
ATOM     83  F   UNL A   1      41.439  22.868  28.632  1.00  0.00    -0.205 F 
ATOM     84  C   UNL A   1      42.679  22.368  25.225  1.00  0.00     0.022 A 
BRANCH  82  85
ATOM     85  S   UNL A   1      41.458  20.436  26.732  1.00  0.00     0.127 S 
ATOM     86  O   UNL A   1      42.189  20.029  27.928  1.00  0.00    -0.237 OA
ATOM     87  O   UNL A   1      40.029  20.679  26.934  1.00  0.00    -0.237 OA
ATOM     88  O   UNL A   1      41.775  19.698  25.516  1.00  0.00    -0.744 OA
ENDBRANCH  82  85
ENDBRANCH  54  78
BRANCH  66  89
ATOM     89  C   UNL A   1      47.089  25.948  32.373  1.00  0.00     0.023 A 
ATOM     90  C   UNL A   1      48.321  26.405  31.866  1.00  0.00     0.012 A 
ATOM     91  C   UNL A   1      47.078  24.963  33.382  1.00  0.00     0.148 A 
ATOM     92  C   UNL A   1      49.520  25.866  32.330  1.00  0.00     0.002 A 
ATOM     93  C   UNL A   1      48.278  24.471  33.878  1.00  0.00     0.091 A 
ATOM     94  F   UNL A   1      45.893  24.531  33.839  1.00  0.00    -0.205 F 
ATOM     95  C   UNL A   1      49.499  24.911  33.344  1.00  0.00     0.022 A 
BRANCH  93  96
ATOM     96  S   UNL A   1      48.353  23.314  35.250  1.00  0.00     0.127 S 
ATOM     97  O   UNL A   1      49.793  23.124  35.400  1.00  0.00    -0.237 OA
ATOM     98  O   UNL A   1      47.721  24.075  36.329  1.00  0.00    -0.237 OA
ATOM     99  O   UNL A   1      47.609  22.136  34.824  1.00  0.00    -0.744 OA
ENDBRANCH  93  96
ENDBRANCH  66  89
ENDBRANCH  40  41
ENDBRANCH  32  35
ENDBRANCH  30  31
ENDBRANCH  29  30
ENDBRANCH   1  29
TORSDOF 18
ENDMDL
MODEL 2
REMARK VINA RESULT:     -11.1      4.738      9.207
REMARK SMILES O=C(Nc1c(F)cc(F)cc1F)N[C@H]1C=C[C@@H](C(=O)NCCCCCCNC(=O)c2ccc(-c3c4nc(c(-c5cccc(S(=O)(=O)[O-])c5F)c5ccc([nH]5)c(-c5cccc(S(=O)(=O)[O-])c5F)c5nc(c(-c6cccc(S(=O)(=O)[O-])c6F)c6ccc3[nH]6)C=C5)C=C4)cc2)C1
REMARK SMILES IDX 24 1 23 2 22 3 21 4 20 5 18 6 19 7 17 9 14 10 15 11 93 12
REMARK SMILES IDX 16 13 13 14 1 15 2 16 3 17 4 20 5 21 11 22 6 23 7 24 10 25
REMARK SMILES IDX 12 26 8 27 9 28 25 29 26 30 27 31 28 32 29 34 30 35 31 36
REMARK SMILES IDX 92 37 32 38 91 39 33 40 34 41 35 42 85 43 36 44 90 45 84 46
REMARK SMILES IDX 86 47 37 48 89 49 83 50 82 51 38 53 70 54 50 55 69 56 51 57
REMARK SMILES IDX 54 58 68 59 87 60 52 61 53 62 67 64 88 65 55 66 39 67 40 68
REMARK SMILES IDX 48 69 41 70 43 71 49 72 42 73 44 74 45 75 46 76 47 77 71 78
REMARK SMILES IDX 72 79 80 80 73 81 75 82 81 83 74 84 76 85 77 86 78 87 79 88
REMARK SMILES IDX 56 89 57 90 65 91 58 92 60 93 66 94 59 95 61 96 62 97 63 98
REMARK SMILES IDX 64 99
REMARK H PARENT 20 8 3 18 13 19 27 33 86 52 54 63
REMARK Flexibility Score: inf
ROOT
ATOM      1  C   UNL A   1      35.592  23.053  26.963  1.00  0.00     0.002 C 
ENDROOT
BRANCH   1   2
ATOM      2  C   UNL A   1      34.082  22.801  27.016  1.00  0.00     0.002 C 
BRANCH   2   3
ATOM      3  C   UNL A   1      33.228  23.835  26.275  1.00  0.00     0.021 C 
BRANCH   3   4
ATOM      4  C   UNL A   1      31.876  23.304  25.803  1.00  0.00     0.116 C 
BRANCH   4   5
ATOM      5  N   UNL A   1      31.815  21.857  25.849  1.00  0.00    -0.356 N 
ATOM      6  C   UNL A   1      32.185  20.928  24.927  1.00  0.00     0.227 C 
ATOM      7  O   UNL A   1      32.068  19.739  25.247  1.00  0.00    -0.274 OA
ATOM      8  H   UNL A   1      31.448  21.487  26.684  1.00  0.00     0.163 HD
BRANCH   6   9
ATOM      9  C   UNL A   1      32.714  21.298  23.536  1.00  0.00     0.103 C 
ATOM     10  C   UNL A   1      32.897  23.441  22.308  1.00  0.00     0.107 C 
ATOM     11  C   UNL A   1      34.221  22.949  22.816  1.00  0.00    -0.006 C 
ATOM     12  C   UNL A   1      31.901  22.386  22.828  1.00  0.00     0.047 C 
ATOM     13  C   UNL A   1      34.121  21.803  23.501  1.00  0.00    -0.016 C 
BRANCH  10  14
ATOM     14  N   UNL A   1      32.699  24.779  22.821  1.00  0.00    -0.332 N 
ATOM     15  O   UNL A   1      33.090  25.898  20.871  1.00  0.00    -0.248 OA
ATOM     16  C   UNL A   1      32.846  25.909  22.076  1.00  0.00     0.319 C 
ATOM     17  N   UNL A   1      32.510  27.085  22.679  1.00  0.00    -0.303 N 
ATOM     18  H   UNL A   1      32.185  27.781  22.062  1.00  0.00     0.172 HD
ATOM     19  H   UNL A   1      32.441  24.877  23.767  1.00  0.00     0.165 HD
BRANCH  17  20
ATOM     20  C   UNL A   1      32.545  27.479  24.033  1.00  0.00     0.115 A 
ATOM     21  C   UNL A   1      31.526  27.214  24.954  1.00  0.00     0.152 A 
ATOM     22  C   UNL A   1      33.709  28.100  24.504  1.00  0.00     0.152 A 
ATOM     23  F   UNL A   1      30.414  26.565  24.577  1.00  0.00    -0.204 F 
ATOM     24  C   UNL A   1      31.652  27.568  26.293  1.00  0.00     0.081 A 
ATOM     25  C   UNL A   1      33.845  28.480  25.835  1.00  0.00     0.081 A 
ATOM     26  F   UNL A   1      34.707  28.372  23.648  1.00  0.00    -0.204 F 
ATOM     27  C   UNL A   1      32.811  28.203  26.719  1.00  0.00     0.129 A 
ATOM     28  F   UNL A   1      32.937  28.541  28.006  1.00  0.00    -0.207 F 
ENDBRANCH  17  20
ENDBRANCH  10  14
ENDBRANCH   6   9
ENDBRANCH   4   5
ENDBRANCH   3   4
ENDBRANCH   2   3
ENDBRANCH   1   2
BRANCH   1  29
ATOM     29  C   UNL A   1      36.072  23.881  25.768  1.00  0.00     0.021 C 
BRANCH  29  30
ATOM     30  C   UNL A   1      37.179  23.228  24.950  1.00  0.00     0.116 C 
BRANCH  30  31
ATOM     31  N   UNL A   1      37.955  22.285  25.740  1.00  0.00    -0.352 N 
ATOM     32  C   UNL A   1      39.016  22.523  26.575  1.00  0.00     0.251 C 
ATOM     33  H   UNL A   1      37.679  21.343  25.665  1.00  0.00     0.163 HD
ATOM     34  O   UNL A   1      39.687  21.583  27.001  1.00  0.00    -0.269 OA
BRANCH  32  35
ATOM     35  C   UNL A   1      39.360  23.909  26.951  1.00  0.00     0.039 A 
ATOM     36  C   UNL A   1      39.063  24.356  28.241  1.00  0.00     0.014 A 
ATOM     37  C   UNL A   1      39.969  24.767  26.031  1.00  0.00     0.014 A 
ATOM     38  C   UNL A   1      39.431  25.648  28.626  1.00  0.00     0.010 A 
ATOM     39  C   UNL A   1      40.402  26.023  26.440  1.00  0.00     0.010 A 
ATOM     40  C   UNL A   1      40.131  26.481  27.739  1.00  0.00    -0.014 A 
BRANCH  40  41
ATOM     41  C   UNL A   1      40.592  27.832  28.149  1.00  0.00     0.031 A 
ATOM     42  C   UNL A   1      42.060  28.164  28.143  1.00  0.00     0.074 A 
ATOM     43  C   UNL A   1      39.699  28.731  28.605  1.00  0.00     0.049 A 
ATOM     44  N   UNL A   1      42.658  29.261  28.530  1.00  0.00    -0.248 NA
ATOM     45  C   UNL A   1      42.979  27.117  27.667  1.00  0.00     0.031 C 
ATOM     46  C   UNL A   1      38.256  28.506  28.723  1.00  0.00     0.029 A 
ATOM     47  N   UNL A   1      39.873  30.007  29.080  1.00  0.00    -0.354 N 
ATOM     48  C   UNL A   1      44.020  29.025  28.377  1.00  0.00     0.074 A 
ATOM     49  C   UNL A   1      44.162  27.667  27.903  1.00  0.00     0.031 C 
ATOM     50  C   UNL A   1      37.678  29.609  29.227  1.00  0.00     0.029 A 
ATOM     51  C   UNL A   1      38.709  30.604  29.504  1.00  0.00     0.049 A 
ATOM     52  H   UNL A   1      40.750  30.453  29.114  1.00  0.00     0.167 HD
ATOM     53  C   UNL A   1      45.057  29.871  28.585  1.00  0.00     0.034 A 
ATOM     54  C   UNL A   1      38.496  31.811  30.063  1.00  0.00     0.034 A 
ATOM     55  C   UNL A   1      44.909  31.232  29.026  1.00  0.00     0.049 A 
ATOM     56  C   UNL A   1      39.664  32.737  30.271  1.00  0.00     0.074 A 
ATOM     57  C   UNL A   1      45.890  32.194  29.193  1.00  0.00     0.029 A 
ATOM     58  N   UNL A   1      43.706  31.823  29.380  1.00  0.00    -0.354 N 
ATOM     59  N   UNL A   1      40.929  32.546  29.984  1.00  0.00    -0.248 NA
ATOM     60  C   UNL A   1      39.371  34.057  30.846  1.00  0.00     0.031 C 
ATOM     61  C   UNL A   1      45.285  33.355  29.681  1.00  0.00     0.029 A 
ATOM     62  C   UNL A   1      43.920  33.132  29.778  1.00  0.00     0.049 A 
ATOM     63  H   UNL A   1      42.828  31.378  29.352  1.00  0.00     0.167 HD
ATOM     64  C   UNL A   1      41.575  33.735  30.304  1.00  0.00     0.074 A 
ATOM     65  C   UNL A   1      40.559  34.646  30.791  1.00  0.00     0.031 C 
ATOM     66  C   UNL A   1      42.892  34.043  30.211  1.00  0.00     0.034 A 
BRANCH  53  67
ATOM     67  C   UNL A   1      46.445  29.357  28.300  1.00  0.00     0.023 A 
ATOM     68  C   UNL A   1      47.405  29.326  29.333  1.00  0.00     0.012 A 
ATOM     69  C   UNL A   1      46.787  28.863  27.027  1.00  0.00     0.148 A 
ATOM     70  C   UNL A   1      48.695  28.853  29.092  1.00  0.00     0.002 A 
ATOM     71  C   UNL A   1      48.059  28.346  26.807  1.00  0.00     0.091 A 
ATOM     72  F   UNL A   1      45.870  28.919  26.050  1.00  0.00    -0.205 F 
ATOM     73  C   UNL A   1      49.017  28.354  27.834  1.00  0.00     0.022 A 
BRANCH  71  74
ATOM     74  S   UNL A   1      48.548  27.605  25.246  1.00  0.00     0.127 S 
ATOM     75  O   UNL A   1      49.996  27.805  25.267  1.00  0.00    -0.237 OA
ATOM     76  O   UNL A   1      48.121  26.217  25.419  1.00  0.00    -0.237 OA
ATOM     77  O   UNL A   1      47.831  28.337  24.212  1.00  0.00    -0.744 OA
ENDBRANCH  71  74
ENDBRANCH  53  67
BRANCH  54  78
ATOM     78  C   UNL A   1      37.112  32.238  30.414  1.00  0.00     0.023 A 
ATOM     79  C   UNL A   1      36.635  32.033  31.724  1.00  0.00     0.012 A 
ATOM     80  C   UNL A   1      36.273  32.859  29.468  1.00  0.00     0.148 A 
ATOM     81  C   UNL A   1      35.336  32.403  32.075  1.00  0.00     0.002 A 
ATOM     82  C   UNL A   1      35.001  33.278  29.840  1.00  0.00     0.091 A 
ATOM     83  F   UNL A   1      36.742  33.039  28.226  1.00  0.00    -0.205 F 
ATOM     84  C   UNL A   1      34.523  33.034  31.137  1.00  0.00     0.022 A 
BRANCH  82  85
ATOM     85  S   UNL A   1      33.933  34.211  28.738  1.00  0.00     0.127 S 
ATOM     86  O   UNL A   1      32.871  34.640  29.642  1.00  0.00    -0.237 OA
ATOM     87  O   UNL A   1      34.827  35.278  28.285  1.00  0.00    -0.237 OA
ATOM     88  O   UNL A   1      33.534  33.279  27.691  1.00  0.00    -0.744 OA
ENDBRANCH  82  85
ENDBRANCH  54  78
BRANCH  66  89
ATOM     89  C   UNL A   1      43.315  35.439  30.595  1.00  0.00     0.023 A 
ATOM     90  C   UNL A   1      43.820  35.696  31.884  1.00  0.00     0.012 A 
ATOM     91  C   UNL A   1      43.281  36.479  29.644  1.00  0.00     0.148 A 
ATOM     92  C   UNL A   1      44.252  36.976  32.232  1.00  0.00     0.002 A 
ATOM     93  C   UNL A   1      43.764  37.737  29.981  1.00  0.00     0.091 A 
ATOM     94  F   UNL A   1      42.781  36.216  28.428  1.00  0.00    -0.205 F 
ATOM     95  C   UNL A   1      44.236  37.991  31.278  1.00  0.00     0.022 A 
BRANCH  93  96
ATOM     96  S   UNL A   1      43.876  39.078  28.791  1.00  0.00     0.127 S 
ATOM     97  O   UNL A   1      44.636  40.077  29.539  1.00  0.00    -0.237 OA
ATOM     98  O   UNL A   1      44.610  38.452  27.690  1.00  0.00    -0.237 OA
ATOM     99  O   UNL A   1      42.505  39.448  28.470  1.00  0.00    -0.744 OA
ENDBRANCH  93  96
ENDBRANCH  66  89
ENDBRANCH  40  41
ENDBRANCH  32  35
ENDBRANCH  30  31
ENDBRANCH  29  30
ENDBRANCH   1  29
TORSDOF 18
ENDMDL
MODEL 3
REMARK VINA RESULT:     -10.8      5.224      9.604
REMARK SMILES O=C(Nc1c(F)cc(F)cc1F)N[C@H]1C=C[C@@H](C(=O)NCCCCCCNC(=O)c2ccc(-c3c4nc(c(-c5cccc(S(=O)(=O)[O-])c5F)c5ccc([nH]5)c(-c5cccc(S(=O)(=O)[O-])c5F)c5nc(c(-c6cccc(S(=O)(=O)[O-])c6F)c6ccc3[nH]6)C=C5)C=C4)cc2)C1
REMARK SMILES IDX 24 1 23 2 22 3 21 4 20 5 18 6 19 7 17 9 14 10 15 11 93 12
REMARK SMILES IDX 16 13 13 14 1 15 2 16 3 17 4 20 5 21 11 22 6 23 7 24 10 25
REMARK SMILES IDX 12 26 8 27 9 28 25 29 26 30 27 31 28 32 29 34 30 35 31 36
REMARK SMILES IDX 92 37 32 38 91 39 33 40 34 41 35 42 85 43 36 44 90 45 84 46
REMARK SMILES IDX 86 47 37 48 89 49 83 50 82 51 38 53 70 54 50 55 69 56 51 57
REMARK SMILES IDX 54 58 68 59 87 60 52 61 53 62 67 64 88 65 55 66 39 67 40 68
REMARK SMILES IDX 48 69 41 70 43 71 49 72 42 73 44 74 45 75 46 76 47 77 71 78
REMARK SMILES IDX 72 79 80 80 73 81 75 82 81 83 74 84 76 85 77 86 78 87 79 88
REMARK SMILES IDX 56 89 57 90 65 91 58 92 60 93 66 94 59 95 61 96 62 97 63 98
REMARK SMILES IDX 64 99
REMARK H PARENT 20 8 3 18 13 19 27 33 86 52 54 63
REMARK Flexibility Score: inf
ROOT
ATOM      1  C   UNL A   1      40.806  21.491  26.146  1.00  0.00     0.002 C 
ENDROOT
BRANCH   1   2
ATOM      2  C   UNL A   1      39.344  21.948  26.204  1.00  0.00     0.002 C 
BRANCH   2   3
ATOM      3  C   UNL A   1      39.140  23.414  26.599  1.00  0.00     0.021 C 
BRANCH   3   4
ATOM      4  C   UNL A   1      37.773  23.977  26.220  1.00  0.00     0.116 C 
BRANCH   4   5
ATOM      5  N   UNL A   1      37.458  23.744  24.825  1.00  0.00    -0.356 N 
ATOM      6  C   UNL A   1      36.429  23.062  24.254  1.00  0.00     0.227 C 
ATOM      7  O   UNL A   1      36.371  23.059  23.018  1.00  0.00    -0.274 OA
ATOM      8  H   UNL A   1      38.091  24.146  24.187  1.00  0.00     0.163 HD
BRANCH   6   9
ATOM      9  C   UNL A   1      35.375  22.305  25.072  1.00  0.00     0.103 C 
ATOM     10  C   UNL A   1      33.248  22.986  26.141  1.00  0.00     0.107 C 
ATOM     11  C   UNL A   1      33.037  22.180  24.892  1.00  0.00    -0.006 C 
ATOM     12  C   UNL A   1      34.781  23.115  26.228  1.00  0.00     0.047 C 
ATOM     13  C   UNL A   1      34.186  21.831  24.299  1.00  0.00    -0.016 C 
BRANCH  10  14
ATOM     14  N   UNL A   1      32.535  24.235  25.983  1.00  0.00    -0.332 N 
ATOM     15  O   UNL A   1      30.702  23.679  27.225  1.00  0.00    -0.248 OA
ATOM     16  C   UNL A   1      31.299  24.476  26.504  1.00  0.00     0.319 C 
ATOM     17  N   UNL A   1      30.816  25.743  26.363  1.00  0.00    -0.303 N 
ATOM     18  H   UNL A   1      30.204  26.027  27.081  1.00  0.00     0.172 HD
ATOM     19  H   UNL A   1      32.969  24.953  25.468  1.00  0.00     0.165 HD
BRANCH  17  20
ATOM     20  C   UNL A   1      31.040  26.719  25.369  1.00  0.00     0.115 A 
ATOM     21  C   UNL A   1      32.176  27.533  25.311  1.00  0.00     0.152 A 
ATOM     22  C   UNL A   1      30.106  26.821  24.330  1.00  0.00     0.152 A 
ATOM     23  F   UNL A   1      33.137  27.436  26.242  1.00  0.00    -0.204 F 
ATOM     24  C   UNL A   1      32.371  28.428  24.264  1.00  0.00     0.081 A 
ATOM     25  C   UNL A   1      30.273  27.725  23.287  1.00  0.00     0.081 A 
ATOM     26  F   UNL A   1      29.002  26.057  24.355  1.00  0.00    -0.204 F 
ATOM     27  C   UNL A   1      31.412  28.518  23.264  1.00  0.00     0.129 A 
ATOM     28  F   UNL A   1      31.598  29.375  22.255  1.00  0.00    -0.207 F 
ENDBRANCH  17  20
ENDBRANCH  10  14
ENDBRANCH   6   9
ENDBRANCH   4   5
ENDBRANCH   3   4
ENDBRANCH   2   3
ENDBRANCH   1   2
BRANCH   1  29
ATOM     29  C   UNL A   1      41.018  19.978  26.244  1.00  0.00     0.021 C 
BRANCH  29  30
ATOM     30  C   UNL A   1      42.409  19.562  26.706  1.00  0.00     0.116 C 
BRANCH  30  31
ATOM     31  N   UNL A   1      43.255  19.165  25.591  1.00  0.00    -0.352 N 
ATOM     32  C   UNL A   1      44.056  19.941  24.793  1.00  0.00     0.251 C 
ATOM     33  H   UNL A   1      43.252  18.204  25.379  1.00  0.00     0.163 HD
ATOM     34  O   UNL A   1      44.540  19.472  23.764  1.00  0.00    -0.269 OA
BRANCH  32  35
ATOM     35  C   UNL A   1      44.325  21.345  25.166  1.00  0.00     0.039 A 
ATOM     36  C   UNL A   1      43.881  22.368  24.324  1.00  0.00     0.014 A 
ATOM     37  C   UNL A   1      45.018  21.650  26.341  1.00  0.00     0.014 A 
ATOM     38  C   UNL A   1      44.082  23.700  24.692  1.00  0.00     0.010 A 
ATOM     39  C   UNL A   1      45.149  22.975  26.741  1.00  0.00     0.010 A 
ATOM     40  C   UNL A   1      44.689  24.015  25.919  1.00  0.00    -0.014 A 
BRANCH  40  41
ATOM     41  C   UNL A   1      44.852  25.424  26.361  1.00  0.00     0.031 A 
ATOM     42  C   UNL A   1      46.206  26.079  26.314  1.00  0.00     0.074 A 
ATOM     43  C   UNL A   1      43.800  26.085  26.881  1.00  0.00     0.049 A 
ATOM     44  N   UNL A   1      46.560  27.271  26.718  1.00  0.00    -0.248 NA
ATOM     45  C   UNL A   1      47.316  25.279  25.767  1.00  0.00     0.031 C 
ATOM     46  C   UNL A   1      42.451  25.538  27.043  1.00  0.00     0.029 A 
ATOM     47  N   UNL A   1      43.705  27.354  27.396  1.00  0.00    -0.354 N 
ATOM     48  C   UNL A   1      47.931  27.353  26.508  1.00  0.00     0.074 A 
ATOM     49  C   UNL A   1      48.353  26.075  25.979  1.00  0.00     0.031 C 
ATOM     50  C   UNL A   1      41.664  26.467  27.607  1.00  0.00     0.029 A 
ATOM     51  C   UNL A   1      42.456  27.661  27.883  1.00  0.00     0.049 A 
ATOM     52  H   UNL A   1      44.460  27.986  27.414  1.00  0.00     0.167 HD
ATOM     53  C   UNL A   1      48.760  28.405  26.709  1.00  0.00     0.034 A 
ATOM     54  C   UNL A   1      42.002  28.773  28.493  1.00  0.00     0.034 A 
ATOM     55  C   UNL A   1      48.330  29.685  27.204  1.00  0.00     0.049 A 
ATOM     56  C   UNL A   1      42.941  29.933  28.692  1.00  0.00     0.074 A 
ATOM     57  C   UNL A   1      49.077  30.838  27.370  1.00  0.00     0.029 A 
ATOM     58  N   UNL A   1      47.041  29.980  27.623  1.00  0.00    -0.354 N 
ATOM     59  N   UNL A   1      44.202  30.041  28.353  1.00  0.00    -0.248 NA
ATOM     60  C   UNL A   1      42.384  31.137  29.325  1.00  0.00     0.031 C 
ATOM     61  C   UNL A   1      48.248  31.819  27.922  1.00  0.00     0.029 A 
ATOM     62  C   UNL A   1      46.974  31.292  28.060  1.00  0.00     0.049 A 
ATOM     63  H   UNL A   1      46.285  29.349  27.610  1.00  0.00     0.167 HD
ATOM     64  C   UNL A   1      44.579  31.336  28.692  1.00  0.00     0.074 A 
ATOM     65  C   UNL A   1      43.406  31.979  29.248  1.00  0.00     0.031 C 
ATOM     66  C   UNL A   1      45.788  31.935  28.563  1.00  0.00     0.034 A 
BRANCH  53  67
ATOM     67  C   UNL A   1      50.215  28.226  26.355  1.00  0.00     0.023 A 
ATOM     68  C   UNL A   1      50.635  28.396  25.019  1.00  0.00     0.012 A 
ATOM     69  C   UNL A   1      51.171  27.935  27.347  1.00  0.00     0.148 A 
ATOM     70  C   UNL A   1      51.976  28.238  24.670  1.00  0.00     0.002 A 
ATOM     71  C   UNL A   1      52.513  27.828  26.999  1.00  0.00     0.091 A 
ATOM     72  F   UNL A   1      50.752  27.756  28.608  1.00  0.00    -0.205 F 
ATOM     73  C   UNL A   1      52.914  27.965  25.660  1.00  0.00     0.022 A 
BRANCH  71  74
ATOM     74  S   UNL A   1      53.810  27.560  28.213  1.00  0.00     0.127 S 
ATOM     75  O   UNL A   1      54.993  27.460  27.360  1.00  0.00    -0.237 OA
ATOM     76  O   UNL A   1      53.737  28.781  29.014  1.00  0.00    -0.237 OA
ATOM     77  O   UNL A   1      53.448  26.343  28.925  1.00  0.00    -0.744 OA
ENDBRANCH  71  74
ENDBRANCH  53  67
BRANCH  54  78
ATOM     78  C   UNL A   1      40.574  28.867  28.909  1.00  0.00     0.023 A 
ATOM     79  C   UNL A   1      39.573  28.993  27.925  1.00  0.00     0.012 A 
ATOM     80  C   UNL A   1      40.199  28.817  30.266  1.00  0.00     0.148 A 
ATOM     81  C   UNL A   1      38.230  29.104  28.286  1.00  0.00     0.002 A 
ATOM     82  C   UNL A   1      38.856  28.870  30.615  1.00  0.00     0.091 A 
ATOM     83  F   UNL A   1      41.166  28.704  31.187  1.00  0.00    -0.205 F 
ATOM     84  C   UNL A   1      37.870  29.034  29.629  1.00  0.00     0.022 A 
BRANCH  82  85
ATOM     85  S   UNL A   1      38.290  28.658  32.307  1.00  0.00     0.127 S 
ATOM     86  O   UNL A   1      39.140  29.602  33.028  1.00  0.00    -0.237 OA
ATOM     87  O   UNL A   1      36.883  29.047  32.205  1.00  0.00    -0.237 OA
ATOM     88  O   UNL A   1      38.502  27.251  32.621  1.00  0.00    -0.744 OA
ENDBRANCH  82  85
ENDBRANCH  54  78
BRANCH  66  89
ATOM     89  C   UNL A   1      45.903  33.379  28.981  1.00  0.00     0.023 A 
ATOM     90  C   UNL A   1      46.362  33.708  30.272  1.00  0.00     0.012 A 
ATOM     91  C   UNL A   1      45.626  34.411  28.061  1.00  0.00     0.148 A 
ATOM     92  C   UNL A   1      46.510  35.042  30.652  1.00  0.00     0.002 A 
ATOM     93  C   UNL A   1      45.829  35.735  28.428  1.00  0.00     0.091 A 
ATOM     94  F   UNL A   1      45.175  34.076  26.844  1.00  0.00    -0.205 F 
ATOM     95  C   UNL A   1      46.257  36.053  29.727  1.00  0.00     0.022 A 
BRANCH  93  96
ATOM     96  S   UNL A   1      45.626  37.098  27.276  1.00  0.00     0.127 S 
ATOM     97  O   UNL A   1      46.517  36.702  26.188  1.00  0.00    -0.237 OA
ATOM     98  O   UNL A   1      44.201  37.021  26.956  1.00  0.00    -0.237 OA
ATOM     99  O   UNL A   1      46.020  38.299  28.000  1.00  0.00    -0.744 OA
ENDBRANCH  93  96
ENDBRANCH  66  89
ENDBRANCH  40  41
ENDBRANCH  32  35
ENDBRANCH  30  31
ENDBRANCH  29  30
ENDBRANCH   1  29
TORSDOF 18
ENDMDL
