MODEL 1
REMARK VINA RESULT:     -11.7      0.000      0.000
REMARK SMILES C[C@@H](CNc1cccc(F)c1C(=O)NCCCCCCNC(=O)c1ccc(-c2c3nc(c(-c4cccc(S(=O)(=O)[O-])c4F)c4ccc([nH]4)c(-c4cccc(S(=O)(=O)[O-])c4F)c4nc(c(-c5cccc(S(=O)(=O)[O-])c5F)c5ccc2[nH]5)C=C4)C=C3)cc1)[NH+]1CCCCC1
REMARK SMILES IDX 17 1 16 2 15 3 14 4 12 5 13 6 11 8 5 9 6 10 7 11 9 12 8 13
REMARK SMILES IDX 10 14 4 15 3 17 2 18 1 19 87 20 88 21 92 22 89 24 91 25
REMARK SMILES IDX 90 26 18 27 19 28 20 29 21 30 22 31 23 33 24 34 25 35 86 36
REMARK SMILES IDX 26 37 85 38 27 39 28 40 29 41 79 42 30 43 84 44 78 45 80 46
REMARK SMILES IDX 31 47 83 48 77 49 76 50 32 52 64 53 44 54 63 55 45 56 48 57
REMARK SMILES IDX 62 58 81 59 46 60 47 61 61 63 82 64 49 65 33 66 34 67 42 68
REMARK SMILES IDX 35 69 37 70 43 71 36 72 38 73 39 74 40 75 41 76 65 77 66 78
REMARK SMILES IDX 74 79 67 80 69 81 75 82 68 83 70 84 71 85 72 86 73 87 50 88
REMARK SMILES IDX 51 89 59 90 52 91 54 92 60 93 53 94 55 95 56 96 57 97 58 98
REMARK H PARENT 14 7 4 16 87 23 21 32 80 51 48 62
REMARK Flexibility Score: inf
ROOT
ATOM      1  C   UNL A   1      35.431  22.766  25.899  1.00  0.00     0.002 C 
ENDROOT
BRANCH   1   2
ATOM      2  C   UNL A   1      34.762  22.953  27.272  1.00  0.00     0.021 C 
BRANCH   2   3
ATOM      3  C   UNL A   1      33.841  21.789  27.652  1.00  0.00     0.116 C 
BRANCH   3   4
ATOM      4  N   UNL A   1      32.463  22.217  27.485  1.00  0.00    -0.352 N 
ATOM      5  C   UNL A   1      31.679  22.508  26.398  1.00  0.00     0.256 C 
ATOM      6  O   UNL A   1      30.605  23.064  26.658  1.00  0.00    -0.269 OA
ATOM      7  H   UNL A   1      31.988  22.321  28.341  1.00  0.00     0.163 HD
BRANCH   5   8
ATOM      8  C   UNL A   1      31.953  22.077  24.991  1.00  0.00     0.098 A 
ATOM      9  C   UNL A   1      32.004  23.088  23.981  1.00  0.00     0.050 A 
ATOM     10  C   UNL A   1      32.198  22.702  22.643  1.00  0.00     0.027 A 
ATOM     11  C   UNL A   1      32.303  21.360  22.283  1.00  0.00     0.005 A 
ATOM     12  C   UNL A   1      32.133  20.745  24.612  1.00  0.00     0.138 A 
ATOM     13  C   UNL A   1      32.264  20.383  23.269  1.00  0.00     0.040 A 
ATOM     14  F   UNL A   1      32.235  19.762  25.514  1.00  0.00    -0.206 F 
BRANCH   9  15
ATOM     15  N   UNL A   1      31.776  24.432  24.285  1.00  0.00    -0.378 N 
ATOM     16  H   UNL A   1      32.277  24.829  25.035  1.00  0.00     0.160 HD
BRANCH  15  17
ATOM     17  C   UNL A   1      30.840  25.284  23.558  1.00  0.00     0.177 C 
BRANCH  17  18
ATOM     18  C   UNL A   1      30.252  26.456  24.430  1.00  0.00     0.200 C 
ATOM     19  C   UNL A   1      29.114  27.135  23.634  1.00  0.00     0.077 C 
BRANCH  18  20
ATOM     20  N   UNL A   1      31.193  27.372  25.164  1.00  0.00    -0.331 N 
ATOM     21  C   UNL A   1      31.104  28.779  24.761  1.00  0.00     0.262 C 
ATOM     22  C   UNL A   1      31.181  27.224  26.625  1.00  0.00     0.262 C 
ATOM     23  H   UNL A   1      32.109  27.044  24.858  1.00  0.00     0.348 HD
ATOM     24  C   UNL A   1      32.082  29.726  25.453  1.00  0.00     0.062 C 
ATOM     25  C   UNL A   1      32.177  28.141  27.346  1.00  0.00     0.062 C 
ATOM     26  C   UNL A   1      31.963  29.595  26.962  1.00  0.00     0.012 C 
ENDBRANCH  18  20
ENDBRANCH  17  18
ENDBRANCH  15  17
ENDBRANCH   9  15
ENDBRANCH   5   8
ENDBRANCH   3   4
ENDBRANCH   2   3
ENDBRANCH   1   2
BRANCH   1  27
ATOM     27  C   UNL A   1      35.544  21.309  25.435  1.00  0.00     0.002 C 
BRANCH  27  28
ATOM     28  C   UNL A   1      36.845  20.964  24.710  1.00  0.00     0.021 C 
BRANCH  28  29
ATOM     29  C   UNL A   1      38.087  21.628  25.297  1.00  0.00     0.116 C 
BRANCH  29  30
ATOM     30  N   UNL A   1      38.935  20.666  25.985  1.00  0.00    -0.352 N 
ATOM     31  C   UNL A   1      40.089  20.886  26.698  1.00  0.00     0.251 C 
ATOM     32  H   UNL A   1      38.643  19.728  25.932  1.00  0.00     0.163 HD
ATOM     33  O   UNL A   1      40.805  19.944  27.016  1.00  0.00    -0.269 OA
BRANCH  31  34
ATOM     34  C   UNL A   1      40.461  22.266  27.071  1.00  0.00     0.039 A 
ATOM     35  C   UNL A   1      41.424  22.467  28.061  1.00  0.00     0.014 A 
ATOM     36  C   UNL A   1      39.855  23.359  26.442  1.00  0.00     0.014 A 
ATOM     37  C   UNL A   1      41.817  23.768  28.384  1.00  0.00     0.010 A 
ATOM     38  C   UNL A   1      40.303  24.646  26.709  1.00  0.00     0.010 A 
ATOM     39  C   UNL A   1      41.282  24.867  27.690  1.00  0.00    -0.014 A 
BRANCH  39  40
ATOM     40  C   UNL A   1      41.739  26.251  27.969  1.00  0.00     0.031 A 
ATOM     41  C   UNL A   1      43.140  26.672  27.622  1.00  0.00     0.074 A 
ATOM     42  C   UNL A   1      40.914  27.105  28.607  1.00  0.00     0.049 A 
ATOM     43  N   UNL A   1      43.731  27.819  27.835  1.00  0.00    -0.248 NA
ATOM     44  C   UNL A   1      44.001  25.669  26.972  1.00  0.00     0.031 C 
ATOM     45  C   UNL A   1      39.558  26.789  29.059  1.00  0.00     0.029 A 
ATOM     46  N   UNL A   1      41.103  28.405  29.005  1.00  0.00    -0.354 N 
ATOM     47  C   UNL A   1      45.034  27.666  27.379  1.00  0.00     0.074 A 
ATOM     48  C   UNL A   1      45.161  26.304  26.911  1.00  0.00     0.031 C 
ATOM     49  C   UNL A   1      39.033  27.868  29.658  1.00  0.00     0.029 A 
ATOM     50  C   UNL A   1      40.023  28.940  29.668  1.00  0.00     0.049 A 
ATOM     51  H   UNL A   1      41.933  28.907  28.833  1.00  0.00     0.167 HD
ATOM     52  C   UNL A   1      46.025  28.586  27.325  1.00  0.00     0.034 A 
ATOM     53  C   UNL A   1      39.850  30.155  30.227  1.00  0.00     0.034 A 
ATOM     54  C   UNL A   1      45.878  29.951  27.755  1.00  0.00     0.049 A 
ATOM     55  C   UNL A   1      40.956  31.169  30.131  1.00  0.00     0.074 A 
ATOM     56  C   UNL A   1      46.796  30.981  27.664  1.00  0.00     0.029 A 
ATOM     57  N   UNL A   1      44.748  30.475  28.362  1.00  0.00    -0.354 N 
ATOM     58  N   UNL A   1      42.133  31.050  29.569  1.00  0.00    -0.248 NA
ATOM     59  C   UNL A   1      40.701  32.494  30.715  1.00  0.00     0.031 C 
ATOM     60  C   UNL A   1      46.234  32.119  28.248  1.00  0.00     0.029 A 
ATOM     61  C   UNL A   1      44.949  31.809  28.665  1.00  0.00     0.049 A 
ATOM     62  H   UNL A   1      43.922  29.971  28.551  1.00  0.00     0.167 HD
ATOM     63  C   UNL A   1      42.750  32.289  29.702  1.00  0.00     0.074 A 
ATOM     64  C   UNL A   1      41.806  33.151  30.384  1.00  0.00     0.031 C 
ATOM     65  C   UNL A   1      43.988  32.673  29.304  1.00  0.00     0.034 A 
BRANCH  52  66
ATOM     66  C   UNL A   1      47.346  28.171  26.732  1.00  0.00     0.023 A 
ATOM     67  C   UNL A   1      48.419  27.840  27.584  1.00  0.00     0.012 A 
ATOM     68  C   UNL A   1      47.501  28.022  25.339  1.00  0.00     0.148 A 
ATOM     69  C   UNL A   1      49.633  27.396  27.062  1.00  0.00     0.002 A 
ATOM     70  C   UNL A   1      48.695  27.530  24.829  1.00  0.00     0.091 A 
ATOM     71  F   UNL A   1      46.476  28.360  24.542  1.00  0.00    -0.205 F 
ATOM     72  C   UNL A   1      49.766  27.228  25.687  1.00  0.00     0.022 A 
BRANCH  70  73
ATOM     73  S   UNL A   1      48.939  27.190  23.081  1.00  0.00     0.127 S 
ATOM     74  O   UNL A   1      50.398  27.139  22.991  1.00  0.00    -0.237 OA
ATOM     75  O   UNL A   1      48.273  25.897  22.924  1.00  0.00    -0.237 OA
ATOM     76  O   UNL A   1      48.310  28.291  22.365  1.00  0.00    -0.744 OA
ENDBRANCH  70  73
ENDBRANCH  52  66
BRANCH  53  77
ATOM     77  C   UNL A   1      38.541  30.489  30.856  1.00  0.00     0.023 A 
ATOM     78  C   UNL A   1      38.340  30.206  32.222  1.00  0.00     0.012 A 
ATOM     79  C   UNL A   1      37.529  31.153  30.136  1.00  0.00     0.148 A 
ATOM     80  C   UNL A   1      37.150  30.567  32.854  1.00  0.00     0.002 A 
ATOM     81  C   UNL A   1      36.371  31.561  30.786  1.00  0.00     0.091 A 
ATOM     82  F   UNL A   1      37.739  31.406  28.835  1.00  0.00    -0.205 F 
ATOM     83  C   UNL A   1      36.172  31.255  32.141  1.00  0.00     0.022 A 
BRANCH  81  84
ATOM     84  S   UNL A   1      35.121  32.576  29.989  1.00  0.00     0.127 S 
ATOM     85  O   UNL A   1      34.203  32.844  31.093  1.00  0.00    -0.237 OA
ATOM     86  O   UNL A   1      35.909  33.728  29.549  1.00  0.00    -0.237 OA
ATOM     87  O   UNL A   1      34.582  31.766  28.905  1.00  0.00    -0.744 OA
ENDBRANCH  81  84
ENDBRANCH  53  77
BRANCH  65  88
ATOM     88  C   UNL A   1      44.409  34.095  29.563  1.00  0.00     0.023 A 
ATOM     89  C   UNL A   1      45.026  34.430  30.785  1.00  0.00     0.012 A 
ATOM     90  C   UNL A   1      44.311  35.067  28.548  1.00  0.00     0.148 A 
ATOM     91  C   UNL A   1      45.522  35.718  30.997  1.00  0.00     0.002 A 
ATOM     92  C   UNL A   1      44.854  36.330  28.746  1.00  0.00     0.091 A 
ATOM     93  F   UNL A   1      43.707  34.730  27.399  1.00  0.00    -0.205 F 
ATOM     94  C   UNL A   1      45.450  36.661  29.974  1.00  0.00     0.022 A 
BRANCH  92  95
ATOM     95  S   UNL A   1      44.908  37.575  27.451  1.00  0.00     0.127 S 
ATOM     96  O   UNL A   1      45.820  36.962  26.487  1.00  0.00    -0.237 OA
ATOM     97  O   UNL A   1      43.511  37.630  27.020  1.00  0.00    -0.237 OA
ATOM     98  O   UNL A   1      45.397  38.793  28.083  1.00  0.00    -0.744 OA
ENDBRANCH  92  95
ENDBRANCH  65  88
ENDBRANCH  39  40
ENDBRANCH  31  34
ENDBRANCH  29  30
ENDBRANCH  28  29
ENDBRANCH  27  28
ENDBRANCH   1  27
TORSDOF 20
ENDMDL
MODEL 2
REMARK VINA RESULT:     -11.0      2.698      4.673
REMARK SMILES C[C@@H](CNc1cccc(F)c1C(=O)NCCCCCCNC(=O)c1ccc(-c2c3nc(c(-c4cccc(S(=O)(=O)[O-])c4F)c4ccc([nH]4)c(-c4cccc(S(=O)(=O)[O-])c4F)c4nc(c(-c5cccc(S(=O)(=O)[O-])c5F)c5ccc2[nH]5)C=C4)C=C3)cc1)[NH+]1CCCCC1
REMARK SMILES IDX 17 1 16 2 15 3 14 4 12 5 13 6 11 8 5 9 6 10 7 11 9 12 8 13
REMARK SMILES IDX 10 14 4 15 3 17 2 18 1 19 87 20 88 21 92 22 89 24 91 25
REMARK SMILES IDX 90 26 18 27 19 28 20 29 21 30 22 31 23 33 24 34 25 35 86 36
REMARK SMILES IDX 26 37 85 38 27 39 28 40 29 41 79 42 30 43 84 44 78 45 80 46
REMARK SMILES IDX 31 47 83 48 77 49 76 50 32 52 64 53 44 54 63 55 45 56 48 57
REMARK SMILES IDX 62 58 81 59 46 60 47 61 61 63 82 64 49 65 33 66 34 67 42 68
REMARK SMILES IDX 35 69 37 70 43 71 36 72 38 73 39 74 40 75 41 76 65 77 66 78
REMARK SMILES IDX 74 79 67 80 69 81 75 82 68 83 70 84 71 85 72 86 73 87 50 88
REMARK SMILES IDX 51 89 59 90 52 91 54 92 60 93 53 94 55 95 56 96 57 97 58 98
REMARK H PARENT 14 7 4 16 87 23 21 32 80 51 48 62
REMARK Flexibility Score: inf
ROOT
ATOM      1  C   UNL A   1      38.207  22.185  25.743  1.00  0.00     0.002 C 
ENDROOT
BRANCH   1   2
ATOM      2  C   UNL A   1      37.801  23.649  25.984  1.00  0.00     0.021 C 
BRANCH   2   3
ATOM      3  C   UNL A   1      36.284  23.841  26.087  1.00  0.00     0.116 C 
BRANCH   3   4
ATOM      4  N   UNL A   1      35.770  24.167  24.769  1.00  0.00    -0.352 N 
ATOM      5  C   UNL A   1      34.528  24.116  24.189  1.00  0.00     0.256 C 
ATOM      6  O   UNL A   1      34.513  24.263  22.961  1.00  0.00    -0.269 OA
ATOM      7  H   UNL A   1      36.466  24.497  24.157  1.00  0.00     0.163 HD
BRANCH   5   8
ATOM      8  C   UNL A   1      33.228  24.052  24.928  1.00  0.00     0.098 A 
ATOM      9  C   UNL A   1      32.394  22.911  24.716  1.00  0.00     0.050 A 
ATOM     10  C   UNL A   1      31.140  22.857  25.351  1.00  0.00     0.027 A 
ATOM     11  C   UNL A   1      30.685  23.906  26.147  1.00  0.00     0.005 A 
ATOM     12  C   UNL A   1      32.778  25.056  25.788  1.00  0.00     0.138 A 
ATOM     13  C   UNL A   1      31.503  25.007  26.359  1.00  0.00     0.040 A 
ATOM     14  F   UNL A   1      33.558  26.085  26.142  1.00  0.00    -0.206 F 
BRANCH   9  15
ATOM     15  N   UNL A   1      32.759  21.898  23.826  1.00  0.00    -0.378 N 
ATOM     16  H   UNL A   1      33.136  22.160  22.955  1.00  0.00     0.160 HD
BRANCH  15  17
ATOM     17  C   UNL A   1      32.614  20.473  24.109  1.00  0.00     0.177 C 
BRANCH  17  18
ATOM     18  C   UNL A   1      33.725  19.908  25.073  1.00  0.00     0.200 C 
ATOM     19  C   UNL A   1      35.071  20.573  24.709  1.00  0.00     0.077 C 
BRANCH  18  20
ATOM     20  N   UNL A   1      33.764  18.434  25.366  1.00  0.00    -0.331 N 
ATOM     21  C   UNL A   1      32.459  17.769  25.301  1.00  0.00     0.262 C 
ATOM     22  C   UNL A   1      34.790  17.687  24.626  1.00  0.00     0.262 C 
ATOM     23  H   UNL A   1      34.051  18.408  26.344  1.00  0.00     0.348 HD
ATOM     24  C   UNL A   1      32.460  16.281  25.643  1.00  0.00     0.062 C 
ATOM     25  C   UNL A   1      34.835  16.193  24.972  1.00  0.00     0.062 C 
ATOM     26  C   UNL A   1      33.474  15.545  24.786  1.00  0.00     0.012 C 
ENDBRANCH  18  20
ENDBRANCH  17  18
ENDBRANCH  15  17
ENDBRANCH   9  15
ENDBRANCH   5   8
ENDBRANCH   3   4
ENDBRANCH   2   3
ENDBRANCH   1   2
BRANCH   1  27
ATOM     27  C   UNL A   1      39.616  21.823  26.230  1.00  0.00     0.002 C 
BRANCH  27  28
ATOM     28  C   UNL A   1      39.950  20.331  26.176  1.00  0.00     0.021 C 
BRANCH  28  29
ATOM     29  C   UNL A   1      41.214  19.943  26.937  1.00  0.00     0.116 C 
BRANCH  29  30
ATOM     30  N   UNL A   1      42.206  19.341  26.059  1.00  0.00    -0.352 N 
ATOM     31  C   UNL A   1      43.232  19.944  25.373  1.00  0.00     0.251 C 
ATOM     32  H   UNL A   1      42.132  18.367  25.940  1.00  0.00     0.163 HD
ATOM     33  O   UNL A   1      43.831  19.331  24.497  1.00  0.00    -0.269 OA
BRANCH  31  34
ATOM     34  C   UNL A   1      43.600  21.339  25.694  1.00  0.00     0.039 A 
ATOM     35  C   UNL A   1      43.324  22.345  24.768  1.00  0.00     0.014 A 
ATOM     36  C   UNL A   1      44.219  21.647  26.910  1.00  0.00     0.014 A 
ATOM     37  C   UNL A   1      43.624  23.672  25.084  1.00  0.00     0.010 A 
ATOM     38  C   UNL A   1      44.444  22.974  27.253  1.00  0.00     0.010 A 
ATOM     39  C   UNL A   1      44.159  24.001  26.341  1.00  0.00    -0.014 A 
BRANCH  39  40
ATOM     40  C   UNL A   1      44.418  25.411  26.724  1.00  0.00     0.031 A 
ATOM     41  C   UNL A   1      45.800  25.991  26.596  1.00  0.00     0.074 A 
ATOM     42  C   UNL A   1      43.424  26.146  27.261  1.00  0.00     0.049 A 
ATOM     43  N   UNL A   1      46.225  27.182  26.927  1.00  0.00    -0.248 NA
ATOM     44  C   UNL A   1      46.848  25.113  26.049  1.00  0.00     0.031 C 
ATOM     45  C   UNL A   1      42.060  25.671  27.502  1.00  0.00     0.029 A 
ATOM     46  N   UNL A   1      43.411  27.438  27.720  1.00  0.00    -0.354 N 
ATOM     47  C   UNL A   1      47.589  27.186  26.660  1.00  0.00     0.074 A 
ATOM     48  C   UNL A   1      47.929  25.867  26.175  1.00  0.00     0.031 C 
ATOM     49  C   UNL A   1      41.341  26.661  28.050  1.00  0.00     0.029 A 
ATOM     50  C   UNL A   1      42.197  27.828  28.235  1.00  0.00     0.049 A 
ATOM     51  H   UNL A   1      44.197  28.031  27.686  1.00  0.00     0.167 HD
ATOM     52  C   UNL A   1      48.472  28.206  26.779  1.00  0.00     0.034 A 
ATOM     53  C   UNL A   1      41.814  28.992  28.799  1.00  0.00     0.034 A 
ATOM     54  C   UNL A   1      48.117  29.527  27.223  1.00  0.00     0.049 A 
ATOM     55  C   UNL A   1      42.806  30.119  28.895  1.00  0.00     0.074 A 
ATOM     56  C   UNL A   1      48.921  30.649  27.297  1.00  0.00     0.029 A 
ATOM     57  N   UNL A   1      46.862  29.903  27.676  1.00  0.00    -0.354 N 
ATOM     58  N   UNL A   1      44.057  30.148  28.506  1.00  0.00    -0.248 NA
ATOM     59  C   UNL A   1      42.328  31.382  29.475  1.00  0.00     0.031 C 
ATOM     60  C   UNL A   1      48.161  31.695  27.827  1.00  0.00     0.029 A 
ATOM     61  C   UNL A   1      46.872  31.236  28.044  1.00  0.00     0.049 A 
ATOM     62  H   UNL A   1      46.078  29.308  27.727  1.00  0.00     0.167 HD
ATOM     63  C   UNL A   1      44.509  31.437  28.764  1.00  0.00     0.074 A 
ATOM     64  C   UNL A   1      43.390  32.165  29.329  1.00  0.00     0.031 C 
ATOM     65  C   UNL A   1      45.741  31.965  28.562  1.00  0.00     0.034 A 
BRANCH  52  66
ATOM     66  C   UNL A   1      49.901  27.956  26.371  1.00  0.00     0.023 A 
ATOM     67  C   UNL A   1      50.864  27.663  27.357  1.00  0.00     0.012 A 
ATOM     68  C   UNL A   1      50.272  27.925  25.012  1.00  0.00     0.148 A 
ATOM     69  C   UNL A   1      52.180  27.370  27.001  1.00  0.00     0.002 A 
ATOM     70  C   UNL A   1      51.572  27.583  24.663  1.00  0.00     0.091 A 
ATOM     71  F   UNL A   1      49.347  28.227  24.089  1.00  0.00    -0.205 F 
ATOM     72  C   UNL A   1      52.530  27.317  25.655  1.00  0.00     0.022 A 
BRANCH  70  73
ATOM     73  S   UNL A   1      52.102  27.397  22.956  1.00  0.00     0.127 S 
ATOM     74  O   UNL A   1      53.161  26.396  23.083  1.00  0.00    -0.237 OA
ATOM     75  O   UNL A   1      50.883  26.914  22.306  1.00  0.00    -0.237 OA
ATOM     76  O   UNL A   1      52.542  28.716  22.524  1.00  0.00    -0.744 OA
ENDBRANCH  70  73
ENDBRANCH  52  66
BRANCH  53  77
ATOM     77  C   UNL A   1      40.402  29.159  29.242  1.00  0.00     0.023 A 
ATOM     78  C   UNL A   1      39.400  29.391  28.280  1.00  0.00     0.012 A 
ATOM     79  C   UNL A   1      40.035  29.011  30.594  1.00  0.00     0.148 A 
ATOM     80  C   UNL A   1      38.060  29.487  28.658  1.00  0.00     0.002 A 
ATOM     81  C   UNL A   1      38.694  29.049  30.956  1.00  0.00     0.091 A 
ATOM     82  F   UNL A   1      41.007  28.798  31.494  1.00  0.00    -0.205 F 
ATOM     83  C   UNL A   1      37.706  29.301  29.992  1.00  0.00     0.022 A 
BRANCH  81  84
ATOM     84  S   UNL A   1      38.131  28.680  32.622  1.00  0.00     0.127 S 
ATOM     85  O   UNL A   1      36.749  29.151  32.583  1.00  0.00    -0.237 OA
ATOM     86  O   UNL A   1      38.285  27.226  32.673  1.00  0.00    -0.237 OA
ATOM     87  O   UNL A   1      39.019  29.412  33.514  1.00  0.00    -0.744 OA
ENDBRANCH  81  84
ENDBRANCH  53  77
BRANCH  65  88
ATOM     88  C   UNL A   1      45.964  33.410  28.922  1.00  0.00     0.023 A 
ATOM     89  C   UNL A   1      46.440  33.746  30.205  1.00  0.00     0.012 A 
ATOM     90  C   UNL A   1      45.826  34.420  27.949  1.00  0.00     0.148 A 
ATOM     91  C   UNL A   1      46.756  35.069  30.519  1.00  0.00     0.002 A 
ATOM     92  C   UNL A   1      46.194  35.724  28.251  1.00  0.00     0.091 A 
ATOM     93  F   UNL A   1      45.358  34.079  26.739  1.00  0.00    -0.205 F 
ATOM     94  C   UNL A   1      46.648  36.053  29.539  1.00  0.00     0.022 A 
BRANCH  92  95
ATOM     95  S   UNL A   1      46.194  37.039  27.025  1.00  0.00     0.127 S 
ATOM     96  O   UNL A   1      44.776  37.390  26.967  1.00  0.00    -0.237 OA
ATOM     97  O   UNL A   1      47.047  38.046  27.655  1.00  0.00    -0.237 OA
ATOM     98  O   UNL A   1      46.740  36.455  25.807  1.00  0.00    -0.744 OA
ENDBRANCH  92  95
ENDBRANCH  65  88
ENDBRANCH  39  40
ENDBRANCH  31  34
ENDBRANCH  29  30
ENDBRANCH  28  29
ENDBRANCH  27  28
ENDBRANCH   1  27
TORSDOF 20
ENDMDL
MODEL 3
REMARK VINA RESULT:     -10.9      1.817      7.803
REMARK SMILES C[C@@H](CNc1cccc(F)c1C(=O)NCCCCCCNC(=O)c1ccc(-c2c3nc(c(-c4cccc(S(=O)(=O)[O-])c4F)c4ccc([nH]4)c(-c4cccc(S(=O)(=O)[O-])c4F)c4nc(c(-c5cccc(S(=O)(=O)[O-])c5F)c5ccc2[nH]5)C=C4)C=C3)cc1)[NH+]1CCCCC1
REMARK SMILES IDX 17 1 16 2 15 3 14 4 12 5 13 6 11 8 5 9 6 10 7 11 9 12 8 13
REMARK SMILES IDX 10 14 4 15 3 17 2 18 1 19 87 20 88 21 92 22 89 24 91 25
REMARK SMILES IDX 90 26 18 27 19 28 20 29 21 30 22 31 23 33 24 34 25 35 86 36
REMARK SMILES IDX 26 37 85 38 27 39 28 40 29 41 79 42 30 43 84 44 78 45 80 46
REMARK SMILES IDX 31 47 83 48 77 49 76 50 32 52 64 53 44 54 63 55 45 56 48 57
REMARK SMILES IDX 62 58 81 59 46 60 47 61 61 63 82 64 49 65 33 66 34 67 42 68
REMARK SMILES IDX 35 69 37 70 43 71 36 72 38 73 39 74 40 75 41 76 65 77 66 78
REMARK SMILES IDX 74 79 67 80 69 81 75 82 68 83 70 84 71 85 72 86 73 87 50 88
REMARK SMILES IDX 51 89 59 90 52 91 54 92 60 93 53 94 55 95 56 96 57 97 58 98
REMARK H PARENT 14 7 4 16 87 23 21 32 80 51 48 62
REMARK Flexibility Score: inf
ROOT
ATOM      1  C   UNL A   1      37.105  22.158  25.562  1.00  0.00     0.002 C 
ENDROOT
BRANCH   1   2
ATOM      2  C   UNL A   1      35.694  22.387  26.131  1.00  0.00     0.021 C 
BRANCH   2   3
ATOM      3  C   UNL A   1      34.638  22.607  25.042  1.00  0.00     0.116 C 
BRANCH   3   4
ATOM      4  N   UNL A   1      33.575  23.430  25.590  1.00  0.00    -0.352 N 
ATOM      5  C   UNL A   1      32.972  24.597  25.196  1.00  0.00     0.256 C 
ATOM      6  O   UNL A   1      32.245  25.127  26.045  1.00  0.00    -0.269 OA
ATOM      7  H   UNL A   1      33.205  23.070  26.427  1.00  0.00     0.163 HD
BRANCH   5   8
ATOM      8  C   UNL A   1      33.010  25.170  23.814  1.00  0.00     0.098 A 
ATOM      9  C   UNL A   1      33.414  26.534  23.666  1.00  0.00     0.050 A 
ATOM     10  C   UNL A   1      33.399  27.112  22.385  1.00  0.00     0.027 A 
ATOM     11  C   UNL A   1      32.964  26.397  21.271  1.00  0.00     0.005 A 
ATOM     12  C   UNL A   1      32.648  24.454  22.670  1.00  0.00     0.138 A 
ATOM     13  C   UNL A   1      32.583  25.070  21.418  1.00  0.00     0.040 A 
ATOM     14  F   UNL A   1      32.392  23.141  22.711  1.00  0.00    -0.206 F 
BRANCH   9  15
ATOM     15  N   UNL A   1      33.735  27.321  24.775  1.00  0.00    -0.378 N 
ATOM     16  H   UNL A   1      34.071  26.869  25.582  1.00  0.00     0.160 HD
BRANCH  15  17
ATOM     17  C   UNL A   1      33.600  28.775  24.807  1.00  0.00     0.177 C 
BRANCH  17  18
ATOM     18  C   UNL A   1      32.156  29.261  25.204  1.00  0.00     0.200 C 
ATOM     19  C   UNL A   1      31.722  28.513  26.484  1.00  0.00     0.077 C 
BRANCH  18  20
ATOM     20  N   UNL A   1      31.111  29.415  24.133  1.00  0.00    -0.331 N 
ATOM     21  C   UNL A   1      30.323  28.205  23.878  1.00  0.00     0.262 C 
ATOM     22  C   UNL A   1      30.254  30.600  24.275  1.00  0.00     0.262 C 
ATOM     23  H   UNL A   1      31.670  29.575  23.295  1.00  0.00     0.348 HD
ATOM     24  C   UNL A   1      29.288  28.316  22.761  1.00  0.00     0.062 C 
ATOM     25  C   UNL A   1      29.223  30.754  23.150  1.00  0.00     0.062 C 
ATOM     26  C   UNL A   1      28.373  29.503  23.007  1.00  0.00     0.012 C 
ENDBRANCH  18  20
ENDBRANCH  17  18
ENDBRANCH  15  17
ENDBRANCH   9  15
ENDBRANCH   5   8
ENDBRANCH   3   4
ENDBRANCH   2   3
ENDBRANCH   1   2
BRANCH   1  27
ATOM     27  C   UNL A   1      37.201  21.036  24.520  1.00  0.00     0.002 C 
BRANCH  27  28
ATOM     28  C   UNL A   1      38.103  19.866  24.916  1.00  0.00     0.021 C 
BRANCH  28  29
ATOM     29  C   UNL A   1      39.110  20.193  26.013  1.00  0.00     0.116 C 
BRANCH  29  30
ATOM     30  N   UNL A   1      40.195  19.224  26.052  1.00  0.00    -0.352 N 
ATOM     31  C   UNL A   1      41.550  19.444  26.098  1.00  0.00     0.251 C 
ATOM     32  H   UNL A   1      39.920  18.279  26.044  1.00  0.00     0.163 HD
ATOM     33  O   UNL A   1      42.332  18.524  25.891  1.00  0.00    -0.269 OA
BRANCH  31  34
ATOM     34  C   UNL A   1      42.056  20.802  26.391  1.00  0.00     0.039 A 
ATOM     35  C   UNL A   1      42.230  21.704  25.341  1.00  0.00     0.014 A 
ATOM     36  C   UNL A   1      42.357  21.179  27.704  1.00  0.00     0.014 A 
ATOM     37  C   UNL A   1      42.661  23.004  25.614  1.00  0.00     0.010 A 
ATOM     38  C   UNL A   1      42.709  22.494  27.982  1.00  0.00     0.010 A 
ATOM     39  C   UNL A   1      42.875  23.419  26.940  1.00  0.00    -0.014 A 
BRANCH  39  40
ATOM     40  C   UNL A   1      43.263  24.815  27.258  1.00  0.00     0.031 A 
ATOM     41  C   UNL A   1      42.268  25.756  27.881  1.00  0.00     0.074 A 
ATOM     42  C   UNL A   1      44.488  25.258  26.912  1.00  0.00     0.049 A 
ATOM     43  N   UNL A   1      42.410  27.021  28.182  1.00  0.00    -0.248 NA
ATOM     44  C   UNL A   1      40.932  25.216  28.184  1.00  0.00     0.031 C 
ATOM     45  C   UNL A   1      45.513  24.461  26.238  1.00  0.00     0.029 A 
ATOM     46  N   UNL A   1      45.070  26.492  27.060  1.00  0.00    -0.354 N 
ATOM     47  C   UNL A   1      41.179  27.433  28.676  1.00  0.00     0.074 A 
ATOM     48  C   UNL A   1      40.289  26.296  28.601  1.00  0.00     0.031 C 
ATOM     49  C   UNL A   1      46.602  25.220  26.044  1.00  0.00     0.029 A 
ATOM     50  C   UNL A   1      46.343  26.566  26.545  1.00  0.00     0.049 A 
ATOM     51  H   UNL A   1      44.620  27.253  27.495  1.00  0.00     0.167 HD
ATOM     52  C   UNL A   1      40.830  28.642  29.177  1.00  0.00     0.034 A 
ATOM     53  C   UNL A   1      47.204  27.601  26.475  1.00  0.00     0.034 A 
ATOM     54  C   UNL A   1      41.732  29.756  29.287  1.00  0.00     0.049 A 
ATOM     55  C   UNL A   1      46.804  28.926  27.063  1.00  0.00     0.074 A 
ATOM     56  C   UNL A   1      41.498  30.994  29.857  1.00  0.00     0.029 A 
ATOM     57  N   UNL A   1      43.034  29.774  28.812  1.00  0.00    -0.354 N 
ATOM     58  N   UNL A   1      45.682  29.257  27.655  1.00  0.00    -0.248 NA
ATOM     59  C   UNL A   1      47.795  30.010  27.004  1.00  0.00     0.031 C 
ATOM     60  C   UNL A   1      42.647  31.772  29.696  1.00  0.00     0.029 A 
ATOM     61  C   UNL A   1      43.612  31.005  29.063  1.00  0.00     0.049 A 
ATOM     62  H   UNL A   1      43.482  29.020  28.363  1.00  0.00     0.167 HD
ATOM     63  C   UNL A   1      45.841  30.575  28.067  1.00  0.00     0.074 A 
ATOM     64  C   UNL A   1      47.176  30.977  27.672  1.00  0.00     0.031 C 
ATOM     65  C   UNL A   1      44.957  31.381  28.706  1.00  0.00     0.034 A 
BRANCH  52  66
ATOM     66  C   UNL A   1      39.427  28.813  29.700  1.00  0.00     0.023 A 
ATOM     67  C   UNL A   1      39.139  28.488  31.041  1.00  0.00     0.012 A 
ATOM     68  C   UNL A   1      38.418  29.377  28.896  1.00  0.00     0.148 A 
ATOM     69  C   UNL A   1      37.864  28.693  31.566  1.00  0.00     0.002 A 
ATOM     70  C   UNL A   1      37.164  29.626  29.440  1.00  0.00     0.091 A 
ATOM     71  F   UNL A   1      38.703  29.663  27.617  1.00  0.00    -0.205 F 
ATOM     72  C   UNL A   1      36.882  29.274  30.770  1.00  0.00     0.022 A 
BRANCH  70  73
ATOM     73  S   UNL A   1      35.856  30.455  28.528  1.00  0.00     0.127 S 
ATOM     74  O   UNL A   1      35.184  31.203  29.590  1.00  0.00    -0.237 OA
ATOM     75  O   UNL A   1      36.614  31.281  27.587  1.00  0.00    -0.237 OA
ATOM     76  O   UNL A   1      35.063  29.401  27.913  1.00  0.00    -0.744 OA
ENDBRANCH  70  73
ENDBRANCH  52  66
BRANCH  53  77
ATOM     77  C   UNL A   1      48.557  27.387  25.890  1.00  0.00     0.023 A 
ATOM     78  C   UNL A   1      49.593  26.894  26.707  1.00  0.00     0.012 A 
ATOM     79  C   UNL A   1      48.802  27.592  24.517  1.00  0.00     0.148 A 
ATOM     80  C   UNL A   1      50.853  26.622  26.171  1.00  0.00     0.002 A 
ATOM     81  C   UNL A   1      50.041  27.264  23.979  1.00  0.00     0.091 A 
ATOM     82  F   UNL A   1      47.804  28.069  23.760  1.00  0.00    -0.205 F 
ATOM     83  C   UNL A   1      51.072  26.793  24.807  1.00  0.00     0.022 A 
BRANCH  81  84
ATOM     84  S   UNL A   1      50.373  27.315  22.214  1.00  0.00     0.127 S 
ATOM     85  O   UNL A   1      50.263  28.743  21.929  1.00  0.00    -0.237 OA
ATOM     86  O   UNL A   1      51.733  26.777  22.152  1.00  0.00    -0.237 OA
ATOM     87  O   UNL A   1      49.362  26.470  21.594  1.00  0.00    -0.744 OA
ENDBRANCH  81  84
ENDBRANCH  53  77
BRANCH  65  88
ATOM     88  C   UNL A   1      45.392  32.781  29.052  1.00  0.00     0.023 A 
ATOM     89  C   UNL A   1      46.020  33.034  30.287  1.00  0.00     0.012 A 
ATOM     90  C   UNL A   1      45.294  33.816  28.100  1.00  0.00     0.148 A 
ATOM     91  C   UNL A   1      46.527  34.302  30.577  1.00  0.00     0.002 A 
ATOM     92  C   UNL A   1      45.849  35.059  28.373  1.00  0.00     0.091 A 
ATOM     93  F   UNL A   1      44.679  33.556  26.937  1.00  0.00    -0.205 F 
ATOM     94  C   UNL A   1      46.456  35.308  29.616  1.00  0.00     0.022 A 
BRANCH  92  95
ATOM     95  S   UNL A   1      45.902  36.384  27.159  1.00  0.00     0.127 S 
ATOM     96  O   UNL A   1      46.062  35.637  25.912  1.00  0.00    -0.237 OA
ATOM     97  O   UNL A   1      44.592  37.012  27.331  1.00  0.00    -0.237 OA
ATOM     98  O   UNL A   1      47.033  37.225  27.530  1.00  0.00    -0.744 OA
ENDBRANCH  92  95
ENDBRANCH  65  88
ENDBRANCH  39  40
ENDBRANCH  31  34
ENDBRANCH  29  30
ENDBRANCH  28  29
ENDBRANCH  27  28
ENDBRANCH   1  27
TORSDOF 20
ENDMDL
