MODEL 1
REMARK VINA RESULT:     -11.4      0.000      0.000
REMARK SMILES CCOc1ccc(C(=O)N2CCC(C(=O)NCCCCCCNC(=O)c3ccc(-c4c5nc(c(-c6cccc(S(=O)(=O)[O-])c6F)c6ccc([nH]6)c(-c6cccc(S(=O)(=O)[O-])c6F)c6nc(c(-c7cccc(S(=O)(=O)[O-])c7F)c7ccc4[nH]7)C=C6)C=C5)cc3)(c3ccccc3)CC2)cc1OC
REMARK SMILES IDX 19 1 18 2 17 3 16 4 14 5 15 6 13 8 8 9 9 10 10 11 11 12
REMARK SMILES IDX 96 13 12 14 95 15 7 16 4 17 5 18 98 19 6 20 97 21 3 22 2 23
REMARK SMILES IDX 1 24 99 25 100 26 89 27 90 28 94 29 91 30 93 31 92 32 20 33
REMARK SMILES IDX 21 34 22 35 23 36 24 37 25 39 26 40 27 41 88 42 28 43 87 44
REMARK SMILES IDX 29 45 30 46 31 47 81 48 32 49 86 50 80 51 82 52 33 53 85 54
REMARK SMILES IDX 79 55 78 56 34 58 66 59 46 60 65 61 47 62 50 63 64 64 83 65
REMARK SMILES IDX 48 66 49 67 63 69 84 70 51 71 35 72 36 73 44 74 37 75 39 76
REMARK SMILES IDX 45 77 38 78 40 79 41 80 42 81 43 82 67 83 68 84 76 85 69 86
REMARK SMILES IDX 71 87 77 88 70 89 72 90 73 91 74 92 75 93 52 94 53 95 61 96
REMARK SMILES IDX 54 97 56 98 62 99 55 100 57 101 58 102 59 103 60 104
REMARK H PARENT 16 7 23 38 82 57 50 68
REMARK Flexibility Score: inf
ROOT
ATOM      1  C   UNL A   1      34.683  31.560  28.389  1.00  0.00     0.002 C 
ENDROOT
BRANCH   1   2
ATOM      2  C   UNL A   1      35.207  30.307  27.680  1.00  0.00     0.021 C 
BRANCH   2   3
ATOM      3  C   UNL A   1      34.177  29.631  26.781  1.00  0.00     0.116 C 
BRANCH   3   4
ATOM      4  N   UNL A   1      33.055  29.148  27.571  1.00  0.00    -0.355 N 
ATOM      5  C   UNL A   1      32.108  28.189  27.354  1.00  0.00     0.230 C 
ATOM      6  O   UNL A   1      31.213  28.194  28.202  1.00  0.00    -0.274 OA
ATOM      7  H   UNL A   1      32.958  29.605  28.437  1.00  0.00     0.163 HD
BRANCH   5   8
ATOM      8  C   UNL A   1      32.202  27.191  26.144  1.00  0.00     0.077 C 
ATOM      9  C   UNL A   1      34.046  23.236  26.145  1.00  0.00     0.253 C 
ATOM     10  O   UNL A   1      35.189  23.205  26.602  1.00  0.00    -0.269 OA
ATOM     11  N   UNL A   1      33.351  24.457  26.018  1.00  0.00    -0.339 N 
ATOM     12  C   UNL A   1      34.130  25.550  25.464  1.00  0.00     0.121 C 
ATOM     13  C   UNL A   1      31.900  24.604  26.063  1.00  0.00     0.121 C 
ATOM     14  C   UNL A   1      33.719  26.948  25.901  1.00  0.00     0.043 C 
ATOM     15  C   UNL A   1      31.412  25.932  26.612  1.00  0.00     0.043 C 
BRANCH   9  16
ATOM     16  C   UNL A   1      33.486  21.966  25.570  1.00  0.00     0.043 A 
ATOM     17  C   UNL A   1      32.672  19.530  24.377  1.00  0.00     0.161 A 
ATOM     18  C   UNL A   1      33.178  19.554  25.688  1.00  0.00     0.051 A 
ATOM     19  C   UNL A   1      32.539  20.724  23.675  1.00  0.00     0.161 A 
ATOM     20  C   UNL A   1      33.571  20.767  26.285  1.00  0.00     0.018 A 
ATOM     21  C   UNL A   1      33.021  21.897  24.259  1.00  0.00     0.064 A 
BRANCH  17  22
ATOM     22  O   UNL A   1      32.256  18.350  23.833  1.00  0.00    -0.490 OA
BRANCH  22  23
ATOM     23  C   UNL A   1      32.634  17.201  24.602  1.00  0.00     0.226 C 
ATOM     24  C   UNL A   1      33.759  16.482  23.872  1.00  0.00     0.049 C 
ENDBRANCH  22  23
ENDBRANCH  17  22
BRANCH  19  25
ATOM     25  O   UNL A   1      32.008  20.985  22.447  1.00  0.00    -0.493 OA
ATOM     26  C   UNL A   1      32.405  22.131  21.727  1.00  0.00     0.278 C 
ENDBRANCH  19  25
ENDBRANCH   9  16
BRANCH   8  27
ATOM     27  C   UNL A   1      31.573  27.682  24.786  1.00  0.00    -0.032 A 
ATOM     28  C   UNL A   1      30.287  27.338  24.335  1.00  0.00     0.005 A 
ATOM     29  C   UNL A   1      32.305  28.529  23.923  1.00  0.00     0.005 A 
ATOM     30  C   UNL A   1      29.773  27.792  23.112  1.00  0.00     0.000 A 
ATOM     31  C   UNL A   1      31.804  28.976  22.693  1.00  0.00     0.000 A 
ATOM     32  C   UNL A   1      30.534  28.606  22.285  1.00  0.00     0.000 A 
ENDBRANCH   8  27
ENDBRANCH   5   8
ENDBRANCH   3   4
ENDBRANCH   2   3
ENDBRANCH   1   2
BRANCH   1  33
ATOM     33  C   UNL A   1      35.395  32.861  28.003  1.00  0.00     0.002 C 
BRANCH  33  34
ATOM     34  C   UNL A   1      34.504  34.103  28.014  1.00  0.00     0.021 C 
BRANCH  34  35
ATOM     35  C   UNL A   1      33.181  33.919  28.746  1.00  0.00     0.116 C 
BRANCH  35  36
ATOM     36  N   UNL A   1      32.969  34.951  29.748  1.00  0.00    -0.352 N 
ATOM     37  C   UNL A   1      33.580  35.103  30.968  1.00  0.00     0.251 C 
ATOM     38  H   UNL A   1      32.296  35.634  29.521  1.00  0.00     0.163 HD
ATOM     39  O   UNL A   1      33.145  35.908  31.781  1.00  0.00    -0.269 OA
BRANCH  37  40
ATOM     40  C   UNL A   1      34.758  34.272  31.294  1.00  0.00     0.039 A 
ATOM     41  C   UNL A   1      36.032  34.751  30.980  1.00  0.00     0.014 A 
ATOM     42  C   UNL A   1      34.605  33.028  31.914  1.00  0.00     0.014 A 
ATOM     43  C   UNL A   1      37.155  33.999  31.328  1.00  0.00     0.010 A 
ATOM     44  C   UNL A   1      35.726  32.322  32.334  1.00  0.00     0.010 A 
ATOM     45  C   UNL A   1      37.013  32.790  32.029  1.00  0.00    -0.014 A 
BRANCH  45  46
ATOM     46  C   UNL A   1      38.196  31.992  32.437  1.00  0.00     0.031 A 
ATOM     47  C   UNL A   1      38.913  32.311  33.723  1.00  0.00     0.074 A 
ATOM     48  C   UNL A   1      38.670  31.031  31.621  1.00  0.00     0.049 A 
ATOM     49  N   UNL A   1      39.987  31.762  34.226  1.00  0.00    -0.248 NA
ATOM     50  C   UNL A   1      38.366  33.409  34.539  1.00  0.00     0.031 C 
ATOM     51  C   UNL A   1      38.108  30.677  30.315  1.00  0.00     0.029 A 
ATOM     52  N   UNL A   1      39.747  30.192  31.756  1.00  0.00    -0.354 N 
ATOM     53  C   UNL A   1      40.266  32.468  35.391  1.00  0.00     0.074 A 
ATOM     54  C   UNL A   1      39.270  33.511  35.501  1.00  0.00     0.031 C 
ATOM     55  C   UNL A   1      38.840  29.690  29.774  1.00  0.00     0.029 A 
ATOM     56  C   UNL A   1      39.941  29.363  30.675  1.00  0.00     0.049 A 
ATOM     57  H   UNL A   1      40.326  30.182  32.552  1.00  0.00     0.167 HD
ATOM     58  C   UNL A   1      41.244  32.252  36.302  1.00  0.00     0.034 A 
ATOM     59  C   UNL A   1      40.903  28.452  30.431  1.00  0.00     0.034 A 
ATOM     60  C   UNL A   1      42.210  31.192  36.207  1.00  0.00     0.049 A 
ATOM     61  C   UNL A   1      41.960  28.211  31.475  1.00  0.00     0.074 A 
ATOM     62  C   UNL A   1      43.190  30.837  37.117  1.00  0.00     0.029 A 
ATOM     63  N   UNL A   1      42.326  30.322  35.134  1.00  0.00    -0.354 N 
ATOM     64  N   UNL A   1      42.118  28.790  32.641  1.00  0.00    -0.248 NA
ATOM     65  C   UNL A   1      42.951  27.163  31.188  1.00  0.00     0.031 C 
ATOM     66  C   UNL A   1      43.921  29.774  36.578  1.00  0.00     0.029 A 
ATOM     67  C   UNL A   1      43.368  29.437  35.353  1.00  0.00     0.049 A 
ATOM     68  H   UNL A   1      41.752  30.332  34.334  1.00  0.00     0.167 HD
ATOM     69  C   UNL A   1      43.194  28.148  33.244  1.00  0.00     0.074 A 
ATOM     70  C   UNL A   1      43.640  27.125  32.321  1.00  0.00     0.031 C 
ATOM     71  C   UNL A   1      43.766  28.388  34.449  1.00  0.00     0.034 A 
BRANCH  58  72
ATOM     72  C   UNL A   1      41.292  33.158  37.507  1.00  0.00     0.023 A 
ATOM     73  C   UNL A   1      40.627  32.781  38.693  1.00  0.00     0.012 A 
ATOM     74  C   UNL A   1      42.039  34.352  37.485  1.00  0.00     0.148 A 
ATOM     75  C   UNL A   1      40.670  33.597  39.822  1.00  0.00     0.002 A 
ATOM     76  C   UNL A   1      42.120  35.134  38.631  1.00  0.00     0.091 A 
ATOM     77  F   UNL A   1      42.648  34.704  36.344  1.00  0.00    -0.205 F 
ATOM     78  C   UNL A   1      41.425  34.766  39.796  1.00  0.00     0.022 A 
BRANCH  76  79
ATOM     79  S   UNL A   1      43.134  36.614  38.726  1.00  0.00     0.127 S 
ATOM     80  O   UNL A   1      42.665  37.213  39.976  1.00  0.00    -0.237 OA
ATOM     81  O   UNL A   1      44.484  36.055  38.789  1.00  0.00    -0.237 OA
ATOM     82  O   UNL A   1      42.846  37.379  37.522  1.00  0.00    -0.744 OA
ENDBRANCH  76  79
ENDBRANCH  58  72
BRANCH  59  83
ATOM     83  C   UNL A   1      40.878  27.655  29.172  1.00  0.00     0.023 A 
ATOM     84  C   UNL A   1      39.961  26.593  29.041  1.00  0.00     0.012 A 
ATOM     85  C   UNL A   1      41.744  27.951  28.101  1.00  0.00     0.148 A 
ATOM     86  C   UNL A   1      39.934  25.815  27.883  1.00  0.00     0.002 A 
ATOM     87  C   UNL A   1      41.672  27.209  26.928  1.00  0.00     0.091 A 
ATOM     88  F   UNL A   1      42.612  28.961  28.248  1.00  0.00    -0.205 F 
ATOM     89  C   UNL A   1      40.782  26.129  26.824  1.00  0.00     0.022 A 
BRANCH  87  90
ATOM     90  S   UNL A   1      42.635  27.616  25.468  1.00  0.00     0.127 S 
ATOM     91  O   UNL A   1      42.030  28.881  25.056  1.00  0.00    -0.237 OA
ATOM     92  O   UNL A   1      43.984  27.729  26.020  1.00  0.00    -0.237 OA
ATOM     93  O   UNL A   1      42.451  26.500  24.550  1.00  0.00    -0.744 OA
ENDBRANCH  87  90
ENDBRANCH  59  83
BRANCH  71  94
ATOM     94  C   UNL A   1      44.902  27.496  34.877  1.00  0.00     0.023 A 
ATOM     95  C   UNL A   1      46.236  27.877  34.627  1.00  0.00     0.012 A 
ATOM     96  C   UNL A   1      44.644  26.311  35.594  1.00  0.00     0.148 A 
ATOM     97  C   UNL A   1      47.292  27.072  35.052  1.00  0.00     0.002 A 
ATOM     98  C   UNL A   1      45.703  25.542  36.061  1.00  0.00     0.091 A 
ATOM     99  F   UNL A   1      43.368  25.956  35.805  1.00  0.00    -0.205 F 
ATOM    100  C   UNL A   1      47.027  25.913  35.778  1.00  0.00     0.022 A 
BRANCH  98 101
ATOM    101  S   UNL A   1      45.458  24.091  37.091  1.00  0.00     0.127 S 
ATOM    102  O   UNL A   1      44.733  23.203  36.185  1.00  0.00    -0.237 OA
ATOM    103  O   UNL A   1      46.833  23.680  37.377  1.00  0.00    -0.237 OA
ATOM    104  O   UNL A   1      44.708  24.545  38.253  1.00  0.00    -0.744 OA
ENDBRANCH  98 101
ENDBRANCH  71  94
ENDBRANCH  45  46
ENDBRANCH  37  40
ENDBRANCH  35  36
ENDBRANCH  34  35
ENDBRANCH  33  34
ENDBRANCH   1  33
TORSDOF 21
ENDMDL
MODEL 2
REMARK VINA RESULT:     -10.7      2.573      4.610
REMARK SMILES CCOc1ccc(C(=O)N2CCC(C(=O)NCCCCCCNC(=O)c3ccc(-c4c5nc(c(-c6cccc(S(=O)(=O)[O-])c6F)c6ccc([nH]6)c(-c6cccc(S(=O)(=O)[O-])c6F)c6nc(c(-c7cccc(S(=O)(=O)[O-])c7F)c7ccc4[nH]7)C=C6)C=C5)cc3)(c3ccccc3)CC2)cc1OC
REMARK SMILES IDX 19 1 18 2 17 3 16 4 14 5 15 6 13 8 8 9 9 10 10 11 11 12
REMARK SMILES IDX 96 13 12 14 95 15 7 16 4 17 5 18 98 19 6 20 97 21 3 22 2 23
REMARK SMILES IDX 1 24 99 25 100 26 89 27 90 28 94 29 91 30 93 31 92 32 20 33
REMARK SMILES IDX 21 34 22 35 23 36 24 37 25 39 26 40 27 41 88 42 28 43 87 44
REMARK SMILES IDX 29 45 30 46 31 47 81 48 32 49 86 50 80 51 82 52 33 53 85 54
REMARK SMILES IDX 79 55 78 56 34 58 66 59 46 60 65 61 47 62 50 63 64 64 83 65
REMARK SMILES IDX 48 66 49 67 63 69 84 70 51 71 35 72 36 73 44 74 37 75 39 76
REMARK SMILES IDX 45 77 38 78 40 79 41 80 42 81 43 82 67 83 68 84 76 85 69 86
REMARK SMILES IDX 71 87 77 88 70 89 72 90 73 91 74 92 75 93 52 94 53 95 61 96
REMARK SMILES IDX 54 97 56 98 62 99 55 100 57 101 58 102 59 103 60 104
REMARK H PARENT 16 7 23 38 82 57 50 68
REMARK Flexibility Score: inf
ROOT
ATOM      1  C   UNL A   1      33.408  27.107  23.059  1.00  0.00     0.002 C 
ENDROOT
BRANCH   1   2
ATOM      2  C   UNL A   1      32.544  26.228  22.148  1.00  0.00     0.021 C 
BRANCH   2   3
ATOM      3  C   UNL A   1      33.286  25.031  21.561  1.00  0.00     0.116 C 
BRANCH   3   4
ATOM      4  N   UNL A   1      32.493  23.820  21.712  1.00  0.00    -0.355 N 
ATOM      5  C   UNL A   1      32.552  22.772  22.585  1.00  0.00     0.230 C 
ATOM      6  O   UNL A   1      31.800  21.845  22.277  1.00  0.00    -0.274 OA
ATOM      7  H   UNL A   1      31.768  23.740  21.052  1.00  0.00     0.163 HD
BRANCH   5   8
ATOM      8  C   UNL A   1      33.485  22.800  23.850  1.00  0.00     0.077 C 
ATOM      9  C   UNL A   1      36.645  19.958  24.839  1.00  0.00     0.253 C 
ATOM     10  O   UNL A   1      36.303  18.777  24.789  1.00  0.00    -0.269 OA
ATOM     11  N   UNL A   1      35.711  20.991  24.611  1.00  0.00    -0.339 N 
ATOM     12  C   UNL A   1      34.434  20.821  25.282  1.00  0.00     0.121 C 
ATOM     13  C   UNL A   1      36.034  22.310  24.077  1.00  0.00     0.121 C 
ATOM     14  C   UNL A   1      33.235  21.462  24.601  1.00  0.00     0.043 C 
ATOM     15  C   UNL A   1      34.923  22.959  23.272  1.00  0.00     0.043 C 
BRANCH   9  16
ATOM     16  C   UNL A   1      38.035  20.267  25.318  1.00  0.00     0.043 A 
ATOM     17  C   UNL A   1      40.573  20.782  26.466  1.00  0.00     0.161 A 
ATOM     18  C   UNL A   1      40.269  19.519  25.928  1.00  0.00     0.051 A 
ATOM     19  C   UNL A   1      39.623  21.797  26.400  1.00  0.00     0.161 A 
ATOM     20  C   UNL A   1      39.013  19.267  25.346  1.00  0.00     0.018 A 
ATOM     21  C   UNL A   1      38.356  21.492  25.900  1.00  0.00     0.064 A 
BRANCH  17  22
ATOM     22  O   UNL A   1      41.812  21.017  26.986  1.00  0.00    -0.490 OA
BRANCH  22  23
ATOM     23  C   UNL A   1      42.849  21.054  25.998  1.00  0.00     0.226 C 
ATOM     24  C   UNL A   1      43.300  19.627  25.720  1.00  0.00     0.049 C 
ENDBRANCH  22  23
ENDBRANCH  17  22
BRANCH  19  25
ATOM     25  O   UNL A   1      39.690  23.109  26.763  1.00  0.00    -0.493 OA
ATOM     26  C   UNL A   1      38.639  23.993  26.439  1.00  0.00     0.278 C 
ENDBRANCH  19  25
ENDBRANCH   9  16
BRANCH   8  27
ATOM     27  C   UNL A   1      33.238  23.975  24.870  1.00  0.00    -0.032 A 
ATOM     28  C   UNL A   1      31.987  24.298  25.423  1.00  0.00     0.005 A 
ATOM     29  C   UNL A   1      34.311  24.792  25.294  1.00  0.00     0.005 A 
ATOM     30  C   UNL A   1      31.815  25.362  26.321  1.00  0.00     0.000 A 
ATOM     31  C   UNL A   1      34.145  25.864  26.179  1.00  0.00     0.000 A 
ATOM     32  C   UNL A   1      32.892  26.152  26.695  1.00  0.00     0.000 A 
ENDBRANCH   8  27
ENDBRANCH   5   8
ENDBRANCH   3   4
ENDBRANCH   2   3
ENDBRANCH   1   2
BRANCH   1  33
ATOM     33  C   UNL A   1      32.818  28.487  23.366  1.00  0.00     0.002 C 
BRANCH  33  34
ATOM     34  C   UNL A   1      32.585  28.765  24.851  1.00  0.00     0.021 C 
BRANCH  34  35
ATOM     35  C   UNL A   1      33.691  29.570  25.521  1.00  0.00     0.116 C 
BRANCH  35  36
ATOM     36  N   UNL A   1      33.209  30.853  26.005  1.00  0.00    -0.352 N 
ATOM     37  C   UNL A   1      33.606  31.556  27.115  1.00  0.00     0.251 C 
ATOM     38  H   UNL A   1      32.502  31.275  25.464  1.00  0.00     0.163 HD
ATOM     39  O   UNL A   1      32.962  32.524  27.497  1.00  0.00    -0.269 OA
BRANCH  37  40
ATOM     40  C   UNL A   1      34.812  31.121  27.853  1.00  0.00     0.039 A 
ATOM     41  C   UNL A   1      35.900  31.991  27.943  1.00  0.00     0.014 A 
ATOM     42  C   UNL A   1      34.862  29.862  28.458  1.00  0.00     0.014 A 
ATOM     43  C   UNL A   1      37.024  31.612  28.679  1.00  0.00     0.010 A 
ATOM     44  C   UNL A   1      35.946  29.523  29.259  1.00  0.00     0.010 A 
ATOM     45  C   UNL A   1      37.048  30.385  29.363  1.00  0.00    -0.014 A 
BRANCH  45  46
ATOM     46  C   UNL A   1      38.220  29.979  30.178  1.00  0.00     0.031 A 
ATOM     47  C   UNL A   1      38.411  30.548  31.559  1.00  0.00     0.074 A 
ATOM     48  C   UNL A   1      39.148  29.156  29.652  1.00  0.00     0.049 A 
ATOM     49  N   UNL A   1      39.391  30.354  32.402  1.00  0.00    -0.248 NA
ATOM     50  C   UNL A   1      37.380  31.481  32.046  1.00  0.00     0.031 C 
ATOM     51  C   UNL A   1      39.114  28.596  28.298  1.00  0.00     0.029 A 
ATOM     52  N   UNL A   1      40.315  28.667  30.183  1.00  0.00    -0.354 N 
ATOM     53  C   UNL A   1      39.115  31.163  33.499  1.00  0.00     0.074 A 
ATOM     54  C   UNL A   1      37.897  31.881  33.198  1.00  0.00     0.031 C 
ATOM     55  C   UNL A   1      40.204  27.835  28.109  1.00  0.00     0.029 A 
ATOM     56  C   UNL A   1      41.031  27.879  29.311  1.00  0.00     0.049 A 
ATOM     57  H   UNL A   1      40.612  28.861  31.101  1.00  0.00     0.167 HD
ATOM     58  C   UNL A   1      39.798  31.278  34.663  1.00  0.00     0.034 A 
ATOM     59  C   UNL A   1      42.224  27.271  29.458  1.00  0.00     0.034 A 
ATOM     60  C   UNL A   1      40.989  30.535  34.971  1.00  0.00     0.049 A 
ATOM     61  C   UNL A   1      42.946  27.391  30.774  1.00  0.00     0.074 A 
ATOM     62  C   UNL A   1      41.710  30.518  36.152  1.00  0.00     0.029 A 
ATOM     63  N   UNL A   1      41.641  29.686  34.092  1.00  0.00    -0.354 N 
ATOM     64  N   UNL A   1      42.592  28.044  31.854  1.00  0.00    -0.248 NA
ATOM     65  C   UNL A   1      44.214  26.658  30.905  1.00  0.00     0.031 C 
ATOM     66  C   UNL A   1      42.818  29.684  35.974  1.00  0.00     0.029 A 
ATOM     67  C   UNL A   1      42.763  29.146  34.699  1.00  0.00     0.049 A 
ATOM     68  H   UNL A   1      41.351  29.494  33.171  1.00  0.00     0.167 HD
ATOM     69  C   UNL A   1      43.567  27.766  32.805  1.00  0.00     0.074 A 
ATOM     70  C   UNL A   1      44.518  26.870  32.178  1.00  0.00     0.031 C 
ATOM     71  C   UNL A   1      43.671  28.215  34.080  1.00  0.00     0.034 A 
BRANCH  58  72
ATOM     72  C   UNL A   1      39.247  32.214  35.708  1.00  0.00     0.023 A 
ATOM     73  C   UNL A   1      38.226  31.772  36.575  1.00  0.00     0.012 A 
ATOM     74  C   UNL A   1      39.776  33.509  35.870  1.00  0.00     0.148 A 
ATOM     75  C   UNL A   1      37.713  32.617  37.558  1.00  0.00     0.002 A 
ATOM     76  C   UNL A   1      39.295  34.328  36.886  1.00  0.00     0.091 A 
ATOM     77  F   UNL A   1      40.733  33.920  35.025  1.00  0.00    -0.205 F 
ATOM     78  C   UNL A   1      38.254  33.889  37.721  1.00  0.00     0.022 A 
BRANCH  76  79
ATOM     79  S   UNL A   1      39.983  35.950  37.233  1.00  0.00     0.127 S 
ATOM     80  O   UNL A   1      39.698  36.664  35.988  1.00  0.00    -0.237 OA
ATOM     81  O   UNL A   1      39.184  36.383  38.379  1.00  0.00    -0.237 OA
ATOM     82  O   UNL A   1      41.395  35.737  37.519  1.00  0.00    -0.744 OA
ENDBRANCH  76  79
ENDBRANCH  58  72
BRANCH  59  83
ATOM     83  C   UNL A   1      42.784  26.442  28.353  1.00  0.00     0.023 A 
ATOM     84  C   UNL A   1      42.203  25.192  28.061  1.00  0.00     0.012 A 
ATOM     85  C   UNL A   1      43.874  26.891  27.582  1.00  0.00     0.148 A 
ATOM     86  C   UNL A   1      42.724  24.386  27.048  1.00  0.00     0.002 A 
ATOM     87  C   UNL A   1      44.351  26.108  26.538  1.00  0.00     0.091 A 
ATOM     88  F   UNL A   1      44.415  28.080  27.881  1.00  0.00    -0.205 F 
ATOM     89  C   UNL A   1      43.790  24.847  26.281  1.00  0.00     0.022 A 
BRANCH  87  90
ATOM     90  S   UNL A   1      45.636  26.672  25.418  1.00  0.00     0.127 S 
ATOM     91  O   UNL A   1      46.742  26.931  26.338  1.00  0.00    -0.237 OA
ATOM     92  O   UNL A   1      45.814  25.507  24.552  1.00  0.00    -0.237 OA
ATOM     93  O   UNL A   1      45.088  27.843  24.746  1.00  0.00    -0.744 OA
ENDBRANCH  87  90
ENDBRANCH  59  83
BRANCH  71  94
ATOM     94  C   UNL A   1      44.819  27.705  34.912  1.00  0.00     0.023 A 
ATOM     95  C   UNL A   1      46.016  28.444  34.997  1.00  0.00     0.012 A 
ATOM     96  C   UNL A   1      44.678  26.526  35.671  1.00  0.00     0.148 A 
ATOM     97  C   UNL A   1      47.069  27.994  35.794  1.00  0.00     0.002 A 
ATOM     98  C   UNL A   1      45.711  26.114  36.504  1.00  0.00     0.091 A 
ATOM     99  F   UNL A   1      43.538  25.828  35.562  1.00  0.00    -0.205 F 
ATOM    100  C   UNL A   1      46.912  26.839  36.556  1.00  0.00     0.022 A 
BRANCH  98 101
ATOM    101  S   UNL A   1      45.559  24.697  37.597  1.00  0.00     0.127 S 
ATOM    102  O   UNL A   1      44.581  25.177  38.571  1.00  0.00    -0.237 OA
ATOM    103  O   UNL A   1      45.060  23.661  36.693  1.00  0.00    -0.237 OA
ATOM    104  O   UNL A   1      46.894  24.450  38.124  1.00  0.00    -0.744 OA
ENDBRANCH  98 101
ENDBRANCH  71  94
ENDBRANCH  45  46
ENDBRANCH  37  40
ENDBRANCH  35  36
ENDBRANCH  34  35
ENDBRANCH  33  34
ENDBRANCH   1  33
TORSDOF 21
ENDMDL
MODEL 3
REMARK VINA RESULT:     -10.4      3.418      5.575
REMARK SMILES CCOc1ccc(C(=O)N2CCC(C(=O)NCCCCCCNC(=O)c3ccc(-c4c5nc(c(-c6cccc(S(=O)(=O)[O-])c6F)c6ccc([nH]6)c(-c6cccc(S(=O)(=O)[O-])c6F)c6nc(c(-c7cccc(S(=O)(=O)[O-])c7F)c7ccc4[nH]7)C=C6)C=C5)cc3)(c3ccccc3)CC2)cc1OC
REMARK SMILES IDX 19 1 18 2 17 3 16 4 14 5 15 6 13 8 8 9 9 10 10 11 11 12
REMARK SMILES IDX 96 13 12 14 95 15 7 16 4 17 5 18 98 19 6 20 97 21 3 22 2 23
REMARK SMILES IDX 1 24 99 25 100 26 89 27 90 28 94 29 91 30 93 31 92 32 20 33
REMARK SMILES IDX 21 34 22 35 23 36 24 37 25 39 26 40 27 41 88 42 28 43 87 44
REMARK SMILES IDX 29 45 30 46 31 47 81 48 32 49 86 50 80 51 82 52 33 53 85 54
REMARK SMILES IDX 79 55 78 56 34 58 66 59 46 60 65 61 47 62 50 63 64 64 83 65
REMARK SMILES IDX 48 66 49 67 63 69 84 70 51 71 35 72 36 73 44 74 37 75 39 76
REMARK SMILES IDX 45 77 38 78 40 79 41 80 42 81 43 82 67 83 68 84 76 85 69 86
REMARK SMILES IDX 71 87 77 88 70 89 72 90 73 91 74 92 75 93 52 94 53 95 61 96
REMARK SMILES IDX 54 97 56 98 62 99 55 100 57 101 58 102 59 103 60 104
REMARK H PARENT 16 7 23 38 82 57 50 68
REMARK Flexibility Score: inf
ROOT
ATOM      1  C   UNL A   1      33.327  26.730  23.296  1.00  0.00     0.002 C 
ENDROOT
BRANCH   1   2
ATOM      2  C   UNL A   1      32.522  25.853  22.332  1.00  0.00     0.021 C 
BRANCH   2   3
ATOM      3  C   UNL A   1      33.373  24.872  21.532  1.00  0.00     0.116 C 
BRANCH   3   4
ATOM      4  N   UNL A   1      32.744  23.560  21.506  1.00  0.00    -0.355 N 
ATOM      5  C   UNL A   1      32.805  22.482  22.340  1.00  0.00     0.230 C 
ATOM      6  O   UNL A   1      32.251  21.482  21.878  1.00  0.00    -0.274 OA
ATOM      7  H   UNL A   1      32.154  23.423  20.730  1.00  0.00     0.163 HD
BRANCH   5   8
ATOM      8  C   UNL A   1      33.505  22.560  23.745  1.00  0.00     0.077 C 
ATOM      9  C   UNL A   1      37.275  20.694  24.904  1.00  0.00     0.253 C 
ATOM     10  O   UNL A   1      37.354  19.495  24.637  1.00  0.00    -0.269 OA
ATOM     11  N   UNL A   1      36.089  21.413  24.650  1.00  0.00    -0.339 N 
ATOM     12  C   UNL A   1      34.866  20.740  25.050  1.00  0.00     0.121 C 
ATOM     13  C   UNL A   1      36.021  22.842  24.362  1.00  0.00     0.121 C 
ATOM     14  C   UNL A   1      33.619  21.096  24.255  1.00  0.00     0.043 C 
ATOM     15  C   UNL A   1      34.871  23.257  23.463  1.00  0.00     0.043 C 
BRANCH   9  16
ATOM     16  C   UNL A   1      38.410  21.320  25.663  1.00  0.00     0.043 A 
ATOM     17  C   UNL A   1      40.415  22.445  27.317  1.00  0.00     0.161 A 
ATOM     18  C   UNL A   1      40.480  21.097  26.923  1.00  0.00     0.051 A 
ATOM     19  C   UNL A   1      39.369  23.239  26.858  1.00  0.00     0.161 A 
ATOM     20  C   UNL A   1      39.491  20.542  26.091  1.00  0.00     0.018 A 
ATOM     21  C   UNL A   1      38.356  22.639  26.109  1.00  0.00     0.064 A 
BRANCH  17  22
ATOM     22  O   UNL A   1      41.408  22.974  28.089  1.00  0.00    -0.490 OA
BRANCH  22  23
ATOM     23  C   UNL A   1      42.725  22.688  27.602  1.00  0.00     0.226 C 
ATOM     24  C   UNL A   1      43.722  22.972  28.716  1.00  0.00     0.049 C 
ENDBRANCH  22  23
ENDBRANCH  17  22
BRANCH  19  25
ATOM     25  O   UNL A   1      39.121  24.570  27.017  1.00  0.00    -0.493 OA
ATOM     26  C   UNL A   1      39.987  25.530  26.452  1.00  0.00     0.278 C 
ENDBRANCH  19  25
ENDBRANCH   9  16
BRANCH   8  27
ATOM     27  C   UNL A   1      32.754  23.394  24.851  1.00  0.00    -0.032 A 
ATOM     28  C   UNL A   1      33.389  24.046  25.922  1.00  0.00     0.005 A 
ATOM     29  C   UNL A   1      31.348  23.530  24.813  1.00  0.00     0.005 A 
ATOM     30  C   UNL A   1      32.675  24.769  26.890  1.00  0.00     0.000 A 
ATOM     31  C   UNL A   1      30.627  24.238  25.783  1.00  0.00     0.000 A 
ATOM     32  C   UNL A   1      31.292  24.860  26.826  1.00  0.00     0.000 A 
ENDBRANCH   8  27
ENDBRANCH   5   8
ENDBRANCH   3   4
ENDBRANCH   2   3
ENDBRANCH   1   2
BRANCH   1  33
ATOM     33  C   UNL A   1      32.486  27.675  24.161  1.00  0.00     0.002 C 
BRANCH  33  34
ATOM     34  C   UNL A   1      32.993  27.850  25.592  1.00  0.00     0.021 C 
BRANCH  34  35
ATOM     35  C   UNL A   1      34.045  28.938  25.756  1.00  0.00     0.116 C 
BRANCH  35  36
ATOM     36  N   UNL A   1      33.456  30.206  26.154  1.00  0.00    -0.352 N 
ATOM     37  C   UNL A   1      33.848  31.059  27.156  1.00  0.00     0.251 C 
ATOM     38  H   UNL A   1      32.669  30.492  25.635  1.00  0.00     0.163 HD
ATOM     39  O   UNL A   1      33.126  31.987  27.496  1.00  0.00    -0.269 OA
BRANCH  37  40
ATOM     40  C   UNL A   1      35.145  30.833  27.830  1.00  0.00     0.039 A 
ATOM     41  C   UNL A   1      36.047  31.894  27.932  1.00  0.00     0.014 A 
ATOM     42  C   UNL A   1      35.462  29.581  28.365  1.00  0.00     0.014 A 
ATOM     43  C   UNL A   1      37.253  31.708  28.610  1.00  0.00     0.010 A 
ATOM     44  C   UNL A   1      36.624  29.423  29.112  1.00  0.00     0.010 A 
ATOM     45  C   UNL A   1      37.542  30.478  29.226  1.00  0.00    -0.014 A 
BRANCH  45  46
ATOM     46  C   UNL A   1      38.804  30.271  29.980  1.00  0.00     0.031 A 
ATOM     47  C   UNL A   1      38.940  30.804  31.382  1.00  0.00     0.074 A 
ATOM     48  C   UNL A   1      39.850  29.669  29.381  1.00  0.00     0.049 A 
ATOM     49  N   UNL A   1      39.973  30.766  32.182  1.00  0.00    -0.248 NA
ATOM     50  C   UNL A   1      37.770  31.496  31.951  1.00  0.00     0.031 C 
ATOM     51  C   UNL A   1      39.867  29.174  28.002  1.00  0.00     0.029 A 
ATOM     52  N   UNL A   1      41.110  29.393  29.848  1.00  0.00    -0.354 N 
ATOM     53  C   UNL A   1      39.594  31.457  33.327  1.00  0.00     0.074 A 
ATOM     54  C   UNL A   1      38.248  31.937  33.104  1.00  0.00     0.031 C 
ATOM     55  C   UNL A   1      41.074  28.649  27.738  1.00  0.00     0.029 A 
ATOM     56  C   UNL A   1      41.927  28.798  28.913  1.00  0.00     0.049 A 
ATOM     57  H   UNL A   1      41.403  29.598  30.764  1.00  0.00     0.167 HD
ATOM     58  C   UNL A   1      40.290  31.649  34.473  1.00  0.00     0.034 A 
ATOM     59  C   UNL A   1      43.220  28.427  28.990  1.00  0.00     0.034 A 
ATOM     60  C   UNL A   1      41.613  31.139  34.703  1.00  0.00     0.049 A 
ATOM     61  C   UNL A   1      43.960  28.626  30.285  1.00  0.00     0.074 A 
ATOM     62  C   UNL A   1      42.373  31.209  35.857  1.00  0.00     0.029 A 
ATOM     63  N   UNL A   1      42.380  30.473  33.759  1.00  0.00    -0.354 N 
ATOM     64  N   UNL A   1      43.533  29.149  31.409  1.00  0.00    -0.248 NA
ATOM     65  C   UNL A   1      45.350  28.148  30.337  1.00  0.00     0.031 C 
ATOM     66  C   UNL A   1      43.613  30.615  35.600  1.00  0.00     0.029 A 
ATOM     67  C   UNL A   1      43.609  30.135  34.301  1.00  0.00     0.049 A 
ATOM     68  H   UNL A   1      42.093  30.270  32.839  1.00  0.00     0.167 HD
ATOM     69  C   UNL A   1      44.583  29.023  32.312  1.00  0.00     0.074 A 
ATOM     70  C   UNL A   1      45.661  28.358  31.608  1.00  0.00     0.031 C 
ATOM     71  C   UNL A   1      44.651  29.426  33.605  1.00  0.00     0.034 A 
BRANCH  58  72
ATOM     72  C   UNL A   1      39.614  32.413  35.583  1.00  0.00     0.023 A 
ATOM     73  C   UNL A   1      39.683  33.822  35.605  1.00  0.00     0.012 A 
ATOM     74  C   UNL A   1      38.866  31.744  36.571  1.00  0.00     0.148 A 
ATOM     75  C   UNL A   1      39.054  34.549  36.615  1.00  0.00     0.002 A 
ATOM     76  C   UNL A   1      38.199  32.478  37.544  1.00  0.00     0.091 A 
ATOM     77  F   UNL A   1      38.827  30.405  36.545  1.00  0.00    -0.205 F 
ATOM     78  C   UNL A   1      38.303  33.879  37.576  1.00  0.00     0.022 A 
BRANCH  76  79
ATOM     79  S   UNL A   1      37.136  31.716  38.776  1.00  0.00     0.127 S 
ATOM     80  O   UNL A   1      37.973  31.791  39.974  1.00  0.00    -0.237 OA
ATOM     81  O   UNL A   1      35.983  32.615  38.783  1.00  0.00    -0.237 OA
ATOM     82  O   UNL A   1      36.859  30.371  38.294  1.00  0.00    -0.744 OA
ENDBRANCH  76  79
ENDBRANCH  58  72
BRANCH  59  83
ATOM     83  C   UNL A   1      43.881  27.774  27.825  1.00  0.00     0.023 A 
ATOM     84  C   UNL A   1      43.483  26.479  27.438  1.00  0.00     0.012 A 
ATOM     85  C   UNL A   1      44.888  28.431  27.092  1.00  0.00     0.148 A 
ATOM     86  C   UNL A   1      44.104  25.835  26.367  1.00  0.00     0.002 A 
ATOM     87  C   UNL A   1      45.462  27.806  25.991  1.00  0.00     0.091 A 
ATOM     88  F   UNL A   1      45.257  29.659  27.480  1.00  0.00    -0.205 F 
ATOM     89  C   UNL A   1      45.085  26.501  25.638  1.00  0.00     0.022 A 
BRANCH  87  90
ATOM     90  S   UNL A   1      46.642  28.632  24.919  1.00  0.00     0.127 S 
ATOM     91  O   UNL A   1      46.273  30.035  25.092  1.00  0.00    -0.237 OA
ATOM     92  O   UNL A   1      47.917  28.251  25.524  1.00  0.00    -0.237 OA
ATOM     93  O   UNL A   1      46.420  28.082  23.589  1.00  0.00    -0.744 OA
ENDBRANCH  87  90
ENDBRANCH  59  83
BRANCH  71  94
ATOM     94  C   UNL A   1      45.910  29.112  34.371  1.00  0.00     0.023 A 
ATOM     95  C   UNL A   1      46.022  27.904  35.089  1.00  0.00     0.012 A 
ATOM     96  C   UNL A   1      47.012  29.988  34.317  1.00  0.00     0.148 A 
ATOM     97  C   UNL A   1      47.198  27.593  35.771  1.00  0.00     0.002 A 
ATOM     98  C   UNL A   1      48.198  29.647  34.954  1.00  0.00     0.091 A 
ATOM     99  F   UNL A   1      46.880  31.141  33.644  1.00  0.00    -0.205 F 
ATOM    100  C   UNL A   1      48.288  28.457  35.694  1.00  0.00     0.022 A 
BRANCH  98 101
ATOM    101  S   UNL A   1      49.684  30.647  34.823  1.00  0.00     0.127 S 
ATOM    102  O   UNL A   1      49.257  31.898  35.445  1.00  0.00    -0.237 OA
ATOM    103  O   UNL A   1      50.647  29.874  35.607  1.00  0.00    -0.237 OA
ATOM    104  O   UNL A   1      49.990  30.730  33.401  1.00  0.00    -0.744 OA
ENDBRANCH  98 101
ENDBRANCH  71  94
ENDBRANCH  45  46
ENDBRANCH  37  40
ENDBRANCH  35  36
ENDBRANCH  34  35
ENDBRANCH  33  34
ENDBRANCH   1  33
TORSDOF 21
ENDMDL
