MODEL 1
REMARK VINA RESULT:     -12.0      0.000      0.000
REMARK SMILES C=C1c2ccccc2C(=O)N1[C@](C)(C(=O)NCCCCCCNC(=O)c1ccc(-c2c3nc(c(-c4cccc(S(=O)(=O)[O-])c4F)c4ccc([nH]4)c(-c4cccc(S(=O)(=O)[O-])c4F)c4nc(c(-c5cccc(S(=O)(=O)[O-])c5F)c5ccc2[nH]5)C=C4)C=C3)cc1)C(F)(F)F
REMARK SMILES IDX 20 1 19 2 18 3 17 4 16 5 14 6 15 7 12 9 13 10 11 11 1 12
REMARK SMILES IDX 2 13 3 14 4 15 8 16 9 17 5 18 7 19 10 20 6 21 89 22 90 23
REMARK SMILES IDX 91 24 92 25 21 26 22 27 23 28 24 29 25 31 26 32 27 33 88 34
REMARK SMILES IDX 28 35 87 36 29 37 30 38 31 39 81 40 32 41 86 42 80 43 82 44
REMARK SMILES IDX 33 45 85 46 79 47 78 48 34 50 66 51 46 52 65 53 47 54 50 55
REMARK SMILES IDX 64 56 83 57 48 58 49 59 63 61 84 62 51 63 35 64 36 65 44 66
REMARK SMILES IDX 37 67 39 68 45 69 38 70 40 71 41 72 42 73 43 74 67 75 68 76
REMARK SMILES IDX 76 77 69 78 71 79 77 80 70 81 72 82 73 83 74 84 75 85 52 86
REMARK SMILES IDX 53 87 61 88 54 89 56 90 62 91 55 92 57 93 58 94 59 95 60 96
REMARK H PARENT 16 8 23 30 82 49 50 60
REMARK Flexibility Score: inf
ROOT
ATOM      1  C   UNL A   1      31.754  27.727  26.601  1.00  0.00     0.002 C 
ENDROOT
BRANCH   1   2
ATOM      2  C   UNL A   1      31.248  26.926  25.396  1.00  0.00     0.002 C 
BRANCH   2   3
ATOM      3  C   UNL A   1      30.326  25.738  25.676  1.00  0.00     0.021 C 
BRANCH   3   4
ATOM      4  C   UNL A   1      30.920  24.356  25.438  1.00  0.00     0.116 C 
BRANCH   4   5
ATOM      5  N   UNL A   1      31.943  24.301  24.411  1.00  0.00    -0.354 N 
ATOM      6  C   UNL A   1      33.035  23.488  24.291  1.00  0.00     0.255 C 
ATOM      7  O   UNL A   1      33.362  23.275  23.114  1.00  0.00    -0.272 OA
ATOM      8  H   UNL A   1      31.833  24.957  23.684  1.00  0.00     0.163 HD
BRANCH   6   9
ATOM      9  C   UNL A   1      33.796  22.793  25.470  1.00  0.00     0.219 C 
ATOM     10  C   UNL A   1      33.202  23.041  26.873  1.00  0.00     0.056 C 
BRANCH   9  11
ATOM     11  N   UNL A   1      33.904  21.323  25.175  1.00  0.00    -0.285 N 
ATOM     12  C   UNL A   1      36.324  20.734  25.153  1.00  0.00     0.038 C 
ATOM     13  C   UNL A   1      35.020  20.499  24.997  1.00  0.00     0.046 C 
ATOM     14  C   UNL A   1      34.525  19.162  24.624  1.00  0.00     0.010 A 
ATOM     15  C   UNL A   1      35.147  17.973  24.272  1.00  0.00     0.011 A 
ATOM     16  C   UNL A   1      33.139  19.208  24.651  1.00  0.00     0.049 A 
ATOM     17  C   UNL A   1      32.745  20.547  25.061  1.00  0.00     0.260 C 
ATOM     18  C   UNL A   1      34.350  16.864  23.943  1.00  0.00     0.001 A 
ATOM     19  C   UNL A   1      32.323  18.136  24.329  1.00  0.00     0.014 A 
ATOM     20  O   UNL A   1      31.581  20.836  25.269  1.00  0.00    -0.269 OA
ATOM     21  C   UNL A   1      32.948  16.947  23.966  1.00  0.00     0.001 A 
ENDBRANCH   9  11
BRANCH   9  22
ATOM     22  C   UNL A   1      35.109  23.627  25.475  1.00  0.00     0.420 C 
ATOM     23  F   UNL A   1      35.802  23.464  24.314  1.00  0.00    -0.168 F 
ATOM     24  F   UNL A   1      34.847  24.963  25.543  1.00  0.00    -0.168 F 
ATOM     25  F   UNL A   1      35.966  23.357  26.482  1.00  0.00    -0.168 F 
ENDBRANCH   9  22
ENDBRANCH   6   9
ENDBRANCH   4   5
ENDBRANCH   3   4
ENDBRANCH   2   3
ENDBRANCH   1   2
BRANCH   1  26
ATOM     26  C   UNL A   1      33.269  27.883  26.766  1.00  0.00     0.021 C 
BRANCH  26  27
ATOM     27  C   UNL A   1      33.940  28.983  25.952  1.00  0.00     0.116 C 
BRANCH  27  28
ATOM     28  N   UNL A   1      33.769  30.305  26.524  1.00  0.00    -0.352 N 
ATOM     29  C   UNL A   1      34.507  30.948  27.489  1.00  0.00     0.251 C 
ATOM     30  H   UNL A   1      33.010  30.820  26.168  1.00  0.00     0.163 HD
ATOM     31  O   UNL A   1      34.128  32.041  27.904  1.00  0.00    -0.269 OA
BRANCH  29  32
ATOM     32  C   UNL A   1      35.734  30.332  28.053  1.00  0.00     0.039 A 
ATOM     33  C   UNL A   1      36.911  30.387  27.299  1.00  0.00     0.014 A 
ATOM     34  C   UNL A   1      35.732  29.670  29.285  1.00  0.00     0.014 A 
ATOM     35  C   UNL A   1      38.090  29.823  27.795  1.00  0.00     0.010 A 
ATOM     36  C   UNL A   1      36.922  29.162  29.807  1.00  0.00     0.010 A 
ATOM     37  C   UNL A   1      38.111  29.222  29.063  1.00  0.00    -0.014 A 
BRANCH  37  38
ATOM     38  C   UNL A   1      39.365  28.650  29.619  1.00  0.00     0.031 A 
ATOM     39  C   UNL A   1      40.004  29.259  30.839  1.00  0.00     0.074 A 
ATOM     40  C   UNL A   1      39.969  27.625  28.986  1.00  0.00     0.049 A 
ATOM     41  N   UNL A   1      41.111  28.917  31.448  1.00  0.00    -0.248 NA
ATOM     42  C   UNL A   1      39.326  30.420  31.440  1.00  0.00     0.031 C 
ATOM     43  C   UNL A   1      39.495  26.998  27.751  1.00  0.00     0.029 A 
ATOM     44  N   UNL A   1      41.126  26.946  29.281  1.00  0.00    -0.354 N 
ATOM     45  C   UNL A   1      41.281  29.836  32.477  1.00  0.00     0.074 A 
ATOM     46  C   UNL A   1      40.178  30.770  32.393  1.00  0.00     0.031 C 
ATOM     47  C   UNL A   1      40.352  26.027  27.395  1.00  0.00     0.029 A 
ATOM     48  C   UNL A   1      41.442  25.971  28.364  1.00  0.00     0.049 A 
ATOM     49  H   UNL A   1      41.677  27.139  30.074  1.00  0.00     0.167 HD
ATOM     50  C   UNL A   1      42.246  29.883  33.426  1.00  0.00     0.034 A 
ATOM     51  C   UNL A   1      42.489  25.123  28.313  1.00  0.00     0.034 A 
ATOM     52  C   UNL A   1      43.308  28.920  33.544  1.00  0.00     0.049 A 
ATOM     53  C   UNL A   1      43.506  25.147  29.422  1.00  0.00     0.074 A 
ATOM     54  C   UNL A   1      44.285  28.832  34.520  1.00  0.00     0.029 A 
ATOM     55  N   UNL A   1      43.531  27.876  32.661  1.00  0.00    -0.354 N 
ATOM     56  N   UNL A   1      43.556  25.922  30.479  1.00  0.00    -0.248 NA
ATOM     57  C   UNL A   1      44.586  24.151  29.357  1.00  0.00     0.031 C 
ATOM     58  C   UNL A   1      45.101  27.734  34.225  1.00  0.00     0.029 A 
ATOM     59  C   UNL A   1      44.626  27.134  33.070  1.00  0.00     0.049 A 
ATOM     60  H   UNL A   1      42.989  27.688  31.860  1.00  0.00     0.167 HD
ATOM     61  C   UNL A   1      44.646  25.485  31.221  1.00  0.00     0.074 A 
ATOM     62  C   UNL A   1      45.217  24.363  30.504  1.00  0.00     0.031 C 
ATOM     63  C   UNL A   1      45.142  25.979  32.382  1.00  0.00     0.034 A 
BRANCH  50  64
ATOM     64  C   UNL A   1      42.156  30.973  34.461  1.00  0.00     0.023 A 
ATOM     65  C   UNL A   1      41.479  30.718  35.672  1.00  0.00     0.012 A 
ATOM     66  C   UNL A   1      42.783  32.220  34.269  1.00  0.00     0.148 A 
ATOM     67  C   UNL A   1      41.399  31.697  36.661  1.00  0.00     0.002 A 
ATOM     68  C   UNL A   1      42.732  33.177  35.277  1.00  0.00     0.091 A 
ATOM     69  F   UNL A   1      43.402  32.453  33.104  1.00  0.00    -0.205 F 
ATOM     70  C   UNL A   1      42.033  32.922  36.468  1.00  0.00     0.022 A 
BRANCH  68  71
ATOM     71  S   UNL A   1      43.579  34.757  35.151  1.00  0.00     0.127 S 
ATOM     72  O   UNL A   1      43.130  35.431  36.368  1.00  0.00    -0.237 OA
ATOM     73  O   UNL A   1      44.987  34.358  35.160  1.00  0.00    -0.237 OA
ATOM     74  O   UNL A   1      43.128  35.351  33.900  1.00  0.00    -0.744 OA
ENDBRANCH  68  71
ENDBRANCH  50  64
BRANCH  51  75
ATOM     75  C   UNL A   1      42.571  24.112  27.221  1.00  0.00     0.023 A 
ATOM     76  C   UNL A   1      43.327  24.407  26.070  1.00  0.00     0.012 A 
ATOM     77  C   UNL A   1      41.940  22.858  27.325  1.00  0.00     0.148 A 
ATOM     78  C   UNL A   1      43.430  23.483  25.030  1.00  0.00     0.002 A 
ATOM     79  C   UNL A   1      42.090  21.921  26.307  1.00  0.00     0.091 A 
ATOM     80  F   UNL A   1      41.210  22.600  28.419  1.00  0.00    -0.205 F 
ATOM     81  C   UNL A   1      42.823  22.237  25.152  1.00  0.00     0.022 A 
BRANCH  79  82
ATOM     82  S   UNL A   1      41.449  20.249  26.447  1.00  0.00     0.127 S 
ATOM     83  O   UNL A   1      40.021  20.454  26.219  1.00  0.00    -0.237 OA
ATOM     84  O   UNL A   1      42.151  19.558  25.363  1.00  0.00    -0.237 OA
ATOM     85  O   UNL A   1      41.826  19.800  27.780  1.00  0.00    -0.744 OA
ENDBRANCH  79  82
ENDBRANCH  51  75
BRANCH  63  86
ATOM     86  C   UNL A   1      46.345  25.295  32.976  1.00  0.00     0.023 A 
ATOM     87  C   UNL A   1      47.634  25.793  32.706  1.00  0.00     0.012 A 
ATOM     88  C   UNL A   1      46.195  24.207  33.858  1.00  0.00     0.148 A 
ATOM     89  C   UNL A   1      48.758  25.202  33.282  1.00  0.00     0.002 A 
ATOM     90  C   UNL A   1      47.317  23.648  34.461  1.00  0.00     0.091 A 
ATOM     91  F   UNL A   1      44.962  23.729  34.086  1.00  0.00    -0.205 F 
ATOM     92  C   UNL A   1      48.599  24.139  34.167  1.00  0.00     0.022 A 
BRANCH  90  93
ATOM     93  S   UNL A   1      47.186  22.336  35.682  1.00  0.00     0.127 S 
ATOM     94  O   UNL A   1      48.584  22.141  36.061  1.00  0.00    -0.237 OA
ATOM     95  O   UNL A   1      46.354  22.950  36.719  1.00  0.00    -0.237 OA
ATOM     96  O   UNL A   1      46.555  21.219  34.992  1.00  0.00    -0.744 OA
ENDBRANCH  90  93
ENDBRANCH  63  86
ENDBRANCH  37  38
ENDBRANCH  29  32
ENDBRANCH  27  28
ENDBRANCH  26  27
ENDBRANCH   1  26
TORSDOF 18
ENDMDL
MODEL 2
REMARK VINA RESULT:     -11.7      4.729     10.048
REMARK SMILES C=C1c2ccccc2C(=O)N1[C@](C)(C(=O)NCCCCCCNC(=O)c1ccc(-c2c3nc(c(-c4cccc(S(=O)(=O)[O-])c4F)c4ccc([nH]4)c(-c4cccc(S(=O)(=O)[O-])c4F)c4nc(c(-c5cccc(S(=O)(=O)[O-])c5F)c5ccc2[nH]5)C=C4)C=C3)cc1)C(F)(F)F
REMARK SMILES IDX 20 1 19 2 18 3 17 4 16 5 14 6 15 7 12 9 13 10 11 11 1 12
REMARK SMILES IDX 2 13 3 14 4 15 8 16 9 17 5 18 7 19 10 20 6 21 89 22 90 23
REMARK SMILES IDX 91 24 92 25 21 26 22 27 23 28 24 29 25 31 26 32 27 33 88 34
REMARK SMILES IDX 28 35 87 36 29 37 30 38 31 39 81 40 32 41 86 42 80 43 82 44
REMARK SMILES IDX 33 45 85 46 79 47 78 48 34 50 66 51 46 52 65 53 47 54 50 55
REMARK SMILES IDX 64 56 83 57 48 58 49 59 63 61 84 62 51 63 35 64 36 65 44 66
REMARK SMILES IDX 37 67 39 68 45 69 38 70 40 71 41 72 42 73 43 74 67 75 68 76
REMARK SMILES IDX 76 77 69 78 71 79 77 80 70 81 72 82 73 83 74 84 75 85 52 86
REMARK SMILES IDX 53 87 61 88 54 89 56 90 62 91 55 92 57 93 58 94 59 95 60 96
REMARK H PARENT 16 8 23 30 82 49 50 60
REMARK Flexibility Score: inf
ROOT
ATOM      1  C   UNL A   1      34.684  23.448  23.581  1.00  0.00     0.002 C 
ENDROOT
BRANCH   1   2
ATOM      2  C   UNL A   1      33.593  22.869  22.674  1.00  0.00     0.002 C 
BRANCH   2   3
ATOM      3  C   UNL A   1      32.140  23.041  23.121  1.00  0.00     0.021 C 
BRANCH   3   4
ATOM      4  C   UNL A   1      31.629  24.472  23.209  1.00  0.00     0.116 C 
BRANCH   4   5
ATOM      5  N   UNL A   1      31.406  24.958  24.558  1.00  0.00    -0.354 N 
ATOM      6  C   UNL A   1      31.437  26.229  25.058  1.00  0.00     0.255 C 
ATOM      7  O   UNL A   1      30.680  26.396  26.026  1.00  0.00    -0.272 OA
ATOM      8  H   UNL A   1      31.201  24.258  25.219  1.00  0.00     0.163 HD
BRANCH   6   9
ATOM      9  C   UNL A   1      32.257  27.428  24.470  1.00  0.00     0.219 C 
ATOM     10  C   UNL A   1      33.217  27.064  23.317  1.00  0.00     0.056 C 
BRANCH   9  11
ATOM     11  N   UNL A   1      31.300  28.513  24.063  1.00  0.00    -0.285 N 
ATOM     12  C   UNL A   1      31.550  30.386  25.687  1.00  0.00     0.038 C 
ATOM     13  C   UNL A   1      30.999  29.744  24.655  1.00  0.00     0.046 C 
ATOM     14  C   UNL A   1      29.904  30.350  23.877  1.00  0.00     0.010 A 
ATOM     15  C   UNL A   1      29.160  31.513  24.014  1.00  0.00     0.011 A 
ATOM     16  C   UNL A   1      29.628  29.501  22.816  1.00  0.00     0.049 A 
ATOM     17  C   UNL A   1      30.547  28.377  22.891  1.00  0.00     0.260 C 
ATOM     18  C   UNL A   1      28.146  31.781  23.080  1.00  0.00     0.001 A 
ATOM     19  C   UNL A   1      28.632  29.732  21.880  1.00  0.00     0.014 A 
ATOM     20  O   UNL A   1      30.595  27.529  22.020  1.00  0.00    -0.269 OA
ATOM     21  C   UNL A   1      27.880  30.893  22.023  1.00  0.00     0.001 A 
ENDBRANCH   9  11
BRANCH   9  22
ATOM     22  C   UNL A   1      33.211  27.715  25.665  1.00  0.00     0.420 C 
ATOM     23  F   UNL A   1      33.982  26.630  25.953  1.00  0.00    -0.168 F 
ATOM     24  F   UNL A   1      34.097  28.706  25.364  1.00  0.00    -0.168 F 
ATOM     25  F   UNL A   1      32.608  28.081  26.816  1.00  0.00    -0.168 F 
ENDBRANCH   9  22
ENDBRANCH   6   9
ENDBRANCH   4   5
ENDBRANCH   3   4
ENDBRANCH   2   3
ENDBRANCH   1   2
BRANCH   1  26
ATOM     26  C   UNL A   1      35.914  22.577  23.860  1.00  0.00     0.021 C 
BRANCH  26  27
ATOM     27  C   UNL A   1      36.177  22.205  25.315  1.00  0.00     0.116 C 
BRANCH  27  28
ATOM     28  N   UNL A   1      37.157  21.147  25.469  1.00  0.00    -0.352 N 
ATOM     29  C   UNL A   1      38.479  21.219  25.835  1.00  0.00     0.251 C 
ATOM     30  H   UNL A   1      36.824  20.239  25.282  1.00  0.00     0.163 HD
ATOM     31  O   UNL A   1      39.164  20.199  25.808  1.00  0.00    -0.269 OA
BRANCH  29  32
ATOM     32  C   UNL A   1      39.095  22.508  26.234  1.00  0.00     0.039 A 
ATOM     33  C   UNL A   1      40.140  22.485  27.163  1.00  0.00     0.014 A 
ATOM     34  C   UNL A   1      38.634  23.733  25.742  1.00  0.00     0.014 A 
ATOM     35  C   UNL A   1      40.751  23.678  27.563  1.00  0.00     0.010 A 
ATOM     36  C   UNL A   1      39.284  24.917  26.094  1.00  0.00     0.010 A 
ATOM     37  C   UNL A   1      40.341  24.903  27.017  1.00  0.00    -0.014 A 
BRANCH  37  38
ATOM     38  C   UNL A   1      41.004  26.176  27.406  1.00  0.00     0.031 A 
ATOM     39  C   UNL A   1      42.437  26.435  27.022  1.00  0.00     0.074 A 
ATOM     40  C   UNL A   1      40.342  27.068  28.166  1.00  0.00     0.049 A 
ATOM     41  N   UNL A   1      43.190  27.469  27.296  1.00  0.00    -0.248 NA
ATOM     42  C   UNL A   1      43.122  25.386  26.249  1.00  0.00     0.031 C 
ATOM     43  C   UNL A   1      38.978  26.900  28.673  1.00  0.00     0.029 A 
ATOM     44  N   UNL A   1      40.733  28.286  28.667  1.00  0.00    -0.354 N 
ATOM     45  C   UNL A   1      44.442  27.183  26.764  1.00  0.00     0.074 A 
ATOM     46  C   UNL A   1      44.357  25.864  26.174  1.00  0.00     0.031 C 
ATOM     47  C   UNL A   1      38.648  27.973  29.410  1.00  0.00     0.029 A 
ATOM     48  C   UNL A   1      39.777  28.898  29.443  1.00  0.00     0.049 A 
ATOM     49  H   UNL A   1      41.617  28.683  28.488  1.00  0.00     0.167 HD
ATOM     50  C   UNL A   1      45.553  27.957  26.738  1.00  0.00     0.034 A 
ATOM     51  C   UNL A   1      39.804  30.074  30.101  1.00  0.00     0.034 A 
ATOM     52  C   UNL A   1      45.621  29.290  27.272  1.00  0.00     0.049 A 
ATOM     53  C   UNL A   1      41.024  30.947  29.992  1.00  0.00     0.074 A 
ATOM     54  C   UNL A   1      46.674  30.187  27.220  1.00  0.00     0.029 A 
ATOM     55  N   UNL A   1      44.592  29.922  27.952  1.00  0.00    -0.354 N 
ATOM     56  N   UNL A   1      42.142  30.725  29.343  1.00  0.00    -0.248 NA
ATOM     57  C   UNL A   1      40.972  32.252  30.668  1.00  0.00     0.031 C 
ATOM     58  C   UNL A   1      46.281  31.361  27.871  1.00  0.00     0.029 A 
ATOM     59  C   UNL A   1      44.981  31.198  28.322  1.00  0.00     0.049 A 
ATOM     60  H   UNL A   1      43.712  29.523  28.144  1.00  0.00     0.167 HD
ATOM     61  C   UNL A   1      42.909  31.873  29.500  1.00  0.00     0.074 A 
ATOM     62  C   UNL A   1      42.119  32.798  30.288  1.00  0.00     0.031 C 
ATOM     63  C   UNL A   1      44.161  32.132  29.048  1.00  0.00     0.034 A 
BRANCH  50  64
ATOM     64  C   UNL A   1      46.771  27.407  26.042  1.00  0.00     0.023 A 
ATOM     65  C   UNL A   1      46.901  27.574  24.648  1.00  0.00     0.012 A 
ATOM     66  C   UNL A   1      47.808  26.783  26.764  1.00  0.00     0.148 A 
ATOM     67  C   UNL A   1      48.028  27.099  23.977  1.00  0.00     0.002 A 
ATOM     68  C   UNL A   1      48.946  26.348  26.093  1.00  0.00     0.091 A 
ATOM     69  F   UNL A   1      47.658  26.613  28.084  1.00  0.00    -0.205 F 
ATOM     70  C   UNL A   1      49.053  26.496  24.701  1.00  0.00     0.022 A 
BRANCH  68  71
ATOM     71  S   UNL A   1      50.352  25.624  26.947  1.00  0.00     0.127 S 
ATOM     72  O   UNL A   1      51.272  25.370  25.839  1.00  0.00    -0.237 OA
ATOM     73  O   UNL A   1      50.762  26.706  27.843  1.00  0.00    -0.237 OA
ATOM     74  O   UNL A   1      49.840  24.441  27.624  1.00  0.00    -0.744 OA
ENDBRANCH  68  71
ENDBRANCH  50  64
BRANCH  51  75
ATOM     75  C   UNL A   1      38.595  30.536  30.841  1.00  0.00     0.023 A 
ATOM     76  C   UNL A   1      38.506  30.297  32.226  1.00  0.00     0.012 A 
ATOM     77  C   UNL A   1      37.556  31.234  30.197  1.00  0.00     0.148 A 
ATOM     78  C   UNL A   1      37.393  30.720  32.952  1.00  0.00     0.002 A 
ATOM     79  C   UNL A   1      36.472  31.699  30.936  1.00  0.00     0.091 A 
ATOM     80  F   UNL A   1      37.647  31.438  28.876  1.00  0.00    -0.205 F 
ATOM     81  C   UNL A   1      36.382  31.431  32.312  1.00  0.00     0.022 A 
BRANCH  79  82
ATOM     82  S   UNL A   1      35.195  32.733  30.211  1.00  0.00     0.127 S 
ATOM     83  O   UNL A   1      34.601  31.831  29.228  1.00  0.00    -0.237 OA
ATOM     84  O   UNL A   1      34.345  33.030  31.366  1.00  0.00    -0.237 OA
ATOM     85  O   UNL A   1      35.894  33.893  29.675  1.00  0.00    -0.744 OA
ENDBRANCH  79  82
ENDBRANCH  51  75
BRANCH  63  86
ATOM     86  C   UNL A   1      44.752  33.481  29.362  1.00  0.00     0.023 A 
ATOM     87  C   UNL A   1      45.508  33.653  30.538  1.00  0.00     0.012 A 
ATOM     88  C   UNL A   1      44.622  34.556  28.461  1.00  0.00     0.148 A 
ATOM     89  C   UNL A   1      46.101  34.882  30.826  1.00  0.00     0.002 A 
ATOM     90  C   UNL A   1      45.251  35.765  28.734  1.00  0.00     0.091 A 
ATOM     91  F   UNL A   1      43.879  34.382  27.358  1.00  0.00    -0.205 F 
ATOM     92  C   UNL A   1      45.983  35.932  29.920  1.00  0.00     0.022 A 
BRANCH  90  93
ATOM     93  S   UNL A   1      45.221  37.136  27.572  1.00  0.00     0.127 S 
ATOM     94  O   UNL A   1      46.052  38.125  28.256  1.00  0.00    -0.237 OA
ATOM     95  O   UNL A   1      45.830  36.551  26.376  1.00  0.00    -0.237 OA
ATOM     96  O   UNL A   1      43.816  37.488  27.417  1.00  0.00    -0.744 OA
ENDBRANCH  90  93
ENDBRANCH  63  86
ENDBRANCH  37  38
ENDBRANCH  29  32
ENDBRANCH  27  28
ENDBRANCH  26  27
ENDBRANCH   1  26
TORSDOF 18
ENDMDL
MODEL 3
REMARK VINA RESULT:     -11.6      1.948      2.603
REMARK SMILES C=C1c2ccccc2C(=O)N1[C@](C)(C(=O)NCCCCCCNC(=O)c1ccc(-c2c3nc(c(-c4cccc(S(=O)(=O)[O-])c4F)c4ccc([nH]4)c(-c4cccc(S(=O)(=O)[O-])c4F)c4nc(c(-c5cccc(S(=O)(=O)[O-])c5F)c5ccc2[nH]5)C=C4)C=C3)cc1)C(F)(F)F
REMARK SMILES IDX 20 1 19 2 18 3 17 4 16 5 14 6 15 7 12 9 13 10 11 11 1 12
REMARK SMILES IDX 2 13 3 14 4 15 8 16 9 17 5 18 7 19 10 20 6 21 89 22 90 23
REMARK SMILES IDX 91 24 92 25 21 26 22 27 23 28 24 29 25 31 26 32 27 33 88 34
REMARK SMILES IDX 28 35 87 36 29 37 30 38 31 39 81 40 32 41 86 42 80 43 82 44
REMARK SMILES IDX 33 45 85 46 79 47 78 48 34 50 66 51 46 52 65 53 47 54 50 55
REMARK SMILES IDX 64 56 83 57 48 58 49 59 63 61 84 62 51 63 35 64 36 65 44 66
REMARK SMILES IDX 37 67 39 68 45 69 38 70 40 71 41 72 42 73 43 74 67 75 68 76
REMARK SMILES IDX 76 77 69 78 71 79 77 80 70 81 72 82 73 83 74 84 75 85 52 86
REMARK SMILES IDX 53 87 61 88 54 89 56 90 62 91 55 92 57 93 58 94 59 95 60 96
REMARK H PARENT 16 8 23 30 82 49 50 60
REMARK Flexibility Score: inf
ROOT
ATOM      1  C   UNL A   1      31.392  27.388  26.065  1.00  0.00     0.002 C 
ENDROOT
BRANCH   1   2
ATOM      2  C   UNL A   1      31.242  27.360  24.540  1.00  0.00     0.002 C 
BRANCH   2   3
ATOM      3  C   UNL A   1      30.337  26.281  23.941  1.00  0.00     0.021 C 
BRANCH   3   4
ATOM      4  C   UNL A   1      30.940  24.888  23.822  1.00  0.00     0.116 C 
BRANCH   4   5
ATOM      5  N   UNL A   1      32.236  24.839  23.173  1.00  0.00    -0.354 N 
ATOM      6  C   UNL A   1      33.336  24.077  23.449  1.00  0.00     0.255 C 
ATOM      7  O   UNL A   1      34.025  23.826  22.449  1.00  0.00    -0.272 OA
ATOM      8  H   UNL A   1      32.338  25.453  22.410  1.00  0.00     0.163 HD
BRANCH   6   9
ATOM      9  C   UNL A   1      33.710  23.477  24.847  1.00  0.00     0.219 C 
ATOM     10  C   UNL A   1      32.765  23.868  26.004  1.00  0.00     0.056 C 
BRANCH   9  11
ATOM     11  N   UNL A   1      33.824  21.984  24.716  1.00  0.00    -0.285 N 
ATOM     12  C   UNL A   1      35.982  21.299  25.755  1.00  0.00     0.038 C 
ATOM     13  C   UNL A   1      34.850  21.104  25.077  1.00  0.00     0.046 C 
ATOM     14  C   UNL A   1      34.460  19.760  24.613  1.00  0.00     0.010 A 
ATOM     15  C   UNL A   1      35.085  18.521  24.630  1.00  0.00     0.011 A 
ATOM     16  C   UNL A   1      33.197  19.864  24.050  1.00  0.00     0.049 A 
ATOM     17  C   UNL A   1      32.766  21.248  24.171  1.00  0.00     0.260 C 
ATOM     18  C   UNL A   1      34.420  17.421  24.065  1.00  0.00     0.001 A 
ATOM     19  C   UNL A   1      32.515  18.801  23.480  1.00  0.00     0.014 A 
ATOM     20  O   UNL A   1      31.646  21.600  23.851  1.00  0.00    -0.269 OA
ATOM     21  C   UNL A   1      33.146  17.562  23.488  1.00  0.00     0.001 A 
ENDBRANCH   9  11
BRANCH   9  22
ATOM     22  C   UNL A   1      35.009  24.278  25.147  1.00  0.00     0.420 C 
ATOM     23  F   UNL A   1      34.790  25.620  25.075  1.00  0.00    -0.168 F 
ATOM     24  F   UNL A   1      35.442  24.061  26.421  1.00  0.00    -0.168 F 
ATOM     25  F   UNL A   1      36.057  24.011  24.340  1.00  0.00    -0.168 F 
ENDBRANCH   9  22
ENDBRANCH   6   9
ENDBRANCH   4   5
ENDBRANCH   3   4
ENDBRANCH   2   3
ENDBRANCH   1   2
BRANCH   1  26
ATOM     26  C   UNL A   1      31.751  28.726  26.721  1.00  0.00     0.021 C 
BRANCH  26  27
ATOM     27  C   UNL A   1      32.564  29.706  25.882  1.00  0.00     0.116 C 
BRANCH  27  28
ATOM     28  N   UNL A   1      32.340  31.093  26.243  1.00  0.00    -0.352 N 
ATOM     29  C   UNL A   1      33.028  31.894  27.123  1.00  0.00     0.251 C 
ATOM     30  H   UNL A   1      31.581  31.526  25.790  1.00  0.00     0.163 HD
ATOM     31  O   UNL A   1      32.608  33.025  27.357  1.00  0.00    -0.269 OA
BRANCH  29  32
ATOM     32  C   UNL A   1      34.249  31.406  27.811  1.00  0.00     0.039 A 
ATOM     33  C   UNL A   1      35.303  32.304  28.007  1.00  0.00     0.014 A 
ATOM     34  C   UNL A   1      34.386  30.077  28.224  1.00  0.00     0.014 A 
ATOM     35  C   UNL A   1      36.470  31.886  28.654  1.00  0.00     0.010 A 
ATOM     36  C   UNL A   1      35.524  29.677  28.925  1.00  0.00     0.010 A 
ATOM     37  C   UNL A   1      36.583  30.573  29.137  1.00  0.00    -0.014 A 
BRANCH  37  38
ATOM     38  C   UNL A   1      37.803  30.124  29.858  1.00  0.00     0.031 A 
ATOM     39  C   UNL A   1      38.088  30.618  31.252  1.00  0.00     0.074 A 
ATOM     40  C   UNL A   1      38.693  29.329  29.234  1.00  0.00     0.049 A 
ATOM     41  N   UNL A   1      39.112  30.362  32.025  1.00  0.00    -0.248 NA
ATOM     42  C   UNL A   1      37.107  31.541  31.847  1.00  0.00     0.031 C 
ATOM     43  C   UNL A   1      38.574  28.846  27.856  1.00  0.00     0.029 A 
ATOM     44  N   UNL A   1      39.886  28.803  29.667  1.00  0.00    -0.354 N 
ATOM     45  C   UNL A   1      38.919  31.114  33.178  1.00  0.00     0.074 A 
ATOM     46  C   UNL A   1      37.693  31.860  32.993  1.00  0.00     0.031 C 
ATOM     47  C   UNL A   1      39.649  28.097  27.559  1.00  0.00     0.029 A 
ATOM     48  C   UNL A   1      40.539  28.056  28.716  1.00  0.00     0.049 A 
ATOM     49  H   UNL A   1      40.240  28.948  30.575  1.00  0.00     0.167 HD
ATOM     50  C   UNL A   1      39.673  31.157  34.302  1.00  0.00     0.034 A 
ATOM     51  C   UNL A   1      41.718  27.406  28.770  1.00  0.00     0.034 A 
ATOM     52  C   UNL A   1      40.859  30.371  34.509  1.00  0.00     0.049 A 
ATOM     53  C   UNL A   1      42.498  27.410  30.057  1.00  0.00     0.074 A 
ATOM     54  C   UNL A   1      41.646  30.280  35.644  1.00  0.00     0.029 A 
ATOM     55  N   UNL A   1      41.429  29.535  33.561  1.00  0.00    -0.354 N 
ATOM     56  N   UNL A   1      42.212  27.997  31.194  1.00  0.00    -0.248 NA
ATOM     57  C   UNL A   1      43.741  26.623  30.085  1.00  0.00     0.031 C 
ATOM     58  C   UNL A   1      42.693  29.390  35.381  1.00  0.00     0.029 A 
ATOM     59  C   UNL A   1      42.554  28.921  34.085  1.00  0.00     0.049 A 
ATOM     60  H   UNL A   1      41.084  29.398  32.649  1.00  0.00     0.167 HD
ATOM     61  C   UNL A   1      43.215  27.624  32.080  1.00  0.00     0.074 A 
ATOM     62  C   UNL A   1      44.105  26.741  31.355  1.00  0.00     0.031 C 
ATOM     63  C   UNL A   1      43.393  27.993  33.372  1.00  0.00     0.034 A 
BRANCH  50  64
ATOM     64  C   UNL A   1      39.196  32.033  35.431  1.00  0.00     0.023 A 
ATOM     65  C   UNL A   1      38.258  31.520  36.350  1.00  0.00     0.012 A 
ATOM     66  C   UNL A   1      39.710  33.331  35.619  1.00  0.00     0.148 A 
ATOM     67  C   UNL A   1      37.814  32.296  37.420  1.00  0.00     0.002 A 
ATOM     68  C   UNL A   1      39.292  34.084  36.711  1.00  0.00     0.091 A 
ATOM     69  F   UNL A   1      40.583  33.811  34.722  1.00  0.00    -0.205 F 
ATOM     70  C   UNL A   1      38.338  33.573  37.606  1.00  0.00     0.022 A 
BRANCH  68  71
ATOM     71  S   UNL A   1      39.962  35.711  37.076  1.00  0.00     0.127 S 
ATOM     72  O   UNL A   1      41.382  35.413  37.255  1.00  0.00    -0.237 OA
ATOM     73  O   UNL A   1      39.646  36.458  35.858  1.00  0.00    -0.237 OA
ATOM     74  O   UNL A   1      39.261  36.172  38.265  1.00  0.00    -0.744 OA
ENDBRANCH  68  71
ENDBRANCH  50  64
BRANCH  51  75
ATOM     75  C   UNL A   1      42.183  26.616  27.595  1.00  0.00     0.023 A 
ATOM     76  C   UNL A   1      42.964  27.250  26.608  1.00  0.00     0.012 A 
ATOM     77  C   UNL A   1      41.891  25.245  27.463  1.00  0.00     0.148 A 
ATOM     78  C   UNL A   1      43.421  26.540  25.498  1.00  0.00     0.002 A 
ATOM     79  C   UNL A   1      42.393  24.532  26.380  1.00  0.00     0.091 A 
ATOM     80  F   UNL A   1      41.133  24.662  28.402  1.00  0.00    -0.205 F 
ATOM     81  C   UNL A   1      43.147  25.180  25.389  1.00  0.00     0.022 A 
BRANCH  79  82
ATOM     82  S   UNL A   1      42.196  22.752  26.234  1.00  0.00     0.127 S 
ATOM     83  O   UNL A   1      42.875  22.477  24.971  1.00  0.00    -0.237 OA
ATOM     84  O   UNL A   1      42.894  22.265  27.426  1.00  0.00    -0.237 OA
ATOM     85  O   UNL A   1      40.758  22.519  26.252  1.00  0.00    -0.744 OA
ENDBRANCH  79  82
ENDBRANCH  51  75
BRANCH  63  86
ATOM     86  C   UNL A   1      44.578  27.421  34.105  1.00  0.00     0.023 A 
ATOM     87  C   UNL A   1      45.810  28.101  34.075  1.00  0.00     0.012 A 
ATOM     88  C   UNL A   1      44.452  26.252  34.882  1.00  0.00     0.148 A 
ATOM     89  C   UNL A   1      46.907  27.613  34.784  1.00  0.00     0.002 A 
ATOM     90  C   UNL A   1      45.538  25.794  35.619  1.00  0.00     0.091 A 
ATOM     91  F   UNL A   1      43.278  25.604  34.881  1.00  0.00    -0.205 F 
ATOM     92  C   UNL A   1      46.768  26.468  35.564  1.00  0.00     0.022 A 
BRANCH  90  93
ATOM     93  S   UNL A   1      45.412  24.378  36.719  1.00  0.00     0.127 S 
ATOM     94  O   UNL A   1      46.541  24.598  37.620  1.00  0.00    -0.237 OA
ATOM     95  O   UNL A   1      44.097  24.571  37.333  1.00  0.00    -0.237 OA
ATOM     96  O   UNL A   1      45.505  23.205  35.861  1.00  0.00    -0.744 OA
ENDBRANCH  90  93
ENDBRANCH  63  86
ENDBRANCH  37  38
ENDBRANCH  29  32
ENDBRANCH  27  28
ENDBRANCH  26  27
ENDBRANCH   1  26
TORSDOF 18
ENDMDL
