MODEL 1
REMARK VINA RESULT:     -10.5      0.000      0.000
REMARK SMILES O=C(NCCCCCCNC(=O)[C@@H]1C=C[C@H](NC(=O)c2ccc(Br)cc2)C1)c1ccc(-c2c3nc(c(-c4cccc(S(=O)(=O)[O-])c4F)c4ccc([nH]4)c(-c4cccc(S(=O)(=O)[O-])c4F)c4nc(c(-c5cccc(S(=O)(=O)[O-])c5F)c5ccc2[nH]5)C=C4)C=C3)cc1
REMARK SMILES IDX 6 1 5 2 4 3 3 4 1 5 2 6 28 8 29 9 90 10 30 11 89 12 31 13
REMARK SMILES IDX 32 14 33 15 83 16 34 17 88 18 82 19 84 20 35 21 87 22 81 23
REMARK SMILES IDX 80 24 36 26 68 27 48 28 67 29 49 30 52 31 66 32 85 33 50 34
REMARK SMILES IDX 51 35 65 37 86 38 53 39 37 40 38 41 46 42 39 43 41 44 47 45
REMARK SMILES IDX 40 46 42 47 43 48 44 49 45 50 69 51 70 52 78 53 71 54 73 55
REMARK SMILES IDX 79 56 72 57 74 58 75 59 76 60 77 61 54 62 55 63 63 64 56 65
REMARK SMILES IDX 58 66 64 67 57 68 59 69 60 70 61 71 62 72 7 73 8 74 9 75
REMARK SMILES IDX 10 76 11 77 12 79 13 80 14 81 27 82 15 83 16 84 17 85 18 86
REMARK SMILES IDX 19 88 20 89 21 90 26 91 22 92 25 93 23 94 24 95
REMARK H PARENT 3 7 84 25 52 36 10 78 17 87
REMARK Flexibility Score: inf
ROOT
ATOM      1  C   UNL A   1      41.930  19.514  26.271  1.00  0.00     0.002 C 
ENDROOT
BRANCH   1   2
ATOM      2  C   UNL A   1      42.161  20.966  26.678  1.00  0.00     0.021 C 
BRANCH   2   3
ATOM      3  C   UNL A   1      41.006  21.603  27.431  1.00  0.00     0.116 C 
BRANCH   3   4
ATOM      4  N   UNL A   1      39.791  21.647  26.638  1.00  0.00    -0.352 N 
ATOM      5  O   UNL A   1      37.871  22.556  25.881  1.00  0.00    -0.269 OA
ATOM      6  C   UNL A   1      38.962  22.721  26.416  1.00  0.00     0.251 C 
ATOM      7  H   UNL A   1      39.528  20.804  26.204  1.00  0.00     0.163 HD
BRANCH   6   8
ATOM      8  C   UNL A   1      39.393  24.069  26.852  1.00  0.00     0.039 A 
ATOM      9  C   UNL A   1      39.131  24.509  28.153  1.00  0.00     0.014 A 
ATOM     10  C   UNL A   1      40.066  24.898  25.951  1.00  0.00     0.014 A 
ATOM     11  C   UNL A   1      39.440  25.814  28.520  1.00  0.00     0.010 A 
ATOM     12  C   UNL A   1      40.450  26.182  26.348  1.00  0.00     0.010 A 
ATOM     13  C   UNL A   1      40.131  26.653  27.631  1.00  0.00    -0.014 A 
BRANCH  13  14
ATOM     14  C   UNL A   1      40.645  27.957  28.116  1.00  0.00     0.031 A 
ATOM     15  C   UNL A   1      42.116  28.254  28.181  1.00  0.00     0.074 A 
ATOM     16  C   UNL A   1      39.746  28.865  28.547  1.00  0.00     0.049 A 
ATOM     17  N   UNL A   1      42.712  29.340  28.599  1.00  0.00    -0.248 NA
ATOM     18  C   UNL A   1      43.041  27.202  27.727  1.00  0.00     0.031 C 
ATOM     19  C   UNL A   1      38.295  28.656  28.585  1.00  0.00     0.029 A 
ATOM     20  N   UNL A   1      39.911  30.127  29.056  1.00  0.00    -0.354 N 
ATOM     21  C   UNL A   1      44.075  29.093  28.505  1.00  0.00     0.074 A 
ATOM     22  C   UNL A   1      44.223  27.753  27.977  1.00  0.00     0.031 C 
ATOM     23  C   UNL A   1      37.704  29.745  29.090  1.00  0.00     0.029 A 
ATOM     24  C   UNL A   1      38.732  30.708  29.463  1.00  0.00     0.049 A 
ATOM     25  H   UNL A   1      40.786  30.573  29.123  1.00  0.00     0.167 HD
ATOM     26  C   UNL A   1      45.103  29.915  28.824  1.00  0.00     0.034 A 
ATOM     27  C   UNL A   1      38.502  31.871  30.101  1.00  0.00     0.034 A 
ATOM     28  C   UNL A   1      44.940  31.261  29.308  1.00  0.00     0.049 A 
ATOM     29  C   UNL A   1      39.666  32.760  30.427  1.00  0.00     0.074 A 
ATOM     30  C   UNL A   1      45.919  32.214  29.537  1.00  0.00     0.029 A 
ATOM     31  N   UNL A   1      43.731  31.837  29.664  1.00  0.00    -0.354 N 
ATOM     32  N   UNL A   1      40.934  32.585  30.152  1.00  0.00    -0.248 NA
ATOM     33  C   UNL A   1      39.366  34.013  31.131  1.00  0.00     0.031 C 
ATOM     34  C   UNL A   1      45.303  33.356  30.063  1.00  0.00     0.029 A 
ATOM     35  C   UNL A   1      43.940  33.119  30.144  1.00  0.00     0.049 A 
ATOM     36  H   UNL A   1      42.852  31.400  29.586  1.00  0.00     0.167 HD
ATOM     37  C   UNL A   1      41.586  33.709  30.641  1.00  0.00     0.074 A 
ATOM     38  C   UNL A   1      40.565  34.578  31.193  1.00  0.00     0.031 C 
ATOM     39  C   UNL A   1      42.912  33.986  30.656  1.00  0.00     0.034 A 
BRANCH  26  40
ATOM     40  C   UNL A   1      46.511  29.417  28.632  1.00  0.00     0.023 A 
ATOM     41  C   UNL A   1      47.189  29.698  27.429  1.00  0.00     0.012 A 
ATOM     42  C   UNL A   1      47.201  28.789  29.688  1.00  0.00     0.148 A 
ATOM     43  C   UNL A   1      48.532  29.354  27.278  1.00  0.00     0.002 A 
ATOM     44  C   UNL A   1      48.548  28.479  29.541  1.00  0.00     0.091 A 
ATOM     45  F   UNL A   1      46.531  28.518  30.817  1.00  0.00    -0.205 F 
ATOM     46  C   UNL A   1      49.214  28.758  28.336  1.00  0.00     0.022 A 
BRANCH  44  47
ATOM     47  S   UNL A   1      49.536  27.777  30.868  1.00  0.00     0.127 S 
ATOM     48  O   UNL A   1      50.835  27.619  30.213  1.00  0.00    -0.237 OA
ATOM     49  O   UNL A   1      49.489  28.832  31.879  1.00  0.00    -0.237 OA
ATOM     50  O   UNL A   1      48.877  26.536  31.248  1.00  0.00    -0.744 OA
ENDBRANCH  44  47
ENDBRANCH  26  40
BRANCH  27  51
ATOM     51  C   UNL A   1      37.109  32.251  30.465  1.00  0.00     0.023 A 
ATOM     52  C   UNL A   1      36.645  32.025  31.773  1.00  0.00     0.012 A 
ATOM     53  C   UNL A   1      36.258  32.875  29.531  1.00  0.00     0.148 A 
ATOM     54  C   UNL A   1      35.347  32.390  32.138  1.00  0.00     0.002 A 
ATOM     55  C   UNL A   1      34.991  33.291  29.919  1.00  0.00     0.091 A 
ATOM     56  F   UNL A   1      36.708  33.062  28.282  1.00  0.00    -0.205 F 
ATOM     57  C   UNL A   1      34.527  33.034  31.216  1.00  0.00     0.022 A 
BRANCH  55  58
ATOM     58  S   UNL A   1      33.945  34.262  28.828  1.00  0.00     0.127 S 
ATOM     59  O   UNL A   1      33.569  33.279  27.817  1.00  0.00    -0.237 OA
ATOM     60  O   UNL A   1      32.861  34.676  29.720  1.00  0.00    -0.237 OA
ATOM     61  O   UNL A   1      34.789  35.361  28.375  1.00  0.00    -0.744 OA
ENDBRANCH  55  58
ENDBRANCH  27  51
BRANCH  39  62
ATOM     62  C   UNL A   1      43.339  35.279  31.296  1.00  0.00     0.023 A 
ATOM     63  C   UNL A   1      43.617  35.305  32.677  1.00  0.00     0.012 A 
ATOM     64  C   UNL A   1      43.527  36.443  30.527  1.00  0.00     0.148 A 
ATOM     65  C   UNL A   1      44.052  36.478  33.289  1.00  0.00     0.002 A 
ATOM     66  C   UNL A   1      44.004  37.597  31.135  1.00  0.00     0.091 A 
ATOM     67  F   UNL A   1      43.238  36.398  29.218  1.00  0.00    -0.205 F 
ATOM     68  C   UNL A   1      44.256  37.620  32.517  1.00  0.00     0.022 A 
BRANCH  66  69
ATOM     69  S   UNL A   1      44.382  39.089  30.210  1.00  0.00     0.127 S 
ATOM     70  O   UNL A   1      43.111  39.350  29.534  1.00  0.00    -0.237 OA
ATOM     71  O   UNL A   1      44.714  40.038  31.272  1.00  0.00    -0.237 OA
ATOM     72  O   UNL A   1      45.495  38.747  29.334  1.00  0.00    -0.744 OA
ENDBRANCH  66  69
ENDBRANCH  39  62
ENDBRANCH  13  14
ENDBRANCH   6   8
ENDBRANCH   3   4
ENDBRANCH   2   3
ENDBRANCH   1   2
BRANCH   1  73
ATOM     73  C   UNL A   1      43.173  18.622  26.274  1.00  0.00     0.002 C 
BRANCH  73  74
ATOM     74  C   UNL A   1      43.927  18.472  24.947  1.00  0.00     0.021 C 
BRANCH  74  75
ATOM     75  C   UNL A   1      45.028  19.498  24.675  1.00  0.00     0.116 C 
BRANCH  75  76
ATOM     76  N   UNL A   1      44.537  20.693  24.025  1.00  0.00    -0.356 N 
ATOM     77  C   UNL A   1      44.967  21.980  24.103  1.00  0.00     0.227 C 
ATOM     78  H   UNL A   1      43.765  20.551  23.430  1.00  0.00     0.163 HD
ATOM     79  O   UNL A   1      44.584  22.745  23.214  1.00  0.00    -0.274 OA
BRANCH  77  80
ATOM     80  C   UNL A   1      45.963  22.415  25.186  1.00  0.00     0.103 C 
ATOM     81  C   UNL A   1      45.347  22.908  26.466  1.00  0.00    -0.016 C 
ATOM     82  C   UNL A   1      46.807  23.627  24.717  1.00  0.00     0.047 C 
ATOM     83  C   UNL A   1      45.703  24.158  26.771  1.00  0.00    -0.006 C 
ATOM     84  C   UNL A   1      46.616  24.734  25.757  1.00  0.00     0.106 C 
BRANCH  84  85
ATOM     85  N   UNL A   1      46.134  26.017  25.287  1.00  0.00    -0.346 N 
ATOM     86  C   UNL A   1      46.692  27.068  24.613  1.00  0.00     0.251 C 
ATOM     87  H   UNL A   1      45.185  26.167  25.502  1.00  0.00     0.164 HD
ATOM     88  O   UNL A   1      46.023  28.087  24.440  1.00  0.00    -0.269 OA
BRANCH  86  89
ATOM     89  C   UNL A   1      48.072  27.050  24.099  1.00  0.00     0.039 A 
ATOM     90  C   UNL A   1      48.371  27.474  22.802  1.00  0.00     0.015 A 
ATOM     91  C   UNL A   1      49.104  26.765  24.999  1.00  0.00     0.015 A 
ATOM     92  C   UNL A   1      49.705  27.544  22.385  1.00  0.00     0.016 A 
ATOM     93  C   UNL A   1      50.436  26.838  24.584  1.00  0.00     0.016 A 
ATOM     94  C   UNL A   1      50.729  27.217  23.275  1.00  0.00     0.018 A 
ATOM     95  Br  UNL A   1      52.534  27.306  22.717  1.00  0.00    -0.051 Br
ENDBRANCH  86  89
ENDBRANCH  84  85
ENDBRANCH  77  80
ENDBRANCH  75  76
ENDBRANCH  74  75
ENDBRANCH  73  74
ENDBRANCH   1  73
TORSDOF 18
ENDMDL
MODEL 2
REMARK VINA RESULT:     -10.4      6.115     10.874
REMARK SMILES O=C(NCCCCCCNC(=O)[C@@H]1C=C[C@H](NC(=O)c2ccc(Br)cc2)C1)c1ccc(-c2c3nc(c(-c4cccc(S(=O)(=O)[O-])c4F)c4ccc([nH]4)c(-c4cccc(S(=O)(=O)[O-])c4F)c4nc(c(-c5cccc(S(=O)(=O)[O-])c5F)c5ccc2[nH]5)C=C4)C=C3)cc1
REMARK SMILES IDX 6 1 5 2 4 3 3 4 1 5 2 6 28 8 29 9 90 10 30 11 89 12 31 13
REMARK SMILES IDX 32 14 33 15 83 16 34 17 88 18 82 19 84 20 35 21 87 22 81 23
REMARK SMILES IDX 80 24 36 26 68 27 48 28 67 29 49 30 52 31 66 32 85 33 50 34
REMARK SMILES IDX 51 35 65 37 86 38 53 39 37 40 38 41 46 42 39 43 41 44 47 45
REMARK SMILES IDX 40 46 42 47 43 48 44 49 45 50 69 51 70 52 78 53 71 54 73 55
REMARK SMILES IDX 79 56 72 57 74 58 75 59 76 60 77 61 54 62 55 63 63 64 56 65
REMARK SMILES IDX 58 66 64 67 57 68 59 69 60 70 61 71 62 72 7 73 8 74 9 75
REMARK SMILES IDX 10 76 11 77 12 79 13 80 14 81 27 82 15 83 16 84 17 85 18 86
REMARK SMILES IDX 19 88 20 89 21 90 26 91 22 92 25 93 23 94 24 95
REMARK H PARENT 3 7 84 25 52 36 10 78 17 87
REMARK Flexibility Score: inf
ROOT
ATOM      1  C   UNL A   1      31.498  30.721  25.507  1.00  0.00     0.002 C 
ENDROOT
BRANCH   1   2
ATOM      2  C   UNL A   1      31.659  31.288  26.914  1.00  0.00     0.021 C 
BRANCH   2   3
ATOM      3  C   UNL A   1      32.920  32.108  27.124  1.00  0.00     0.116 C 
BRANCH   3   4
ATOM      4  N   UNL A   1      32.627  33.486  27.475  1.00  0.00    -0.352 N 
ATOM      5  O   UNL A   1      32.711  35.333  28.767  1.00  0.00    -0.269 OA
ATOM      6  C   UNL A   1      33.198  34.248  28.467  1.00  0.00     0.251 C 
ATOM      7  H   UNL A   1      31.933  33.930  26.937  1.00  0.00     0.163 HD
BRANCH   6   8
ATOM      8  C   UNL A   1      34.389  33.732  29.180  1.00  0.00     0.039 A 
ATOM      9  C   UNL A   1      34.248  32.775  30.190  1.00  0.00     0.014 A 
ATOM     10  C   UNL A   1      35.655  34.209  28.833  1.00  0.00     0.014 A 
ATOM     11  C   UNL A   1      35.358  32.378  30.928  1.00  0.00     0.010 A 
ATOM     12  C   UNL A   1      36.780  33.746  29.522  1.00  0.00     0.010 A 
ATOM     13  C   UNL A   1      36.639  32.836  30.581  1.00  0.00    -0.014 A 
BRANCH  13  14
ATOM     14  C   UNL A   1      37.826  32.233  31.233  1.00  0.00     0.031 A 
ATOM     15  C   UNL A   1      38.583  31.097  30.607  1.00  0.00     0.074 A 
ATOM     16  C   UNL A   1      38.187  32.708  32.443  1.00  0.00     0.049 A 
ATOM     17  N   UNL A   1      39.627  30.458  31.068  1.00  0.00    -0.248 NA
ATOM     18  C   UNL A   1      38.111  30.606  29.301  1.00  0.00     0.031 C 
ATOM     19  C   UNL A   1      37.484  33.770  33.170  1.00  0.00     0.029 A 
ATOM     20  N   UNL A   1      39.208  32.352  33.285  1.00  0.00    -0.354 N 
ATOM     21  C   UNL A   1      39.911  29.463  30.142  1.00  0.00     0.074 A 
ATOM     22  C   UNL A   1      38.935  29.589  29.079  1.00  0.00     0.031 C 
ATOM     23  C   UNL A   1      38.090  33.976  34.346  1.00  0.00     0.029 A 
ATOM     24  C   UNL A   1      39.188  33.030  34.482  1.00  0.00     0.049 A 
ATOM     25  H   UNL A   1      39.888  31.678  33.056  1.00  0.00     0.167 HD
ATOM     26  C   UNL A   1      40.901  28.540  30.176  1.00  0.00     0.034 A 
ATOM     27  C   UNL A   1      39.945  32.882  35.586  1.00  0.00     0.034 A 
ATOM     28  C   UNL A   1      41.891  28.456  31.219  1.00  0.00     0.049 A 
ATOM     29  C   UNL A   1      41.039  31.856  35.581  1.00  0.00     0.074 A 
ATOM     30  C   UNL A   1      43.007  27.638  31.277  1.00  0.00     0.029 A 
ATOM     31  N   UNL A   1      41.871  29.189  32.394  1.00  0.00    -0.354 N 
ATOM     32  N   UNL A   1      41.410  31.056  34.612  1.00  0.00    -0.248 NA
ATOM     33  C   UNL A   1      41.832  31.726  36.810  1.00  0.00     0.031 C 
ATOM     34  C   UNL A   1      43.644  27.854  32.503  1.00  0.00     0.029 A 
ATOM     35  C   UNL A   1      42.935  28.819  33.201  1.00  0.00     0.049 A 
ATOM     36  H   UNL A   1      41.201  29.873  32.622  1.00  0.00     0.167 HD
ATOM     37  C   UNL A   1      42.485  30.333  35.110  1.00  0.00     0.074 A 
ATOM     38  C   UNL A   1      42.731  30.819  36.453  1.00  0.00     0.031 C 
ATOM     39  C   UNL A   1      43.188  29.336  34.519  1.00  0.00     0.034 A 
BRANCH  26  40
ATOM     40  C   UNL A   1      41.009  27.557  29.041  1.00  0.00     0.023 A 
ATOM     41  C   UNL A   1      40.138  26.451  28.994  1.00  0.00     0.012 A 
ATOM     42  C   UNL A   1      41.880  27.801  27.960  1.00  0.00     0.148 A 
ATOM     43  C   UNL A   1      40.137  25.597  27.892  1.00  0.00     0.002 A 
ATOM     44  C   UNL A   1      41.850  26.964  26.850  1.00  0.00     0.091 A 
ATOM     45  F   UNL A   1      42.711  28.850  28.034  1.00  0.00    -0.205 F 
ATOM     46  C   UNL A   1      40.982  25.861  26.816  1.00  0.00     0.022 A 
BRANCH  44  47
ATOM     47  S   UNL A   1      42.845  27.257  25.383  1.00  0.00     0.127 S 
ATOM     48  O   UNL A   1      44.175  27.442  25.963  1.00  0.00    -0.237 OA
ATOM     49  O   UNL A   1      42.674  26.009  24.641  1.00  0.00    -0.237 OA
ATOM     50  O   UNL A   1      42.278  28.433  24.739  1.00  0.00    -0.744 OA
ENDBRANCH  44  47
ENDBRANCH  26  40
BRANCH  27  51
ATOM     51  C   UNL A   1      39.685  33.735  36.779  1.00  0.00     0.023 A 
ATOM     52  C   UNL A   1      40.061  35.090  36.759  1.00  0.00     0.012 A 
ATOM     53  C   UNL A   1      39.030  33.219  37.914  1.00  0.00     0.148 A 
ATOM     54  C   UNL A   1      39.812  35.911  37.861  1.00  0.00     0.002 A 
ATOM     55  C   UNL A   1      38.730  34.056  38.981  1.00  0.00     0.091 A 
ATOM     56  F   UNL A   1      38.699  31.919  37.925  1.00  0.00    -0.205 F 
ATOM     57  C   UNL A   1      39.135  35.398  38.964  1.00  0.00     0.022 A 
BRANCH  55  58
ATOM     58  S   UNL A   1      37.726  33.498  40.361  1.00  0.00     0.127 S 
ATOM     59  O   UNL A   1      36.519  33.030  39.686  1.00  0.00    -0.237 OA
ATOM     60  O   UNL A   1      38.555  32.441  40.944  1.00  0.00    -0.237 OA
ATOM     61  O   UNL A   1      37.573  34.668  41.216  1.00  0.00    -0.744 OA
ENDBRANCH  55  58
ENDBRANCH  27  51
BRANCH  39  62
ATOM     62  C   UNL A   1      44.289  28.699  35.323  1.00  0.00     0.023 A 
ATOM     63  C   UNL A   1      45.602  29.195  35.206  1.00  0.00     0.012 A 
ATOM     64  C   UNL A   1      44.016  27.663  36.236  1.00  0.00     0.148 A 
ATOM     65  C   UNL A   1      46.634  28.651  35.968  1.00  0.00     0.002 A 
ATOM     66  C   UNL A   1      45.041  27.156  37.025  1.00  0.00     0.091 A 
ATOM     67  F   UNL A   1      42.762  27.195  36.316  1.00  0.00    -0.205 F 
ATOM     68  C   UNL A   1      46.352  27.640  36.884  1.00  0.00     0.022 A 
BRANCH  66  69
ATOM     69  S   UNL A   1      44.758  25.916  38.293  1.00  0.00     0.127 S 
ATOM     70  O   UNL A   1      43.808  26.599  39.171  1.00  0.00    -0.237 OA
ATOM     71  O   UNL A   1      44.191  24.808  37.524  1.00  0.00    -0.237 OA
ATOM     72  O   UNL A   1      46.062  25.640  38.882  1.00  0.00    -0.744 OA
ENDBRANCH  66  69
ENDBRANCH  39  62
ENDBRANCH  13  14
ENDBRANCH   6   8
ENDBRANCH   3   4
ENDBRANCH   2   3
ENDBRANCH   1   2
BRANCH   1  73
ATOM     73  C   UNL A   1      32.010  29.292  25.310  1.00  0.00     0.002 C 
BRANCH  73  74
ATOM     74  C   UNL A   1      32.295  28.472  26.575  1.00  0.00     0.021 C 
BRANCH  74  75
ATOM     75  C   UNL A   1      33.409  27.429  26.468  1.00  0.00     0.116 C 
BRANCH  75  76
ATOM     76  N   UNL A   1      33.363  26.680  25.232  1.00  0.00    -0.356 N 
ATOM     77  C   UNL A   1      32.580  25.632  24.864  1.00  0.00     0.227 C 
ATOM     78  H   UNL A   1      34.004  26.977  24.546  1.00  0.00     0.163 HD
ATOM     79  O   UNL A   1      32.519  25.386  23.656  1.00  0.00    -0.274 OA
BRANCH  77  80
ATOM     80  C   UNL A   1      31.738  24.874  25.898  1.00  0.00     0.103 C 
ATOM     81  C   UNL A   1      32.515  24.001  26.844  1.00  0.00    -0.016 C 
ATOM     82  C   UNL A   1      30.775  23.873  25.212  1.00  0.00     0.047 C 
ATOM     83  C   UNL A   1      32.148  22.718  26.794  1.00  0.00    -0.006 C 
ATOM     84  C   UNL A   1      31.066  22.493  25.808  1.00  0.00     0.106 C 
BRANCH  84  85
ATOM     85  N   UNL A   1      31.408  21.427  24.888  1.00  0.00    -0.346 N 
ATOM     86  C   UNL A   1      32.560  21.009  24.282  1.00  0.00     0.251 C 
ATOM     87  H   UNL A   1      30.630  20.875  24.643  1.00  0.00     0.164 HD
ATOM     88  O   UNL A   1      32.501  20.099  23.454  1.00  0.00    -0.269 OA
BRANCH  86  89
ATOM     89  C   UNL A   1      33.875  21.612  24.556  1.00  0.00     0.039 A 
ATOM     90  C   UNL A   1      34.322  22.733  23.852  1.00  0.00     0.015 A 
ATOM     91  C   UNL A   1      34.594  21.146  25.661  1.00  0.00     0.015 A 
ATOM     92  C   UNL A   1      35.529  23.344  24.212  1.00  0.00     0.016 A 
ATOM     93  C   UNL A   1      35.797  21.757  26.024  1.00  0.00     0.016 A 
ATOM     94  C   UNL A   1      36.263  22.847  25.290  1.00  0.00     0.018 A 
ATOM     95  Br  UNL A   1      37.897  23.664  25.781  1.00  0.00    -0.051 Br
ENDBRANCH  86  89
ENDBRANCH  84  85
ENDBRANCH  77  80
ENDBRANCH  75  76
ENDBRANCH  74  75
ENDBRANCH  73  74
ENDBRANCH   1  73
TORSDOF 18
ENDMDL
MODEL 3
REMARK VINA RESULT:     -10.3      0.847      7.758
REMARK SMILES O=C(NCCCCCCNC(=O)[C@@H]1C=C[C@H](NC(=O)c2ccc(Br)cc2)C1)c1ccc(-c2c3nc(c(-c4cccc(S(=O)(=O)[O-])c4F)c4ccc([nH]4)c(-c4cccc(S(=O)(=O)[O-])c4F)c4nc(c(-c5cccc(S(=O)(=O)[O-])c5F)c5ccc2[nH]5)C=C4)C=C3)cc1
REMARK SMILES IDX 6 1 5 2 4 3 3 4 1 5 2 6 28 8 29 9 90 10 30 11 89 12 31 13
REMARK SMILES IDX 32 14 33 15 83 16 34 17 88 18 82 19 84 20 35 21 87 22 81 23
REMARK SMILES IDX 80 24 36 26 68 27 48 28 67 29 49 30 52 31 66 32 85 33 50 34
REMARK SMILES IDX 51 35 65 37 86 38 53 39 37 40 38 41 46 42 39 43 41 44 47 45
REMARK SMILES IDX 40 46 42 47 43 48 44 49 45 50 69 51 70 52 78 53 71 54 73 55
REMARK SMILES IDX 79 56 72 57 74 58 75 59 76 60 77 61 54 62 55 63 63 64 56 65
REMARK SMILES IDX 58 66 64 67 57 68 59 69 60 70 61 71 62 72 7 73 8 74 9 75
REMARK SMILES IDX 10 76 11 77 12 79 13 80 14 81 27 82 15 83 16 84 17 85 18 86
REMARK SMILES IDX 19 88 20 89 21 90 26 91 22 92 25 93 23 94 24 95
REMARK H PARENT 3 7 84 25 52 36 10 78 17 87
REMARK Flexibility Score: inf
ROOT
ATOM      1  C   UNL A   1      41.843  19.459  26.714  1.00  0.00     0.002 C 
ENDROOT
BRANCH   1   2
ATOM      2  C   UNL A   1      42.241  20.769  27.387  1.00  0.00     0.021 C 
BRANCH   2   3
ATOM      3  C   UNL A   1      41.071  21.630  27.832  1.00  0.00     0.116 C 
BRANCH   3   4
ATOM      4  N   UNL A   1      40.017  21.682  26.836  1.00  0.00    -0.352 N 
ATOM      5  O   UNL A   1      38.265  22.602  25.753  1.00  0.00    -0.269 OA
ATOM      6  C   UNL A   1      39.244  22.761  26.474  1.00  0.00     0.251 C 
ATOM      7  H   UNL A   1      39.831  20.841  26.361  1.00  0.00     0.163 HD
BRANCH   6   8
ATOM      8  C   UNL A   1      39.597  24.106  26.984  1.00  0.00     0.039 A 
ATOM      9  C   UNL A   1      39.322  24.453  28.310  1.00  0.00     0.014 A 
ATOM     10  C   UNL A   1      40.208  25.024  26.127  1.00  0.00     0.014 A 
ATOM     11  C   UNL A   1      39.555  25.752  28.749  1.00  0.00     0.010 A 
ATOM     12  C   UNL A   1      40.517  26.305  26.595  1.00  0.00     0.010 A 
ATOM     13  C   UNL A   1      40.183  26.681  27.906  1.00  0.00    -0.014 A 
BRANCH  13  14
ATOM     14  C   UNL A   1      40.622  27.985  28.461  1.00  0.00     0.031 A 
ATOM     15  C   UNL A   1      39.643  28.987  29.001  1.00  0.00     0.074 A 
ATOM     16  C   UNL A   1      41.940  28.270  28.425  1.00  0.00     0.049 A 
ATOM     17  N   UNL A   1      39.879  30.172  29.499  1.00  0.00    -0.248 NA
ATOM     18  C   UNL A   1      38.217  28.622  28.976  1.00  0.00     0.031 C 
ATOM     19  C   UNL A   1      42.973  27.392  27.865  1.00  0.00     0.029 A 
ATOM     20  N   UNL A   1      42.636  29.376  28.838  1.00  0.00    -0.354 N 
ATOM     21  C   UNL A   1      38.638  30.717  29.805  1.00  0.00     0.074 A 
ATOM     22  C   UNL A   1      37.646  29.725  29.446  1.00  0.00     0.031 C 
ATOM     23  C   UNL A   1      44.166  27.991  27.967  1.00  0.00     0.029 A 
ATOM     24  C   UNL A   1      43.980  29.314  28.548  1.00  0.00     0.049 A 
ATOM     25  H   UNL A   1      42.217  30.138  29.299  1.00  0.00     0.167 HD
ATOM     26  C   UNL A   1      38.361  31.928  30.341  1.00  0.00     0.034 A 
ATOM     27  C   UNL A   1      44.952  30.234  28.694  1.00  0.00     0.034 A 
ATOM     28  C   UNL A   1      39.361  32.887  30.733  1.00  0.00     0.049 A 
ATOM     29  C   UNL A   1      44.606  31.560  29.304  1.00  0.00     0.074 A 
ATOM     30  C   UNL A   1      39.184  34.087  31.402  1.00  0.00     0.029 A 
ATOM     31  N   UNL A   1      40.716  32.773  30.469  1.00  0.00    -0.354 N 
ATOM     32  N   UNL A   1      43.453  31.978  29.763  1.00  0.00    -0.248 NA
ATOM     33  C   UNL A   1      45.698  32.534  29.436  1.00  0.00     0.031 C 
ATOM     34  C   UNL A   1      40.429  34.714  31.513  1.00  0.00     0.029 A 
ATOM     35  C   UNL A   1      41.384  33.896  30.929  1.00  0.00     0.049 A 
ATOM     36  H   UNL A   1      41.143  32.007  30.021  1.00  0.00     0.167 HD
ATOM     37  C   UNL A   1      43.679  33.259  30.246  1.00  0.00     0.074 A 
ATOM     38  C   UNL A   1      45.090  33.533  30.061  1.00  0.00     0.031 C 
ATOM     39  C   UNL A   1      42.793  34.140  30.771  1.00  0.00     0.034 A 
BRANCH  26  40
ATOM     40  C   UNL A   1      36.920  32.296  30.585  1.00  0.00     0.023 A 
ATOM     41  C   UNL A   1      36.361  32.105  31.863  1.00  0.00     0.012 A 
ATOM     42  C   UNL A   1      36.168  32.948  29.588  1.00  0.00     0.148 A 
ATOM     43  C   UNL A   1      35.070  32.551  32.144  1.00  0.00     0.002 A 
ATOM     44  C   UNL A   1      34.894  33.419  29.885  1.00  0.00     0.091 A 
ATOM     45  F   UNL A   1      36.716  33.104  28.374  1.00  0.00    -0.205 F 
ATOM     46  C   UNL A   1      34.343  33.219  31.161  1.00  0.00     0.022 A 
BRANCH  44  47
ATOM     47  S   UNL A   1      33.904  34.354  28.714  1.00  0.00     0.127 S 
ATOM     48  O   UNL A   1      33.654  33.353  27.677  1.00  0.00    -0.237 OA
ATOM     49  O   UNL A   1      32.731  34.706  29.514  1.00  0.00    -0.237 OA
ATOM     50  O   UNL A   1      34.725  35.484  28.302  1.00  0.00    -0.744 OA
ENDBRANCH  44  47
ENDBRANCH  26  40
BRANCH  27  51
ATOM     51  C   UNL A   1      46.340  29.918  28.257  1.00  0.00     0.023 A 
ATOM     52  C   UNL A   1      46.748  30.242  26.950  1.00  0.00     0.012 A 
ATOM     53  C   UNL A   1      47.268  29.338  29.144  1.00  0.00     0.148 A 
ATOM     54  C   UNL A   1      48.050  29.969  26.525  1.00  0.00     0.002 A 
ATOM     55  C   UNL A   1      48.578  29.127  28.734  1.00  0.00     0.091 A 
ATOM     56  F   UNL A   1      46.856  29.016  30.379  1.00  0.00    -0.205 F 
ATOM     57  C   UNL A   1      48.967  29.425  27.421  1.00  0.00     0.022 A 
BRANCH  55  58
ATOM     58  S   UNL A   1      49.845  28.576  29.882  1.00  0.00     0.127 S 
ATOM     59  O   UNL A   1      50.830  27.985  28.982  1.00  0.00    -0.237 OA
ATOM     60  O   UNL A   1      50.261  29.829  30.514  1.00  0.00    -0.237 OA
ATOM     61  O   UNL A   1      49.164  27.657  30.785  1.00  0.00    -0.744 OA
ENDBRANCH  55  58
ENDBRANCH  27  51
BRANCH  39  62
ATOM     62  C   UNL A   1      43.322  35.489  31.178  1.00  0.00     0.023 A 
ATOM     63  C   UNL A   1      43.730  35.694  32.511  1.00  0.00     0.012 A 
ATOM     64  C   UNL A   1      43.476  36.524  30.237  1.00  0.00     0.148 A 
ATOM     65  C   UNL A   1      44.261  36.919  32.908  1.00  0.00     0.002 A 
ATOM     66  C   UNL A   1      44.048  37.728  30.629  1.00  0.00     0.091 A 
ATOM     67  F   UNL A   1      43.064  36.311  28.979  1.00  0.00    -0.205 F 
ATOM     68  C   UNL A   1      44.430  37.932  31.965  1.00  0.00     0.022 A 
BRANCH  66  69
ATOM     69  S   UNL A   1      44.387  39.057  29.469  1.00  0.00     0.127 S 
ATOM     70  O   UNL A   1      43.038  39.515  29.139  1.00  0.00    -0.237 OA
ATOM     71  O   UNL A   1      45.166  39.989  30.284  1.00  0.00    -0.237 OA
ATOM     72  O   UNL A   1      45.126  38.451  28.369  1.00  0.00    -0.744 OA
ENDBRANCH  66  69
ENDBRANCH  39  62
ENDBRANCH  13  14
ENDBRANCH   6   8
ENDBRANCH   3   4
ENDBRANCH   2   3
ENDBRANCH   1   2
BRANCH   1  73
ATOM     73  C   UNL A   1      42.981  18.461  26.491  1.00  0.00     0.002 C 
BRANCH  73  74
ATOM     74  C   UNL A   1      43.708  18.521  25.141  1.00  0.00     0.021 C 
BRANCH  74  75
ATOM     75  C   UNL A   1      44.809  19.574  25.013  1.00  0.00     0.116 C 
BRANCH  75  76
ATOM     76  N   UNL A   1      44.499  20.599  24.042  1.00  0.00    -0.356 N 
ATOM     77  C   UNL A   1      44.556  21.954  24.140  1.00  0.00     0.227 C 
ATOM     78  H   UNL A   1      44.197  20.261  23.168  1.00  0.00     0.163 HD
ATOM     79  O   UNL A   1      44.546  22.585  23.080  1.00  0.00    -0.274 OA
BRANCH  77  80
ATOM     80  C   UNL A   1      44.731  22.640  25.501  1.00  0.00     0.103 C 
ATOM     81  C   UNL A   1      43.574  23.492  25.945  1.00  0.00    -0.016 C 
ATOM     82  C   UNL A   1      45.912  23.642  25.476  1.00  0.00     0.047 C 
ATOM     83  C   UNL A   1      43.915  24.765  26.163  1.00  0.00    -0.006 C 
ATOM     84  C   UNL A   1      45.354  25.002  25.904  1.00  0.00     0.106 C 
BRANCH  84  85
ATOM     85  N   UNL A   1      45.547  26.118  25.000  1.00  0.00    -0.346 N 
ATOM     86  C   UNL A   1      46.614  26.895  24.642  1.00  0.00     0.251 C 
ATOM     87  H   UNL A   1      44.718  26.376  24.535  1.00  0.00     0.164 HD
ATOM     88  O   UNL A   1      46.427  27.856  23.895  1.00  0.00    -0.269 OA
BRANCH  86  89
ATOM     89  C   UNL A   1      47.982  26.652  25.128  1.00  0.00     0.039 A 
ATOM     90  C   UNL A   1      48.219  26.074  26.378  1.00  0.00     0.015 A 
ATOM     91  C   UNL A   1      49.041  26.848  24.234  1.00  0.00     0.015 A 
ATOM     92  C   UNL A   1      49.528  25.759  26.761  1.00  0.00     0.016 A 
ATOM     93  C   UNL A   1      50.347  26.530  24.615  1.00  0.00     0.016 A 
ATOM     94  C   UNL A   1      50.585  25.997  25.881  1.00  0.00     0.018 A 
ATOM     95  Br  UNL A   1      52.357  25.578  26.392  1.00  0.00    -0.051 Br
ENDBRANCH  86  89
ENDBRANCH  84  85
ENDBRANCH  77  80
ENDBRANCH  75  76
ENDBRANCH  74  75
ENDBRANCH  73  74
ENDBRANCH   1  73
TORSDOF 18
ENDMDL
