MODEL 1
REMARK VINA RESULT:     -12.5      0.000      0.000
REMARK SMILES O=C(NCCCCCCNC(=O)c1ccccc1OCC[S@@](=O)c1cccc(F)c1)c1ccc(-c2c3nc(c(-c4cccc(S(=O)(=O)[O-])c4F)c4ccc([nH]4)c(-c4cccc(S(=O)(=O)[O-])c4F)c4nc(c(-c5cccc(S(=O)(=O)[O-])c5F)c5ccc2[nH]5)C=C4)C=C3)cc1
REMARK SMILES IDX 7 1 6 2 5 3 4 4 3 5 1 6 2 7 31 9 32 10 93 11 33 12 92 13
REMARK SMILES IDX 34 14 35 15 36 16 86 17 37 18 91 19 85 20 87 21 38 22 90 23
REMARK SMILES IDX 84 24 83 25 39 27 71 28 51 29 70 30 52 31 55 32 69 33 88 34
REMARK SMILES IDX 53 35 54 36 68 38 89 39 56 40 40 41 41 42 49 43 42 44 44 45
REMARK SMILES IDX 50 46 43 47 45 48 46 49 47 50 48 51 72 52 73 53 81 54 74 55
REMARK SMILES IDX 76 56 82 57 75 58 77 59 78 60 79 61 80 62 57 63 58 64 66 65
REMARK SMILES IDX 59 66 61 67 67 68 60 69 62 70 63 71 64 72 65 73 8 74 9 75
REMARK SMILES IDX 10 76 11 77 12 79 13 80 14 81 18 82 15 83 17 84 16 85 19 86
REMARK SMILES IDX 20 87 21 88 22 89 23 90 24 91 25 92 30 93 26 94 28 95 27 96
REMARK SMILES IDX 29 97
REMARK H PARENT 3 8 87 26 55 37 10 78
REMARK Flexibility Score: inf
ROOT
ATOM      1  C   UNL A   1      37.352  22.522  25.393  1.00  0.00     0.002 C 
ENDROOT
BRANCH   1   2
ATOM      2  C   UNL A   1      37.126  21.259  24.550  1.00  0.00     0.002 C 
BRANCH   2   3
ATOM      3  C   UNL A   1      37.923  20.045  25.028  1.00  0.00     0.021 C 
BRANCH   3   4
ATOM      4  C   UNL A   1      39.134  20.386  25.888  1.00  0.00     0.116 C 
BRANCH   4   5
ATOM      5  N   UNL A   1      40.124  19.320  25.935  1.00  0.00    -0.352 N 
ATOM      6  O   UNL A   1      42.255  18.529  25.993  1.00  0.00    -0.269 OA
ATOM      7  C   UNL A   1      41.480  19.477  26.110  1.00  0.00     0.251 C 
ATOM      8  H   UNL A   1      39.792  18.399  25.833  1.00  0.00     0.163 HD
BRANCH   7   9
ATOM      9  C   UNL A   1      41.978  20.835  26.410  1.00  0.00     0.039 A 
ATOM     10  C   UNL A   1      42.170  21.211  27.743  1.00  0.00     0.014 A 
ATOM     11  C   UNL A   1      42.133  21.760  25.377  1.00  0.00     0.014 A 
ATOM     12  C   UNL A   1      42.393  22.545  28.052  1.00  0.00     0.010 A 
ATOM     13  C   UNL A   1      42.440  23.086  25.687  1.00  0.00     0.010 A 
ATOM     14  C   UNL A   1      42.548  23.494  27.028  1.00  0.00    -0.014 A 
BRANCH  14  15
ATOM     15  C   UNL A   1      42.933  24.884  27.374  1.00  0.00     0.031 A 
ATOM     16  C   UNL A   1      41.964  25.837  28.014  1.00  0.00     0.074 A 
ATOM     17  C   UNL A   1      44.179  25.287  27.059  1.00  0.00     0.049 A 
ATOM     18  N   UNL A   1      42.142  27.092  28.336  1.00  0.00    -0.248 NA
ATOM     19  C   UNL A   1      40.621  25.322  28.323  1.00  0.00     0.031 C 
ATOM     20  C   UNL A   1      45.182  24.457  26.386  1.00  0.00     0.029 A 
ATOM     21  N   UNL A   1      44.810  26.490  27.239  1.00  0.00    -0.354 N 
ATOM     22  C   UNL A   1      40.925  27.535  28.841  1.00  0.00     0.074 A 
ATOM     23  C   UNL A   1      40.015  26.410  28.784  1.00  0.00     0.031 C 
ATOM     24  C   UNL A   1      46.300  25.171  26.210  1.00  0.00     0.029 A 
ATOM     25  C   UNL A   1      46.075  26.524  26.702  1.00  0.00     0.049 A 
ATOM     26  H   UNL A   1      44.398  27.254  27.704  1.00  0.00     0.167 HD
ATOM     27  C   UNL A   1      40.604  28.764  29.313  1.00  0.00     0.034 A 
ATOM     28  C   UNL A   1      46.951  27.540  26.583  1.00  0.00     0.034 A 
ATOM     29  C   UNL A   1      41.531  29.862  29.392  1.00  0.00     0.049 A 
ATOM     30  C   UNL A   1      46.582  28.878  27.144  1.00  0.00     0.074 A 
ATOM     31  C   UNL A   1      41.331  31.121  29.932  1.00  0.00     0.029 A 
ATOM     32  N   UNL A   1      42.831  29.841  28.904  1.00  0.00    -0.354 N 
ATOM     33  N   UNL A   1      45.474  29.238  27.746  1.00  0.00    -0.248 NA
ATOM     34  C   UNL A   1      47.587  29.942  27.038  1.00  0.00     0.031 C 
ATOM     35  C   UNL A   1      42.501  31.867  29.750  1.00  0.00     0.029 A 
ATOM     36  C   UNL A   1      43.440  31.067  29.117  1.00  0.00     0.049 A 
ATOM     37  H   UNL A   1      43.258  29.066  28.472  1.00  0.00     0.167 HD
ATOM     38  C   UNL A   1      45.653  30.567  28.106  1.00  0.00     0.074 A 
ATOM     39  C   UNL A   1      46.987  30.938  27.679  1.00  0.00     0.031 C 
ATOM     40  C   UNL A   1      44.782  31.408  28.719  1.00  0.00     0.034 A 
BRANCH  27  41
ATOM     41  C   UNL A   1      39.196  28.984  29.809  1.00  0.00     0.023 A 
ATOM     42  C   UNL A   1      38.854  28.611  31.125  1.00  0.00     0.012 A 
ATOM     43  C   UNL A   1      38.229  29.610  28.998  1.00  0.00     0.148 A 
ATOM     44  C   UNL A   1      37.566  28.829  31.615  1.00  0.00     0.002 A 
ATOM     45  C   UNL A   1      36.958  29.858  29.505  1.00  0.00     0.091 A 
ATOM     46  F   UNL A   1      38.561  29.938  27.741  1.00  0.00    -0.205 F 
ATOM     47  C   UNL A   1      36.622  29.459  30.809  1.00  0.00     0.022 A 
BRANCH  45  48
ATOM     48  S   UNL A   1      35.699  30.731  28.565  1.00  0.00     0.127 S 
ATOM     49  O   UNL A   1      34.932  29.623  27.998  1.00  0.00    -0.237 OA
ATOM     50  O   UNL A   1      34.999  31.487  29.605  1.00  0.00    -0.237 OA
ATOM     51  O   UNL A   1      36.423  31.556  27.607  1.00  0.00    -0.744 OA
ENDBRANCH  45  48
ENDBRANCH  27  41
BRANCH  28  52
ATOM     52  C   UNL A   1      48.261  27.288  25.923  1.00  0.00     0.023 A 
ATOM     53  C   UNL A   1      49.307  26.700  26.658  1.00  0.00     0.012 A 
ATOM     54  C   UNL A   1      48.434  27.529  24.546  1.00  0.00     0.148 A 
ATOM     55  C   UNL A   1      50.509  26.364  26.032  1.00  0.00     0.002 A 
ATOM     56  C   UNL A   1      49.609  27.136  23.917  1.00  0.00     0.091 A 
ATOM     57  F   UNL A   1      47.428  28.100  23.869  1.00  0.00    -0.205 F 
ATOM     58  C   UNL A   1      50.654  26.566  24.661  1.00  0.00     0.022 A 
BRANCH  56  59
ATOM     59  S   UNL A   1      49.814  27.213  22.134  1.00  0.00     0.127 S 
ATOM     60  O   UNL A   1      48.762  26.311  21.674  1.00  0.00    -0.237 OA
ATOM     61  O   UNL A   1      49.572  28.631  21.862  1.00  0.00    -0.237 OA
ATOM     62  O   UNL A   1      51.180  26.779  21.878  1.00  0.00    -0.744 OA
ENDBRANCH  56  59
ENDBRANCH  28  52
BRANCH  40  63
ATOM     63  C   UNL A   1      45.251  32.814  28.979  1.00  0.00     0.023 A 
ATOM     64  C   UNL A   1      45.937  33.109  30.174  1.00  0.00     0.012 A 
ATOM     65  C   UNL A   1      45.077  33.821  28.011  1.00  0.00     0.148 A 
ATOM     66  C   UNL A   1      46.420  34.394  30.413  1.00  0.00     0.002 A 
ATOM     67  C   UNL A   1      45.601  35.089  28.237  1.00  0.00     0.091 A 
ATOM     68  F   UNL A   1      44.402  33.523  26.891  1.00  0.00    -0.205 F 
ATOM     69  C   UNL A   1      46.264  35.379  29.441  1.00  0.00     0.022 A 
BRANCH  67  70
ATOM     70  S   UNL A   1      45.526  36.393  27.004  1.00  0.00     0.127 S 
ATOM     71  O   UNL A   1      44.085  36.603  26.880  1.00  0.00    -0.237 OA
ATOM     72  O   UNL A   1      46.247  37.484  27.662  1.00  0.00    -0.237 OA
ATOM     73  O   UNL A   1      46.187  35.863  25.818  1.00  0.00    -0.744 OA
ENDBRANCH  67  70
ENDBRANCH  40  63
ENDBRANCH  14  15
ENDBRANCH   7   9
ENDBRANCH   4   5
ENDBRANCH   3   4
ENDBRANCH   2   3
ENDBRANCH   1   2
BRANCH   1  74
ATOM     74  C   UNL A   1      36.091  23.146  26.041  1.00  0.00     0.021 C 
BRANCH  74  75
ATOM     75  C   UNL A   1      35.472  24.406  25.372  1.00  0.00     0.116 C 
BRANCH  75  76
ATOM     76  N   UNL A   1      34.181  24.753  25.986  1.00  0.00    -0.352 N 
ATOM     77  C   UNL A   1      33.132  25.638  25.750  1.00  0.00     0.255 C 
ATOM     78  H   UNL A   1      34.011  24.207  26.788  1.00  0.00     0.163 HD
ATOM     79  O   UNL A   1      32.035  25.693  26.303  1.00  0.00    -0.269 OA
BRANCH  77  80
ATOM     80  C   UNL A   1      33.106  26.436  24.599  1.00  0.00     0.081 A 
ATOM     81  C   UNL A   1      33.302  27.808  24.730  1.00  0.00     0.018 A 
ATOM     82  C   UNL A   1      32.877  25.742  23.443  1.00  0.00     0.132 A 
ATOM     83  C   UNL A   1      33.661  28.491  23.601  1.00  0.00     0.001 A 
ATOM     84  C   UNL A   1      33.397  26.386  22.330  1.00  0.00     0.047 A 
ATOM     85  C   UNL A   1      33.818  27.749  22.425  1.00  0.00     0.004 A 
BRANCH  82  86
ATOM     86  O   UNL A   1      32.332  24.465  23.498  1.00  0.00    -0.492 OA
BRANCH  86  87
ATOM     87  C   UNL A   1      33.102  23.322  22.833  1.00  0.00     0.243 C 
BRANCH  87  88
ATOM     88  C   UNL A   1      33.459  21.946  23.604  1.00  0.00     0.152 C 
BRANCH  88  89
ATOM     89  S   UNL A   1      32.368  20.248  23.939  1.00  0.00     0.056 S 
ATOM     90  O   UNL A   1      32.093  19.738  22.550  1.00  0.00    -0.254 OA
BRANCH  89  91
ATOM     91  C   UNL A   1      33.178  18.651  24.768  1.00  0.00     0.042 A 
ATOM     92  C   UNL A   1      34.471  18.314  24.322  1.00  0.00     0.018 A 
ATOM     93  C   UNL A   1      32.605  17.733  25.675  1.00  0.00     0.057 A 
ATOM     94  C   UNL A   1      35.031  17.037  24.557  1.00  0.00     0.004 A 
ATOM     95  C   UNL A   1      33.084  16.412  25.760  1.00  0.00     0.124 A 
ATOM     96  C   UNL A   1      34.291  16.049  25.196  1.00  0.00     0.039 A 
ATOM     97  F   UNL A   1      32.326  15.463  26.334  1.00  0.00    -0.207 F 
ENDBRANCH  89  91
ENDBRANCH  88  89
ENDBRANCH  87  88
ENDBRANCH  86  87
ENDBRANCH  82  86
ENDBRANCH  77  80
ENDBRANCH  75  76
ENDBRANCH  74  75
ENDBRANCH   1  74
TORSDOF 21
ENDMDL
MODEL 2
REMARK VINA RESULT:     -12.2      2.477      4.167
REMARK SMILES O=C(NCCCCCCNC(=O)c1ccccc1OCC[S@@](=O)c1cccc(F)c1)c1ccc(-c2c3nc(c(-c4cccc(S(=O)(=O)[O-])c4F)c4ccc([nH]4)c(-c4cccc(S(=O)(=O)[O-])c4F)c4nc(c(-c5cccc(S(=O)(=O)[O-])c5F)c5ccc2[nH]5)C=C4)C=C3)cc1
REMARK SMILES IDX 7 1 6 2 5 3 4 4 3 5 1 6 2 7 31 9 32 10 93 11 33 12 92 13
REMARK SMILES IDX 34 14 35 15 36 16 86 17 37 18 91 19 85 20 87 21 38 22 90 23
REMARK SMILES IDX 84 24 83 25 39 27 71 28 51 29 70 30 52 31 55 32 69 33 88 34
REMARK SMILES IDX 53 35 54 36 68 38 89 39 56 40 40 41 41 42 49 43 42 44 44 45
REMARK SMILES IDX 50 46 43 47 45 48 46 49 47 50 48 51 72 52 73 53 81 54 74 55
REMARK SMILES IDX 76 56 82 57 75 58 77 59 78 60 79 61 80 62 57 63 58 64 66 65
REMARK SMILES IDX 59 66 61 67 67 68 60 69 62 70 63 71 64 72 65 73 8 74 9 75
REMARK SMILES IDX 10 76 11 77 12 79 13 80 14 81 18 82 15 83 17 84 16 85 19 86
REMARK SMILES IDX 20 87 21 88 22 89 23 90 24 91 25 92 30 93 26 94 28 95 27 96
REMARK SMILES IDX 29 97
REMARK H PARENT 3 8 87 26 55 37 10 78
REMARK Flexibility Score: inf
ROOT
ATOM      1  C   UNL A   1      36.918  22.587  25.176  1.00  0.00     0.002 C 
ENDROOT
BRANCH   1   2
ATOM      2  C   UNL A   1      37.183  21.382  24.263  1.00  0.00     0.002 C 
BRANCH   2   3
ATOM      3  C   UNL A   1      37.823  20.191  24.979  1.00  0.00     0.021 C 
BRANCH   3   4
ATOM      4  C   UNL A   1      39.039  20.545  25.826  1.00  0.00     0.116 C 
BRANCH   4   5
ATOM      5  N   UNL A   1      39.995  19.454  25.943  1.00  0.00    -0.352 N 
ATOM      6  O   UNL A   1      42.097  18.607  26.123  1.00  0.00    -0.269 OA
ATOM      7  C   UNL A   1      41.345  19.579  26.183  1.00  0.00     0.251 C 
ATOM      8  H   UNL A   1      39.642  18.541  25.842  1.00  0.00     0.163 HD
BRANCH   7   9
ATOM      9  C   UNL A   1      41.865  20.928  26.481  1.00  0.00     0.039 A 
ATOM     10  C   UNL A   1      42.060  21.303  27.814  1.00  0.00     0.014 A 
ATOM     11  C   UNL A   1      42.037  21.848  25.446  1.00  0.00     0.014 A 
ATOM     12  C   UNL A   1      42.305  22.635  28.121  1.00  0.00     0.010 A 
ATOM     13  C   UNL A   1      42.366  23.169  25.755  1.00  0.00     0.010 A 
ATOM     14  C   UNL A   1      42.478  23.579  27.095  1.00  0.00    -0.014 A 
BRANCH  14  15
ATOM     15  C   UNL A   1      42.886  24.962  27.440  1.00  0.00     0.031 A 
ATOM     16  C   UNL A   1      41.929  25.936  28.064  1.00  0.00     0.074 A 
ATOM     17  C   UNL A   1      44.143  25.340  27.137  1.00  0.00     0.049 A 
ATOM     18  N   UNL A   1      42.127  27.189  28.383  1.00  0.00    -0.248 NA
ATOM     19  C   UNL A   1      40.572  25.449  28.361  1.00  0.00     0.031 C 
ATOM     20  C   UNL A   1      45.137  24.488  26.478  1.00  0.00     0.029 A 
ATOM     21  N   UNL A   1      44.794  26.532  27.318  1.00  0.00    -0.354 N 
ATOM     22  C   UNL A   1      40.913  27.658  28.872  1.00  0.00     0.074 A 
ATOM     23  C   UNL A   1      39.982  26.550  28.811  1.00  0.00     0.031 C 
ATOM     24  C   UNL A   1      46.270  25.180  26.312  1.00  0.00     0.029 A 
ATOM     25  C   UNL A   1      46.066  26.539  26.795  1.00  0.00     0.049 A 
ATOM     26  H   UNL A   1      44.392  27.305  27.776  1.00  0.00     0.167 HD
ATOM     27  C   UNL A   1      40.610  28.895  29.335  1.00  0.00     0.034 A 
ATOM     28  C   UNL A   1      46.962  27.537  26.681  1.00  0.00     0.034 A 
ATOM     29  C   UNL A   1      41.558  29.976  29.420  1.00  0.00     0.049 A 
ATOM     30  C   UNL A   1      46.613  28.885  27.233  1.00  0.00     0.074 A 
ATOM     31  C   UNL A   1      41.376  31.241  29.952  1.00  0.00     0.029 A 
ATOM     32  N   UNL A   1      42.862  29.927  28.947  1.00  0.00    -0.354 N 
ATOM     33  N   UNL A   1      45.506  29.269  27.820  1.00  0.00    -0.248 NA
ATOM     34  C   UNL A   1      47.640  29.929  27.133  1.00  0.00     0.031 C 
ATOM     35  C   UNL A   1      42.562  31.964  29.780  1.00  0.00     0.029 A 
ATOM     36  C   UNL A   1      43.492  31.143  29.161  1.00  0.00     0.049 A 
ATOM     37  H   UNL A   1      43.278  29.143  28.523  1.00  0.00     0.167 HD
ATOM     38  C   UNL A   1      45.706  30.596  28.177  1.00  0.00     0.074 A 
ATOM     39  C   UNL A   1      47.052  30.940  27.763  1.00  0.00     0.031 C 
ATOM     40  C   UNL A   1      44.845  31.456  28.776  1.00  0.00     0.034 A 
BRANCH  27  41
ATOM     41  C   UNL A   1      39.202  29.144  29.815  1.00  0.00     0.023 A 
ATOM     42  C   UNL A   1      38.796  28.654  31.074  1.00  0.00     0.012 A 
ATOM     43  C   UNL A   1      38.298  29.910  29.052  1.00  0.00     0.148 A 
ATOM     44  C   UNL A   1      37.507  28.894  31.549  1.00  0.00     0.002 A 
ATOM     45  C   UNL A   1      37.027  30.178  29.549  1.00  0.00     0.091 A 
ATOM     46  F   UNL A   1      38.690  30.350  27.847  1.00  0.00    -0.205 F 
ATOM     47  C   UNL A   1      36.627  29.662  30.792  1.00  0.00     0.022 A 
BRANCH  45  48
ATOM     48  S   UNL A   1      35.852  31.220  28.676  1.00  0.00     0.127 S 
ATOM     49  O   UNL A   1      34.787  31.360  29.668  1.00  0.00    -0.237 OA
ATOM     50  O   UNL A   1      36.628  32.438  28.440  1.00  0.00    -0.237 OA
ATOM     51  O   UNL A   1      35.498  30.489  27.467  1.00  0.00    -0.744 OA
ENDBRANCH  45  48
ENDBRANCH  27  41
BRANCH  28  52
ATOM     52  C   UNL A   1      48.275  27.257  26.037  1.00  0.00     0.023 A 
ATOM     53  C   UNL A   1      49.294  26.636  26.781  1.00  0.00     0.012 A 
ATOM     54  C   UNL A   1      48.473  27.506  24.665  1.00  0.00     0.148 A 
ATOM     55  C   UNL A   1      50.496  26.275  26.169  1.00  0.00     0.002 A 
ATOM     56  C   UNL A   1      49.646  27.088  24.049  1.00  0.00     0.091 A 
ATOM     57  F   UNL A   1      47.491  28.108  23.979  1.00  0.00    -0.205 F 
ATOM     58  C   UNL A   1      50.665  26.485  24.802  1.00  0.00     0.022 A 
BRANCH  56  59
ATOM     59  S   UNL A   1      49.878  27.175  22.269  1.00  0.00     0.127 S 
ATOM     60  O   UNL A   1      51.245  26.684  22.122  1.00  0.00    -0.237 OA
ATOM     61  O   UNL A   1      48.841  26.263  21.784  1.00  0.00    -0.237 OA
ATOM     62  O   UNL A   1      49.662  28.570  21.914  1.00  0.00    -0.744 OA
ENDBRANCH  56  59
ENDBRANCH  28  52
BRANCH  40  63
ATOM     63  C   UNL A   1      45.338  32.854  29.035  1.00  0.00     0.023 A 
ATOM     64  C   UNL A   1      46.061  33.129  30.212  1.00  0.00     0.012 A 
ATOM     65  C   UNL A   1      45.148  33.872  28.082  1.00  0.00     0.148 A 
ATOM     66  C   UNL A   1      46.566  34.407  30.449  1.00  0.00     0.002 A 
ATOM     67  C   UNL A   1      45.693  35.131  28.304  1.00  0.00     0.091 A 
ATOM     68  F   UNL A   1      44.437  33.593  26.980  1.00  0.00    -0.205 F 
ATOM     69  C   UNL A   1      46.394  35.402  29.491  1.00  0.00     0.022 A 
BRANCH  67  70
ATOM     70  S   UNL A   1      45.598  36.448  27.086  1.00  0.00     0.127 S 
ATOM     71  O   UNL A   1      46.262  37.548  27.784  1.00  0.00    -0.237 OA
ATOM     72  O   UNL A   1      46.356  35.890  25.965  1.00  0.00    -0.237 OA
ATOM     73  O   UNL A   1      44.179  36.643  26.816  1.00  0.00    -0.744 OA
ENDBRANCH  67  70
ENDBRANCH  40  63
ENDBRANCH  14  15
ENDBRANCH   7   9
ENDBRANCH   4   5
ENDBRANCH   3   4
ENDBRANCH   2   3
ENDBRANCH   1   2
BRANCH   1  74
ATOM     74  C   UNL A   1      35.804  22.409  26.238  1.00  0.00     0.021 C 
BRANCH  74  75
ATOM     75  C   UNL A   1      34.844  23.604  26.499  1.00  0.00     0.116 C 
BRANCH  75  76
ATOM     76  N   UNL A   1      34.686  24.430  25.292  1.00  0.00    -0.352 N 
ATOM     77  C   UNL A   1      33.971  25.560  24.902  1.00  0.00     0.255 C 
ATOM     78  H   UNL A   1      35.242  24.090  24.554  1.00  0.00     0.163 HD
ATOM     79  O   UNL A   1      34.074  26.214  23.866  1.00  0.00    -0.269 OA
BRANCH  77  80
ATOM     80  C   UNL A   1      33.200  26.280  25.825  1.00  0.00     0.081 A 
ATOM     81  C   UNL A   1      33.737  27.433  26.392  1.00  0.00     0.018 A 
ATOM     82  C   UNL A   1      31.968  25.738  26.067  1.00  0.00     0.132 A 
ATOM     83  C   UNL A   1      32.855  28.309  26.961  1.00  0.00     0.001 A 
ATOM     84  C   UNL A   1      31.049  26.686  26.490  1.00  0.00     0.047 A 
ATOM     85  C   UNL A   1      31.496  27.980  26.904  1.00  0.00     0.004 A 
BRANCH  82  86
ATOM     86  O   UNL A   1      31.717  24.413  25.732  1.00  0.00    -0.492 OA
BRANCH  86  87
ATOM     87  C   UNL A   1      30.649  24.126  24.674  1.00  0.00     0.243 C 
BRANCH  87  88
ATOM     88  C   UNL A   1      30.659  24.822  23.214  1.00  0.00     0.152 C 
BRANCH  88  89
ATOM     89  S   UNL A   1      31.142  26.716  22.610  1.00  0.00     0.056 S 
ATOM     90  O   UNL A   1      31.233  26.586  21.113  1.00  0.00    -0.254 OA
BRANCH  89  91
ATOM     91  C   UNL A   1      29.862  28.208  22.776  1.00  0.00     0.042 A 
ATOM     92  C   UNL A   1      28.579  27.869  23.252  1.00  0.00     0.018 A 
ATOM     93  C   UNL A   1      30.013  29.557  22.389  1.00  0.00     0.057 A 
ATOM     94  C   UNL A   1      27.476  28.739  23.102  1.00  0.00     0.004 A 
ATOM     95  C   UNL A   1      28.889  30.348  22.083  1.00  0.00     0.124 A 
ATOM     96  C   UNL A   1      27.614  29.945  22.425  1.00  0.00     0.039 A 
ATOM     97  F   UNL A   1      29.044  31.483  21.380  1.00  0.00    -0.207 F 
ENDBRANCH  89  91
ENDBRANCH  88  89
ENDBRANCH  87  88
ENDBRANCH  86  87
ENDBRANCH  82  86
ENDBRANCH  77  80
ENDBRANCH  75  76
ENDBRANCH  74  75
ENDBRANCH   1  74
TORSDOF 21
ENDMDL
MODEL 3
REMARK VINA RESULT:     -11.8      1.168      7.488
REMARK SMILES O=C(NCCCCCCNC(=O)c1ccccc1OCC[S@@](=O)c1cccc(F)c1)c1ccc(-c2c3nc(c(-c4cccc(S(=O)(=O)[O-])c4F)c4ccc([nH]4)c(-c4cccc(S(=O)(=O)[O-])c4F)c4nc(c(-c5cccc(S(=O)(=O)[O-])c5F)c5ccc2[nH]5)C=C4)C=C3)cc1
REMARK SMILES IDX 7 1 6 2 5 3 4 4 3 5 1 6 2 7 31 9 32 10 93 11 33 12 92 13
REMARK SMILES IDX 34 14 35 15 36 16 86 17 37 18 91 19 85 20 87 21 38 22 90 23
REMARK SMILES IDX 84 24 83 25 39 27 71 28 51 29 70 30 52 31 55 32 69 33 88 34
REMARK SMILES IDX 53 35 54 36 68 38 89 39 56 40 40 41 41 42 49 43 42 44 44 45
REMARK SMILES IDX 50 46 43 47 45 48 46 49 47 50 48 51 72 52 73 53 81 54 74 55
REMARK SMILES IDX 76 56 82 57 75 58 77 59 78 60 79 61 80 62 57 63 58 64 66 65
REMARK SMILES IDX 59 66 61 67 67 68 60 69 62 70 63 71 64 72 65 73 8 74 9 75
REMARK SMILES IDX 10 76 11 77 12 79 13 80 14 81 18 82 15 83 17 84 16 85 19 86
REMARK SMILES IDX 20 87 21 88 22 89 23 90 24 91 25 92 30 93 26 94 28 95 27 96
REMARK SMILES IDX 29 97
REMARK H PARENT 3 8 87 26 55 37 10 78
REMARK Flexibility Score: inf
ROOT
ATOM      1  C   UNL A   1      37.222  22.004  25.032  1.00  0.00     0.002 C 
ENDROOT
BRANCH   1   2
ATOM      2  C   UNL A   1      36.938  20.505  24.859  1.00  0.00     0.002 C 
BRANCH   2   3
ATOM      3  C   UNL A   1      38.168  19.616  25.054  1.00  0.00     0.021 C 
BRANCH   3   4
ATOM      4  C   UNL A   1      39.249  20.223  25.940  1.00  0.00     0.116 C 
BRANCH   4   5
ATOM      5  N   UNL A   1      40.396  19.347  26.128  1.00  0.00    -0.352 N 
ATOM      6  O   UNL A   1      42.611  18.942  26.441  1.00  0.00    -0.269 OA
ATOM      7  C   UNL A   1      41.676  19.741  26.443  1.00  0.00     0.251 C 
ATOM      8  H   UNL A   1      40.241  18.381  26.018  1.00  0.00     0.163 HD
BRANCH   7   9
ATOM      9  C   UNL A   1      41.896  21.168  26.752  1.00  0.00     0.039 A 
ATOM     10  C   UNL A   1      41.921  22.096  25.705  1.00  0.00     0.014 A 
ATOM     11  C   UNL A   1      42.198  21.556  28.058  1.00  0.00     0.014 A 
ATOM     12  C   UNL A   1      42.371  23.387  25.946  1.00  0.00     0.010 A 
ATOM     13  C   UNL A   1      42.570  22.877  28.310  1.00  0.00     0.010 A 
ATOM     14  C   UNL A   1      42.683  23.797  27.253  1.00  0.00    -0.014 A 
BRANCH  14  15
ATOM     15  C   UNL A   1      43.017  25.219  27.509  1.00  0.00     0.031 A 
ATOM     16  C   UNL A   1      44.410  25.749  27.324  1.00  0.00     0.074 A 
ATOM     17  C   UNL A   1      42.036  26.024  27.958  1.00  0.00     0.049 A 
ATOM     18  N   UNL A   1      44.864  26.956  27.547  1.00  0.00    -0.248 NA
ATOM     19  C   UNL A   1      45.429  24.807  26.834  1.00  0.00     0.031 C 
ATOM     20  C   UNL A   1      40.660  25.595  28.225  1.00  0.00     0.029 A 
ATOM     21  N   UNL A   1      42.040  27.353  28.289  1.00  0.00    -0.354 N 
ATOM     22  C   UNL A   1      46.227  26.910  27.275  1.00  0.00     0.074 A 
ATOM     23  C   UNL A   1      46.526  25.554  26.865  1.00  0.00     0.031 C 
ATOM     24  C   UNL A   1      39.953  26.639  28.676  1.00  0.00     0.029 A 
ATOM     25  C   UNL A   1      40.836  27.792  28.788  1.00  0.00     0.049 A 
ATOM     26  H   UNL A   1      42.827  27.936  28.182  1.00  0.00     0.167 HD
ATOM     27  C   UNL A   1      47.137  27.911  27.353  1.00  0.00     0.034 A 
ATOM     28  C   UNL A   1      40.484  28.981  29.312  1.00  0.00     0.034 A 
ATOM     29  C   UNL A   1      46.815  29.263  27.731  1.00  0.00     0.049 A 
ATOM     30  C   UNL A   1      41.502  30.079  29.355  1.00  0.00     0.074 A 
ATOM     31  C   UNL A   1      47.646  30.370  27.760  1.00  0.00     0.029 A 
ATOM     32  N   UNL A   1      45.566  29.691  28.162  1.00  0.00    -0.354 N 
ATOM     33  N   UNL A   1      42.752  30.054  28.959  1.00  0.00    -0.248 NA
ATOM     34  C   UNL A   1      41.060  31.373  29.887  1.00  0.00     0.031 C 
ATOM     35  C   UNL A   1      46.906  31.461  28.229  1.00  0.00     0.029 A 
ATOM     36  C   UNL A   1      45.607  31.041  28.472  1.00  0.00     0.049 A 
ATOM     37  H   UNL A   1      44.769  29.119  28.235  1.00  0.00     0.167 HD
ATOM     38  C   UNL A   1      43.244  31.334  29.178  1.00  0.00     0.074 A 
ATOM     39  C   UNL A   1      42.148  32.115  29.716  1.00  0.00     0.031 C 
ATOM     40  C   UNL A   1      44.496  31.812  28.970  1.00  0.00     0.034 A 
BRANCH  27  41
ATOM     41  C   UNL A   1      48.568  27.593  26.997  1.00  0.00     0.023 A 
ATOM     42  C   UNL A   1      49.443  27.109  27.990  1.00  0.00     0.012 A 
ATOM     43  C   UNL A   1      49.031  27.716  25.672  1.00  0.00     0.148 A 
ATOM     44  C   UNL A   1      50.763  26.784  27.679  1.00  0.00     0.002 A 
ATOM     45  C   UNL A   1      50.338  27.354  25.361  1.00  0.00     0.091 A 
ATOM     46  F   UNL A   1      48.195  28.198  24.742  1.00  0.00    -0.205 F 
ATOM     47  C   UNL A   1      51.208  26.898  26.364  1.00  0.00     0.022 A 
BRANCH  45  48
ATOM     48  S   UNL A   1      50.975  27.398  23.680  1.00  0.00     0.127 S 
ATOM     49  O   UNL A   1      49.919  26.703  22.946  1.00  0.00    -0.237 OA
ATOM     50  O   UNL A   1      51.057  28.835  23.415  1.00  0.00    -0.237 OA
ATOM     51  O   UNL A   1      52.263  26.721  23.728  1.00  0.00    -0.744 OA
ENDBRANCH  45  48
ENDBRANCH  27  41
BRANCH  28  52
ATOM     52  C   UNL A   1      39.092  29.168  29.804  1.00  0.00     0.023 A 
ATOM     53  C   UNL A   1      38.768  28.804  31.124  1.00  0.00     0.012 A 
ATOM     54  C   UNL A   1      38.123  29.804  29.004  1.00  0.00     0.148 A 
ATOM     55  C   UNL A   1      37.494  29.063  31.635  1.00  0.00     0.002 A 
ATOM     56  C   UNL A   1      36.879  30.114  29.540  1.00  0.00     0.091 A 
ATOM     57  F   UNL A   1      38.452  30.131  27.746  1.00  0.00    -0.205 F 
ATOM     58  C   UNL A   1      36.558  29.732  30.851  1.00  0.00     0.022 A 
BRANCH  56  59
ATOM     59  S   UNL A   1      35.676  31.112  28.653  1.00  0.00     0.127 S 
ATOM     60  O   UNL A   1      36.528  32.114  28.019  1.00  0.00    -0.237 OA
ATOM     61  O   UNL A   1      35.088  30.134  27.737  1.00  0.00    -0.237 OA
ATOM     62  O   UNL A   1      34.757  31.609  29.667  1.00  0.00    -0.744 OA
ENDBRANCH  56  59
ENDBRANCH  28  52
BRANCH  40  63
ATOM     63  C   UNL A   1      44.747  33.255  29.313  1.00  0.00     0.023 A 
ATOM     64  C   UNL A   1      45.170  33.598  30.612  1.00  0.00     0.012 A 
ATOM     65  C   UNL A   1      44.635  34.259  28.332  1.00  0.00     0.148 A 
ATOM     66  C   UNL A   1      45.453  34.924  30.937  1.00  0.00     0.002 A 
ATOM     67  C   UNL A   1      44.962  35.572  28.651  1.00  0.00     0.091 A 
ATOM     68  F   UNL A   1      44.210  33.912  27.108  1.00  0.00    -0.205 F 
ATOM     69  C   UNL A   1      45.362  35.907  29.955  1.00  0.00     0.022 A 
BRANCH  67  70
ATOM     70  S   UNL A   1      44.960  36.887  27.428  1.00  0.00     0.127 S 
ATOM     71  O   UNL A   1      45.350  38.043  28.232  1.00  0.00    -0.237 OA
ATOM     72  O   UNL A   1      45.978  36.431  26.480  1.00  0.00    -0.237 OA
ATOM     73  O   UNL A   1      43.608  36.928  26.886  1.00  0.00    -0.744 OA
ENDBRANCH  67  70
ENDBRANCH  40  63
ENDBRANCH  14  15
ENDBRANCH   7   9
ENDBRANCH   4   5
ENDBRANCH   3   4
ENDBRANCH   2   3
ENDBRANCH   1   2
BRANCH   1  74
ATOM     74  C   UNL A   1      36.158  22.816  25.812  1.00  0.00     0.021 C 
BRANCH  74  75
ATOM     75  C   UNL A   1      35.897  24.286  25.378  1.00  0.00     0.116 C 
BRANCH  75  76
ATOM     76  N   UNL A   1      34.858  24.357  24.339  1.00  0.00    -0.352 N 
ATOM     77  C   UNL A   1      33.675  25.055  24.110  1.00  0.00     0.255 C 
ATOM     78  H   UNL A   1      35.055  23.738  23.599  1.00  0.00     0.163 HD
ATOM     79  O   UNL A   1      32.990  25.090  23.090  1.00  0.00    -0.269 OA
BRANCH  77  80
ATOM     80  C   UNL A   1      33.257  26.072  24.978  1.00  0.00     0.081 A 
ATOM     81  C   UNL A   1      33.646  27.382  24.712  1.00  0.00     0.018 A 
ATOM     82  C   UNL A   1      32.493  25.635  26.024  1.00  0.00     0.132 A 
ATOM     83  C   UNL A   1      32.925  28.374  25.316  1.00  0.00     0.001 A 
ATOM     84  C   UNL A   1      31.653  26.624  26.513  1.00  0.00     0.047 A 
ATOM     85  C   UNL A   1      31.854  27.987  26.129  1.00  0.00     0.004 A 
BRANCH  82  86
ATOM     86  O   UNL A   1      32.501  24.290  26.373  1.00  0.00    -0.492 OA
BRANCH  86  87
ATOM     87  C   UNL A   1      31.319  23.423  25.934  1.00  0.00     0.243 C 
BRANCH  87  88
ATOM     88  C   UNL A   1      31.508  21.941  25.313  1.00  0.00     0.152 C 
BRANCH  88  89
ATOM     89  S   UNL A   1      33.160  20.754  25.095  1.00  0.00     0.056 S 
ATOM     90  O   UNL A   1      33.731  20.703  26.487  1.00  0.00    -0.254 OA
BRANCH  89  91
ATOM     91  C   UNL A   1      32.999  18.830  24.689  1.00  0.00     0.042 A 
ATOM     92  C   UNL A   1      32.528  18.016  25.738  1.00  0.00     0.018 A 
ATOM     93  C   UNL A   1      33.387  18.131  23.526  1.00  0.00     0.057 A 
ATOM     94  C   UNL A   1      32.682  16.611  25.718  1.00  0.00     0.004 A 
ATOM     95  C   UNL A   1      33.698  16.760  23.579  1.00  0.00     0.124 A 
ATOM     96  C   UNL A   1      33.360  15.991  24.675  1.00  0.00     0.039 A 
ATOM     97  F   UNL A   1      34.402  16.195  22.584  1.00  0.00    -0.207 F 
ENDBRANCH  89  91
ENDBRANCH  88  89
ENDBRANCH  87  88
ENDBRANCH  86  87
ENDBRANCH  82  86
ENDBRANCH  77  80
ENDBRANCH  75  76
ENDBRANCH  74  75
ENDBRANCH   1  74
TORSDOF 21
ENDMDL
