MODEL 1
REMARK VINA RESULT:     -11.6      0.000      0.000
REMARK SMILES C[C@H](C(=O)NCCCCCCNC(=O)c1ccc(-c2c3nc(c(-c4cccc(S(=O)(=O)[O-])c4F)c4ccc([nH]4)c(-c4cccc(S(=O)(=O)[O-])c4F)c4nc(c(-c5cccc(S(=O)(=O)[O-])c5F)c5ccc2[nH]5)C=C4)C=C3)cc1)c1ccc2c(c1)OCCO2
REMARK SMILES IDX 9 1 8 2 7 3 6 4 5 5 3 6 4 7 2 9 1 10 78 11 79 12 83 13 80 14
REMARK SMILES IDX 82 15 81 16 84 17 87 18 85 19 86 20 10 21 11 22 12 23 13 24
REMARK SMILES IDX 14 26 15 27 16 28 77 29 17 30 76 31 18 32 19 33 20 34 70 35
REMARK SMILES IDX 21 36 75 37 69 38 71 39 22 40 74 41 68 42 67 43 23 45 55 46
REMARK SMILES IDX 35 47 54 48 36 49 39 50 53 51 72 52 37 53 38 54 52 56 73 57
REMARK SMILES IDX 40 58 24 59 25 60 33 61 26 62 28 63 34 64 27 65 29 66 30 67
REMARK SMILES IDX 31 68 32 69 56 70 57 71 65 72 58 73 60 74 66 75 59 76 61 77
REMARK SMILES IDX 62 78 63 79 64 80 41 81 42 82 50 83 43 84 45 85 51 86 44 87
REMARK SMILES IDX 46 88 47 89 48 90 49 91
REMARK H PARENT 5 8 12 25 71 44 39 55
REMARK Flexibility Score: inf
ROOT
ATOM      1  C   UNL A   1      31.990  30.309  26.135  1.00  0.00     0.002 C 
ENDROOT
BRANCH   1   2
ATOM      2  C   UNL A   1      31.452  29.167  27.004  1.00  0.00     0.002 C 
BRANCH   2   3
ATOM      3  C   UNL A   1      32.508  28.181  27.528  1.00  0.00     0.021 C 
BRANCH   3   4
ATOM      4  C   UNL A   1      33.858  28.260  26.808  1.00  0.00     0.116 C 
BRANCH   4   5
ATOM      5  N   UNL A   1      34.040  27.140  25.898  1.00  0.00    -0.356 N 
ATOM      6  C   UNL A   1      33.749  27.018  24.568  1.00  0.00     0.227 C 
ATOM      7  O   UNL A   1      33.938  25.915  24.046  1.00  0.00    -0.274 OA
ATOM      8  H   UNL A   1      34.439  26.338  26.307  1.00  0.00     0.163 HD
BRANCH   6   9
ATOM      9  C   UNL A   1      33.200  28.217  23.768  1.00  0.00     0.105 C 
ATOM     10  C   UNL A   1      34.109  28.541  22.583  1.00  0.00     0.023 C 
BRANCH   9  11
ATOM     11  C   UNL A   1      31.766  27.961  23.329  1.00  0.00    -0.032 A 
ATOM     12  C   UNL A   1      30.901  27.138  24.075  1.00  0.00     0.008 A 
ATOM     13  C   UNL A   1      31.244  28.725  22.278  1.00  0.00     0.055 A 
ATOM     14  C   UNL A   1      29.521  27.215  23.886  1.00  0.00     0.051 A 
ATOM     15  C   UNL A   1      29.872  28.894  22.178  1.00  0.00     0.161 A 
ATOM     16  C   UNL A   1      29.018  28.167  23.007  1.00  0.00     0.161 A 
ATOM     17  O   UNL A   1      29.449  29.902  21.360  1.00  0.00    -0.486 OA
ATOM     18  O   UNL A   1      27.687  28.489  23.094  1.00  0.00    -0.486 OA
ATOM     19  C   UNL A   1      28.170  30.440  21.726  1.00  0.00     0.271 C 
ATOM     20  C   UNL A   1      27.627  29.923  23.055  1.00  0.00     0.271 C 
ENDBRANCH   9  11
ENDBRANCH   6   9
ENDBRANCH   4   5
ENDBRANCH   3   4
ENDBRANCH   2   3
ENDBRANCH   1   2
BRANCH   1  21
ATOM     21  C   UNL A   1      31.703  31.723  26.648  1.00  0.00     0.021 C 
BRANCH  21  22
ATOM     22  C   UNL A   1      32.899  32.444  27.268  1.00  0.00     0.116 C 
BRANCH  22  23
ATOM     23  N   UNL A   1      32.605  33.834  27.585  1.00  0.00    -0.352 N 
ATOM     24  C   UNL A   1      33.118  34.637  28.573  1.00  0.00     0.251 C 
ATOM     25  H   UNL A   1      31.938  34.264  27.002  1.00  0.00     0.163 HD
ATOM     26  O   UNL A   1      32.598  35.732  28.799  1.00  0.00    -0.269 OA
BRANCH  24  27
ATOM     27  C   UNL A   1      34.276  34.193  29.379  1.00  0.00     0.039 A 
ATOM     28  C   UNL A   1      34.059  33.335  30.460  1.00  0.00     0.014 A 
ATOM     29  C   UNL A   1      35.572  34.625  29.080  1.00  0.00     0.014 A 
ATOM     30  C   UNL A   1      35.146  32.850  31.192  1.00  0.00     0.010 A 
ATOM     31  C   UNL A   1      36.660  34.087  29.768  1.00  0.00     0.010 A 
ATOM     32  C   UNL A   1      36.460  33.186  30.825  1.00  0.00    -0.014 A 
BRANCH  32  33
ATOM     33  C   UNL A   1      37.628  32.557  31.497  1.00  0.00     0.031 A 
ATOM     34  C   UNL A   1      38.357  31.403  30.861  1.00  0.00     0.074 A 
ATOM     35  C   UNL A   1      37.977  32.971  32.733  1.00  0.00     0.049 A 
ATOM     36  N   UNL A   1      39.361  30.708  31.330  1.00  0.00    -0.248 NA
ATOM     37  C   UNL A   1      37.890  30.961  29.537  1.00  0.00     0.031 C 
ATOM     38  C   UNL A   1      37.299  34.025  33.493  1.00  0.00     0.029 A 
ATOM     39  N   UNL A   1      38.967  32.538  33.582  1.00  0.00    -0.354 N 
ATOM     40  C   UNL A   1      39.622  29.725  30.382  1.00  0.00     0.074 A 
ATOM     41  C   UNL A   1      38.660  29.903  29.316  1.00  0.00     0.031 C 
ATOM     42  C   UNL A   1      37.889  34.153  34.693  1.00  0.00     0.029 A 
ATOM     43  C   UNL A   1      38.961  33.171  34.805  1.00  0.00     0.049 A 
ATOM     44  H   UNL A   1      39.618  31.841  33.338  1.00  0.00     0.167 HD
ATOM     45  C   UNL A   1      40.588  28.776  30.389  1.00  0.00     0.034 A 
ATOM     46  C   UNL A   1      39.718  32.969  35.902  1.00  0.00     0.034 A 
ATOM     47  C   UNL A   1      41.570  28.626  31.430  1.00  0.00     0.049 A 
ATOM     48  C   UNL A   1      40.801  31.924  35.863  1.00  0.00     0.074 A 
ATOM     49  C   UNL A   1      42.650  27.762  31.471  1.00  0.00     0.029 A 
ATOM     50  N   UNL A   1      41.583  29.338  32.618  1.00  0.00    -0.354 N 
ATOM     51  N   UNL A   1      41.146  31.129  34.881  1.00  0.00    -0.248 NA
ATOM     52  C   UNL A   1      41.620  31.771  37.075  1.00  0.00     0.031 C 
ATOM     53  C   UNL A   1      43.294  27.923  32.702  1.00  0.00     0.029 A 
ATOM     54  C   UNL A   1      42.638  28.915  33.410  1.00  0.00     0.049 A 
ATOM     55  H   UNL A   1      40.938  30.040  32.863  1.00  0.00     0.167 HD
ATOM     56  C   UNL A   1      42.241  30.407  35.342  1.00  0.00     0.074 A 
ATOM     57  C   UNL A   1      42.521  30.881  36.681  1.00  0.00     0.031 C 
ATOM     58  C   UNL A   1      42.940  29.427  34.721  1.00  0.00     0.034 A 
BRANCH  45  59
ATOM     59  C   UNL A   1      40.673  27.836  29.215  1.00  0.00     0.023 A 
ATOM     60  C   UNL A   1      39.793  26.738  29.135  1.00  0.00     0.012 A 
ATOM     61  C   UNL A   1      41.540  28.107  28.139  1.00  0.00     0.148 A 
ATOM     62  C   UNL A   1      39.787  25.914  28.010  1.00  0.00     0.002 A 
ATOM     63  C   UNL A   1      41.496  27.309  27.001  1.00  0.00     0.091 A 
ATOM     64  F   UNL A   1      42.379  29.148  28.242  1.00  0.00    -0.205 F 
ATOM     65  C   UNL A   1      40.627  26.207  26.940  1.00  0.00     0.022 A 
BRANCH  63  66
ATOM     66  S   UNL A   1      42.477  27.651  25.535  1.00  0.00     0.127 S 
ATOM     67  O   UNL A   1      43.829  27.699  26.091  1.00  0.00    -0.237 OA
ATOM     68  O   UNL A   1      42.201  26.480  24.704  1.00  0.00    -0.237 OA
ATOM     69  O   UNL A   1      41.982  28.913  25.002  1.00  0.00    -0.744 OA
ENDBRANCH  63  66
ENDBRANCH  45  59
BRANCH  46  70
ATOM     70  C   UNL A   1      39.502  33.790  37.128  1.00  0.00     0.023 A 
ATOM     71  C   UNL A   1      40.052  35.086  37.205  1.00  0.00     0.012 A 
ATOM     72  C   UNL A   1      38.768  33.292  38.221  1.00  0.00     0.148 A 
ATOM     73  C   UNL A   1      39.915  35.848  38.367  1.00  0.00     0.002 A 
ATOM     74  C   UNL A   1      38.581  34.081  39.349  1.00  0.00     0.091 A 
ATOM     75  F   UNL A   1      38.264  32.052  38.136  1.00  0.00    -0.205 F 
ATOM     76  C   UNL A   1      39.173  35.349  39.434  1.00  0.00     0.022 A 
BRANCH  74  77
ATOM     77  S   UNL A   1      37.525  33.570  40.709  1.00  0.00     0.127 S 
ATOM     78  O   UNL A   1      37.329  34.826  41.425  1.00  0.00    -0.237 OA
ATOM     79  O   UNL A   1      36.344  33.068  40.005  1.00  0.00    -0.237 OA
ATOM     80  O   UNL A   1      38.276  32.542  41.420  1.00  0.00    -0.744 OA
ENDBRANCH  74  77
ENDBRANCH  46  70
BRANCH  58  81
ATOM     81  C   UNL A   1      44.102  28.819  35.462  1.00  0.00     0.023 A 
ATOM     82  C   UNL A   1      45.397  29.353  35.299  1.00  0.00     0.012 A 
ATOM     83  C   UNL A   1      43.901  27.760  36.369  1.00  0.00     0.148 A 
ATOM     84  C   UNL A   1      46.478  28.818  35.998  1.00  0.00     0.002 A 
ATOM     85  C   UNL A   1      44.974  27.268  37.103  1.00  0.00     0.091 A 
ATOM     86  F   UNL A   1      42.665  27.255  36.499  1.00  0.00    -0.205 F 
ATOM     87  C   UNL A   1      46.265  27.784  36.907  1.00  0.00     0.022 A 
BRANCH  85  88
ATOM     88  S   UNL A   1      44.781  26.006  38.366  1.00  0.00     0.127 S 
ATOM     89  O   UNL A   1      43.668  26.537  39.151  1.00  0.00    -0.237 OA
ATOM     90  O   UNL A   1      44.456  24.821  37.571  1.00  0.00    -0.237 OA
ATOM     91  O   UNL A   1      46.057  25.934  39.064  1.00  0.00    -0.744 OA
ENDBRANCH  85  88
ENDBRANCH  58  81
ENDBRANCH  32  33
ENDBRANCH  24  27
ENDBRANCH  22  23
ENDBRANCH  21  22
ENDBRANCH   1  21
TORSDOF 17
ENDMDL
MODEL 2
REMARK VINA RESULT:     -11.3      1.774      2.306
REMARK SMILES C[C@H](C(=O)NCCCCCCNC(=O)c1ccc(-c2c3nc(c(-c4cccc(S(=O)(=O)[O-])c4F)c4ccc([nH]4)c(-c4cccc(S(=O)(=O)[O-])c4F)c4nc(c(-c5cccc(S(=O)(=O)[O-])c5F)c5ccc2[nH]5)C=C4)C=C3)cc1)c1ccc2c(c1)OCCO2
REMARK SMILES IDX 9 1 8 2 7 3 6 4 5 5 3 6 4 7 2 9 1 10 78 11 79 12 83 13 80 14
REMARK SMILES IDX 82 15 81 16 84 17 87 18 85 19 86 20 10 21 11 22 12 23 13 24
REMARK SMILES IDX 14 26 15 27 16 28 77 29 17 30 76 31 18 32 19 33 20 34 70 35
REMARK SMILES IDX 21 36 75 37 69 38 71 39 22 40 74 41 68 42 67 43 23 45 55 46
REMARK SMILES IDX 35 47 54 48 36 49 39 50 53 51 72 52 37 53 38 54 52 56 73 57
REMARK SMILES IDX 40 58 24 59 25 60 33 61 26 62 28 63 34 64 27 65 29 66 30 67
REMARK SMILES IDX 31 68 32 69 56 70 57 71 65 72 58 73 60 74 66 75 59 76 61 77
REMARK SMILES IDX 62 78 63 79 64 80 41 81 42 82 50 83 43 84 45 85 51 86 44 87
REMARK SMILES IDX 46 88 47 89 48 90 49 91
REMARK H PARENT 5 8 12 25 71 44 39 55
REMARK Flexibility Score: inf
ROOT
ATOM      1  C   UNL A   1      30.925  30.800  25.497  1.00  0.00     0.002 C 
ENDROOT
BRANCH   1   2
ATOM      2  C   UNL A   1      31.797  29.742  26.183  1.00  0.00     0.002 C 
BRANCH   2   3
ATOM      3  C   UNL A   1      32.702  28.925  25.248  1.00  0.00     0.021 C 
BRANCH   3   4
ATOM      4  C   UNL A   1      33.034  27.519  25.760  1.00  0.00     0.116 C 
BRANCH   4   5
ATOM      5  N   UNL A   1      31.851  26.849  26.276  1.00  0.00    -0.356 N 
ATOM      6  C   UNL A   1      30.817  26.239  25.622  1.00  0.00     0.227 C 
ATOM      7  O   UNL A   1      29.888  25.807  26.311  1.00  0.00    -0.274 OA
ATOM      8  H   UNL A   1      31.784  26.831  27.259  1.00  0.00     0.163 HD
BRANCH   6   9
ATOM      9  C   UNL A   1      30.824  26.109  24.085  1.00  0.00     0.105 C 
ATOM     10  C   UNL A   1      30.738  24.644  23.664  1.00  0.00     0.023 C 
BRANCH   9  11
ATOM     11  C   UNL A   1      29.710  26.943  23.470  1.00  0.00    -0.032 A 
ATOM     12  C   UNL A   1      28.364  26.768  23.842  1.00  0.00     0.008 A 
ATOM     13  C   UNL A   1      30.061  28.042  22.674  1.00  0.00     0.055 A 
ATOM     14  C   UNL A   1      27.425  27.764  23.572  1.00  0.00     0.051 A 
ATOM     15  C   UNL A   1      29.160  29.082  22.519  1.00  0.00     0.161 A 
ATOM     16  C   UNL A   1      27.858  28.954  23.001  1.00  0.00     0.161 A 
ATOM     17  O   UNL A   1      29.670  30.251  22.029  1.00  0.00    -0.486 OA
ATOM     18  O   UNL A   1      27.029  30.046  23.073  1.00  0.00    -0.486 OA
ATOM     19  C   UNL A   1      28.936  31.413  22.438  1.00  0.00     0.271 C 
ATOM     20  C   UNL A   1      27.859  31.142  23.485  1.00  0.00     0.271 C 
ENDBRANCH   9  11
ENDBRANCH   6   9
ENDBRANCH   4   5
ENDBRANCH   3   4
ENDBRANCH   2   3
ENDBRANCH   1   2
BRANCH   1  21
ATOM     21  C   UNL A   1      31.057  32.224  26.046  1.00  0.00     0.021 C 
BRANCH  21  22
ATOM     22  C   UNL A   1      32.337  32.499  26.833  1.00  0.00     0.116 C 
BRANCH  22  23
ATOM     23  N   UNL A   1      32.357  33.838  27.407  1.00  0.00    -0.352 N 
ATOM     24  C   UNL A   1      33.180  34.368  28.369  1.00  0.00     0.251 C 
ATOM     25  H   UNL A   1      31.678  34.455  27.052  1.00  0.00     0.163 HD
ATOM     26  O   UNL A   1      32.912  35.466  28.861  1.00  0.00    -0.269 OA
BRANCH  24  27
ATOM     27  C   UNL A   1      34.373  33.626  28.832  1.00  0.00     0.039 A 
ATOM     28  C   UNL A   1      35.639  34.174  28.608  1.00  0.00     0.014 A 
ATOM     29  C   UNL A   1      34.251  32.392  29.477  1.00  0.00     0.014 A 
ATOM     30  C   UNL A   1      36.774  33.523  29.098  1.00  0.00     0.010 A 
ATOM     31  C   UNL A   1      35.378  31.779  30.024  1.00  0.00     0.010 A 
ATOM     32  C   UNL A   1      36.651  32.342  29.848  1.00  0.00    -0.014 A 
BRANCH  32  33
ATOM     33  C   UNL A   1      37.835  31.724  30.505  1.00  0.00     0.031 A 
ATOM     34  C   UNL A   1      38.634  30.654  29.809  1.00  0.00     0.074 A 
ATOM     35  C   UNL A   1      38.135  32.067  31.774  1.00  0.00     0.049 A 
ATOM     36  N   UNL A   1      39.660  29.976  30.255  1.00  0.00    -0.248 NA
ATOM     37  C   UNL A   1      38.218  30.283  28.447  1.00  0.00     0.031 C 
ATOM     38  C   UNL A   1      37.390  33.031  32.588  1.00  0.00     0.029 A 
ATOM     39  N   UNL A   1      39.127  31.624  32.617  1.00  0.00    -0.354 N 
ATOM     40  C   UNL A   1      39.991  29.077  29.248  1.00  0.00     0.074 A 
ATOM     41  C   UNL A   1      39.045  29.282  28.174  1.00  0.00     0.031 C 
ATOM     42  C   UNL A   1      37.946  33.103  33.808  1.00  0.00     0.029 A 
ATOM     43  C   UNL A   1      39.063  32.168  33.879  1.00  0.00     0.049 A 
ATOM     44  H   UNL A   1      39.817  30.978  32.342  1.00  0.00     0.167 HD
ATOM     45  C   UNL A   1      41.002  28.176  29.214  1.00  0.00     0.034 A 
ATOM     46  C   UNL A   1      39.804  31.928  34.980  1.00  0.00     0.034 A 
ATOM     47  C   UNL A   1      41.967  28.001  30.268  1.00  0.00     0.049 A 
ATOM     48  C   UNL A   1      40.939  30.940  34.896  1.00  0.00     0.074 A 
ATOM     49  C   UNL A   1      43.088  27.189  30.276  1.00  0.00     0.029 A 
ATOM     50  N   UNL A   1      41.919  28.629  31.501  1.00  0.00    -0.354 N 
ATOM     51  N   UNL A   1      41.344  30.234  33.870  1.00  0.00    -0.248 NA
ATOM     52  C   UNL A   1      41.738  30.743  36.115  1.00  0.00     0.031 C 
ATOM     53  C   UNL A   1      43.696  27.295  31.531  1.00  0.00     0.029 A 
ATOM     54  C   UNL A   1      42.976  28.203  32.289  1.00  0.00     0.049 A 
ATOM     55  H   UNL A   1      41.235  29.280  31.778  1.00  0.00     0.167 HD
ATOM     56  C   UNL A   1      42.464  29.535  34.309  1.00  0.00     0.074 A 
ATOM     57  C   UNL A   1      42.690  29.927  35.684  1.00  0.00     0.031 C 
ATOM     58  C   UNL A   1      43.224  28.635  33.639  1.00  0.00     0.034 A 
BRANCH  45  59
ATOM     59  C   UNL A   1      41.160  27.326  27.982  1.00  0.00     0.023 A 
ATOM     60  C   UNL A   1      41.789  27.861  26.840  1.00  0.00     0.012 A 
ATOM     61  C   UNL A   1      40.793  25.965  27.996  1.00  0.00     0.148 A 
ATOM     62  C   UNL A   1      42.036  27.061  25.725  1.00  0.00     0.002 A 
ATOM     63  C   UNL A   1      41.083  25.162  26.899  1.00  0.00     0.091 A 
ATOM     64  F   UNL A   1      40.182  25.481  29.087  1.00  0.00    -0.205 F 
ATOM     65  C   UNL A   1      41.695  25.711  25.760  1.00  0.00     0.022 A 
BRANCH  63  66
ATOM     66  S   UNL A   1      40.761  23.395  26.875  1.00  0.00     0.127 S 
ATOM     67  O   UNL A   1      39.317  23.362  26.649  1.00  0.00    -0.237 OA
ATOM     68  O   UNL A   1      41.567  22.954  25.736  1.00  0.00    -0.237 OA
ATOM     69  O   UNL A   1      41.197  22.887  28.168  1.00  0.00    -0.744 OA
ENDBRANCH  63  66
ENDBRANCH  45  59
BRANCH  46  70
ATOM     70  C   UNL A   1      39.522  32.650  36.253  1.00  0.00     0.023 A 
ATOM     71  C   UNL A   1      40.214  33.841  36.548  1.00  0.00     0.012 A 
ATOM     72  C   UNL A   1      38.581  32.157  37.178  1.00  0.00     0.148 A 
ATOM     73  C   UNL A   1      40.010  34.500  37.761  1.00  0.00     0.002 A 
ATOM     74  C   UNL A   1      38.336  32.853  38.355  1.00  0.00     0.091 A 
ATOM     75  F   UNL A   1      37.941  31.015  36.888  1.00  0.00    -0.205 F 
ATOM     76  C   UNL A   1      39.066  34.012  38.660  1.00  0.00     0.022 A 
BRANCH  74  77
ATOM     77  S   UNL A   1      37.041  32.368  39.500  1.00  0.00     0.127 S 
ATOM     78  O   UNL A   1      35.839  32.571  38.697  1.00  0.00    -0.237 OA
ATOM     79  O   UNL A   1      37.377  30.969  39.766  1.00  0.00    -0.237 OA
ATOM     80  O   UNL A   1      37.192  33.246  40.653  1.00  0.00    -0.744 OA
ENDBRANCH  74  77
ENDBRANCH  46  70
BRANCH  58  81
ATOM     81  C   UNL A   1      44.398  28.033  34.366  1.00  0.00     0.023 A 
ATOM     82  C   UNL A   1      45.648  28.686  34.344  1.00  0.00     0.012 A 
ATOM     83  C   UNL A   1      44.247  26.856  35.124  1.00  0.00     0.148 A 
ATOM     84  C   UNL A   1      46.737  28.155  35.033  1.00  0.00     0.002 A 
ATOM     85  C   UNL A   1      45.323  26.362  35.852  1.00  0.00     0.091 A 
ATOM     86  F   UNL A   1      43.055  26.241  35.120  1.00  0.00    -0.205 F 
ATOM     87  C   UNL A   1      46.572  27.001  35.796  1.00  0.00     0.022 A 
BRANCH  85  88
ATOM     88  S   UNL A   1      45.181  24.939  36.938  1.00  0.00     0.127 S 
ATOM     89  O   UNL A   1      45.457  23.835  36.021  1.00  0.00    -0.237 OA
ATOM     90  O   UNL A   1      46.235  25.194  37.921  1.00  0.00    -0.237 OA
ATOM     91  O   UNL A   1      43.829  24.976  37.478  1.00  0.00    -0.744 OA
ENDBRANCH  85  88
ENDBRANCH  58  81
ENDBRANCH  32  33
ENDBRANCH  24  27
ENDBRANCH  22  23
ENDBRANCH  21  22
ENDBRANCH   1  21
TORSDOF 17
ENDMDL
MODEL 3
REMARK VINA RESULT:     -11.2      0.573      7.852
REMARK SMILES C[C@H](C(=O)NCCCCCCNC(=O)c1ccc(-c2c3nc(c(-c4cccc(S(=O)(=O)[O-])c4F)c4ccc([nH]4)c(-c4cccc(S(=O)(=O)[O-])c4F)c4nc(c(-c5cccc(S(=O)(=O)[O-])c5F)c5ccc2[nH]5)C=C4)C=C3)cc1)c1ccc2c(c1)OCCO2
REMARK SMILES IDX 9 1 8 2 7 3 6 4 5 5 3 6 4 7 2 9 1 10 78 11 79 12 83 13 80 14
REMARK SMILES IDX 82 15 81 16 84 17 87 18 85 19 86 20 10 21 11 22 12 23 13 24
REMARK SMILES IDX 14 26 15 27 16 28 77 29 17 30 76 31 18 32 19 33 20 34 70 35
REMARK SMILES IDX 21 36 75 37 69 38 71 39 22 40 74 41 68 42 67 43 23 45 55 46
REMARK SMILES IDX 35 47 54 48 36 49 39 50 53 51 72 52 37 53 38 54 52 56 73 57
REMARK SMILES IDX 40 58 24 59 25 60 33 61 26 62 28 63 34 64 27 65 29 66 30 67
REMARK SMILES IDX 31 68 32 69 56 70 57 71 65 72 58 73 60 74 66 75 59 76 61 77
REMARK SMILES IDX 62 78 63 79 64 80 41 81 42 82 50 83 43 84 45 85 51 86 44 87
REMARK SMILES IDX 46 88 47 89 48 90 49 91
REMARK H PARENT 5 8 12 25 71 44 39 55
REMARK Flexibility Score: inf
ROOT
ATOM      1  C   UNL A   1      31.956  30.387  26.246  1.00  0.00     0.002 C 
ENDROOT
BRANCH   1   2
ATOM      2  C   UNL A   1      31.452  29.268  27.165  1.00  0.00     0.002 C 
BRANCH   2   3
ATOM      3  C   UNL A   1      32.455  28.138  27.442  1.00  0.00     0.021 C 
BRANCH   3   4
ATOM      4  C   UNL A   1      33.776  28.264  26.676  1.00  0.00     0.116 C 
BRANCH   4   5
ATOM      5  N   UNL A   1      33.989  27.127  25.794  1.00  0.00    -0.356 N 
ATOM      6  C   UNL A   1      33.733  26.975  24.460  1.00  0.00     0.227 C 
ATOM      7  O   UNL A   1      33.943  25.862  23.966  1.00  0.00    -0.274 OA
ATOM      8  H   UNL A   1      34.381  26.336  26.231  1.00  0.00     0.163 HD
BRANCH   6   9
ATOM      9  C   UNL A   1      33.200  28.154  23.621  1.00  0.00     0.105 C 
ATOM     10  C   UNL A   1      34.082  28.392  22.396  1.00  0.00     0.023 C 
BRANCH   9  11
ATOM     11  C   UNL A   1      31.745  27.926  23.237  1.00  0.00    -0.032 A 
ATOM     12  C   UNL A   1      30.893  27.121  24.015  1.00  0.00     0.008 A 
ATOM     13  C   UNL A   1      31.199  28.701  22.205  1.00  0.00     0.055 A 
ATOM     14  C   UNL A   1      29.508  27.225  23.878  1.00  0.00     0.051 A 
ATOM     15  C   UNL A   1      29.829  28.897  22.157  1.00  0.00     0.161 A 
ATOM     16  C   UNL A   1      28.992  28.187  23.018  1.00  0.00     0.161 A 
ATOM     17  O   UNL A   1      29.395  29.914  21.354  1.00  0.00    -0.486 OA
ATOM     18  O   UNL A   1      27.672  28.536  23.154  1.00  0.00    -0.486 OA
ATOM     19  C   UNL A   1      28.142  30.476  21.768  1.00  0.00     0.271 C 
ATOM     20  C   UNL A   1      27.639  29.970  23.117  1.00  0.00     0.271 C 
ENDBRANCH   9  11
ENDBRANCH   6   9
ENDBRANCH   4   5
ENDBRANCH   3   4
ENDBRANCH   2   3
ENDBRANCH   1   2
BRANCH   1  21
ATOM     21  C   UNL A   1      31.713  31.814  26.746  1.00  0.00     0.021 C 
BRANCH  21  22
ATOM     22  C   UNL A   1      32.957  32.547  27.246  1.00  0.00     0.116 C 
BRANCH  22  23
ATOM     23  N   UNL A   1      32.666  33.912  27.663  1.00  0.00    -0.352 N 
ATOM     24  C   UNL A   1      33.180  34.640  28.706  1.00  0.00     0.251 C 
ATOM     25  H   UNL A   1      31.999  34.384  27.113  1.00  0.00     0.163 HD
ATOM     26  O   UNL A   1      32.662  35.716  29.012  1.00  0.00    -0.269 OA
BRANCH  24  27
ATOM     27  C   UNL A   1      34.338  34.136  29.477  1.00  0.00     0.039 A 
ATOM     28  C   UNL A   1      34.105  33.391  30.637  1.00  0.00     0.014 A 
ATOM     29  C   UNL A   1      35.648  34.402  29.070  1.00  0.00     0.014 A 
ATOM     30  C   UNL A   1      35.183  32.849  31.342  1.00  0.00     0.010 A 
ATOM     31  C   UNL A   1      36.718  33.804  29.735  1.00  0.00     0.010 A 
ATOM     32  C   UNL A   1      36.497  33.013  30.873  1.00  0.00    -0.014 A 
BRANCH  32  33
ATOM     33  C   UNL A   1      37.637  32.314  31.525  1.00  0.00     0.031 A 
ATOM     34  C   UNL A   1      38.198  32.804  32.834  1.00  0.00     0.074 A 
ATOM     35  C   UNL A   1      38.229  31.284  30.886  1.00  0.00     0.049 A 
ATOM     36  N   UNL A   1      39.217  32.345  33.513  1.00  0.00    -0.248 NA
ATOM     37  C   UNL A   1      37.544  33.969  33.452  1.00  0.00     0.031 C 
ATOM     38  C   UNL A   1      37.833  30.765  29.574  1.00  0.00     0.029 A 
ATOM     39  N   UNL A   1      39.307  30.507  31.235  1.00  0.00    -0.354 N 
ATOM     40  C   UNL A   1      39.351  33.181  34.615  1.00  0.00     0.074 A 
ATOM     41  C   UNL A   1      38.319  34.189  34.506  1.00  0.00     0.031 C 
ATOM     42  C   UNL A   1      38.657  29.762  29.229  1.00  0.00     0.029 A 
ATOM     43  C   UNL A   1      39.660  29.588  30.273  1.00  0.00     0.049 A 
ATOM     44  H   UNL A   1      39.783  30.601  32.092  1.00  0.00     0.167 HD
ATOM     45  C   UNL A   1      40.240  33.105  35.635  1.00  0.00     0.034 A 
ATOM     46  C   UNL A   1      40.688  28.717  30.223  1.00  0.00     0.034 A 
ATOM     47  C   UNL A   1      41.240  32.079  35.763  1.00  0.00     0.049 A 
ATOM     48  C   UNL A   1      41.639  28.640  31.388  1.00  0.00     0.074 A 
ATOM     49  C   UNL A   1      42.113  31.860  36.815  1.00  0.00     0.029 A 
ATOM     50  N   UNL A   1      41.516  31.114  34.808  1.00  0.00    -0.354 N 
ATOM     51  N   UNL A   1      41.633  29.324  32.505  1.00  0.00    -0.248 NA
ATOM     52  C   UNL A   1      42.721  27.648  31.298  1.00  0.00     0.031 C 
ATOM     53  C   UNL A   1      42.944  30.788  36.478  1.00  0.00     0.029 A 
ATOM     54  C   UNL A   1      42.563  30.313  35.234  1.00  0.00     0.049 A 
ATOM     55  H   UNL A   1      41.039  31.013  33.953  1.00  0.00     0.167 HD
ATOM     56  C   UNL A   1      42.685  28.823  33.264  1.00  0.00     0.074 A 
ATOM     57  C   UNL A   1      43.287  27.757  32.492  1.00  0.00     0.031 C 
ATOM     58  C   UNL A   1      43.124  29.223  34.482  1.00  0.00     0.034 A 
BRANCH  45  59
ATOM     59  C   UNL A   1      40.158  34.134  36.731  1.00  0.00     0.023 A 
ATOM     60  C   UNL A   1      40.513  35.471  36.462  1.00  0.00     0.012 A 
ATOM     61  C   UNL A   1      39.618  33.802  37.989  1.00  0.00     0.148 A 
ATOM     62  C   UNL A   1      40.349  36.459  37.432  1.00  0.00     0.002 A 
ATOM     63  C   UNL A   1      39.415  34.799  38.937  1.00  0.00     0.091 A 
ATOM     64  F   UNL A   1      39.300  32.522  38.229  1.00  0.00    -0.205 F 
ATOM     65  C   UNL A   1      39.788  36.125  38.663  1.00  0.00     0.022 A 
BRANCH  63  66
ATOM     66  S   UNL A   1      38.623  34.490  40.519  1.00  0.00     0.127 S 
ATOM     67  O   UNL A   1      39.670  33.762  41.235  1.00  0.00    -0.237 OA
ATOM     68  O   UNL A   1      38.381  35.847  41.009  1.00  0.00    -0.237 OA
ATOM     69  O   UNL A   1      37.423  33.719  40.228  1.00  0.00    -0.744 OA
ENDBRANCH  63  66
ENDBRANCH  45  59
BRANCH  46  70
ATOM     70  C   UNL A   1      40.863  27.823  29.043  1.00  0.00     0.023 A 
ATOM     71  C   UNL A   1      40.187  26.587  28.998  1.00  0.00     0.012 A 
ATOM     72  C   UNL A   1      41.704  28.183  27.973  1.00  0.00     0.148 A 
ATOM     73  C   UNL A   1      40.384  25.707  27.932  1.00  0.00     0.002 A 
ATOM     74  C   UNL A   1      41.846  27.330  26.885  1.00  0.00     0.091 A 
ATOM     75  F   UNL A   1      42.351  29.355  28.039  1.00  0.00    -0.205 F 
ATOM     76  C   UNL A   1      41.206  26.083  26.873  1.00  0.00     0.022 A 
BRANCH  74  77
ATOM     77  S   UNL A   1      42.774  27.797  25.420  1.00  0.00     0.127 S 
ATOM     78  O   UNL A   1      42.636  26.606  24.586  1.00  0.00    -0.237 OA
ATOM     79  O   UNL A   1      42.033  28.969  24.951  1.00  0.00    -0.237 OA
ATOM     80  O   UNL A   1      44.121  28.092  25.890  1.00  0.00    -0.744 OA
ENDBRANCH  74  77
ENDBRANCH  46  70
BRANCH  58  81
ATOM     81  C   UNL A   1      44.293  28.484  35.081  1.00  0.00     0.023 A 
ATOM     82  C   UNL A   1      45.607  28.936  34.840  1.00  0.00     0.012 A 
ATOM     83  C   UNL A   1      44.087  27.383  35.934  1.00  0.00     0.148 A 
ATOM     84  C   UNL A   1      46.697  28.278  35.408  1.00  0.00     0.002 A 
ATOM     85  C   UNL A   1      45.175  26.767  36.540  1.00  0.00     0.091 A 
ATOM     86  F   UNL A   1      42.831  26.959  36.139  1.00  0.00    -0.205 F 
ATOM     87  C   UNL A   1      46.481  27.202  36.266  1.00  0.00     0.022 A 
BRANCH  85  88
ATOM     88  S   UNL A   1      44.990  25.438  37.734  1.00  0.00     0.127 S 
ATOM     89  O   UNL A   1      46.374  25.005  37.915  1.00  0.00    -0.237 OA
ATOM     90  O   UNL A   1      44.414  26.135  38.884  1.00  0.00    -0.237 OA
ATOM     91  O   UNL A   1      44.107  24.459  37.115  1.00  0.00    -0.744 OA
ENDBRANCH  85  88
ENDBRANCH  58  81
ENDBRANCH  32  33
ENDBRANCH  24  27
ENDBRANCH  22  23
ENDBRANCH  21  22
ENDBRANCH   1  21
TORSDOF 17
ENDMDL
