MODEL 1
REMARK VINA RESULT:     -12.4      0.000      0.000
REMARK SMILES COc1ccc2[nH]cc([C@H](C(=O)NCCCCCCNC(=O)c3ccc(-c4c5nc(c(-c6cccc(S(=O)(=O)[O-])c6F)c6ccc([nH]6)c(-c6cccc(S(=O)(=O)[O-])c6F)c6nc(c(-c7cccc(S(=O)(=O)[O-])c7F)c7ccc4[nH]7)C=C6)C=C5)cc3)[NH+]3CC[NH+](Cc4cccc5ccccc45)CC3)c2c1
REMARK SMILES IDX 16 1 15 2 14 3 13 4 11 5 12 6 10 8 9 9 3 10 4 11 104 12 5 13
REMARK SMILES IDX 103 14 6 15 7 16 8 17 2 19 1 20 86 21 87 22 102 23 88 25
REMARK SMILES IDX 101 26 89 27 90 29 91 30 92 31 100 32 93 33 95 34 99 35
REMARK SMILES IDX 94 36 96 37 98 38 97 39 17 40 18 41 19 42 20 43 21 44 22 46
REMARK SMILES IDX 23 47 24 48 85 49 25 50 84 51 26 52 27 53 28 54 78 55 29 56
REMARK SMILES IDX 83 57 77 58 79 59 30 60 82 61 76 62 75 63 31 65 63 66 43 67
REMARK SMILES IDX 62 68 44 69 47 70 61 71 80 72 45 73 46 74 60 76 81 77 48 78
REMARK SMILES IDX 32 79 33 80 41 81 34 82 36 83 42 84 35 85 37 86 38 87 39 88
REMARK SMILES IDX 40 89 64 90 65 91 73 92 66 93 68 94 74 95 67 96 69 97 70 98
REMARK SMILES IDX 71 99 72 100 49 101 50 102 58 103 51 104 53 105 59 106
REMARK SMILES IDX 52 107 54 108 55 109 56 110 57 111
REMARK H PARENT 13 7 7 18 86 24 89 28 20 45 79 64 47 75
REMARK Flexibility Score: inf
ROOT
ATOM      1  C   UNL A   1      44.351  23.535  33.294  1.00  0.00     0.002 C 
ENDROOT
BRANCH   1   2
ATOM      2  C   UNL A   1      44.152  24.019  31.728  1.00  0.00     0.021 C 
BRANCH   2   3
ATOM      3  C   UNL A   1      44.193  23.311  29.951  1.00  0.00     0.116 C 
BRANCH   3   4
ATOM      4  N   UNL A   1      45.531  23.693  28.496  1.00  0.00    -0.351 N 
ATOM      5  C   UNL A   1      45.588  23.574  27.025  1.00  0.00     0.283 C 
ATOM      6  O   UNL A   1      46.645  23.559  26.402  1.00  0.00    -0.268 OA
ATOM      7  H   UNL A   1      46.371  24.054  28.864  1.00  0.00     0.163 HD
BRANCH   5   8
ATOM      8  C   UNL A   1      44.184  23.581  26.482  1.00  0.00     0.308 C 
BRANCH   8   9
ATOM      9  C   UNL A   1      43.007  22.665  26.661  1.00  0.00     0.045 A 
ATOM     10  C   UNL A   1      43.420  19.089  25.547  1.00  0.00     0.119 A 
ATOM     11  C   UNL A   1      42.678  18.526  26.581  1.00  0.00     0.048 A 
ATOM     12  C   UNL A   1      43.403  20.465  25.315  1.00  0.00     0.057 A 
ATOM     13  C   UNL A   1      41.897  19.330  27.418  1.00  0.00     0.030 A 
ATOM     14  C   UNL A   1      42.792  21.306  26.262  1.00  0.00     0.013 A 
ATOM     15  C   UNL A   1      42.004  20.715  27.256  1.00  0.00     0.046 A 
ATOM     16  N   UNL A   1      41.499  21.729  28.032  1.00  0.00    -0.361 N 
ATOM     17  C   UNL A   1      42.076  22.913  27.673  1.00  0.00     0.094 A 
ATOM     18  H   UNL A   1      40.825  21.619  28.741  1.00  0.00     0.166 HD
BRANCH  10  19
ATOM     19  O   UNL A   1      44.385  18.404  24.854  1.00  0.00    -0.497 OA
ATOM     20  C   UNL A   1      45.693  18.562  25.376  1.00  0.00     0.278 C 
ENDBRANCH  10  19
ENDBRANCH   8   9
BRANCH   8  21
ATOM     21  N   UNL A   1      43.760  24.728  27.287  1.00  0.00    -0.312 N 
ATOM     22  C   UNL A   1      45.211  25.929  26.912  1.00  0.00     0.325 C 
ATOM     23  C   UNL A   1      42.149  25.080  26.451  1.00  0.00     0.325 C 
ATOM     24  H   UNL A   1      43.614  24.702  28.297  1.00  0.00     0.349 HD
ATOM     25  C   UNL A   1      44.873  27.394  25.593  1.00  0.00     0.324 C 
ATOM     26  C   UNL A   1      41.911  26.450  25.178  1.00  0.00     0.324 C 
ATOM     27  N   UNL A   1      43.062  27.828  25.132  1.00  0.00    -0.322 N 
ATOM     28  H   UNL A   1      43.361  28.260  24.259  1.00  0.00     0.348 HD
BRANCH  27  29
ATOM     29  C   UNL A   1      42.062  28.820  26.087  1.00  0.00     0.300 C 
BRANCH  29  30
ATOM     30  C   UNL A   1      41.250  28.568  27.581  1.00  0.00     0.014 A 
ATOM     31  C   UNL A   1      42.159  28.099  28.549  1.00  0.00     0.010 A 
ATOM     32  C   UNL A   1      39.750  28.739  28.035  1.00  0.00    -0.010 A 
ATOM     33  C   UNL A   1      41.759  27.831  29.855  1.00  0.00     0.001 A 
ATOM     34  C   UNL A   1      39.460  28.504  29.410  1.00  0.00    -0.018 A 
ATOM     35  C   UNL A   1      38.485  29.135  27.398  1.00  0.00     0.009 A 
ATOM     36  C   UNL A   1      40.446  28.034  30.267  1.00  0.00     0.009 A 
ATOM     37  C   UNL A   1      38.190  28.740  30.019  1.00  0.00     0.009 A 
ATOM     38  C   UNL A   1      37.256  29.472  28.002  1.00  0.00     0.001 A 
ATOM     39  C   UNL A   1      37.109  29.279  29.342  1.00  0.00     0.001 A 
ENDBRANCH  29  30
ENDBRANCH  27  29
ENDBRANCH   8  21
ENDBRANCH   5   8
ENDBRANCH   3   4
ENDBRANCH   2   3
ENDBRANCH   1   2
BRANCH   1  40
ATOM     40  C   UNL A   1      44.689  24.430  34.515  1.00  0.00     0.002 C 
BRANCH  40  41
ATOM     41  C   UNL A   1      44.448  23.829  35.901  1.00  0.00     0.021 C 
BRANCH  41  42
ATOM     42  C   UNL A   1      43.939  24.850  36.891  1.00  0.00     0.116 C 
BRANCH  42  43
ATOM     43  N   UNL A   1      42.558  24.561  37.236  1.00  0.00    -0.352 N 
ATOM     44  C   UNL A   1      41.495  25.420  37.090  1.00  0.00     0.251 C 
ATOM     45  H   UNL A   1      42.365  23.671  37.608  1.00  0.00     0.163 HD
ATOM     46  O   UNL A   1      40.476  25.286  37.758  1.00  0.00    -0.269 OA
BRANCH  44  47
ATOM     47  C   UNL A   1      41.623  26.506  36.096  1.00  0.00     0.039 A 
ATOM     48  C   UNL A   1      41.512  26.233  34.736  1.00  0.00     0.014 A 
ATOM     49  C   UNL A   1      41.824  27.817  36.547  1.00  0.00     0.014 A 
ATOM     50  C   UNL A   1      41.621  27.284  33.826  1.00  0.00     0.010 A 
ATOM     51  C   UNL A   1      41.758  28.870  35.655  1.00  0.00     0.010 A 
ATOM     52  C   UNL A   1      41.755  28.607  34.284  1.00  0.00    -0.014 A 
BRANCH  52  53
ATOM     53  C   UNL A   1      42.049  29.725  33.359  1.00  0.00     0.031 A 
ATOM     54  C   UNL A   1      40.898  30.537  32.812  1.00  0.00     0.074 A 
ATOM     55  C   UNL A   1      43.315  29.979  32.982  1.00  0.00     0.049 A 
ATOM     56  N   UNL A   1      40.919  31.531  31.966  1.00  0.00    -0.248 NA
ATOM     57  C   UNL A   1      39.537  30.155  33.239  1.00  0.00     0.031 C 
ATOM     58  C   UNL A   1      44.493  29.205  33.381  1.00  0.00     0.029 A 
ATOM     59  N   UNL A   1      43.819  30.955  32.164  1.00  0.00    -0.354 N 
ATOM     60  C   UNL A   1      39.586  31.851  31.728  1.00  0.00     0.074 A 
ATOM     61  C   UNL A   1      38.780  30.907  32.460  1.00  0.00     0.031 C 
ATOM     62  C   UNL A   1      45.586  29.755  32.828  1.00  0.00     0.029 A 
ATOM     63  C   UNL A   1      45.183  30.896  32.012  1.00  0.00     0.049 A 
ATOM     64  H   UNL A   1      43.256  31.635  31.727  1.00  0.00     0.167 HD
ATOM     65  C   UNL A   1      39.074  32.873  31.005  1.00  0.00     0.034 A 
ATOM     66  C   UNL A   1      46.008  31.681  31.295  1.00  0.00     0.034 A 
ATOM     67  C   UNL A   1      39.887  33.847  30.336  1.00  0.00     0.049 A 
ATOM     68  C   UNL A   1      45.421  32.848  30.546  1.00  0.00     0.074 A 
ATOM     69  C   UNL A   1      39.488  34.974  29.646  1.00  0.00     0.029 A 
ATOM     70  N   UNL A   1      41.272  33.806  30.280  1.00  0.00    -0.354 N 
ATOM     71  N   UNL A   1      44.167  33.219  30.445  1.00  0.00    -0.248 NA
ATOM     72  C   UNL A   1      46.366  33.731  29.850  1.00  0.00     0.031 C 
ATOM     73  C   UNL A   1      40.632  35.600  29.142  1.00  0.00     0.029 A 
ATOM     74  C   UNL A   1      41.745  34.887  29.562  1.00  0.00     0.049 A 
ATOM     75  H   UNL A   1      41.834  33.110  30.691  1.00  0.00     0.167 HD
ATOM     76  C   UNL A   1      44.175  34.403  29.718  1.00  0.00     0.074 A 
ATOM     77  C   UNL A   1      45.564  34.693  29.416  1.00  0.00     0.031 C 
ATOM     78  C   UNL A   1      43.135  35.178  29.326  1.00  0.00     0.034 A 
BRANCH  65  79
ATOM     79  C   UNL A   1      37.575  33.011  30.946  1.00  0.00     0.023 A 
ATOM     80  C   UNL A   1      36.860  32.489  29.847  1.00  0.00     0.012 A 
ATOM     81  C   UNL A   1      36.868  33.624  31.998  1.00  0.00     0.148 A 
ATOM     82  C   UNL A   1      35.474  32.613  29.774  1.00  0.00     0.002 A 
ATOM     83  C   UNL A   1      35.481  33.695  31.944  1.00  0.00     0.091 A 
ATOM     84  F   UNL A   1      37.563  34.137  33.023  1.00  0.00    -0.205 F 
ATOM     85  C   UNL A   1      34.784  33.205  30.828  1.00  0.00     0.022 A 
BRANCH  83  86
ATOM     86  S   UNL A   1      34.492  34.360  33.288  1.00  0.00     0.127 S 
ATOM     87  O   UNL A   1      34.833  33.452  34.382  1.00  0.00    -0.237 OA
ATOM     88  O   UNL A   1      35.034  35.711  33.426  1.00  0.00    -0.237 OA
ATOM     89  O   UNL A   1      33.108  34.300  32.839  1.00  0.00    -0.744 OA
ENDBRANCH  83  86
ENDBRANCH  65  79
BRANCH  66  90
ATOM     90  C   UNL A   1      47.477  31.436  31.313  1.00  0.00     0.023 A 
ATOM     91  C   UNL A   1      48.276  32.055  32.296  1.00  0.00     0.012 A 
ATOM     92  C   UNL A   1      48.085  30.580  30.375  1.00  0.00     0.148 A 
ATOM     93  C   UNL A   1      49.656  31.860  32.317  1.00  0.00     0.002 A 
ATOM     94  C   UNL A   1      49.453  30.344  30.437  1.00  0.00     0.091 A 
ATOM     95  F   UNL A   1      47.308  30.003  29.447  1.00  0.00    -0.205 F 
ATOM     96  C   UNL A   1      50.244  30.998  31.395  1.00  0.00     0.022 A 
BRANCH  94  97
ATOM     97  S   UNL A   1      50.274  29.153  29.373  1.00  0.00     0.127 S 
ATOM     98  O   UNL A   1      51.679  29.382  29.696  1.00  0.00    -0.237 OA
ATOM     99  O   UNL A   1      49.728  27.886  29.860  1.00  0.00    -0.237 OA
ATOM    100  O   UNL A   1      49.874  29.495  28.014  1.00  0.00    -0.744 OA
ENDBRANCH  94  97
ENDBRANCH  66  90
BRANCH  78 101
ATOM    101  C   UNL A   1      43.453  36.452  28.591  1.00  0.00     0.023 A 
ATOM    102  C   UNL A   1      43.449  36.481  27.183  1.00  0.00     0.012 A 
ATOM    103  C   UNL A   1      43.685  37.642  29.309  1.00  0.00     0.148 A 
ATOM    104  C   UNL A   1      43.712  37.667  26.501  1.00  0.00     0.002 A 
ATOM    105  C   UNL A   1      43.888  38.831  28.624  1.00  0.00     0.091 A 
ATOM    106  F   UNL A   1      43.699  37.589  30.649  1.00  0.00    -0.205 F 
ATOM    107  C   UNL A   1      43.918  38.843  27.220  1.00  0.00     0.022 A 
BRANCH 105 108
ATOM    108  S   UNL A   1      44.052  40.408  29.466  1.00  0.00     0.127 S 
ATOM    109  O   UNL A   1      45.342  40.253  30.137  1.00  0.00    -0.237 OA
ATOM    110  O   UNL A   1      44.052  41.356  28.351  1.00  0.00    -0.237 OA
ATOM    111  O   UNL A   1      42.897  40.515  30.348  1.00  0.00    -0.744 OA
ENDBRANCH 105 108
ENDBRANCH  78 101
ENDBRANCH  52  53
ENDBRANCH  44  47
ENDBRANCH  42  43
ENDBRANCH  41  42
ENDBRANCH  40  41
ENDBRANCH   1  40
TORSDOF 21
ENDMDL
MODEL 2
REMARK VINA RESULT:     -11.7      5.362      9.717
REMARK SMILES COc1ccc2[nH]cc([C@H](C(=O)NCCCCCCNC(=O)c3ccc(-c4c5nc(c(-c6cccc(S(=O)(=O)[O-])c6F)c6ccc([nH]6)c(-c6cccc(S(=O)(=O)[O-])c6F)c6nc(c(-c7cccc(S(=O)(=O)[O-])c7F)c7ccc4[nH]7)C=C6)C=C5)cc3)[NH+]3CC[NH+](Cc4cccc5ccccc45)CC3)c2c1
REMARK SMILES IDX 16 1 15 2 14 3 13 4 11 5 12 6 10 8 9 9 3 10 4 11 104 12 5 13
REMARK SMILES IDX 103 14 6 15 7 16 8 17 2 19 1 20 86 21 87 22 102 23 88 25
REMARK SMILES IDX 101 26 89 27 90 29 91 30 92 31 100 32 93 33 95 34 99 35
REMARK SMILES IDX 94 36 96 37 98 38 97 39 17 40 18 41 19 42 20 43 21 44 22 46
REMARK SMILES IDX 23 47 24 48 85 49 25 50 84 51 26 52 27 53 28 54 78 55 29 56
REMARK SMILES IDX 83 57 77 58 79 59 30 60 82 61 76 62 75 63 31 65 63 66 43 67
REMARK SMILES IDX 62 68 44 69 47 70 61 71 80 72 45 73 46 74 60 76 81 77 48 78
REMARK SMILES IDX 32 79 33 80 41 81 34 82 36 83 42 84 35 85 37 86 38 87 39 88
REMARK SMILES IDX 40 89 64 90 65 91 73 92 66 93 68 94 74 95 67 96 69 97 70 98
REMARK SMILES IDX 71 99 72 100 49 101 50 102 58 103 51 104 53 105 59 106
REMARK SMILES IDX 52 107 54 108 55 109 56 110 57 111
REMARK H PARENT 13 7 7 18 86 24 89 28 20 45 79 64 47 75
REMARK Flexibility Score: inf
ROOT
ATOM      1  C   UNL A   1      36.416  23.057  24.805  1.00  0.00     0.002 C 
ENDROOT
BRANCH   1   2
ATOM      2  C   UNL A   1      35.055  23.982  24.650  1.00  0.00     0.021 C 
BRANCH   2   3
ATOM      3  C   UNL A   1      33.989  25.212  25.655  1.00  0.00     0.116 C 
BRANCH   3   4
ATOM      4  N   UNL A   1      31.984  25.400  25.653  1.00  0.00    -0.351 N 
ATOM      5  C   UNL A   1      31.002  26.469  25.382  1.00  0.00     0.283 C 
ATOM      6  O   UNL A   1      29.842  26.419  25.778  1.00  0.00    -0.268 OA
ATOM      7  H   UNL A   1      31.542  24.555  25.900  1.00  0.00     0.163 HD
BRANCH   5   8
ATOM      8  C   UNL A   1      31.642  27.504  24.495  1.00  0.00     0.308 C 
BRANCH   8   9
ATOM      9  C   UNL A   1      31.256  28.110  23.175  1.00  0.00     0.045 A 
ATOM     10  C   UNL A   1      27.670  29.187  22.756  1.00  0.00     0.119 A 
ATOM     11  C   UNL A   1      27.945  30.327  22.005  1.00  0.00     0.048 A 
ATOM     12  C   UNL A   1      28.656  28.230  22.999  1.00  0.00     0.057 A 
ATOM     13  C   UNL A   1      29.224  30.542  21.479  1.00  0.00     0.030 A 
ATOM     14  C   UNL A   1      29.987  28.524  22.656  1.00  0.00     0.013 A 
ATOM     15  C   UNL A   1      30.228  29.643  21.851  1.00  0.00     0.046 A 
ATOM     16  N   UNL A   1      31.582  29.704  21.632  1.00  0.00    -0.361 N 
ATOM     17  C   UNL A   1      32.214  28.773  22.405  1.00  0.00     0.094 A 
ATOM     18  H   UNL A   1      32.029  30.324  21.012  1.00  0.00     0.166 HD
BRANCH  10  19
ATOM     19  O   UNL A   1      26.527  29.034  23.499  1.00  0.00    -0.497 OA
ATOM     20  C   UNL A   1      26.261  27.695  23.879  1.00  0.00     0.278 C 
ENDBRANCH  10  19
ENDBRANCH   8   9
BRANCH   8  21
ATOM     21  N   UNL A   1      31.352  28.619  25.400  1.00  0.00    -0.312 N 
ATOM     22  C   UNL A   1      31.403  27.684  27.076  1.00  0.00     0.325 C 
ATOM     23  C   UNL A   1      32.803  29.692  24.999  1.00  0.00     0.325 C 
ATOM     24  H   UNL A   1      30.502  29.182  25.368  1.00  0.00     0.349 HD
ATOM     25  C   UNL A   1      33.049  27.889  28.194  1.00  0.00     0.324 C 
ATOM     26  C   UNL A   1      34.348  29.802  26.075  1.00  0.00     0.324 C 
ATOM     27  N   UNL A   1      34.262  29.324  27.803  1.00  0.00    -0.322 N 
ATOM     28  H   UNL A   1      35.025  28.841  28.274  1.00  0.00     0.348 HD
BRANCH  27  29
ATOM     29  C   UNL A   1      34.026  30.924  28.333  1.00  0.00     0.300 C 
BRANCH  29  30
ATOM     30  C   UNL A   1      35.079  32.094  29.023  1.00  0.00     0.014 A 
ATOM     31  C   UNL A   1      35.907  32.643  28.024  1.00  0.00     0.010 A 
ATOM     32  C   UNL A   1      35.290  32.622  30.494  1.00  0.00    -0.010 A 
ATOM     33  C   UNL A   1      36.843  33.630  28.316  1.00  0.00     0.001 A 
ATOM     34  C   UNL A   1      36.226  33.681  30.672  1.00  0.00    -0.018 A 
ATOM     35  C   UNL A   1      34.725  32.328  31.820  1.00  0.00     0.009 A 
ATOM     36  C   UNL A   1      36.990  34.133  29.604  1.00  0.00     0.009 A 
ATOM     37  C   UNL A   1      36.443  34.367  31.906  1.00  0.00     0.009 A 
ATOM     38  C   UNL A   1      34.850  33.062  33.017  1.00  0.00     0.001 A 
ATOM     39  C   UNL A   1      35.720  34.108  33.058  1.00  0.00     0.001 A 
ENDBRANCH  29  30
ENDBRANCH  27  29
ENDBRANCH   8  21
ENDBRANCH   5   8
ENDBRANCH   3   4
ENDBRANCH   2   3
ENDBRANCH   1   2
BRANCH   1  40
ATOM     40  C   UNL A   1      36.504  21.604  25.339  1.00  0.00     0.002 C 
BRANCH  40  41
ATOM     41  C   UNL A   1      37.773  20.820  25.001  1.00  0.00     0.021 C 
BRANCH  41  42
ATOM     42  C   UNL A   1      38.932  21.186  25.899  1.00  0.00     0.116 C 
BRANCH  42  43
ATOM     43  N   UNL A   1      39.772  20.023  26.126  1.00  0.00    -0.352 N 
ATOM     44  C   UNL A   1      41.146  20.012  26.140  1.00  0.00     0.251 C 
ATOM     45  H   UNL A   1      39.316  19.165  26.286  1.00  0.00     0.163 HD
ATOM     46  O   UNL A   1      41.773  18.982  25.924  1.00  0.00    -0.269 OA
BRANCH  44  47
ATOM     47  C   UNL A   1      41.838  21.285  26.428  1.00  0.00     0.039 A 
ATOM     48  C   UNL A   1      42.251  21.585  27.723  1.00  0.00     0.014 A 
ATOM     49  C   UNL A   1      42.103  22.167  25.373  1.00  0.00     0.014 A 
ATOM     50  C   UNL A   1      42.917  22.788  27.957  1.00  0.00     0.010 A 
ATOM     51  C   UNL A   1      42.910  23.268  25.581  1.00  0.00     0.010 A 
ATOM     52  C   UNL A   1      43.240  23.639  26.886  1.00  0.00    -0.014 A 
BRANCH  52  53
ATOM     53  C   UNL A   1      43.785  24.997  27.108  1.00  0.00     0.031 A 
ATOM     54  C   UNL A   1      42.890  26.048  27.723  1.00  0.00     0.074 A 
ATOM     55  C   UNL A   1      45.040  25.296  26.725  1.00  0.00     0.049 A 
ATOM     56  N   UNL A   1      43.145  27.304  27.973  1.00  0.00    -0.248 NA
ATOM     57  C   UNL A   1      41.511  25.647  28.064  1.00  0.00     0.031 C 
ATOM     58  C   UNL A   1      45.962  24.382  26.045  1.00  0.00     0.029 A 
ATOM     59  N   UNL A   1      45.751  26.460  26.844  1.00  0.00    -0.354 N 
ATOM     60  C   UNL A   1      41.953  27.843  28.447  1.00  0.00     0.074 A 
ATOM     61  C   UNL A   1      40.957  26.803  28.387  1.00  0.00     0.031 C 
ATOM     62  C   UNL A   1      47.127  25.016  25.832  1.00  0.00     0.029 A 
ATOM     63  C   UNL A   1      47.022  26.384  26.329  1.00  0.00     0.049 A 
ATOM     64  H   UNL A   1      45.385  27.275  27.259  1.00  0.00     0.167 HD
ATOM     65  C   UNL A   1      41.716  29.080  28.939  1.00  0.00     0.034 A 
ATOM     66  C   UNL A   1      47.991  27.317  26.272  1.00  0.00     0.034 A 
ATOM     67  C   UNL A   1      42.732  30.085  29.057  1.00  0.00     0.049 A 
ATOM     68  C   UNL A   1      47.723  28.668  26.880  1.00  0.00     0.074 A 
ATOM     69  C   UNL A   1      42.636  31.344  29.617  1.00  0.00     0.029 A 
ATOM     70  N   UNL A   1      44.035  29.940  28.607  1.00  0.00    -0.354 N 
ATOM     71  N   UNL A   1      46.631  29.116  27.452  1.00  0.00    -0.248 NA
ATOM     72  C   UNL A   1      48.836  29.628  26.876  1.00  0.00     0.031 C 
ATOM     73  C   UNL A   1      43.876  31.975  29.476  1.00  0.00     0.029 A 
ATOM     74  C   UNL A   1      44.754  31.089  28.872  1.00  0.00     0.049 A 
ATOM     75  H   UNL A   1      44.393  29.137  28.164  1.00  0.00     0.167 HD
ATOM     76  C   UNL A   1      46.938  30.389  27.920  1.00  0.00     0.074 A 
ATOM     77  C   UNL A   1      48.325  30.632  27.574  1.00  0.00     0.031 C 
ATOM     78  C   UNL A   1      46.148  31.280  28.567  1.00  0.00     0.034 A 
BRANCH  65  79
ATOM     79  C   UNL A   1      40.325  29.388  29.427  1.00  0.00     0.023 A 
ATOM     80  C   UNL A   1      39.304  29.696  28.503  1.00  0.00     0.012 A 
ATOM     81  C   UNL A   1      40.016  29.337  30.800  1.00  0.00     0.148 A 
ATOM     82  C   UNL A   1      38.013  29.990  28.938  1.00  0.00     0.002 A 
ATOM     83  C   UNL A   1      38.714  29.576  31.222  1.00  0.00     0.091 A 
ATOM     84  F   UNL A   1      41.002  29.067  31.668  1.00  0.00    -0.205 F 
ATOM     85  C   UNL A   1      37.716  29.917  30.295  1.00  0.00     0.022 A 
BRANCH  83  86
ATOM     86  S   UNL A   1      38.208  29.424  32.938  1.00  0.00     0.127 S 
ATOM     87  O   UNL A   1      37.403  28.204  32.901  1.00  0.00    -0.237 OA
ATOM     88  O   UNL A   1      39.492  29.287  33.624  1.00  0.00    -0.237 OA
ATOM     89  O   UNL A   1      37.475  30.642  33.253  1.00  0.00    -0.744 OA
ENDBRANCH  83  86
ENDBRANCH  65  79
BRANCH  66  90
ATOM     90  C   UNL A   1      49.319  26.983  25.688  1.00  0.00     0.023 A 
ATOM     91  C   UNL A   1      50.266  26.283  26.461  1.00  0.00     0.012 A 
ATOM     92  C   UNL A   1      49.642  27.338  24.364  1.00  0.00     0.148 A 
ATOM     93  C   UNL A   1      51.525  25.980  25.943  1.00  0.00     0.002 A 
ATOM     94  C   UNL A   1      50.877  26.983  23.834  1.00  0.00     0.091 A 
ATOM     95  F   UNL A   1      48.729  28.006  23.645  1.00  0.00    -0.205 F 
ATOM     96  C   UNL A   1      51.828  26.322  24.628  1.00  0.00     0.022 A 
BRANCH  94  97
ATOM     97  S   UNL A   1      51.305  27.269  22.113  1.00  0.00     0.127 S 
ATOM     98  O   UNL A   1      52.560  26.533  21.991  1.00  0.00    -0.237 OA
ATOM     99  O   UNL A   1      50.167  26.668  21.416  1.00  0.00    -0.237 OA
ATOM    100  O   UNL A   1      51.402  28.715  21.965  1.00  0.00    -0.744 OA
ENDBRANCH  94  97
ENDBRANCH  66  90
BRANCH  78 101
ATOM    101  C   UNL A   1      46.776  32.573  29.012  1.00  0.00     0.023 A 
ATOM    102  C   UNL A   1      47.485  32.639  30.227  1.00  0.00     0.012 A 
ATOM    103  C   UNL A   1      46.721  33.708  28.177  1.00  0.00     0.148 A 
ATOM    104  C   UNL A   1      48.094  33.827  30.624  1.00  0.00     0.002 A 
ATOM    105  C   UNL A   1      47.379  34.870  28.552  1.00  0.00     0.091 A 
ATOM    106  F   UNL A   1      46.028  33.627  27.032  1.00  0.00    -0.205 F 
ATOM    107  C   UNL A   1      48.052  34.937  29.782  1.00  0.00     0.022 A 
BRANCH 105 108
ATOM    108  S   UNL A   1      47.470  36.308  27.482  1.00  0.00     0.127 S 
ATOM    109  O   UNL A   1      46.076  36.748  27.457  1.00  0.00    -0.237 OA
ATOM    110  O   UNL A   1      48.375  37.188  28.221  1.00  0.00    -0.237 OA
ATOM    111  O   UNL A   1      47.997  35.831  26.210  1.00  0.00    -0.744 OA
ENDBRANCH 105 108
ENDBRANCH  78 101
ENDBRANCH  52  53
ENDBRANCH  44  47
ENDBRANCH  42  43
ENDBRANCH  41  42
ENDBRANCH  40  41
ENDBRANCH   1  40
TORSDOF 21
ENDMDL
MODEL 3
REMARK VINA RESULT:     -11.6      5.676     10.063
REMARK SMILES COc1ccc2[nH]cc([C@H](C(=O)NCCCCCCNC(=O)c3ccc(-c4c5nc(c(-c6cccc(S(=O)(=O)[O-])c6F)c6ccc([nH]6)c(-c6cccc(S(=O)(=O)[O-])c6F)c6nc(c(-c7cccc(S(=O)(=O)[O-])c7F)c7ccc4[nH]7)C=C6)C=C5)cc3)[NH+]3CC[NH+](Cc4cccc5ccccc45)CC3)c2c1
REMARK SMILES IDX 16 1 15 2 14 3 13 4 11 5 12 6 10 8 9 9 3 10 4 11 104 12 5 13
REMARK SMILES IDX 103 14 6 15 7 16 8 17 2 19 1 20 86 21 87 22 102 23 88 25
REMARK SMILES IDX 101 26 89 27 90 29 91 30 92 31 100 32 93 33 95 34 99 35
REMARK SMILES IDX 94 36 96 37 98 38 97 39 17 40 18 41 19 42 20 43 21 44 22 46
REMARK SMILES IDX 23 47 24 48 85 49 25 50 84 51 26 52 27 53 28 54 78 55 29 56
REMARK SMILES IDX 83 57 77 58 79 59 30 60 82 61 76 62 75 63 31 65 63 66 43 67
REMARK SMILES IDX 62 68 44 69 47 70 61 71 80 72 45 73 46 74 60 76 81 77 48 78
REMARK SMILES IDX 32 79 33 80 41 81 34 82 36 83 42 84 35 85 37 86 38 87 39 88
REMARK SMILES IDX 40 89 64 90 65 91 73 92 66 93 68 94 74 95 67 96 69 97 70 98
REMARK SMILES IDX 71 99 72 100 49 101 50 102 58 103 51 104 53 105 59 106
REMARK SMILES IDX 52 107 54 108 55 109 56 110 57 111
REMARK H PARENT 13 7 7 18 86 24 89 28 20 45 79 64 47 75
REMARK Flexibility Score: inf
ROOT
ATOM      1  C   UNL A   1      36.272  22.403  24.126  1.00  0.00     0.002 C 
ENDROOT
BRANCH   1   2
ATOM      2  C   UNL A   1      34.754  22.744  23.573  1.00  0.00     0.021 C 
BRANCH   2   3
ATOM      3  C   UNL A   1      33.658  24.241  23.105  1.00  0.00     0.116 C 
BRANCH   3   4
ATOM      4  N   UNL A   1      31.658  24.410  23.267  1.00  0.00    -0.351 N 
ATOM      5  C   UNL A   1      30.686  25.487  23.545  1.00  0.00     0.283 C 
ATOM      6  O   UNL A   1      29.540  25.264  23.921  1.00  0.00    -0.268 OA
ATOM      7  H   UNL A   1      31.210  23.544  23.124  1.00  0.00     0.163 HD
BRANCH   5   8
ATOM      8  C   UNL A   1      31.313  26.810  23.195  1.00  0.00     0.308 C 
BRANCH   8   9
ATOM      9  C   UNL A   1      30.875  27.962  22.336  1.00  0.00     0.045 A 
ATOM     10  C   UNL A   1      27.453  29.396  22.993  1.00  0.00     0.119 A 
ATOM     11  C   UNL A   1      27.803  30.725  22.762  1.00  0.00     0.048 A 
ATOM     12  C   UNL A   1      28.314  28.354  22.646  1.00  0.00     0.057 A 
ATOM     13  C   UNL A   1      29.033  31.046  22.178  1.00  0.00     0.030 A 
ATOM     14  C   UNL A   1      29.628  28.662  22.251  1.00  0.00     0.013 A 
ATOM     15  C   UNL A   1      29.935  29.998  21.969  1.00  0.00     0.046 A 
ATOM     16  N   UNL A   1      31.252  30.040  21.581  1.00  0.00    -0.361 N 
ATOM     17  C   UNL A   1      31.827  28.817  21.776  1.00  0.00     0.094 A 
ATOM     18  H   UNL A   1      31.712  30.832  21.220  1.00  0.00     0.166 HD
BRANCH  10  19
ATOM     19  O   UNL A   1      26.389  29.025  23.773  1.00  0.00    -0.497 OA
ATOM     20  C   UNL A   1      26.245  27.623  23.923  1.00  0.00     0.278 C 
ENDBRANCH  10  19
ENDBRANCH   8   9
BRANCH   8  21
ATOM     21  N   UNL A   1      31.122  27.380  24.531  1.00  0.00    -0.312 N 
ATOM     22  C   UNL A   1      31.808  25.933  25.590  1.00  0.00     0.325 C 
ATOM     23  C   UNL A   1      32.200  28.872  24.359  1.00  0.00     0.325 C 
ATOM     24  H   UNL A   1      30.219  27.663  24.914  1.00  0.00     0.349 HD
ATOM     25  C   UNL A   1      33.651  26.135  26.339  1.00  0.00     0.324 C 
ATOM     26  C   UNL A   1      33.952  28.978  25.049  1.00  0.00     0.324 C 
ATOM     27  N   UNL A   1      34.449  27.880  26.379  1.00  0.00    -0.322 N 
ATOM     28  H   UNL A   1      35.384  27.479  26.435  1.00  0.00     0.348 HD
BRANCH  27  29
ATOM     29  C   UNL A   1      34.121  29.035  27.586  1.00  0.00     0.300 C 
BRANCH  29  30
ATOM     30  C   UNL A   1      33.565  30.660  27.527  1.00  0.00     0.014 A 
ATOM     31  C   UNL A   1      32.246  30.699  27.033  1.00  0.00     0.010 A 
ATOM     32  C   UNL A   1      34.232  32.042  27.888  1.00  0.00    -0.010 A 
ATOM     33  C   UNL A   1      31.554  31.899  26.901  1.00  0.00     0.001 A 
ATOM     34  C   UNL A   1      33.413  33.203  27.782  1.00  0.00    -0.018 A 
ATOM     35  C   UNL A   1      35.546  32.494  28.370  1.00  0.00     0.009 A 
ATOM     36  C   UNL A   1      32.125  33.111  27.271  1.00  0.00     0.009 A 
ATOM     37  C   UNL A   1      33.810  34.512  28.194  1.00  0.00     0.009 A 
ATOM     38  C   UNL A   1      35.917  33.756  28.878  1.00  0.00     0.001 A 
ATOM     39  C   UNL A   1      35.027  34.784  28.796  1.00  0.00     0.001 A 
ENDBRANCH  29  30
ENDBRANCH  27  29
ENDBRANCH   8  21
ENDBRANCH   5   8
ENDBRANCH   3   4
ENDBRANCH   2   3
ENDBRANCH   1   2
BRANCH   1  40
ATOM     40  C   UNL A   1      36.664  21.352  25.198  1.00  0.00     0.002 C 
BRANCH  40  41
ATOM     41  C   UNL A   1      37.909  20.509  24.915  1.00  0.00     0.021 C 
BRANCH  41  42
ATOM     42  C   UNL A   1      39.065  20.869  25.821  1.00  0.00     0.116 C 
BRANCH  42  43
ATOM     43  N   UNL A   1      39.898  19.702  26.051  1.00  0.00    -0.352 N 
ATOM     44  C   UNL A   1      41.271  19.688  26.093  1.00  0.00     0.251 C 
ATOM     45  H   UNL A   1      39.438  18.842  26.190  1.00  0.00     0.163 HD
ATOM     46  O   UNL A   1      41.901  18.659  25.876  1.00  0.00    -0.269 OA
BRANCH  44  47
ATOM     47  C   UNL A   1      41.959  20.956  26.410  1.00  0.00     0.039 A 
ATOM     48  C   UNL A   1      42.304  21.261  27.724  1.00  0.00     0.014 A 
ATOM     49  C   UNL A   1      42.290  21.828  25.366  1.00  0.00     0.014 A 
ATOM     50  C   UNL A   1      42.968  22.458  27.987  1.00  0.00     0.010 A 
ATOM     51  C   UNL A   1      43.096  22.923  25.611  1.00  0.00     0.010 A 
ATOM     52  C   UNL A   1      43.358  23.299  26.930  1.00  0.00    -0.014 A 
BRANCH  52  53
ATOM     53  C   UNL A   1      43.904  24.653  27.174  1.00  0.00     0.031 A 
ATOM     54  C   UNL A   1      42.989  25.714  27.742  1.00  0.00     0.074 A 
ATOM     55  C   UNL A   1      45.177  24.940  26.851  1.00  0.00     0.049 A 
ATOM     56  N   UNL A   1      43.243  26.969  27.999  1.00  0.00    -0.248 NA
ATOM     57  C   UNL A   1      41.592  25.327  28.017  1.00  0.00     0.031 C 
ATOM     58  C   UNL A   1      46.123  24.016  26.219  1.00  0.00     0.029 A 
ATOM     59  N   UNL A   1      45.892  26.098  26.999  1.00  0.00    -0.354 N 
ATOM     60  C   UNL A   1      42.034  27.520  28.414  1.00  0.00     0.074 A 
ATOM     61  C   UNL A   1      41.033  26.488  28.309  1.00  0.00     0.031 C 
ATOM     62  C   UNL A   1      47.302  24.639  26.060  1.00  0.00     0.029 A 
ATOM     63  C   UNL A   1      47.186  26.010  26.547  1.00  0.00     0.049 A 
ATOM     64  H   UNL A   1      45.514  26.918  27.394  1.00  0.00     0.167 HD
ATOM     65  C   UNL A   1      41.785  28.761  28.890  1.00  0.00     0.034 A 
ATOM     66  C   UNL A   1      48.164  26.934  26.534  1.00  0.00     0.034 A 
ATOM     67  C   UNL A   1      42.802  29.758  29.053  1.00  0.00     0.049 A 
ATOM     68  C   UNL A   1      47.880  28.290  27.123  1.00  0.00     0.074 A 
ATOM     69  C   UNL A   1      42.691  31.019  29.604  1.00  0.00     0.029 A 
ATOM     70  N   UNL A   1      44.125  29.600  28.667  1.00  0.00    -0.354 N 
ATOM     71  N   UNL A   1      46.765  28.749  27.640  1.00  0.00    -0.248 NA
ATOM     72  C   UNL A   1      49.000  29.240  27.170  1.00  0.00     0.031 C 
ATOM     73  C   UNL A   1      43.941  31.639  29.520  1.00  0.00     0.029 A 
ATOM     74  C   UNL A   1      44.840  30.743  28.963  1.00  0.00     0.049 A 
ATOM     75  H   UNL A   1      44.496  28.792  28.244  1.00  0.00     0.167 HD
ATOM     76  C   UNL A   1      47.061  30.021  28.118  1.00  0.00     0.074 A 
ATOM     77  C   UNL A   1      48.465  30.251  27.839  1.00  0.00     0.031 C 
ATOM     78  C   UNL A   1      46.249  30.921  28.724  1.00  0.00     0.034 A 
BRANCH  65  79
ATOM     79  C   UNL A   1      40.374  29.083  29.309  1.00  0.00     0.023 A 
ATOM     80  C   UNL A   1      39.443  29.549  28.357  1.00  0.00     0.012 A 
ATOM     81  C   UNL A   1      39.958  28.889  30.640  1.00  0.00     0.148 A 
ATOM     82  C   UNL A   1      38.136  29.857  28.729  1.00  0.00     0.002 A 
ATOM     83  C   UNL A   1      38.638  29.146  30.992  1.00  0.00     0.091 A 
ATOM     84  F   UNL A   1      40.860  28.470  31.538  1.00  0.00    -0.205 F 
ATOM     85  C   UNL A   1      37.731  29.644  30.043  1.00  0.00     0.022 A 
BRANCH  83  86
ATOM     86  S   UNL A   1      37.993  28.822  32.637  1.00  0.00     0.127 S 
ATOM     87  O   UNL A   1      38.082  27.365  32.707  1.00  0.00    -0.237 OA
ATOM     88  O   UNL A   1      38.951  29.533  33.485  1.00  0.00    -0.237 OA
ATOM     89  O   UNL A   1      36.643  29.365  32.655  1.00  0.00    -0.744 OA
ENDBRANCH  83  86
ENDBRANCH  65  79
BRANCH  66  90
ATOM     90  C   UNL A   1      49.516  26.586  26.015  1.00  0.00     0.023 A 
ATOM     91  C   UNL A   1      50.378  25.787  26.792  1.00  0.00     0.012 A 
ATOM     92  C   UNL A   1      49.946  27.026  24.748  1.00  0.00     0.148 A 
ATOM     93  C   UNL A   1      51.657  25.469  26.337  1.00  0.00     0.002 A 
ATOM     94  C   UNL A   1      51.200  26.658  24.276  1.00  0.00     0.091 A 
ATOM     95  F   UNL A   1      49.112  27.788  24.025  1.00  0.00    -0.205 F 
ATOM     96  C   UNL A   1      52.066  25.897  25.077  1.00  0.00     0.022 A 
BRANCH  94  97
ATOM     97  S   UNL A   1      51.758  27.055  22.615  1.00  0.00     0.127 S 
ATOM     98  O   UNL A   1      50.578  26.734  21.818  1.00  0.00    -0.237 OA
ATOM     99  O   UNL A   1      52.055  28.484  22.730  1.00  0.00    -0.237 OA
ATOM    100  O   UNL A   1      52.927  26.217  22.381  1.00  0.00    -0.744 OA
ENDBRANCH  94  97
ENDBRANCH  66  90
BRANCH  78 101
ATOM    101  C   UNL A   1      46.866  32.211  29.194  1.00  0.00     0.023 A 
ATOM    102  C   UNL A   1      46.859  33.347  28.362  1.00  0.00     0.012 A 
ATOM    103  C   UNL A   1      47.389  32.308  30.499  1.00  0.00     0.148 A 
ATOM    104  C   UNL A   1      47.401  34.550  28.808  1.00  0.00     0.002 A 
ATOM    105  C   UNL A   1      47.874  33.525  30.957  1.00  0.00     0.091 A 
ATOM    106  F   UNL A   1      47.399  31.210  31.268  1.00  0.00    -0.205 F 
ATOM    107  C   UNL A   1      47.896  34.642  30.108  1.00  0.00     0.022 A 
BRANCH 105 108
ATOM    108  S   UNL A   1      48.427  33.761  32.648  1.00  0.00     0.127 S 
ATOM    109  O   UNL A   1      47.243  33.359  33.406  1.00  0.00    -0.237 OA
ATOM    110  O   UNL A   1      49.554  32.832  32.738  1.00  0.00    -0.237 OA
ATOM    111  O   UNL A   1      48.793  35.166  32.759  1.00  0.00    -0.744 OA
ENDBRANCH 105 108
ENDBRANCH  78 101
ENDBRANCH  52  53
ENDBRANCH  44  47
ENDBRANCH  42  43
ENDBRANCH  41  42
ENDBRANCH  40  41
ENDBRANCH   1  40
TORSDOF 21
ENDMDL
