MODEL 1
REMARK VINA RESULT:     -10.0      0.000      0.000
REMARK SMILES C[C@@H](C(=O)NCCCCCCNC(=O)c1ccc(-c2c3nc(c(-c4cccc(S(=O)(=O)[O-])c4F)c4ccc([nH]4)c(-c4cccc(S(=O)(=O)[O-])c4F)c4nc(c(-c5cccc(S(=O)(=O)[O-])c5F)c5ccc2[nH]5)C=C4)C=C3)cc1)c1ccc(Cc2ccoc2)cc1F
REMARK SMILES IDX 8 1 7 2 6 3 5 4 3 5 4 6 2 8 1 9 78 10 79 11 89 12 80 13
REMARK SMILES IDX 88 14 90 15 81 16 82 17 83 18 84 19 87 20 85 21 86 22 9 23
REMARK SMILES IDX 10 24 11 25 12 26 13 27 14 29 15 30 16 31 77 32 17 33 76 34
REMARK SMILES IDX 18 35 19 36 20 37 70 38 21 39 75 40 69 41 71 42 22 43 74 44
REMARK SMILES IDX 68 45 67 46 23 48 55 49 35 50 54 51 36 52 39 53 53 54 72 55
REMARK SMILES IDX 37 56 38 57 52 59 73 60 40 61 24 62 25 63 33 64 26 65 28 66
REMARK SMILES IDX 34 67 27 68 29 69 30 70 31 71 32 72 56 73 57 74 65 75 58 76
REMARK SMILES IDX 60 77 66 78 59 79 61 80 62 81 63 82 64 83 41 84 42 85 50 86
REMARK SMILES IDX 43 87 45 88 51 89 44 90 46 91 47 92 48 93 49 94
REMARK H PARENT 5 7 12 28 71 47 39 58
REMARK Flexibility Score: inf
ROOT
ATOM      1  C   UNL A   1      32.874  36.056  29.523  1.00  0.00     0.002 C 
ENDROOT
BRANCH   1   2
ATOM      2  C   UNL A   1      32.988  36.546  30.975  1.00  0.00     0.021 C 
BRANCH   2   3
ATOM      3  C   UNL A   1      32.585  35.505  32.023  1.00  0.00     0.116 C 
BRANCH   3   4
ATOM      4  N   UNL A   1      33.473  35.573  33.164  1.00  0.00    -0.356 N 
ATOM      5  C   UNL A   1      34.679  34.980  33.388  1.00  0.00     0.227 C 
ATOM      6  O   UNL A   1      35.147  35.121  34.522  1.00  0.00    -0.274 OA
ATOM      7  H   UNL A   1      33.153  36.141  33.902  1.00  0.00     0.163 HD
BRANCH   5   8
ATOM      8  C   UNL A   1      35.402  34.226  32.254  1.00  0.00     0.108 C 
ATOM      9  C   UNL A   1      35.083  32.728  32.222  1.00  0.00     0.023 C 
BRANCH   8  10
ATOM     10  C   UNL A   1      36.918  34.383  32.311  1.00  0.00    -0.000 A 
ATOM     11  C   UNL A   1      37.593  34.488  33.536  1.00  0.00     0.008 A 
ATOM     12  C   UNL A   1      37.685  34.354  31.145  1.00  0.00     0.127 A 
ATOM     13  C   UNL A   1      38.985  34.578  33.583  1.00  0.00     0.004 A 
ATOM     14  C   UNL A   1      39.077  34.455  31.182  1.00  0.00     0.043 A 
ATOM     15  F   UNL A   1      37.087  34.193  29.954  1.00  0.00    -0.207 F 
ATOM     16  C   UNL A   1      39.748  34.577  32.406  1.00  0.00    -0.041 A 
BRANCH  16  17
ATOM     17  C   UNL A   1      41.254  34.635  32.468  1.00  0.00     0.074 C 
BRANCH  17  18
ATOM     18  C   UNL A   1      41.805  33.910  31.283  1.00  0.00    -0.005 A 
ATOM     19  C   UNL A   1      42.249  34.438  30.033  1.00  0.00     0.046 A 
ATOM     20  C   UNL A   1      42.076  32.556  31.207  1.00  0.00     0.198 A 
ATOM     21  C   UNL A   1      42.734  33.381  29.302  1.00  0.00     0.195 A 
ATOM     22  O   UNL A   1      42.638  32.233  30.015  1.00  0.00    -0.472 OA
ENDBRANCH  17  18
ENDBRANCH  16  17
ENDBRANCH   8  10
ENDBRANCH   5   8
ENDBRANCH   3   4
ENDBRANCH   2   3
ENDBRANCH   1   2
BRANCH   1  23
ATOM     23  C   UNL A   1      34.149  36.205  28.688  1.00  0.00     0.002 C 
BRANCH  23  24
ATOM     24  C   UNL A   1      34.583  34.941  27.945  1.00  0.00     0.021 C 
BRANCH  24  25
ATOM     25  C   UNL A   1      34.337  33.642  28.707  1.00  0.00     0.116 C 
BRANCH  25  26
ATOM     26  N   UNL A   1      33.574  32.683  27.921  1.00  0.00    -0.352 N 
ATOM     27  C   UNL A   1      33.948  31.446  27.460  1.00  0.00     0.251 C 
ATOM     28  H   UNL A   1      32.660  32.963  27.686  1.00  0.00     0.163 HD
ATOM     29  O   UNL A   1      33.248  30.859  26.636  1.00  0.00    -0.269 OA
BRANCH  27  30
ATOM     30  C   UNL A   1      35.204  30.830  27.939  1.00  0.00     0.039 A 
ATOM     31  C   UNL A   1      36.359  31.613  28.001  1.00  0.00     0.014 A 
ATOM     32  C   UNL A   1      35.237  29.492  28.341  1.00  0.00     0.014 A 
ATOM     33  C   UNL A   1      37.530  31.072  28.537  1.00  0.00     0.010 A 
ATOM     34  C   UNL A   1      36.385  28.977  28.939  1.00  0.00     0.010 A 
ATOM     35  C   UNL A   1      37.541  29.765  29.053  1.00  0.00    -0.014 A 
BRANCH  35  36
ATOM     36  C   UNL A   1      38.731  29.234  29.770  1.00  0.00     0.031 A 
ATOM     37  C   UNL A   1      39.134  29.788  31.110  1.00  0.00     0.074 A 
ATOM     38  C   UNL A   1      39.503  28.309  29.164  1.00  0.00     0.049 A 
ATOM     39  N   UNL A   1      40.167  29.475  31.850  1.00  0.00    -0.248 NA
ATOM     40  C   UNL A   1      38.282  30.842  31.687  1.00  0.00     0.031 C 
ATOM     41  C   UNL A   1      39.265  27.753  27.828  1.00  0.00     0.029 A 
ATOM     42  N   UNL A   1      40.661  27.695  29.574  1.00  0.00    -0.354 N 
ATOM     43  C   UNL A   1      40.112  30.313  32.956  1.00  0.00     0.074 A 
ATOM     44  C   UNL A   1      38.952  31.161  32.787  1.00  0.00     0.031 C 
ATOM     45  C   UNL A   1      40.245  26.886  27.530  1.00  0.00     0.029 A 
ATOM     46  C   UNL A   1      41.201  26.850  28.631  1.00  0.00     0.049 A 
ATOM     47  H   UNL A   1      41.066  27.845  30.459  1.00  0.00     0.167 HD
ATOM     48  C   UNL A   1      40.942  30.357  34.026  1.00  0.00     0.034 A 
ATOM     49  C   UNL A   1      42.350  26.144  28.638  1.00  0.00     0.034 A 
ATOM     50  C   UNL A   1      42.072  29.487  34.211  1.00  0.00     0.049 A 
ATOM     51  C   UNL A   1      43.234  26.198  29.856  1.00  0.00     0.074 A 
ATOM     52  C   UNL A   1      42.902  29.385  35.313  1.00  0.00     0.029 A 
ATOM     53  N   UNL A   1      42.545  28.588  33.269  1.00  0.00    -0.354 N 
ATOM     54  N   UNL A   1      43.058  26.858  30.973  1.00  0.00    -0.248 NA
ATOM     55  C   UNL A   1      44.458  25.386  29.825  1.00  0.00     0.031 C 
ATOM     56  C   UNL A   1      43.904  28.454  35.022  1.00  0.00     0.029 A 
ATOM     57  C   UNL A   1      43.673  27.948  33.753  1.00  0.00     0.049 A 
ATOM     58  H   UNL A   1      42.139  28.427  32.387  1.00  0.00     0.167 HD
ATOM     59  C   UNL A   1      44.132  26.518  31.788  1.00  0.00     0.074 A 
ATOM     60  C   UNL A   1      44.935  25.567  31.048  1.00  0.00     0.031 C 
ATOM     61  C   UNL A   1      44.439  26.968  33.029  1.00  0.00     0.034 A 
BRANCH  48  62
ATOM     62  C   UNL A   1      40.650  31.356  35.116  1.00  0.00     0.023 A 
ATOM     63  C   UNL A   1      41.437  32.519  35.225  1.00  0.00     0.012 A 
ATOM     64  C   UNL A   1      39.524  31.199  35.947  1.00  0.00     0.148 A 
ATOM     65  C   UNL A   1      41.116  33.506  36.157  1.00  0.00     0.002 A 
ATOM     66  C   UNL A   1      39.186  32.206  36.843  1.00  0.00     0.091 A 
ATOM     67  F   UNL A   1      38.800  30.076  35.837  1.00  0.00    -0.205 F 
ATOM     68  C   UNL A   1      39.984  33.356  36.955  1.00  0.00     0.022 A 
BRANCH  66  69
ATOM     69  S   UNL A   1      37.703  32.149  37.855  1.00  0.00     0.127 S 
ATOM     70  O   UNL A   1      38.195  32.673  39.129  1.00  0.00    -0.237 OA
ATOM     71  O   UNL A   1      36.805  33.049  37.131  1.00  0.00    -0.237 OA
ATOM     72  O   UNL A   1      37.283  30.755  37.882  1.00  0.00    -0.744 OA
ENDBRANCH  66  69
ENDBRANCH  48  62
BRANCH  49  73
ATOM     73  C   UNL A   1      42.729  25.306  27.465  1.00  0.00     0.023 A 
ATOM     74  C   UNL A   1      43.532  25.853  26.446  1.00  0.00     0.012 A 
ATOM     75  C   UNL A   1      42.285  23.974  27.348  1.00  0.00     0.148 A 
ATOM     76  C   UNL A   1      43.844  25.106  25.309  1.00  0.00     0.002 A 
ATOM     77  C   UNL A   1      42.652  23.216  26.243  1.00  0.00     0.091 A 
ATOM     78  F   UNL A   1      41.510  23.474  28.321  1.00  0.00    -0.205 F 
ATOM     79  C   UNL A   1      43.411  23.786  25.210  1.00  0.00     0.022 A 
BRANCH  77  80
ATOM     80  S   UNL A   1      42.251  21.471  26.107  1.00  0.00     0.127 S 
ATOM     81  O   UNL A   1      43.172  21.033  25.062  1.00  0.00    -0.237 OA
ATOM     82  O   UNL A   1      42.564  20.982  27.450  1.00  0.00    -0.237 OA
ATOM     83  O   UNL A   1      40.835  21.421  25.770  1.00  0.00    -0.744 OA
ENDBRANCH  77  80
ENDBRANCH  49  73
BRANCH  61  84
ATOM     84  C   UNL A   1      45.678  26.418  33.687  1.00  0.00     0.023 A 
ATOM     85  C   UNL A   1      46.892  27.128  33.599  1.00  0.00     0.012 A 
ATOM     86  C   UNL A   1      45.625  25.232  34.444  1.00  0.00     0.148 A 
ATOM     87  C   UNL A   1      48.043  26.647  34.224  1.00  0.00     0.002 A 
ATOM     88  C   UNL A   1      46.761  24.786  35.109  1.00  0.00     0.091 A 
ATOM     89  F   UNL A   1      44.464  24.563  34.503  1.00  0.00    -0.205 F 
ATOM     90  C   UNL A   1      47.974  25.484  34.987  1.00  0.00     0.022 A 
BRANCH  88  91
ATOM     91  S   UNL A   1      46.747  23.354  36.192  1.00  0.00     0.127 S 
ATOM     92  O   UNL A   1      45.540  23.589  36.982  1.00  0.00    -0.237 OA
ATOM     93  O   UNL A   1      46.646  22.248  35.239  1.00  0.00    -0.237 OA
ATOM     94  O   UNL A   1      47.998  23.398  36.938  1.00  0.00    -0.744 OA
ENDBRANCH  88  91
ENDBRANCH  61  84
ENDBRANCH  35  36
ENDBRANCH  27  30
ENDBRANCH  25  26
ENDBRANCH  24  25
ENDBRANCH  23  24
ENDBRANCH   1  23
TORSDOF 19
ENDMDL
MODEL 2
REMARK VINA RESULT:      -9.9      4.695     11.033
REMARK SMILES C[C@@H](C(=O)NCCCCCCNC(=O)c1ccc(-c2c3nc(c(-c4cccc(S(=O)(=O)[O-])c4F)c4ccc([nH]4)c(-c4cccc(S(=O)(=O)[O-])c4F)c4nc(c(-c5cccc(S(=O)(=O)[O-])c5F)c5ccc2[nH]5)C=C4)C=C3)cc1)c1ccc(Cc2ccoc2)cc1F
REMARK SMILES IDX 8 1 7 2 6 3 5 4 3 5 4 6 2 8 1 9 78 10 79 11 89 12 80 13
REMARK SMILES IDX 88 14 90 15 81 16 82 17 83 18 84 19 87 20 85 21 86 22 9 23
REMARK SMILES IDX 10 24 11 25 12 26 13 27 14 29 15 30 16 31 77 32 17 33 76 34
REMARK SMILES IDX 18 35 19 36 20 37 70 38 21 39 75 40 69 41 71 42 22 43 74 44
REMARK SMILES IDX 68 45 67 46 23 48 55 49 35 50 54 51 36 52 39 53 53 54 72 55
REMARK SMILES IDX 37 56 38 57 52 59 73 60 40 61 24 62 25 63 33 64 26 65 28 66
REMARK SMILES IDX 34 67 27 68 29 69 30 70 31 71 32 72 56 73 57 74 65 75 58 76
REMARK SMILES IDX 60 77 66 78 59 79 61 80 62 81 63 82 64 83 41 84 42 85 50 86
REMARK SMILES IDX 43 87 45 88 51 89 44 90 46 91 47 92 48 93 49 94
REMARK H PARENT 5 7 12 28 71 47 39 58
REMARK Flexibility Score: inf
ROOT
ATOM      1  C   UNL A   1      30.774  28.008  24.387  1.00  0.00     0.002 C 
ENDROOT
BRANCH   1   2
ATOM      2  C   UNL A   1      30.874  27.495  22.943  1.00  0.00     0.021 C 
BRANCH   2   3
ATOM      3  C   UNL A   1      30.621  25.992  22.791  1.00  0.00     0.116 C 
BRANCH   3   4
ATOM      4  N   UNL A   1      31.690  25.377  22.032  1.00  0.00    -0.356 N 
ATOM      5  C   UNL A   1      32.857  24.807  22.442  1.00  0.00     0.227 C 
ATOM      6  O   UNL A   1      33.640  24.479  21.547  1.00  0.00    -0.274 OA
ATOM      7  H   UNL A   1      31.550  25.369  21.057  1.00  0.00     0.163 HD
BRANCH   5   8
ATOM      8  C   UNL A   1      33.123  24.565  23.941  1.00  0.00     0.108 C 
ATOM      9  C   UNL A   1      34.464  25.133  24.419  1.00  0.00     0.023 C 
BRANCH   8  10
ATOM     10  C   UNL A   1      33.078  23.088  24.319  1.00  0.00    -0.000 A 
ATOM     11  C   UNL A   1      34.252  22.326  24.421  1.00  0.00     0.008 A 
ATOM     12  C   UNL A   1      31.870  22.469  24.646  1.00  0.00     0.127 A 
ATOM     13  C   UNL A   1      34.207  20.989  24.818  1.00  0.00     0.004 A 
ATOM     14  C   UNL A   1      31.815  21.128  25.033  1.00  0.00     0.043 A 
ATOM     15  F   UNL A   1      30.729  23.175  24.623  1.00  0.00    -0.207 F 
ATOM     16  C   UNL A   1      32.988  20.365  25.117  1.00  0.00    -0.041 A 
BRANCH  16  17
ATOM     17  C   UNL A   1      32.953  18.931  25.584  1.00  0.00     0.074 C 
BRANCH  17  18
ATOM     18  C   UNL A   1      33.370  18.054  24.449  1.00  0.00    -0.005 A 
ATOM     19  C   UNL A   1      34.385  17.048  24.416  1.00  0.00     0.046 A 
ATOM     20  C   UNL A   1      32.774  17.989  23.203  1.00  0.00     0.198 A 
ATOM     21  C   UNL A   1      34.336  16.472  23.170  1.00  0.00     0.195 A 
ATOM     22  O   UNL A   1      33.351  17.036  22.430  1.00  0.00    -0.472 OA
ENDBRANCH  17  18
ENDBRANCH  16  17
ENDBRANCH   8  10
ENDBRANCH   5   8
ENDBRANCH   3   4
ENDBRANCH   2   3
ENDBRANCH   1   2
BRANCH   1  23
ATOM     23  C   UNL A   1      31.097  29.494  24.570  1.00  0.00     0.002 C 
BRANCH  23  24
ATOM     24  C   UNL A   1      32.382  29.781  25.349  1.00  0.00     0.021 C 
BRANCH  24  25
ATOM     25  C   UNL A   1      32.162  30.314  26.761  1.00  0.00     0.116 C 
BRANCH  25  26
ATOM     26  N   UNL A   1      32.149  31.769  26.800  1.00  0.00    -0.352 N 
ATOM     27  C   UNL A   1      33.059  32.630  27.357  1.00  0.00     0.251 C 
ATOM     28  H   UNL A   1      31.374  32.195  26.365  1.00  0.00     0.163 HD
ATOM     29  O   UNL A   1      32.785  33.824  27.477  1.00  0.00    -0.269 OA
BRANCH  27  30
ATOM     30  C   UNL A   1      34.363  32.119  27.832  1.00  0.00     0.039 A 
ATOM     31  C   UNL A   1      35.450  32.994  27.894  1.00  0.00     0.014 A 
ATOM     32  C   UNL A   1      34.507  30.787  28.229  1.00  0.00     0.014 A 
ATOM     33  C   UNL A   1      36.662  32.551  28.427  1.00  0.00     0.010 A 
ATOM     34  C   UNL A   1      35.696  30.367  28.825  1.00  0.00     0.010 A 
ATOM     35  C   UNL A   1      36.782  31.248  28.938  1.00  0.00    -0.014 A 
BRANCH  35  36
ATOM     36  C   UNL A   1      38.014  30.815  29.652  1.00  0.00     0.031 A 
ATOM     37  C   UNL A   1      38.969  29.840  29.019  1.00  0.00     0.074 A 
ATOM     38  C   UNL A   1      38.222  31.238  30.916  1.00  0.00     0.049 A 
ATOM     39  N   UNL A   1      40.063  29.322  29.518  1.00  0.00    -0.248 NA
ATOM     40  C   UNL A   1      38.650  29.369  27.661  1.00  0.00     0.031 C 
ATOM     41  C   UNL A   1      37.325  32.119  31.670  1.00  0.00     0.029 A 
ATOM     42  N   UNL A   1      39.232  30.961  31.803  1.00  0.00    -0.354 N 
ATOM     43  C   UNL A   1      40.541  28.441  28.557  1.00  0.00     0.074 A 
ATOM     44  C   UNL A   1      39.612  28.481  27.448  1.00  0.00     0.031 C 
ATOM     45  C   UNL A   1      37.824  32.306  32.902  1.00  0.00     0.029 A 
ATOM     46  C   UNL A   1      39.052  31.531  33.042  1.00  0.00     0.049 A 
ATOM     47  H   UNL A   1      40.014  30.407  31.573  1.00  0.00     0.167 HD
ATOM     48  C   UNL A   1      41.663  27.683  28.588  1.00  0.00     0.034 A 
ATOM     49  C   UNL A   1      39.777  31.424  34.174  1.00  0.00     0.034 A 
ATOM     50  C   UNL A   1      42.605  27.675  29.674  1.00  0.00     0.049 A 
ATOM     51  C   UNL A   1      41.032  30.594  34.162  1.00  0.00     0.074 A 
ATOM     52  C   UNL A   1      43.825  27.024  29.744  1.00  0.00     0.029 A 
ATOM     53  N   UNL A   1      42.429  28.327  30.883  1.00  0.00    -0.354 N 
ATOM     54  N   UNL A   1      41.565  29.919  33.173  1.00  0.00    -0.248 NA
ATOM     55  C   UNL A   1      41.803  30.536  35.412  1.00  0.00     0.031 C 
ATOM     56  C   UNL A   1      44.367  27.247  31.014  1.00  0.00     0.029 A 
ATOM     57  C   UNL A   1      43.503  28.069  31.718  1.00  0.00     0.049 A 
ATOM     58  H   UNL A   1      41.656  28.889  31.115  1.00  0.00     0.167 HD
ATOM     59  C   UNL A   1      42.746  29.381  33.674  1.00  0.00     0.074 A 
ATOM     60  C   UNL A   1      42.867  29.837  35.042  1.00  0.00     0.031 C 
ATOM     61  C   UNL A   1      43.640  28.566  33.062  1.00  0.00     0.034 A 
BRANCH  48  62
ATOM     62  C   UNL A   1      41.972  26.816  27.395  1.00  0.00     0.023 A 
ATOM     63  C   UNL A   1      42.613  27.375  26.273  1.00  0.00     0.012 A 
ATOM     64  C   UNL A   1      41.740  25.427  27.442  1.00  0.00     0.148 A 
ATOM     65  C   UNL A   1      43.004  26.567  25.205  1.00  0.00     0.002 A 
ATOM     66  C   UNL A   1      42.173  24.623  26.394  1.00  0.00     0.091 A 
ATOM     67  F   UNL A   1      41.114  24.919  28.513  1.00  0.00    -0.205 F 
ATOM     68  C   UNL A   1      42.797  25.191  25.272  1.00  0.00     0.022 A 
BRANCH  66  69
ATOM     69  S   UNL A   1      42.030  22.832  26.420  1.00  0.00     0.127 S 
ATOM     70  O   UNL A   1      42.765  22.496  27.640  1.00  0.00    -0.237 OA
ATOM     71  O   UNL A   1      40.583  22.643  26.509  1.00  0.00    -0.237 OA
ATOM     72  O   UNL A   1      42.636  22.358  25.184  1.00  0.00    -0.744 OA
ENDBRANCH  66  69
ENDBRANCH  48  62
BRANCH  49  73
ATOM     73  C   UNL A   1      39.353  32.135  35.413  1.00  0.00     0.023 A 
ATOM     74  C   UNL A   1      38.467  31.507  36.311  1.00  0.00     0.012 A 
ATOM     75  C   UNL A   1      39.810  33.436  35.700  1.00  0.00     0.148 A 
ATOM     76  C   UNL A   1      38.006  32.180  37.443  1.00  0.00     0.002 A 
ATOM     77  C   UNL A   1      39.397  34.076  36.862  1.00  0.00     0.091 A 
ATOM     78  F   UNL A   1      40.642  34.024  34.828  1.00  0.00    -0.205 F 
ATOM     79  C   UNL A   1      38.476  33.461  37.723  1.00  0.00     0.022 A 
BRANCH  77  80
ATOM     80  S   UNL A   1      40.062  35.667  37.363  1.00  0.00     0.127 S 
ATOM     81  O   UNL A   1      39.575  36.543  36.301  1.00  0.00    -0.237 OA
ATOM     82  O   UNL A   1      39.426  35.865  38.667  1.00  0.00    -0.237 OA
ATOM     83  O   UNL A   1      41.506  35.483  37.427  1.00  0.00    -0.744 OA
ENDBRANCH  77  80
ENDBRANCH  49  73
BRANCH  61  84
ATOM     84  C   UNL A   1      44.848  28.134  33.852  1.00  0.00     0.023 A 
ATOM     85  C   UNL A   1      45.969  28.983  33.938  1.00  0.00     0.012 A 
ATOM     86  C   UNL A   1      44.847  26.917  34.561  1.00  0.00     0.148 A 
ATOM     87  C   UNL A   1      47.086  28.611  34.686  1.00  0.00     0.002 A 
ATOM     88  C   UNL A   1      45.941  26.576  35.348  1.00  0.00     0.091 A 
ATOM     89  F   UNL A   1      43.777  26.116  34.454  1.00  0.00    -0.205 F 
ATOM     90  C   UNL A   1      47.066  27.414  35.400  1.00  0.00     0.022 A 
BRANCH  88  91
ATOM     91  S   UNL A   1      45.969  25.104  36.377  1.00  0.00     0.127 S 
ATOM     92  O   UNL A   1      46.374  25.653  37.670  1.00  0.00    -0.237 OA
ATOM     93  O   UNL A   1      44.577  24.658  36.314  1.00  0.00    -0.237 OA
ATOM     94  O   UNL A   1      46.925  24.197  35.758  1.00  0.00    -0.744 OA
ENDBRANCH  88  91
ENDBRANCH  61  84
ENDBRANCH  35  36
ENDBRANCH  27  30
ENDBRANCH  25  26
ENDBRANCH  24  25
ENDBRANCH  23  24
ENDBRANCH   1  23
TORSDOF 19
ENDMDL
MODEL 3
REMARK VINA RESULT:      -9.9      2.404      3.664
REMARK SMILES C[C@@H](C(=O)NCCCCCCNC(=O)c1ccc(-c2c3nc(c(-c4cccc(S(=O)(=O)[O-])c4F)c4ccc([nH]4)c(-c4cccc(S(=O)(=O)[O-])c4F)c4nc(c(-c5cccc(S(=O)(=O)[O-])c5F)c5ccc2[nH]5)C=C4)C=C3)cc1)c1ccc(Cc2ccoc2)cc1F
REMARK SMILES IDX 8 1 7 2 6 3 5 4 3 5 4 6 2 8 1 9 78 10 79 11 89 12 80 13
REMARK SMILES IDX 88 14 90 15 81 16 82 17 83 18 84 19 87 20 85 21 86 22 9 23
REMARK SMILES IDX 10 24 11 25 12 26 13 27 14 29 15 30 16 31 77 32 17 33 76 34
REMARK SMILES IDX 18 35 19 36 20 37 70 38 21 39 75 40 69 41 71 42 22 43 74 44
REMARK SMILES IDX 68 45 67 46 23 48 55 49 35 50 54 51 36 52 39 53 53 54 72 55
REMARK SMILES IDX 37 56 38 57 52 59 73 60 40 61 24 62 25 63 33 64 26 65 28 66
REMARK SMILES IDX 34 67 27 68 29 69 30 70 31 71 32 72 56 73 57 74 65 75 58 76
REMARK SMILES IDX 60 77 66 78 59 79 61 80 62 81 63 82 64 83 41 84 42 85 50 86
REMARK SMILES IDX 43 87 45 88 51 89 44 90 46 91 47 92 48 93 49 94
REMARK H PARENT 5 7 12 28 71 47 39 58
REMARK Flexibility Score: inf
ROOT
ATOM      1  C   UNL A   1      32.970  35.715  29.697  1.00  0.00     0.002 C 
ENDROOT
BRANCH   1   2
ATOM      2  C   UNL A   1      33.007  36.777  30.807  1.00  0.00     0.021 C 
BRANCH   2   3
ATOM      3  C   UNL A   1      33.545  36.268  32.147  1.00  0.00     0.116 C 
BRANCH   3   4
ATOM      4  N   UNL A   1      33.457  34.824  32.207  1.00  0.00    -0.356 N 
ATOM      5  C   UNL A   1      34.422  33.870  32.103  1.00  0.00     0.227 C 
ATOM      6  O   UNL A   1      34.025  32.702  32.063  1.00  0.00    -0.274 OA
ATOM      7  H   UNL A   1      32.547  34.473  32.347  1.00  0.00     0.163 HD
BRANCH   5   8
ATOM      8  C   UNL A   1      35.913  34.265  32.084  1.00  0.00     0.108 C 
ATOM      9  C   UNL A   1      36.753  33.420  31.121  1.00  0.00     0.023 C 
BRANCH   8  10
ATOM     10  C   UNL A   1      36.562  34.191  33.462  1.00  0.00    -0.000 A 
ATOM     11  C   UNL A   1      35.815  33.863  34.603  1.00  0.00     0.008 A 
ATOM     12  C   UNL A   1      37.937  34.380  33.616  1.00  0.00     0.127 A 
ATOM     13  C   UNL A   1      36.426  33.747  35.852  1.00  0.00     0.004 A 
ATOM     14  C   UNL A   1      38.555  34.276  34.865  1.00  0.00     0.043 A 
ATOM     15  F   UNL A   1      38.702  34.635  32.544  1.00  0.00    -0.207 F 
ATOM     16  C   UNL A   1      37.803  33.965  36.005  1.00  0.00    -0.041 A 
BRANCH  16  17
ATOM     17  C   UNL A   1      38.461  33.798  37.352  1.00  0.00     0.074 C 
BRANCH  17  18
ATOM     18  C   UNL A   1      37.866  32.603  38.025  1.00  0.00    -0.005 A 
ATOM     19  C   UNL A   1      37.130  32.535  39.248  1.00  0.00     0.046 A 
ATOM     20  C   UNL A   1      37.842  31.313  37.530  1.00  0.00     0.198 A 
ATOM     21  C   UNL A   1      36.736  31.229  39.404  1.00  0.00     0.195 A 
ATOM     22  O   UNL A   1      37.160  30.481  38.357  1.00  0.00    -0.472 OA
ENDBRANCH  17  18
ENDBRANCH  16  17
ENDBRANCH   8  10
ENDBRANCH   5   8
ENDBRANCH   3   4
ENDBRANCH   2   3
ENDBRANCH   1   2
BRANCH   1  23
ATOM     23  C   UNL A   1      34.035  35.879  28.609  1.00  0.00     0.002 C 
BRANCH  23  24
ATOM     24  C   UNL A   1      34.453  34.580  27.918  1.00  0.00     0.021 C 
BRANCH  24  25
ATOM     25  C   UNL A   1      34.157  33.314  28.716  1.00  0.00     0.116 C 
BRANCH  25  26
ATOM     26  N   UNL A   1      33.734  32.215  27.860  1.00  0.00    -0.352 N 
ATOM     27  C   UNL A   1      34.398  31.057  27.544  1.00  0.00     0.251 C 
ATOM     28  H   UNL A   1      32.846  32.319  27.448  1.00  0.00     0.163 HD
ATOM     29  O   UNL A   1      33.979  30.334  26.641  1.00  0.00    -0.269 OA
BRANCH  27  30
ATOM     30  C   UNL A   1      35.629  30.690  28.276  1.00  0.00     0.039 A 
ATOM     31  C   UNL A   1      35.547  29.747  29.304  1.00  0.00     0.014 A 
ATOM     32  C   UNL A   1      36.860  31.260  27.939  1.00  0.00     0.014 A 
ATOM     33  C   UNL A   1      36.715  29.322  29.943  1.00  0.00     0.010 A 
ATOM     34  C   UNL A   1      38.028  30.782  28.529  1.00  0.00     0.010 A 
ATOM     35  C   UNL A   1      37.969  29.801  29.530  1.00  0.00    -0.014 A 
BRANCH  35  36
ATOM     36  C   UNL A   1      39.226  29.238  30.091  1.00  0.00     0.031 A 
ATOM     37  C   UNL A   1      39.860  29.838  31.316  1.00  0.00     0.074 A 
ATOM     38  C   UNL A   1      39.846  28.236  29.434  1.00  0.00     0.049 A 
ATOM     39  N   UNL A   1      40.978  29.503  31.909  1.00  0.00    -0.248 NA
ATOM     40  C   UNL A   1      39.164  30.971  31.948  1.00  0.00     0.031 C 
ATOM     41  C   UNL A   1      39.375  27.624  28.187  1.00  0.00     0.029 A 
ATOM     42  N   UNL A   1      41.019  27.575  29.701  1.00  0.00    -0.354 N 
ATOM     43  C   UNL A   1      41.139  30.401  32.957  1.00  0.00     0.074 A 
ATOM     44  C   UNL A   1      40.012  31.307  32.912  1.00  0.00     0.031 C 
ATOM     45  C   UNL A   1      40.250  26.684  27.799  1.00  0.00     0.029 A 
ATOM     46  C   UNL A   1      41.362  26.649  28.742  1.00  0.00     0.049 A 
ATOM     47  H   UNL A   1      41.564  27.747  30.504  1.00  0.00     0.167 HD
ATOM     48  C   UNL A   1      42.125  30.451  33.883  1.00  0.00     0.034 A 
ATOM     49  C   UNL A   1      42.460  25.875  28.620  1.00  0.00     0.034 A 
ATOM     50  C   UNL A   1      43.223  29.525  33.949  1.00  0.00     0.049 A 
ATOM     51  C   UNL A   1      43.523  25.941  29.683  1.00  0.00     0.074 A 
ATOM     52  C   UNL A   1      44.208  29.431  34.917  1.00  0.00     0.029 A 
ATOM     53  N   UNL A   1      43.497  28.548  33.005  1.00  0.00    -0.354 N 
ATOM     54  N   UNL A   1      43.557  26.670  30.771  1.00  0.00    -0.248 NA
ATOM     55  C   UNL A   1      44.684  25.054  29.518  1.00  0.00     0.031 C 
ATOM     56  C   UNL A   1      45.102  28.427  34.536  1.00  0.00     0.029 A 
ATOM     57  C   UNL A   1      44.652  27.868  33.352  1.00  0.00     0.049 A 
ATOM     58  H   UNL A   1      42.951  28.366  32.207  1.00  0.00     0.167 HD
ATOM     59  C   UNL A   1      44.725  26.309  31.433  1.00  0.00     0.074 A 
ATOM     60  C   UNL A   1      45.353  25.272  30.642  1.00  0.00     0.031 C 
ATOM     61  C   UNL A   1      45.244  26.805  32.583  1.00  0.00     0.034 A 
BRANCH  48  62
ATOM     62  C   UNL A   1      42.059  31.523  34.940  1.00  0.00     0.023 A 
ATOM     63  C   UNL A   1      41.582  31.206  36.226  1.00  0.00     0.012 A 
ATOM     64  C   UNL A   1      42.584  32.807  34.691  1.00  0.00     0.148 A 
ATOM     65  C   UNL A   1      41.614  32.156  37.248  1.00  0.00     0.002 A 
ATOM     66  C   UNL A   1      42.653  33.732  35.725  1.00  0.00     0.091 A 
ATOM     67  F   UNL A   1      43.017  33.091  33.455  1.00  0.00    -0.205 F 
ATOM     68  C   UNL A   1      42.161  33.412  37.001  1.00  0.00     0.022 A 
BRANCH  66  69
ATOM     69  S   UNL A   1      43.416  35.347  35.534  1.00  0.00     0.127 S 
ATOM     70  O   UNL A   1      43.219  35.926  36.863  1.00  0.00    -0.237 OA
ATOM     71  O   UNL A   1      44.801  34.995  35.222  1.00  0.00    -0.237 OA
ATOM     72  O   UNL A   1      42.695  36.013  34.458  1.00  0.00    -0.744 OA
ENDBRANCH  66  69
ENDBRANCH  48  62
BRANCH  49  73
ATOM     73  C   UNL A   1      42.608  24.953  27.458  1.00  0.00     0.023 A 
ATOM     74  C   UNL A   1      43.260  25.398  26.292  1.00  0.00     0.012 A 
ATOM     75  C   UNL A   1      42.093  23.643  27.498  1.00  0.00     0.148 A 
ATOM     76  C   UNL A   1      43.352  24.573  25.170  1.00  0.00     0.002 A 
ATOM     77  C   UNL A   1      42.243  22.805  26.399  1.00  0.00     0.091 A 
ATOM     78  F   UNL A   1      41.462  23.241  28.611  1.00  0.00    -0.205 F 
ATOM     79  C   UNL A   1      42.851  23.275  25.226  1.00  0.00     0.022 A 
BRANCH  77  80
ATOM     80  S   UNL A   1      41.750  21.079  26.441  1.00  0.00     0.127 S 
ATOM     81  O   UNL A   1      42.512  20.523  25.326  1.00  0.00    -0.237 OA
ATOM     82  O   UNL A   1      42.206  20.664  27.768  1.00  0.00    -0.237 OA
ATOM     83  O   UNL A   1      40.301  21.084  26.283  1.00  0.00    -0.744 OA
ENDBRANCH  77  80
ENDBRANCH  49  73
BRANCH  61  84
ATOM     84  C   UNL A   1      46.539  26.216  33.079  1.00  0.00     0.023 A 
ATOM     85  C   UNL A   1      46.521  25.073  33.901  1.00  0.00     0.012 A 
ATOM     86  C   UNL A   1      47.776  26.758  32.677  1.00  0.00     0.148 A 
ATOM     87  C   UNL A   1      47.712  24.500  34.347  1.00  0.00     0.002 A 
ATOM     88  C   UNL A   1      48.959  26.152  33.080  1.00  0.00     0.091 A 
ATOM     89  F   UNL A   1      47.772  27.856  31.906  1.00  0.00    -0.205 F 
ATOM     90  C   UNL A   1      48.928  25.032  33.927  1.00  0.00     0.022 A 
BRANCH  88  91
ATOM     91  S   UNL A   1      50.571  26.705  32.514  1.00  0.00     0.127 S 
ATOM     92  O   UNL A   1      50.749  27.936  33.282  1.00  0.00    -0.237 OA
ATOM     93  O   UNL A   1      51.438  25.600  32.924  1.00  0.00    -0.237 OA
ATOM     94  O   UNL A   1      50.454  26.882  31.073  1.00  0.00    -0.744 OA
ENDBRANCH  88  91
ENDBRANCH  61  84
ENDBRANCH  35  36
ENDBRANCH  27  30
ENDBRANCH  25  26
ENDBRANCH  24  25
ENDBRANCH  23  24
ENDBRANCH   1  23
TORSDOF 19
ENDMDL
