MODEL 1
REMARK VINA RESULT:     -12.1      0.000      0.000
REMARK SMILES CCCc1cc(S(F)(F)(F)(F)F)cc2c1O[C@@H](C(F)(F)F)C(C(=O)NCCCCCCNC(=O)c1ccc(-c3c4nc(c(-c5cccc(S(=O)(=O)[O-])c5F)c5ccc([nH]5)c(-c5cccc(S(=O)(=O)[O-])c5F)c5nc(c(-c6cccc(S(=O)(=O)[O-])c6F)c6ccc3[nH]6)C=C5)C=C4)cc1)=C2
REMARK SMILES IDX 29 1 28 2 27 3 26 4 25 5 23 6 24 7 22 9 4 10 5 11 15 12 6 13
REMARK SMILES IDX 14 14 16 15 13 16 98 17 17 18 3 19 2 20 1 21 7 22 8 23 9 24
REMARK SMILES IDX 10 25 11 26 12 27 18 28 19 29 20 30 21 31 30 32 31 33 32 34
REMARK SMILES IDX 33 35 34 37 35 38 36 39 97 40 37 41 96 42 38 43 39 44 40 45
REMARK SMILES IDX 90 46 41 47 95 48 89 49 91 50 42 51 94 52 88 53 87 54 43 56
REMARK SMILES IDX 75 57 55 58 74 59 56 60 59 61 73 62 92 63 57 64 58 65 72 67
REMARK SMILES IDX 93 68 60 69 44 70 45 71 53 72 46 73 48 74 54 75 47 76 49 77
REMARK SMILES IDX 50 78 51 79 52 80 76 81 77 82 85 83 78 84 80 85 86 86 79 87
REMARK SMILES IDX 81 88 82 89 83 90 84 91 61 92 62 93 70 94 63 95 65 96 71 97
REMARK SMILES IDX 64 98 66 99 67 100 68 101 69 102
REMARK H PARENT 25 8 32 36 91 55 59 66
REMARK Flexibility Score: inf
ROOT
ATOM      1  C   UNL A   1      35.480  22.648  23.875  1.00  0.00     0.002 C 
ENDROOT
BRANCH   1   2
ATOM      2  C   UNL A   1      34.475  23.328  22.958  1.00  0.00     0.002 C 
BRANCH   2   3
ATOM      3  C   UNL A   1      33.364  22.352  22.612  1.00  0.00     0.021 C 
BRANCH   3   4
ATOM      4  C   UNL A   1      32.020  23.054  22.722  1.00  0.00     0.116 C 
BRANCH   4   5
ATOM      5  N   UNL A   1      31.317  22.579  23.921  1.00  0.00    -0.352 N 
ATOM      6  C   UNL A   1      30.782  23.546  24.892  1.00  0.00     0.251 C 
ATOM      7  O   UNL A   1      30.174  23.135  25.929  1.00  0.00    -0.270 OA
ATOM      8  H   UNL A   1      31.202  21.614  24.076  1.00  0.00     0.163 HD
BRANCH   6   9
ATOM      9  C   UNL A   1      30.958  25.037  24.654  1.00  0.00     0.067 C 
ATOM     10  C   UNL A   1      31.328  29.194  24.497  1.00  0.00    -0.004 A 
ATOM     11  C   UNL A   1      30.421  29.941  23.767  1.00  0.00     0.032 A 
ATOM     12  C   UNL A   1      31.152  27.835  24.575  1.00  0.00     0.131 A 
ATOM     13  C   UNL A   1      29.362  29.343  23.137  1.00  0.00     0.108 A 
ATOM     14  C   UNL A   1      30.105  27.193  23.937  1.00  0.00     0.019 A 
ATOM     15  O   UNL A   1      31.993  27.122  25.395  1.00  0.00    -0.475 OA
ATOM     16  C   UNL A   1      29.210  27.974  23.215  1.00  0.00     0.036 A 
ATOM     17  C   UNL A   1      29.983  25.756  24.112  1.00  0.00     0.025 C 
ATOM     18  C   UNL A   1      32.256  25.737  25.033  1.00  0.00     0.314 C 
BRANCH  10  19
ATOM     19  C   UNL A   1      32.413  29.823  25.356  1.00  0.00     0.039 C 
BRANCH  19  20
ATOM     20  C   UNL A   1      31.820  30.245  26.691  1.00  0.00     0.001 C 
ATOM     21  C   UNL A   1      31.721  31.760  26.745  1.00  0.00     0.004 C 
ENDBRANCH  19  20
ENDBRANCH  10  19
BRANCH  13  22
ATOM     22  S   UNL A   1      28.172  30.341  22.206  1.00  0.00     0.310 S 
ATOM     23  F   UNL A   1      28.855  31.599  22.891  1.00  0.00    -0.094 F 
ATOM     24  F   UNL A   1      27.157  30.323  23.410  1.00  0.00    -0.094 F 
ATOM     25  F   UNL A   1      27.270  31.334  21.422  1.00  0.00    -0.094 F 
ATOM     26  F   UNL A   1      29.268  30.455  21.073  1.00  0.00    -0.094 F 
ATOM     27  F   UNL A   1      29.152  29.421  23.039  1.00  0.00    -0.094 F 
ENDBRANCH  13  22
BRANCH  18  28
ATOM     28  C   UNL A   1      32.877  25.022  26.221  1.00  0.00     0.429 C 
ATOM     29  F   UNL A   1      33.098  23.750  25.909  1.00  0.00    -0.167 F 
ATOM     30  F   UNL A   1      34.029  25.607  26.537  1.00  0.00    -0.167 F 
ATOM     31  F   UNL A   1      32.048  25.087  27.260  1.00  0.00    -0.167 F 
ENDBRANCH  18  28
ENDBRANCH   6   9
ENDBRANCH   4   5
ENDBRANCH   3   4
ENDBRANCH   2   3
ENDBRANCH   1   2
BRANCH   1  32
ATOM     32  C   UNL A   1      36.082  23.677  24.818  1.00  0.00     0.021 C 
BRANCH  32  33
ATOM     33  C   UNL A   1      36.419  23.012  26.144  1.00  0.00     0.116 C 
BRANCH  33  34
ATOM     34  N   UNL A   1      36.979  21.676  25.894  1.00  0.00    -0.352 N 
ATOM     35  C   UNL A   1      38.432  21.464  25.961  1.00  0.00     0.251 C 
ATOM     36  H   UNL A   1      36.380  20.924  25.680  1.00  0.00     0.163 HD
ATOM     37  O   UNL A   1      38.916  20.309  25.744  1.00  0.00    -0.269 OA
BRANCH  35  38
ATOM     38  C   UNL A   1      39.355  22.625  26.290  1.00  0.00     0.039 A 
ATOM     39  C   UNL A   1      40.257  22.473  27.330  1.00  0.00     0.014 A 
ATOM     40  C   UNL A   1      39.173  23.803  25.703  1.00  0.00     0.014 A 
ATOM     41  C   UNL A   1      40.713  23.695  27.878  1.00  0.00     0.010 A 
ATOM     42  C   UNL A   1      39.759  24.936  26.213  1.00  0.00     0.010 A 
ATOM     43  C   UNL A   1      40.615  24.867  27.278  1.00  0.00    -0.014 A 
BRANCH  43  44
ATOM     44  C   UNL A   1      41.411  26.075  27.744  1.00  0.00     0.031 A 
ATOM     45  C   UNL A   1      42.748  26.229  27.374  1.00  0.00     0.074 A 
ATOM     46  C   UNL A   1      40.675  27.043  28.404  1.00  0.00     0.049 A 
ATOM     47  N   UNL A   1      43.523  27.300  27.550  1.00  0.00    -0.248 NA
ATOM     48  C   UNL A   1      43.543  25.189  26.703  1.00  0.00     0.031 C 
ATOM     49  C   UNL A   1      39.323  26.900  28.773  1.00  0.00     0.029 A 
ATOM     50  N   UNL A   1      41.094  28.288  28.819  1.00  0.00    -0.354 N 
ATOM     51  C   UNL A   1      44.739  27.077  27.047  1.00  0.00     0.074 A 
ATOM     52  C   UNL A   1      44.771  25.713  26.501  1.00  0.00     0.031 C 
ATOM     53  C   UNL A   1      38.936  28.036  29.410  1.00  0.00     0.029 A 
ATOM     54  C   UNL A   1      40.040  28.910  29.450  1.00  0.00     0.049 A 
ATOM     55  H   UNL A   1      41.993  28.668  28.686  1.00  0.00     0.167 HD
ATOM     56  C   UNL A   1      45.822  27.958  27.021  1.00  0.00     0.034 A 
ATOM     57  C   UNL A   1      40.021  30.166  30.035  1.00  0.00     0.034 A 
ATOM     58  C   UNL A   1      45.791  29.230  27.569  1.00  0.00     0.049 A 
ATOM     59  C   UNL A   1      41.123  31.025  30.061  1.00  0.00     0.074 A 
ATOM     60  C   UNL A   1      46.871  30.133  27.544  1.00  0.00     0.029 A 
ATOM     61  N   UNL A   1      44.744  29.843  28.222  1.00  0.00    -0.354 N 
ATOM     62  N   UNL A   1      42.326  30.816  29.524  1.00  0.00    -0.248 NA
ATOM     63  C   UNL A   1      41.126  32.344  30.707  1.00  0.00     0.031 C 
ATOM     64  C   UNL A   1      46.485  31.271  28.182  1.00  0.00     0.029 A 
ATOM     65  C   UNL A   1      45.157  31.096  28.616  1.00  0.00     0.049 A 
ATOM     66  H   UNL A   1      43.854  29.451  28.379  1.00  0.00     0.167 HD
ATOM     67  C   UNL A   1      43.113  31.873  29.737  1.00  0.00     0.074 A 
ATOM     68  C   UNL A   1      42.355  32.868  30.507  1.00  0.00     0.031 C 
ATOM     69  C   UNL A   1      44.433  32.048  29.316  1.00  0.00     0.034 A 
BRANCH  56  70
ATOM     70  C   UNL A   1      47.107  27.494  26.355  1.00  0.00     0.023 A 
ATOM     71  C   UNL A   1      47.290  27.714  25.000  1.00  0.00     0.012 A 
ATOM     72  C   UNL A   1      48.035  26.885  27.085  1.00  0.00     0.148 A 
ATOM     73  C   UNL A   1      48.370  26.992  24.443  1.00  0.00     0.002 A 
ATOM     74  C   UNL A   1      49.135  26.319  26.486  1.00  0.00     0.091 A 
ATOM     75  F   UNL A   1      47.899  26.822  28.406  1.00  0.00    -0.205 F 
ATOM     76  C   UNL A   1      49.348  26.447  25.142  1.00  0.00     0.022 A 
BRANCH  74  77
ATOM     77  S   UNL A   1      50.320  25.392  27.493  1.00  0.00     0.127 S 
ATOM     78  O   UNL A   1      49.665  24.101  27.993  1.00  0.00    -0.237 OA
ATOM     79  O   UNL A   1      51.549  25.046  26.648  1.00  0.00    -0.237 OA
ATOM     80  O   UNL A   1      50.798  26.343  28.832  1.00  0.00    -0.744 OA
ENDBRANCH  74  77
ENDBRANCH  56  70
BRANCH  57  81
ATOM     81  C   UNL A   1      38.731  30.635  30.686  1.00  0.00     0.023 A 
ATOM     82  C   UNL A   1      38.486  30.321  32.013  1.00  0.00     0.012 A 
ATOM     83  C   UNL A   1      37.860  31.339  29.973  1.00  0.00     0.148 A 
ATOM     84  C   UNL A   1      37.150  30.551  32.419  1.00  0.00     0.002 A 
ATOM     85  C   UNL A   1      36.622  31.644  30.484  1.00  0.00     0.091 A 
ATOM     86  F   UNL A   1      38.189  31.752  28.752  1.00  0.00    -0.205 F 
ATOM     87  C   UNL A   1      36.290  31.313  31.768  1.00  0.00     0.022 A 
BRANCH  85  88
ATOM     88  S   UNL A   1      35.413  32.498  29.443  1.00  0.00     0.127 S 
ATOM     89  O   UNL A   1      34.116  32.703  30.229  1.00  0.00    -0.237 OA
ATOM     90  O   UNL A   1      35.973  33.859  29.021  1.00  0.00    -0.237 OA
ATOM     91  O   UNL A   1      35.093  31.558  28.051  1.00  0.00    -0.744 OA
ENDBRANCH  85  88
ENDBRANCH  57  81
BRANCH  69  92
ATOM     92  C   UNL A   1      45.118  33.365  29.645  1.00  0.00     0.023 A 
ATOM     93  C   UNL A   1      45.829  33.462  30.830  1.00  0.00     0.012 A 
ATOM     94  C   UNL A   1      44.907  34.429  28.880  1.00  0.00     0.148 A 
ATOM     95  C   UNL A   1      46.032  34.792  31.268  1.00  0.00     0.002 A 
ATOM     96  C   UNL A   1      45.255  35.685  29.314  1.00  0.00     0.091 A 
ATOM     97  F   UNL A   1      44.355  34.277  27.679  1.00  0.00    -0.205 F 
ATOM     98  C   UNL A   1      45.908  35.861  30.503  1.00  0.00     0.022 A 
BRANCH  96  99
ATOM     99  S   UNL A   1      44.845  37.126  28.300  1.00  0.00     0.127 S 
ATOM    100  O   UNL A   1      43.324  37.274  28.216  1.00  0.00    -0.237 OA
ATOM    101  O   UNL A   1      45.446  38.384  28.932  1.00  0.00    -0.237 OA
ATOM    102  O   UNL A   1      45.485  36.917  26.727  1.00  0.00    -0.744 OA
ENDBRANCH  96  99
ENDBRANCH  69  92
ENDBRANCH  43  44
ENDBRANCH  35  38
ENDBRANCH  33  34
ENDBRANCH  32  33
ENDBRANCH   1  32
TORSDOF 20
ENDMDL
MODEL 2
REMARK VINA RESULT:     -12.0      5.540      9.278
REMARK SMILES CCCc1cc(S(F)(F)(F)(F)F)cc2c1O[C@@H](C(F)(F)F)C(C(=O)NCCCCCCNC(=O)c1ccc(-c3c4nc(c(-c5cccc(S(=O)(=O)[O-])c5F)c5ccc([nH]5)c(-c5cccc(S(=O)(=O)[O-])c5F)c5nc(c(-c6cccc(S(=O)(=O)[O-])c6F)c6ccc3[nH]6)C=C5)C=C4)cc1)=C2
REMARK SMILES IDX 29 1 28 2 27 3 26 4 25 5 23 6 24 7 22 9 4 10 5 11 15 12 6 13
REMARK SMILES IDX 14 14 16 15 13 16 98 17 17 18 3 19 2 20 1 21 7 22 8 23 9 24
REMARK SMILES IDX 10 25 11 26 12 27 18 28 19 29 20 30 21 31 30 32 31 33 32 34
REMARK SMILES IDX 33 35 34 37 35 38 36 39 97 40 37 41 96 42 38 43 39 44 40 45
REMARK SMILES IDX 90 46 41 47 95 48 89 49 91 50 42 51 94 52 88 53 87 54 43 56
REMARK SMILES IDX 75 57 55 58 74 59 56 60 59 61 73 62 92 63 57 64 58 65 72 67
REMARK SMILES IDX 93 68 60 69 44 70 45 71 53 72 46 73 48 74 54 75 47 76 49 77
REMARK SMILES IDX 50 78 51 79 52 80 76 81 77 82 85 83 78 84 80 85 86 86 79 87
REMARK SMILES IDX 81 88 82 89 83 90 84 91 61 92 62 93 70 94 63 95 65 96 71 97
REMARK SMILES IDX 64 98 66 99 67 100 68 101 69 102
REMARK H PARENT 25 8 32 36 91 55 59 66
REMARK Flexibility Score: inf
ROOT
ATOM      1  C   UNL A   1      34.786  31.951  27.855  1.00  0.00     0.002 C 
ENDROOT
BRANCH   1   2
ATOM      2  C   UNL A   1      34.400  30.487  28.004  1.00  0.00     0.002 C 
BRANCH   2   3
ATOM      3  C   UNL A   1      34.494  29.798  26.654  1.00  0.00     0.021 C 
BRANCH   3   4
ATOM      4  C   UNL A   1      33.143  29.853  25.961  1.00  0.00     0.116 C 
BRANCH   4   5
ATOM      5  N   UNL A   1      32.112  29.305  26.853  1.00  0.00    -0.352 N 
ATOM      6  C   UNL A   1      31.756  27.880  26.778  1.00  0.00     0.251 C 
ATOM      7  O   UNL A   1      30.864  27.406  27.551  1.00  0.00    -0.270 OA
ATOM      8  H   UNL A   1      31.659  29.891  27.502  1.00  0.00     0.163 HD
BRANCH   6   9
ATOM      9  C   UNL A   1      32.454  26.974  25.778  1.00  0.00     0.067 C 
ATOM     10  C   UNL A   1      33.983  24.162  23.095  1.00  0.00    -0.004 A 
ATOM     11  C   UNL A   1      35.146  23.478  23.399  1.00  0.00     0.032 A 
ATOM     12  C   UNL A   1      33.474  25.041  24.018  1.00  0.00     0.131 A 
ATOM     13  C   UNL A   1      35.781  23.667  24.599  1.00  0.00     0.108 A 
ATOM     14  C   UNL A   1      34.097  25.272  25.232  1.00  0.00     0.019 A 
ATOM     15  O   UNL A   1      32.260  25.627  23.750  1.00  0.00    -0.475 OA
ATOM     16  C   UNL A   1      35.262  24.565  25.507  1.00  0.00     0.036 A 
ATOM     17  C   UNL A   1      33.458  26.192  26.157  1.00  0.00     0.025 C 
ATOM     18  C   UNL A   1      32.018  26.944  24.320  1.00  0.00     0.314 C 
BRANCH  10  19
ATOM     19  C   UNL A   1      33.148  23.861  21.861  1.00  0.00     0.039 C 
BRANCH  19  20
ATOM     20  C   UNL A   1      32.711  22.406  21.888  1.00  0.00     0.001 C 
ATOM     21  C   UNL A   1      31.821  22.166  23.096  1.00  0.00     0.004 C 
ENDBRANCH  19  20
ENDBRANCH  10  19
BRANCH  13  22
ATOM     22  S   UNL A   1      37.290  22.745  24.987  1.00  0.00     0.310 S 
ATOM     23  F   UNL A   1      36.715  22.636  26.462  1.00  0.00    -0.094 F 
ATOM     24  F   UNL A   1      38.022  24.063  25.445  1.00  0.00    -0.094 F 
ATOM     25  F   UNL A   1      38.491  21.879  25.458  1.00  0.00    -0.094 F 
ATOM     26  F   UNL A   1      36.483  21.429  24.654  1.00  0.00    -0.094 F 
ATOM     27  F   UNL A   1      36.016  23.604  24.610  1.00  0.00    -0.094 F 
ENDBRANCH  13  22
BRANCH  18  28
ATOM     28  C   UNL A   1      30.533  27.254  24.239  1.00  0.00     0.429 C 
ATOM     29  F   UNL A   1      30.091  26.998  23.012  1.00  0.00    -0.167 F 
ATOM     30  F   UNL A   1      29.874  26.498  25.113  1.00  0.00    -0.167 F 
ATOM     31  F   UNL A   1      30.332  28.538  24.525  1.00  0.00    -0.167 F 
ENDBRANCH  18  28
ENDBRANCH   6   9
ENDBRANCH   4   5
ENDBRANCH   3   4
ENDBRANCH   2   3
ENDBRANCH   1   2
BRANCH   1  32
ATOM     32  C   UNL A   1      33.554  32.821  28.040  1.00  0.00     0.021 C 
BRANCH  32  33
ATOM     33  C   UNL A   1      33.933  34.282  27.852  1.00  0.00     0.116 C 
BRANCH  33  34
ATOM     34  N   UNL A   1      33.032  35.129  28.648  1.00  0.00    -0.352 N 
ATOM     35  C   UNL A   1      33.234  35.256  30.098  1.00  0.00     0.251 C 
ATOM     36  H   UNL A   1      32.293  35.609  28.209  1.00  0.00     0.163 HD
ATOM     37  O   UNL A   1      32.455  35.987  30.786  1.00  0.00    -0.269 OA
BRANCH  35  38
ATOM     38  C   UNL A   1      34.375  34.514  30.775  1.00  0.00     0.039 A 
ATOM     39  C   UNL A   1      35.673  34.836  30.414  1.00  0.00     0.014 A 
ATOM     40  C   UNL A   1      34.116  33.472  31.556  1.00  0.00     0.014 A 
ATOM     41  C   UNL A   1      36.616  33.820  30.696  1.00  0.00     0.010 A 
ATOM     42  C   UNL A   1      35.114  32.593  31.904  1.00  0.00     0.010 A 
ATOM     43  C   UNL A   1      36.410  32.818  31.532  1.00  0.00    -0.014 A 
BRANCH  43  44
ATOM     44  C   UNL A   1      37.552  31.962  32.053  1.00  0.00     0.031 A 
ATOM     45  C   UNL A   1      38.094  30.945  31.264  1.00  0.00     0.074 A 
ATOM     46  C   UNL A   1      38.087  32.371  33.262  1.00  0.00     0.049 A 
ATOM     47  N   UNL A   1      39.196  30.232  31.499  1.00  0.00    -0.248 NA
ATOM     48  C   UNL A   1      37.509  30.486  29.995  1.00  0.00     0.031 C 
ATOM     49  C   UNL A   1      37.552  33.401  34.059  1.00  0.00     0.029 A 
ATOM     50  N   UNL A   1      39.200  31.875  33.905  1.00  0.00    -0.354 N 
ATOM     51  C   UNL A   1      39.404  29.363  30.508  1.00  0.00     0.074 A 
ATOM     52  C   UNL A   1      38.318  29.510  29.529  1.00  0.00     0.031 C 
ATOM     53  C   UNL A   1      38.324  33.517  35.172  1.00  0.00     0.029 A 
ATOM     54  C   UNL A   1      39.355  32.562  35.089  1.00  0.00     0.049 A 
ATOM     55  H   UNL A   1      39.784  31.154  33.575  1.00  0.00     0.167 HD
ATOM     56  C   UNL A   1      40.458  28.456  30.380  1.00  0.00     0.034 A 
ATOM     57  C   UNL A   1      40.332  32.380  36.054  1.00  0.00     0.034 A 
ATOM     58  C   UNL A   1      41.459  28.303  31.326  1.00  0.00     0.049 A 
ATOM     59  C   UNL A   1      41.353  31.431  35.955  1.00  0.00     0.074 A 
ATOM     60  C   UNL A   1      42.532  27.400  31.208  1.00  0.00     0.029 A 
ATOM     61  N   UNL A   1      41.600  28.974  32.521  1.00  0.00    -0.354 N 
ATOM     62  N   UNL A   1      41.582  30.591  34.944  1.00  0.00    -0.248 NA
ATOM     63  C   UNL A   1      42.374  31.207  36.986  1.00  0.00     0.031 C 
ATOM     64  C   UNL A   1      43.305  27.516  32.322  1.00  0.00     0.029 A 
ATOM     65  C   UNL A   1      42.726  28.494  33.153  1.00  0.00     0.049 A 
ATOM     66  H   UNL A   1      41.000  29.675  32.864  1.00  0.00     0.167 HD
ATOM     67  C   UNL A   1      42.662  29.849  35.201  1.00  0.00     0.074 A 
ATOM     68  C   UNL A   1      43.183  30.230  36.521  1.00  0.00     0.031 C 
ATOM     69  C   UNL A   1      43.236  28.873  34.384  1.00  0.00     0.034 A 
BRANCH  56  70
ATOM     70  C   UNL A   1      40.508  27.587  29.134  1.00  0.00     0.023 A 
ATOM     71  C   UNL A   1      39.779  26.411  29.094  1.00  0.00     0.012 A 
ATOM     72  C   UNL A   1      41.252  27.972  28.103  1.00  0.00     0.148 A 
ATOM     73  C   UNL A   1      40.128  25.556  28.024  1.00  0.00     0.002 A 
ATOM     74  C   UNL A   1      41.440  27.137  27.027  1.00  0.00     0.091 A 
ATOM     75  F   UNL A   1      41.819  29.174  28.111  1.00  0.00    -0.205 F 
ATOM     76  C   UNL A   1      40.796  25.934  26.949  1.00  0.00     0.022 A 
BRANCH  74  77
ATOM     77  S   UNL A   1      42.556  27.640  25.693  1.00  0.00     0.127 S 
ATOM     78  O   UNL A   1      42.701  26.492  24.690  1.00  0.00    -0.237 OA
ATOM     79  O   UNL A   1      41.982  28.868  24.983  1.00  0.00    -0.237 OA
ATOM     80  O   UNL A   1      44.089  28.023  26.346  1.00  0.00    -0.744 OA
ENDBRANCH  74  77
ENDBRANCH  56  70
BRANCH  57  81
ATOM     81  C   UNL A   1      40.290  33.260  37.292  1.00  0.00     0.023 A 
ATOM     82  C   UNL A   1      41.073  34.402  37.341  1.00  0.00     0.012 A 
ATOM     83  C   UNL A   1      39.503  32.921  38.307  1.00  0.00     0.148 A 
ATOM     84  C   UNL A   1      41.175  34.972  38.632  1.00  0.00     0.002 A 
ATOM     85  C   UNL A   1      39.559  33.608  39.495  1.00  0.00     0.091 A 
ATOM     86  F   UNL A   1      38.654  31.907  38.170  1.00  0.00    -0.205 F 
ATOM     87  C   UNL A   1      40.354  34.710  39.633  1.00  0.00     0.022 A 
BRANCH  85  88
ATOM     88  S   UNL A   1      38.562  33.045  40.897  1.00  0.00     0.127 S 
ATOM     89  O   UNL A   1      38.539  31.515  40.925  1.00  0.00    -0.237 OA
ATOM     90  O   UNL A   1      39.172  33.569  42.200  1.00  0.00    -0.237 OA
ATOM     91  O   UNL A   1      36.966  33.637  40.736  1.00  0.00    -0.744 OA
ENDBRANCH  85  88
ENDBRANCH  57  81
BRANCH  69  92
ATOM     92  C   UNL A   1      44.498  28.183  34.877  1.00  0.00     0.023 A 
ATOM     93  C   UNL A   1      45.726  28.711  34.512  1.00  0.00     0.012 A 
ATOM     94  C   UNL A   1      44.410  27.022  35.515  1.00  0.00     0.148 A 
ATOM     95  C   UNL A   1      46.797  27.791  34.611  1.00  0.00     0.002 A 
ATOM     96  C   UNL A   1      45.523  26.236  35.696  1.00  0.00     0.091 A 
ATOM     97  F   UNL A   1      43.233  26.616  35.985  1.00  0.00    -0.205 F 
ATOM     98  C   UNL A   1      46.760  26.670  35.306  1.00  0.00     0.022 A 
BRANCH  96  99
ATOM     99  S   UNL A   1      45.349  24.606  36.462  1.00  0.00     0.127 S 
ATOM    100  O   UNL A   1      44.930  24.773  37.925  1.00  0.00    -0.237 OA
ATOM    101  O   UNL A   1      44.282  23.802  35.715  1.00  0.00    -0.237 OA
ATOM    102  O   UNL A   1      46.844  23.779  36.388  1.00  0.00    -0.744 OA
ENDBRANCH  96  99
ENDBRANCH  69  92
ENDBRANCH  43  44
ENDBRANCH  35  38
ENDBRANCH  33  34
ENDBRANCH  32  33
ENDBRANCH   1  32
TORSDOF 20
ENDMDL
MODEL 3
REMARK VINA RESULT:     -11.7      5.662     10.563
REMARK SMILES CCCc1cc(S(F)(F)(F)(F)F)cc2c1O[C@@H](C(F)(F)F)C(C(=O)NCCCCCCNC(=O)c1ccc(-c3c4nc(c(-c5cccc(S(=O)(=O)[O-])c5F)c5ccc([nH]5)c(-c5cccc(S(=O)(=O)[O-])c5F)c5nc(c(-c6cccc(S(=O)(=O)[O-])c6F)c6ccc3[nH]6)C=C5)C=C4)cc1)=C2
REMARK SMILES IDX 29 1 28 2 27 3 26 4 25 5 23 6 24 7 22 9 4 10 5 11 15 12 6 13
REMARK SMILES IDX 14 14 16 15 13 16 98 17 17 18 3 19 2 20 1 21 7 22 8 23 9 24
REMARK SMILES IDX 10 25 11 26 12 27 18 28 19 29 20 30 21 31 30 32 31 33 32 34
REMARK SMILES IDX 33 35 34 37 35 38 36 39 97 40 37 41 96 42 38 43 39 44 40 45
REMARK SMILES IDX 90 46 41 47 95 48 89 49 91 50 42 51 94 52 88 53 87 54 43 56
REMARK SMILES IDX 75 57 55 58 74 59 56 60 59 61 73 62 92 63 57 64 58 65 72 67
REMARK SMILES IDX 93 68 60 69 44 70 45 71 53 72 46 73 48 74 54 75 47 76 49 77
REMARK SMILES IDX 50 78 51 79 52 80 76 81 77 82 85 83 78 84 80 85 86 86 79 87
REMARK SMILES IDX 81 88 82 89 83 90 84 91 61 92 62 93 70 94 63 95 65 96 71 97
REMARK SMILES IDX 64 98 66 99 67 100 68 101 69 102
REMARK H PARENT 25 8 32 36 91 55 59 66
REMARK Flexibility Score: inf
ROOT
ATOM      1  C   UNL A   1      35.099  31.866  27.872  1.00  0.00     0.002 C 
ENDROOT
BRANCH   1   2
ATOM      2  C   UNL A   1      34.894  30.405  28.241  1.00  0.00     0.002 C 
BRANCH   2   3
ATOM      3  C   UNL A   1      34.960  29.552  26.985  1.00  0.00     0.021 C 
BRANCH   3   4
ATOM      4  C   UNL A   1      33.670  29.710  26.197  1.00  0.00     0.116 C 
BRANCH   4   5
ATOM      5  N   UNL A   1      32.537  29.258  27.017  1.00  0.00    -0.352 N 
ATOM      6  C   UNL A   1      32.025  27.887  26.873  1.00  0.00     0.251 C 
ATOM      7  O   UNL A   1      31.045  27.498  27.583  1.00  0.00    -0.270 OA
ATOM      8  H   UNL A   1      32.120  29.874  27.662  1.00  0.00     0.163 HD
BRANCH   6   9
ATOM      9  C   UNL A   1      32.668  26.937  25.877  1.00  0.00     0.067 C 
ATOM     10  C   UNL A   1      34.027  24.023  23.211  1.00  0.00    -0.004 A 
ATOM     11  C   UNL A   1      35.153  23.279  23.516  1.00  0.00     0.032 A 
ATOM     12  C   UNL A   1      33.572  24.937  24.129  1.00  0.00     0.131 A 
ATOM     13  C   UNL A   1      35.802  23.443  24.711  1.00  0.00     0.108 A 
ATOM     14  C   UNL A   1      34.212  25.143  25.338  1.00  0.00     0.019 A 
ATOM     15  O   UNL A   1      32.390  25.585  23.862  1.00  0.00    -0.475 OA
ATOM     16  C   UNL A   1      35.338  24.376  25.614  1.00  0.00     0.036 A 
ATOM     17  C   UNL A   1      33.629  26.104  26.259  1.00  0.00     0.025 C 
ATOM     18  C   UNL A   1      32.223  26.918  24.422  1.00  0.00     0.314 C 
BRANCH  10  19
ATOM     19  C   UNL A   1      33.170  23.759  21.983  1.00  0.00     0.039 C 
BRANCH  19  20
ATOM     20  C   UNL A   1      32.653  22.330  22.025  1.00  0.00     0.001 C 
ATOM     21  C   UNL A   1      31.660  22.184  23.167  1.00  0.00     0.004 C 
ENDBRANCH  19  20
ENDBRANCH  10  19
BRANCH  13  22
ATOM     22  S   UNL A   1      37.261  22.443  25.101  1.00  0.00     0.310 S 
ATOM     23  F   UNL A   1      37.161  23.060  26.559  1.00  0.00    -0.094 F 
ATOM     24  F   UNL A   1      38.223  23.637  24.737  1.00  0.00    -0.094 F 
ATOM     25  F   UNL A   1      38.459  21.594  25.609  1.00  0.00    -0.094 F 
ATOM     26  F   UNL A   1      36.267  21.317  25.588  1.00  0.00    -0.094 F 
ATOM     27  F   UNL A   1      36.023  23.339  24.693  1.00  0.00    -0.094 F 
ENDBRANCH  13  22
BRANCH  18  28
ATOM     28  C   UNL A   1      30.756  27.308  24.345  1.00  0.00     0.429 C 
ATOM     29  F   UNL A   1      30.621  28.592  24.664  1.00  0.00    -0.167 F 
ATOM     30  F   UNL A   1      30.308  27.109  23.110  1.00  0.00    -0.167 F 
ATOM     31  F   UNL A   1      30.055  26.564  25.196  1.00  0.00    -0.167 F 
ENDBRANCH  18  28
ENDBRANCH   6   9
ENDBRANCH   4   5
ENDBRANCH   3   4
ENDBRANCH   2   3
ENDBRANCH   1   2
BRANCH   1  32
ATOM     32  C   UNL A   1      33.783  32.614  28.016  1.00  0.00     0.021 C 
BRANCH  32  33
ATOM     33  C   UNL A   1      34.054  34.109  28.078  1.00  0.00     0.116 C 
BRANCH  33  34
ATOM     34  N   UNL A   1      33.031  34.759  28.910  1.00  0.00    -0.352 N 
ATOM     35  C   UNL A   1      33.230  34.877  30.362  1.00  0.00     0.251 C 
ATOM     36  H   UNL A   1      32.211  35.114  28.495  1.00  0.00     0.163 HD
ATOM     37  O   UNL A   1      32.346  35.438  31.081  1.00  0.00    -0.269 OA
BRANCH  35  38
ATOM     38  C   UNL A   1      34.495  34.328  31.002  1.00  0.00     0.039 A 
ATOM     39  C   UNL A   1      35.699  34.950  30.715  1.00  0.00     0.014 A 
ATOM     40  C   UNL A   1      34.454  33.184  31.675  1.00  0.00     0.014 A 
ATOM     41  C   UNL A   1      36.833  34.132  30.931  1.00  0.00     0.010 A 
ATOM     42  C   UNL A   1      35.611  32.505  31.971  1.00  0.00     0.010 A 
ATOM     43  C   UNL A   1      36.835  33.032  31.662  1.00  0.00    -0.014 A 
BRANCH  43  44
ATOM     44  C   UNL A   1      38.126  32.388  32.138  1.00  0.00     0.031 A 
ATOM     45  C   UNL A   1      38.699  32.761  33.355  1.00  0.00     0.074 A 
ATOM     46  C   UNL A   1      38.574  31.332  31.363  1.00  0.00     0.049 A 
ATOM     47  N   UNL A   1      39.718  32.177  33.988  1.00  0.00    -0.248 NA
ATOM     48  C   UNL A   1      38.247  33.903  34.163  1.00  0.00     0.031 C 
ATOM     49  C   UNL A   1      37.997  30.944  30.139  1.00  0.00     0.029 A 
ATOM     50  N   UNL A   1      39.629  30.484  31.619  1.00  0.00    -0.354 N 
ATOM     51  C   UNL A   1      39.969  32.807  35.137  1.00  0.00     0.074 A 
ATOM     52  C   UNL A   1      39.030  33.931  35.263  1.00  0.00     0.031 C 
ATOM     53  C   UNL A   1      38.700  29.885  29.657  1.00  0.00     0.029 A 
ATOM     54  C   UNL A   1      39.729  29.592  30.574  1.00  0.00     0.049 A 
ATOM     55  H   UNL A   1      40.211  30.510  32.412  1.00  0.00     0.167 HD
ATOM     56  C   UNL A   1      40.943  32.488  36.085  1.00  0.00     0.034 A 
ATOM     57  C   UNL A   1      40.656  28.577  30.409  1.00  0.00     0.034 A 
ATOM     58  C   UNL A   1      41.844  31.446  35.941  1.00  0.00     0.049 A 
ATOM     59  C   UNL A   1      41.669  28.295  31.330  1.00  0.00     0.074 A 
ATOM     60  C   UNL A   1      42.826  31.106  36.891  1.00  0.00     0.029 A 
ATOM     61  N   UNL A   1      41.958  30.570  34.884  1.00  0.00    -0.354 N 
ATOM     62  N   UNL A   1      41.894  28.901  32.496  1.00  0.00    -0.248 NA
ATOM     63  C   UNL A   1      42.678  27.243  31.151  1.00  0.00     0.031 C 
ATOM     64  C   UNL A   1      43.530  30.047  36.409  1.00  0.00     0.029 A 
ATOM     65  C   UNL A   1      42.999  29.708  35.151  1.00  0.00     0.049 A 
ATOM     66  H   UNL A   1      41.394  30.562  34.077  1.00  0.00     0.167 HD
ATOM     67  C   UNL A   1      42.939  28.341  33.110  1.00  0.00     0.074 A 
ATOM     68  C   UNL A   1      43.463  27.271  32.250  1.00  0.00     0.031 C 
ATOM     69  C   UNL A   1      43.475  28.678  34.354  1.00  0.00     0.034 A 
BRANCH  56  70
ATOM     70  C   UNL A   1      41.018  33.333  37.347  1.00  0.00     0.023 A 
ATOM     71  C   UNL A   1      41.968  34.337  37.439  1.00  0.00     0.012 A 
ATOM     72  C   UNL A   1      40.170  33.094  38.341  1.00  0.00     0.148 A 
ATOM     73  C   UNL A   1      42.135  34.850  38.746  1.00  0.00     0.002 A 
ATOM     74  C   UNL A   1      40.312  33.734  39.549  1.00  0.00     0.091 A 
ATOM     75  F   UNL A   1      39.176  32.229  38.166  1.00  0.00    -0.205 F 
ATOM     76  C   UNL A   1      41.267  34.696  39.728  1.00  0.00     0.022 A 
BRANCH  74  77
ATOM     77  S   UNL A   1      39.216  33.299  40.923  1.00  0.00     0.127 S 
ATOM     78  O   UNL A   1      37.882  34.035  40.765  1.00  0.00    -0.237 OA
ATOM     79  O   UNL A   1      38.969  31.788  40.920  1.00  0.00    -0.237 OA
ATOM     80  O   UNL A   1      39.946  33.755  42.401  1.00  0.00    -0.744 OA
ENDBRANCH  74  77
ENDBRANCH  56  70
BRANCH  57  81
ATOM     81  C   UNL A   1      40.570  27.723  29.155  1.00  0.00     0.023 A 
ATOM     82  C   UNL A   1      39.683  26.660  29.117  1.00  0.00     0.012 A 
ATOM     83  C   UNL A   1      41.347  28.010  28.116  1.00  0.00     0.148 A 
ATOM     84  C   UNL A   1      39.896  25.774  28.033  1.00  0.00     0.002 A 
ATOM     85  C   UNL A   1      41.404  27.168  27.032  1.00  0.00     0.091 A 
ATOM     86  F   UNL A   1      42.076  29.122  28.127  1.00  0.00    -0.205 F 
ATOM     87  C   UNL A   1      40.597  26.067  26.954  1.00  0.00     0.022 A 
BRANCH  85  88
ATOM     88  S   UNL A   1      42.562  27.523  25.688  1.00  0.00     0.127 S 
ATOM     89  O   UNL A   1      42.113  28.786  24.949  1.00  0.00    -0.237 OA
ATOM     90  O   UNL A   1      43.963  27.740  26.264  1.00  0.00    -0.237 OA
ATOM     91  O   UNL A   1      42.592  26.206  24.598  1.00  0.00    -0.744 OA
ENDBRANCH  85  88
ENDBRANCH  57  81
BRANCH  69  92
ATOM     92  C   UNL A   1      44.653  27.866  34.868  1.00  0.00     0.023 A 
ATOM     93  C   UNL A   1      45.933  28.262  34.517  1.00  0.00     0.012 A 
ATOM     94  C   UNL A   1      44.438  26.724  35.511  1.00  0.00     0.148 A 
ATOM     95  C   UNL A   1      46.902  27.239  34.636  1.00  0.00     0.002 A 
ATOM     96  C   UNL A   1      45.461  25.830  35.712  1.00  0.00     0.091 A 
ATOM     97  F   UNL A   1      43.219  26.444  35.966  1.00  0.00    -0.205 F 
ATOM     98  C   UNL A   1      46.741  26.131  35.337  1.00  0.00     0.022 A 
BRANCH  96  99
ATOM     99  S   UNL A   1      45.110  24.231  36.484  1.00  0.00     0.127 S 
ATOM    100  O   UNL A   1      43.975  23.537  35.726  1.00  0.00    -0.237 OA
ATOM    101  O   UNL A   1      46.364  23.355  36.437  1.00  0.00    -0.237 OA
ATOM    102  O   UNL A   1      44.644  24.474  38.111  1.00  0.00    -0.744 OA
ENDBRANCH  96  99
ENDBRANCH  69  92
ENDBRANCH  43  44
ENDBRANCH  35  38
ENDBRANCH  33  34
ENDBRANCH  32  33
ENDBRANCH   1  32
TORSDOF 20
ENDMDL
