MODEL 1
REMARK VINA RESULT:     -11.7      0.000      0.000
REMARK SMILES Cc1cc(S(=O)(=O)Nc2ccc(F)cc2C(=O)NCCCCCCNC(=O)c2ccc(-c3c4nc(c(-c5cccc(S(=O)(=O)[O-])c5F)c5ccc([nH]5)c(-c5cccc(S(=O)(=O)[O-])c5F)c5nc(c(-c6cccc(S(=O)(=O)[O-])c6F)c6ccc3[nH]6)C=C5)C=C4)cc2)c(C)s1
REMARK SMILES IDX 21 1 20 2 19 3 18 4 16 5 17 6 15 8 9 9 10 10 11 11 14 12
REMARK SMILES IDX 12 13 13 14 8 15 5 17 6 18 7 19 4 20 1 21 2 22 3 23 93 24
REMARK SMILES IDX 91 25 92 26 22 27 23 28 24 29 25 30 26 31 27 33 28 34 29 35
REMARK SMILES IDX 90 36 30 37 89 38 31 39 32 40 33 41 83 42 34 43 88 44 82 45
REMARK SMILES IDX 84 46 35 47 87 48 81 49 80 50 36 52 68 53 48 54 67 55 49 56
REMARK SMILES IDX 52 57 66 58 85 59 50 60 51 61 65 63 86 64 53 65 37 66 38 67
REMARK SMILES IDX 46 68 39 69 41 70 47 71 40 72 42 73 43 74 44 75 45 76 69 77
REMARK SMILES IDX 70 78 78 79 71 80 73 81 79 82 72 83 74 84 75 85 76 86 77 87
REMARK SMILES IDX 54 88 55 89 63 90 56 91 58 92 64 93 57 94 59 95 60 96 61 97
REMARK SMILES IDX 62 98
REMARK H PARENT 18 7 8 16 25 32 84 51 52 62
REMARK Flexibility Score: inf
ROOT
ATOM      1  C   UNL A   1      33.266  29.075  26.956  1.00  0.00     0.002 C 
ENDROOT
BRANCH   1   2
ATOM      2  C   UNL A   1      33.887  28.011  26.046  1.00  0.00     0.021 C 
BRANCH   2   3
ATOM      3  C   UNL A   1      33.655  28.143  24.546  1.00  0.00     0.116 C 
BRANCH   3   4
ATOM      4  N   UNL A   1      33.720  26.914  23.802  1.00  0.00    -0.352 N 
ATOM      5  C   UNL A   1      32.730  26.157  23.236  1.00  0.00     0.253 C 
ATOM      6  O   UNL A   1      33.111  25.125  22.668  1.00  0.00    -0.269 OA
ATOM      7  H   UNL A   1      34.630  26.557  23.680  1.00  0.00     0.163 HD
BRANCH   5   8
ATOM      8  C   UNL A   1      31.247  26.429  23.246  1.00  0.00     0.066 A 
ATOM      9  C   UNL A   1      30.201  25.712  23.873  1.00  0.00     0.062 A 
ATOM     10  C   UNL A   1      28.949  26.329  24.071  1.00  0.00     0.030 A 
ATOM     11  C   UNL A   1      28.662  27.568  23.500  1.00  0.00     0.041 A 
ATOM     12  C   UNL A   1      30.919  27.673  22.659  1.00  0.00     0.055 A 
ATOM     13  C   UNL A   1      29.643  28.213  22.769  1.00  0.00     0.124 A 
ATOM     14  F   UNL A   1      29.370  29.388  22.187  1.00  0.00    -0.207 F 
BRANCH   9  15
ATOM     15  N   UNL A   1      30.376  24.413  24.420  1.00  0.00    -0.279 N 
ATOM     16  H   UNL A   1      30.005  23.641  23.935  1.00  0.00     0.180 HD
BRANCH  15  17
ATOM     17  S   UNL A   1      31.202  24.141  25.883  1.00  0.00     0.263 S 
ATOM     18  O   UNL A   1      30.428  23.115  26.547  1.00  0.00    -0.201 OA
ATOM     19  O   UNL A   1      31.399  25.442  26.487  1.00  0.00    -0.201 OA
BRANCH  17  20
ATOM     20  C   UNL A   1      32.807  23.461  25.856  1.00  0.00     0.101 A 
ATOM     21  C   UNL A   1      36.560  23.821  26.107  1.00  0.00     0.056 C 
ATOM     22  C   UNL A   1      35.138  23.397  25.958  1.00  0.00     0.003 A 
ATOM     23  C   UNL A   1      33.997  24.028  26.408  1.00  0.00     0.037 A 
ATOM     24  S   UNL A   1      34.766  21.957  25.128  1.00  0.00    -0.145 S 
ATOM     25  C   UNL A   1      33.080  22.247  25.237  1.00  0.00     0.022 A 
ATOM     26  C   UNL A   1      32.152  21.233  24.645  1.00  0.00     0.058 C 
ENDBRANCH  17  20
ENDBRANCH  15  17
ENDBRANCH   9  15
ENDBRANCH   5   8
ENDBRANCH   3   4
ENDBRANCH   2   3
ENDBRANCH   1   2
BRANCH   1  27
ATOM     27  C   UNL A   1      31.923  29.698  26.561  1.00  0.00     0.002 C 
BRANCH  27  28
ATOM     28  C   UNL A   1      31.783  31.221  26.585  1.00  0.00     0.021 C 
BRANCH  28  29
ATOM     29  C   UNL A   1      32.892  32.024  27.252  1.00  0.00     0.116 C 
BRANCH  29  30
ATOM     30  N   UNL A   1      32.506  33.383  27.595  1.00  0.00    -0.352 N 
ATOM     31  C   UNL A   1      33.066  34.255  28.500  1.00  0.00     0.251 C 
ATOM     32  H   UNL A   1      31.726  33.732  27.105  1.00  0.00     0.163 HD
ATOM     33  O   UNL A   1      32.540  35.349  28.693  1.00  0.00    -0.269 OA
BRANCH  31  34
ATOM     34  C   UNL A   1      34.273  33.875  29.272  1.00  0.00     0.039 A 
ATOM     35  C   UNL A   1      34.111  33.114  30.436  1.00  0.00     0.014 A 
ATOM     36  C   UNL A   1      35.554  34.264  28.872  1.00  0.00     0.014 A 
ATOM     37  C   UNL A   1      35.232  32.672  31.147  1.00  0.00     0.010 A 
ATOM     38  C   UNL A   1      36.673  33.780  29.551  1.00  0.00     0.010 A 
ATOM     39  C   UNL A   1      36.525  32.970  30.688  1.00  0.00    -0.014 A 
BRANCH  39  40
ATOM     40  C   UNL A   1      37.739  32.425  31.350  1.00  0.00     0.031 A 
ATOM     41  C   UNL A   1      38.479  31.269  30.737  1.00  0.00     0.074 A 
ATOM     42  C   UNL A   1      38.117  32.905  32.553  1.00  0.00     0.049 A 
ATOM     43  N   UNL A   1      39.446  30.547  31.243  1.00  0.00    -0.248 NA
ATOM     44  C   UNL A   1      38.068  30.860  29.385  1.00  0.00     0.031 C 
ATOM     45  C   UNL A   1      37.467  34.004  33.270  1.00  0.00     0.029 A 
ATOM     46  N   UNL A   1      39.122  32.505  33.402  1.00  0.00    -0.354 N 
ATOM     47  C   UNL A   1      39.732  29.576  30.291  1.00  0.00     0.074 A 
ATOM     48  C   UNL A   1      38.832  29.795  29.179  1.00  0.00     0.031 C 
ATOM     49  C   UNL A   1      38.086  34.188  34.448  1.00  0.00     0.029 A 
ATOM     50  C   UNL A   1      39.149  33.199  34.590  1.00  0.00     0.049 A 
ATOM     51  H   UNL A   1      39.761  31.789  33.181  1.00  0.00     0.167 HD
ATOM     52  C   UNL A   1      40.673  28.602  30.331  1.00  0.00     0.034 A 
ATOM     53  C   UNL A   1      39.932  33.046  35.677  1.00  0.00     0.034 A 
ATOM     54  C   UNL A   1      41.600  28.413  31.414  1.00  0.00     0.049 A 
ATOM     55  C   UNL A   1      40.983  31.968  35.682  1.00  0.00     0.074 A 
ATOM     56  C   UNL A   1      42.604  27.466  31.530  1.00  0.00     0.029 A 
ATOM     57  N   UNL A   1      41.653  29.193  32.558  1.00  0.00    -0.354 N 
ATOM     58  N   UNL A   1      41.290  31.112  34.739  1.00  0.00    -0.248 NA
ATOM     59  C   UNL A   1      41.811  31.850  36.892  1.00  0.00     0.031 C 
ATOM     60  C   UNL A   1      43.268  27.679  32.742  1.00  0.00     0.029 A 
ATOM     61  C   UNL A   1      42.679  28.759  33.379  1.00  0.00     0.049 A 
ATOM     62  H   UNL A   1      41.049  29.944  32.758  1.00  0.00     0.167 HD
ATOM     63  C   UNL A   1      42.363  30.375  35.228  1.00  0.00     0.074 A 
ATOM     64  C   UNL A   1      42.669  30.901  36.542  1.00  0.00     0.031 C 
ATOM     65  C   UNL A   1      43.017  29.338  34.652  1.00  0.00     0.034 A 
BRANCH  52  66
ATOM     66  C   UNL A   1      40.801  27.698  29.136  1.00  0.00     0.023 A 
ATOM     67  C   UNL A   1      39.954  26.577  29.035  1.00  0.00     0.012 A 
ATOM     68  C   UNL A   1      41.679  28.003  28.078  1.00  0.00     0.148 A 
ATOM     69  C   UNL A   1      39.988  25.762  27.905  1.00  0.00     0.002 A 
ATOM     70  C   UNL A   1      41.684  27.204  26.940  1.00  0.00     0.091 A 
ATOM     71  F   UNL A   1      42.486  29.067  28.202  1.00  0.00    -0.205 F 
ATOM     72  C   UNL A   1      40.844  26.081  26.854  1.00  0.00     0.022 A 
BRANCH  70  73
ATOM     73  S   UNL A   1      42.702  27.561  25.502  1.00  0.00     0.127 S 
ATOM     74  O   UNL A   1      44.046  27.541  26.079  1.00  0.00    -0.237 OA
ATOM     75  O   UNL A   1      42.399  26.432  24.624  1.00  0.00    -0.237 OA
ATOM     76  O   UNL A   1      42.260  28.857  25.006  1.00  0.00    -0.744 OA
ENDBRANCH  70  73
ENDBRANCH  52  66
BRANCH  53  77
ATOM     77  C   UNL A   1      39.802  33.985  36.828  1.00  0.00     0.023 A 
ATOM     78  C   UNL A   1      40.236  35.316  36.671  1.00  0.00     0.012 A 
ATOM     79  C   UNL A   1      39.238  33.589  38.056  1.00  0.00     0.148 A 
ATOM     80  C   UNL A   1      40.135  36.228  37.722  1.00  0.00     0.002 A 
ATOM     81  C   UNL A   1      39.094  34.517  39.083  1.00  0.00     0.091 A 
ATOM     82  F   UNL A   1      38.853  32.313  38.202  1.00  0.00    -0.205 F 
ATOM     83  C   UNL A   1      39.554  35.833  38.923  1.00  0.00     0.022 A 
BRANCH  81  84
ATOM     84  S   UNL A   1      38.234  34.111  40.608  1.00  0.00     0.127 S 
ATOM     85  O   UNL A   1      37.028  33.457  40.110  1.00  0.00    -0.237 OA
ATOM     86  O   UNL A   1      39.184  33.222  41.279  1.00  0.00    -0.237 OA
ATOM     87  O   UNL A   1      38.043  35.388  41.285  1.00  0.00    -0.744 OA
ENDBRANCH  81  84
ENDBRANCH  53  77
BRANCH  65  88
ATOM     88  C   UNL A   1      44.149  28.709  35.420  1.00  0.00     0.023 A 
ATOM     89  C   UNL A   1      45.439  29.268  35.328  1.00  0.00     0.012 A 
ATOM     90  C   UNL A   1      43.922  27.631  36.298  1.00  0.00     0.148 A 
ATOM     91  C   UNL A   1      46.491  28.751  36.084  1.00  0.00     0.002 A 
ATOM     92  C   UNL A   1      44.967  27.146  37.077  1.00  0.00     0.091 A 
ATOM     93  F   UNL A   1      42.694  27.096  36.354  1.00  0.00    -0.205 F 
ATOM     94  C   UNL A   1      46.252  27.700  36.967  1.00  0.00     0.022 A 
BRANCH  92  95
ATOM     95  S   UNL A   1      44.710  25.854  38.299  1.00  0.00     0.127 S 
ATOM     96  O   UNL A   1      44.323  24.721  37.462  1.00  0.00    -0.237 OA
ATOM     97  O   UNL A   1      46.031  25.730  38.918  1.00  0.00    -0.237 OA
ATOM     98  O   UNL A   1      43.680  26.367  39.193  1.00  0.00    -0.744 OA
ENDBRANCH  92  95
ENDBRANCH  65  88
ENDBRANCH  39  40
ENDBRANCH  31  34
ENDBRANCH  29  30
ENDBRANCH  28  29
ENDBRANCH  27  28
ENDBRANCH   1  27
TORSDOF 19
ENDMDL
MODEL 2
REMARK VINA RESULT:     -11.7      1.059      7.784
REMARK SMILES Cc1cc(S(=O)(=O)Nc2ccc(F)cc2C(=O)NCCCCCCNC(=O)c2ccc(-c3c4nc(c(-c5cccc(S(=O)(=O)[O-])c5F)c5ccc([nH]5)c(-c5cccc(S(=O)(=O)[O-])c5F)c5nc(c(-c6cccc(S(=O)(=O)[O-])c6F)c6ccc3[nH]6)C=C5)C=C4)cc2)c(C)s1
REMARK SMILES IDX 21 1 20 2 19 3 18 4 16 5 17 6 15 8 9 9 10 10 11 11 14 12
REMARK SMILES IDX 12 13 13 14 8 15 5 17 6 18 7 19 4 20 1 21 2 22 3 23 93 24
REMARK SMILES IDX 91 25 92 26 22 27 23 28 24 29 25 30 26 31 27 33 28 34 29 35
REMARK SMILES IDX 90 36 30 37 89 38 31 39 32 40 33 41 83 42 34 43 88 44 82 45
REMARK SMILES IDX 84 46 35 47 87 48 81 49 80 50 36 52 68 53 48 54 67 55 49 56
REMARK SMILES IDX 52 57 66 58 85 59 50 60 51 61 65 63 86 64 53 65 37 66 38 67
REMARK SMILES IDX 46 68 39 69 41 70 47 71 40 72 42 73 43 74 44 75 45 76 69 77
REMARK SMILES IDX 70 78 78 79 71 80 73 81 79 82 72 83 74 84 75 85 76 86 77 87
REMARK SMILES IDX 54 88 55 89 63 90 56 91 58 92 64 93 57 94 59 95 60 96 61 97
REMARK SMILES IDX 62 98
REMARK H PARENT 18 7 8 16 25 32 84 51 52 62
REMARK Flexibility Score: inf
ROOT
ATOM      1  C   UNL A   1      32.999  30.199  26.678  1.00  0.00     0.002 C 
ENDROOT
BRANCH   1   2
ATOM      2  C   UNL A   1      32.966  28.780  27.253  1.00  0.00     0.021 C 
BRANCH   2   3
ATOM      3  C   UNL A   1      31.604  28.191  27.600  1.00  0.00     0.116 C 
BRANCH   3   4
ATOM      4  N   UNL A   1      31.432  26.802  27.274  1.00  0.00    -0.352 N 
ATOM      5  C   UNL A   1      31.342  26.171  26.062  1.00  0.00     0.253 C 
ATOM      6  O   UNL A   1      31.175  24.946  26.113  1.00  0.00    -0.269 OA
ATOM      7  H   UNL A   1      31.368  26.203  28.053  1.00  0.00     0.163 HD
BRANCH   5   8
ATOM      8  C   UNL A   1      31.403  26.801  24.693  1.00  0.00     0.066 A 
ATOM      9  C   UNL A   1      32.050  26.350  23.519  1.00  0.00     0.062 A 
ATOM     10  C   UNL A   1      31.681  26.883  22.266  1.00  0.00     0.030 A 
ATOM     11  C   UNL A   1      30.820  27.976  22.178  1.00  0.00     0.041 A 
ATOM     12  C   UNL A   1      30.553  27.924  24.574  1.00  0.00     0.055 A 
ATOM     13  C   UNL A   1      30.291  28.508  23.340  1.00  0.00     0.124 A 
ATOM     14  F   UNL A   1      29.489  29.579  23.272  1.00  0.00    -0.207 F 
BRANCH   9  15
ATOM     15  N   UNL A   1      32.997  25.291  23.518  1.00  0.00    -0.279 N 
ATOM     16  H   UNL A   1      33.887  25.451  23.907  1.00  0.00     0.180 HD
BRANCH  15  17
ATOM     17  S   UNL A   1      32.653  23.757  22.867  1.00  0.00     0.263 S 
ATOM     18  O   UNL A   1      33.278  23.771  21.563  1.00  0.00    -0.201 OA
ATOM     19  O   UNL A   1      31.225  23.563  23.014  1.00  0.00    -0.201 OA
BRANCH  17  20
ATOM     20  C   UNL A   1      33.332  22.332  23.608  1.00  0.00     0.101 A 
ATOM     21  C   UNL A   1      32.946  19.025  25.395  1.00  0.00     0.056 C 
ATOM     22  C   UNL A   1      33.385  20.278  24.717  1.00  0.00     0.003 A 
ATOM     23  C   UNL A   1      32.676  21.086  23.852  1.00  0.00     0.037 A 
ATOM     24  S   UNL A   1      34.955  20.883  24.986  1.00  0.00    -0.145 S 
ATOM     25  C   UNL A   1      34.642  22.298  24.070  1.00  0.00     0.022 A 
ATOM     26  C   UNL A   1      35.746  23.298  23.922  1.00  0.00     0.058 C 
ENDBRANCH  17  20
ENDBRANCH  15  17
ENDBRANCH   9  15
ENDBRANCH   5   8
ENDBRANCH   3   4
ENDBRANCH   2   3
ENDBRANCH   1   2
BRANCH   1  27
ATOM     27  C   UNL A   1      31.676  30.917  26.394  1.00  0.00     0.002 C 
BRANCH  27  28
ATOM     28  C   UNL A   1      31.520  32.374  26.834  1.00  0.00     0.021 C 
BRANCH  28  29
ATOM     29  C   UNL A   1      32.766  33.103  27.322  1.00  0.00     0.116 C 
BRANCH  29  30
ATOM     30  N   UNL A   1      32.501  34.442  27.823  1.00  0.00    -0.352 N 
ATOM     31  C   UNL A   1      33.102  35.132  28.850  1.00  0.00     0.251 C 
ATOM     32  H   UNL A   1      31.783  34.929  27.356  1.00  0.00     0.163 HD
ATOM     33  O   UNL A   1      32.680  36.243  29.164  1.00  0.00    -0.269 OA
BRANCH  31  34
ATOM     34  C   UNL A   1      34.229  34.535  29.607  1.00  0.00     0.039 A 
ATOM     35  C   UNL A   1      33.965  33.955  30.853  1.00  0.00     0.014 A 
ATOM     36  C   UNL A   1      35.536  34.548  29.111  1.00  0.00     0.014 A 
ATOM     37  C   UNL A   1      34.989  33.315  31.560  1.00  0.00     0.010 A 
ATOM     38  C   UNL A   1      36.544  33.865  29.792  1.00  0.00     0.010 A 
ATOM     39  C   UNL A   1      36.280  33.231  31.016  1.00  0.00    -0.014 A 
BRANCH  39  40
ATOM     40  C   UNL A   1      37.366  32.464  31.682  1.00  0.00     0.031 A 
ATOM     41  C   UNL A   1      37.868  32.886  33.035  1.00  0.00     0.074 A 
ATOM     42  C   UNL A   1      37.968  31.450  31.026  1.00  0.00     0.049 A 
ATOM     43  N   UNL A   1      38.912  32.459  33.697  1.00  0.00    -0.248 NA
ATOM     44  C   UNL A   1      37.106  33.937  33.727  1.00  0.00     0.031 C 
ATOM     45  C   UNL A   1      37.596  30.961  29.697  1.00  0.00     0.029 A 
ATOM     46  N   UNL A   1      39.044  30.670  31.377  1.00  0.00    -0.354 N 
ATOM     47  C   UNL A   1      38.957  33.213  34.863  1.00  0.00     0.074 A 
ATOM     48  C   UNL A   1      37.838  34.131  34.816  1.00  0.00     0.031 C 
ATOM     49  C   UNL A   1      38.430  29.968  29.344  1.00  0.00     0.029 A 
ATOM     50  C   UNL A   1      39.419  29.775  30.400  1.00  0.00     0.049 A 
ATOM     51  H   UNL A   1      39.504  30.745  32.245  1.00  0.00     0.167 HD
ATOM     52  C   UNL A   1      39.837  33.135  35.890  1.00  0.00     0.034 A 
ATOM     53  C   UNL A   1      40.450  28.909  30.354  1.00  0.00     0.034 A 
ATOM     54  C   UNL A   1      40.919  32.192  35.960  1.00  0.00     0.049 A 
ATOM     55  C   UNL A   1      41.399  28.831  31.520  1.00  0.00     0.074 A 
ATOM     56  C   UNL A   1      41.849  32.025  36.973  1.00  0.00     0.029 A 
ATOM     57  N   UNL A   1      41.210  31.244  34.991  1.00  0.00    -0.354 N 
ATOM     58  N   UNL A   1      41.376  29.498  32.648  1.00  0.00    -0.248 NA
ATOM     59  C   UNL A   1      42.503  27.864  31.417  1.00  0.00     0.031 C 
ATOM     60  C   UNL A   1      42.697  30.970  36.619  1.00  0.00     0.029 A 
ATOM     61  C   UNL A   1      42.295  30.481  35.388  1.00  0.00     0.049 A 
ATOM     62  H   UNL A   1      40.719  31.132  34.146  1.00  0.00     0.167 HD
ATOM     63  C   UNL A   1      42.441  29.012  33.400  1.00  0.00     0.074 A 
ATOM     64  C   UNL A   1      43.075  27.978  32.609  1.00  0.00     0.031 C 
ATOM     65  C   UNL A   1      42.871  29.407  34.622  1.00  0.00     0.034 A 
BRANCH  52  66
ATOM     66  C   UNL A   1      39.631  34.052  37.064  1.00  0.00     0.023 A 
ATOM     67  C   UNL A   1      39.922  35.423  36.918  1.00  0.00     0.012 A 
ATOM     68  C   UNL A   1      39.069  33.585  38.267  1.00  0.00     0.148 A 
ATOM     69  C   UNL A   1      39.668  36.316  37.958  1.00  0.00     0.002 A 
ATOM     70  C   UNL A   1      38.789  34.487  39.288  1.00  0.00     0.091 A 
ATOM     71  F   UNL A   1      38.814  32.275  38.388  1.00  0.00    -0.205 F 
ATOM     72  C   UNL A   1      39.092  35.851  39.137  1.00  0.00     0.022 A 
BRANCH  70  73
ATOM     73  S   UNL A   1      37.989  34.005  40.824  1.00  0.00     0.127 S 
ATOM     74  O   UNL A   1      37.717  35.306  41.435  1.00  0.00    -0.237 OA
ATOM     75  O   UNL A   1      36.803  33.298  40.344  1.00  0.00    -0.237 OA
ATOM     76  O   UNL A   1      38.951  33.175  41.537  1.00  0.00    -0.744 OA
ENDBRANCH  70  73
ENDBRANCH  52  66
BRANCH  53  77
ATOM     77  C   UNL A   1      40.601  27.989  29.190  1.00  0.00     0.023 A 
ATOM     78  C   UNL A   1      39.792  26.838  29.126  1.00  0.00     0.012 A 
ATOM     79  C   UNL A   1      41.507  28.248  28.144  1.00  0.00     0.148 A 
ATOM     80  C   UNL A   1      39.900  25.948  28.056  1.00  0.00     0.002 A 
ATOM     81  C   UNL A   1      41.574  27.384  27.055  1.00  0.00     0.091 A 
ATOM     82  F   UNL A   1      42.289  29.333  28.230  1.00  0.00    -0.205 F 
ATOM     83  C   UNL A   1      40.781  26.227  27.016  1.00  0.00     0.022 A 
BRANCH  81  84
ATOM     84  S   UNL A   1      42.590  27.752  25.619  1.00  0.00     0.127 S 
ATOM     85  O   UNL A   1      42.391  26.565  24.795  1.00  0.00    -0.237 OA
ATOM     86  O   UNL A   1      41.970  28.973  25.100  1.00  0.00    -0.237 OA
ATOM     87  O   UNL A   1      43.933  27.952  26.150  1.00  0.00    -0.744 OA
ENDBRANCH  81  84
ENDBRANCH  53  77
BRANCH  65  88
ATOM     88  C   UNL A   1      44.071  28.709  35.203  1.00  0.00     0.023 A 
ATOM     89  C   UNL A   1      45.362  29.161  34.868  1.00  0.00     0.012 A 
ATOM     90  C   UNL A   1      43.923  27.673  36.146  1.00  0.00     0.148 A 
ATOM     91  C   UNL A   1      46.489  28.580  35.448  1.00  0.00     0.002 A 
ATOM     92  C   UNL A   1      45.050  27.124  36.748  1.00  0.00     0.091 A 
ATOM     93  F   UNL A   1      42.688  27.239  36.435  1.00  0.00    -0.205 F 
ATOM     94  C   UNL A   1      46.333  27.571  36.396  1.00  0.00     0.022 A 
BRANCH  92  95
ATOM     95  S   UNL A   1      44.918  25.886  38.044  1.00  0.00     0.127 S 
ATOM     96  O   UNL A   1      44.174  26.608  39.074  1.00  0.00    -0.237 OA
ATOM     97  O   UNL A   1      44.165  24.814  37.388  1.00  0.00    -0.237 OA
ATOM     98  O   UNL A   1      46.290  25.530  38.381  1.00  0.00    -0.744 OA
ENDBRANCH  92  95
ENDBRANCH  65  88
ENDBRANCH  39  40
ENDBRANCH  31  34
ENDBRANCH  29  30
ENDBRANCH  28  29
ENDBRANCH  27  28
ENDBRANCH   1  27
TORSDOF 19
ENDMDL
MODEL 3
REMARK VINA RESULT:     -11.3      6.336     11.280
REMARK SMILES Cc1cc(S(=O)(=O)Nc2ccc(F)cc2C(=O)NCCCCCCNC(=O)c2ccc(-c3c4nc(c(-c5cccc(S(=O)(=O)[O-])c5F)c5ccc([nH]5)c(-c5cccc(S(=O)(=O)[O-])c5F)c5nc(c(-c6cccc(S(=O)(=O)[O-])c6F)c6ccc3[nH]6)C=C5)C=C4)cc2)c(C)s1
REMARK SMILES IDX 21 1 20 2 19 3 18 4 16 5 17 6 15 8 9 9 10 10 11 11 14 12
REMARK SMILES IDX 12 13 13 14 8 15 5 17 6 18 7 19 4 20 1 21 2 22 3 23 93 24
REMARK SMILES IDX 91 25 92 26 22 27 23 28 24 29 25 30 26 31 27 33 28 34 29 35
REMARK SMILES IDX 90 36 30 37 89 38 31 39 32 40 33 41 83 42 34 43 88 44 82 45
REMARK SMILES IDX 84 46 35 47 87 48 81 49 80 50 36 52 68 53 48 54 67 55 49 56
REMARK SMILES IDX 52 57 66 58 85 59 50 60 51 61 65 63 86 64 53 65 37 66 38 67
REMARK SMILES IDX 46 68 39 69 41 70 47 71 40 72 42 73 43 74 44 75 45 76 69 77
REMARK SMILES IDX 70 78 78 79 71 80 73 81 79 82 72 83 74 84 75 85 76 86 77 87
REMARK SMILES IDX 54 88 55 89 63 90 56 91 58 92 64 93 57 94 59 95 60 96 61 97
REMARK SMILES IDX 62 98
REMARK H PARENT 18 7 8 16 25 32 84 51 52 62
REMARK Flexibility Score: inf
ROOT
ATOM      1  C   UNL A   1      37.301  21.736  24.555  1.00  0.00     0.002 C 
ENDROOT
BRANCH   1   2
ATOM      2  C   UNL A   1      37.197  22.775  25.676  1.00  0.00     0.021 C 
BRANCH   2   3
ATOM      3  C   UNL A   1      35.881  23.530  25.818  1.00  0.00     0.116 C 
BRANCH   3   4
ATOM      4  N   UNL A   1      35.012  23.062  26.864  1.00  0.00    -0.352 N 
ATOM      5  C   UNL A   1      33.851  22.338  26.806  1.00  0.00     0.253 C 
ATOM      6  O   UNL A   1      33.318  22.104  27.899  1.00  0.00    -0.269 OA
ATOM      7  H   UNL A   1      35.301  23.302  27.774  1.00  0.00     0.163 HD
BRANCH   5   8
ATOM      8  C   UNL A   1      33.152  21.822  25.575  1.00  0.00     0.066 A 
ATOM      9  C   UNL A   1      32.657  22.528  24.453  1.00  0.00     0.062 A 
ATOM     10  C   UNL A   1      32.376  21.835  23.257  1.00  0.00     0.030 A 
ATOM     11  C   UNL A   1      32.403  20.442  23.212  1.00  0.00     0.041 A 
ATOM     12  C   UNL A   1      33.146  20.409  25.505  1.00  0.00     0.055 A 
ATOM     13  C   UNL A   1      32.756  19.741  24.351  1.00  0.00     0.124 A 
ATOM     14  F   UNL A   1      32.753  18.401  24.331  1.00  0.00    -0.207 F 
BRANCH   9  15
ATOM     15  N   UNL A   1      32.524  23.941  24.430  1.00  0.00    -0.279 N 
ATOM     16  H   UNL A   1      33.330  24.492  24.306  1.00  0.00     0.180 HD
BRANCH  15  17
ATOM     17  S   UNL A   1      31.021  24.721  24.609  1.00  0.00     0.263 S 
ATOM     18  O   UNL A   1      30.633  24.442  25.974  1.00  0.00    -0.201 OA
ATOM     19  O   UNL A   1      30.204  24.293  23.493  1.00  0.00    -0.201 OA
BRANCH  17  20
ATOM     20  C   UNL A   1      30.936  26.461  24.528  1.00  0.00     0.101 A 
ATOM     21  C   UNL A   1      29.881  29.647  22.792  1.00  0.00     0.056 C 
ATOM     22  C   UNL A   1      30.414  28.570  23.675  1.00  0.00     0.003 A 
ATOM     23  C   UNL A   1      30.028  27.248  23.755  1.00  0.00     0.037 A 
ATOM     24  S   UNL A   1      31.677  28.915  24.764  1.00  0.00    -0.145 S 
ATOM     25  C   UNL A   1      31.813  27.273  25.237  1.00  0.00     0.022 A 
ATOM     26  C   UNL A   1      32.836  26.920  26.270  1.00  0.00     0.058 C 
ENDBRANCH  17  20
ENDBRANCH  15  17
ENDBRANCH   9  15
ENDBRANCH   5   8
ENDBRANCH   3   4
ENDBRANCH   2   3
ENDBRANCH   1   2
BRANCH   1  27
ATOM     27  C   UNL A   1      36.978  20.272  24.868  1.00  0.00     0.002 C 
BRANCH  27  28
ATOM     28  C   UNL A   1      38.133  19.280  25.021  1.00  0.00     0.021 C 
BRANCH  28  29
ATOM     29  C   UNL A   1      39.183  19.574  26.085  1.00  0.00     0.116 C 
BRANCH  29  30
ATOM     30  N   UNL A   1      40.447  18.893  25.864  1.00  0.00    -0.352 N 
ATOM     31  C   UNL A   1      41.733  19.374  25.953  1.00  0.00     0.251 C 
ATOM     32  H   UNL A   1      40.373  17.943  25.613  1.00  0.00     0.163 HD
ATOM     33  O   UNL A   1      42.676  18.644  25.655  1.00  0.00    -0.269 OA
BRANCH  31  34
ATOM     34  C   UNL A   1      41.992  20.775  26.366  1.00  0.00     0.039 A 
ATOM     35  C   UNL A   1      42.173  21.047  27.728  1.00  0.00     0.014 A 
ATOM     36  C   UNL A   1      42.050  21.817  25.438  1.00  0.00     0.014 A 
ATOM     37  C   UNL A   1      42.496  22.343  28.147  1.00  0.00     0.010 A 
ATOM     38  C   UNL A   1      42.423  23.096  25.850  1.00  0.00     0.010 A 
ATOM     39  C   UNL A   1      42.661  23.371  27.206  1.00  0.00    -0.014 A 
BRANCH  39  40
ATOM     40  C   UNL A   1      43.113  24.731  27.599  1.00  0.00     0.031 A 
ATOM     41  C   UNL A   1      42.131  25.719  28.165  1.00  0.00     0.074 A 
ATOM     42  C   UNL A   1      44.384  25.112  27.354  1.00  0.00     0.049 A 
ATOM     43  N   UNL A   1      42.288  26.996  28.403  1.00  0.00    -0.248 NA
ATOM     44  C   UNL A   1      40.789  25.209  28.490  1.00  0.00     0.031 C 
ATOM     45  C   UNL A   1      45.428  24.259  26.782  1.00  0.00     0.029 A 
ATOM     46  N   UNL A   1      45.005  26.326  27.525  1.00  0.00    -0.354 N 
ATOM     47  C   UNL A   1      41.060  27.450  28.868  1.00  0.00     0.074 A 
ATOM     48  C   UNL A   1      40.163  26.314  28.871  1.00  0.00     0.031 C 
ATOM     49  C   UNL A   1      46.557  24.976  26.647  1.00  0.00     0.029 A 
ATOM     50  C   UNL A   1      46.309  26.346  27.084  1.00  0.00     0.049 A 
ATOM     51  H   UNL A   1      44.559  27.108  27.924  1.00  0.00     0.167 HD
ATOM     52  C   UNL A   1      40.716  28.696  29.273  1.00  0.00     0.034 A 
ATOM     53  C   UNL A   1      47.199  27.356  27.024  1.00  0.00     0.034 A 
ATOM     54  C   UNL A   1      41.619  29.813  29.316  1.00  0.00     0.049 A 
ATOM     55  C   UNL A   1      46.793  28.725  27.503  1.00  0.00     0.074 A 
ATOM     56  C   UNL A   1      41.364  31.109  29.734  1.00  0.00     0.029 A 
ATOM     57  N   UNL A   1      42.954  29.770  28.945  1.00  0.00    -0.354 N 
ATOM     58  N   UNL A   1      45.650  29.114  28.013  1.00  0.00    -0.248 NA
ATOM     59  C   UNL A   1      47.806  29.788  27.419  1.00  0.00     0.031 C 
ATOM     60  C   UNL A   1      42.547  31.846  29.624  1.00  0.00     0.029 A 
ATOM     61  C   UNL A   1      43.539  31.010  29.137  1.00  0.00     0.049 A 
ATOM     62  H   UNL A   1      43.417  28.975  28.595  1.00  0.00     0.167 HD
ATOM     63  C   UNL A   1      45.816  30.456  28.338  1.00  0.00     0.074 A 
ATOM     64  C   UNL A   1      47.177  30.807  27.989  1.00  0.00     0.031 C 
ATOM     65  C   UNL A   1      44.913  31.326  28.852  1.00  0.00     0.034 A 
BRANCH  52  66
ATOM     66  C   UNL A   1      39.314  28.910  29.774  1.00  0.00     0.023 A 
ATOM     67  C   UNL A   1      38.996  28.533  31.094  1.00  0.00     0.012 A 
ATOM     68  C   UNL A   1      38.347  29.562  28.986  1.00  0.00     0.148 A 
ATOM     69  C   UNL A   1      37.731  28.789  31.619  1.00  0.00     0.002 A 
ATOM     70  C   UNL A   1      37.097  29.842  29.527  1.00  0.00     0.091 A 
ATOM     71  F   UNL A   1      38.667  29.899  27.728  1.00  0.00    -0.205 F 
ATOM     72  C   UNL A   1      36.786  29.452  30.841  1.00  0.00     0.022 A 
BRANCH  70  73
ATOM     73  S   UNL A   1      35.827  30.748  28.635  1.00  0.00     0.127 S 
ATOM     74  O   UNL A   1      35.142  29.670  27.922  1.00  0.00    -0.237 OA
ATOM     75  O   UNL A   1      35.055  31.347  29.722  1.00  0.00    -0.237 OA
ATOM     76  O   UNL A   1      36.531  31.701  27.787  1.00  0.00    -0.744 OA
ENDBRANCH  70  73
ENDBRANCH  52  66
BRANCH  53  77
ATOM     77  C   UNL A   1      48.591  27.098  26.557  1.00  0.00     0.023 A 
ATOM     78  C   UNL A   1      49.495  26.466  27.434  1.00  0.00     0.012 A 
ATOM     79  C   UNL A   1      49.022  27.443  25.262  1.00  0.00     0.148 A 
ATOM     80  C   UNL A   1      50.808  26.206  27.040  1.00  0.00     0.002 A 
ATOM     81  C   UNL A   1      50.318  27.135  24.858  1.00  0.00     0.091 A 
ATOM     82  F   UNL A   1      48.161  28.067  24.447  1.00  0.00    -0.205 F 
ATOM     83  C   UNL A   1      51.216  26.530  25.750  1.00  0.00     0.022 A 
BRANCH  81  84
ATOM     84  S   UNL A   1      50.868  27.403  23.168  1.00  0.00     0.127 S 
ATOM     85  O   UNL A   1      50.900  28.860  23.088  1.00  0.00    -0.237 OA
ATOM     86  O   UNL A   1      52.181  26.756  23.158  1.00  0.00    -0.237 OA
ATOM     87  O   UNL A   1      49.874  26.733  22.338  1.00  0.00    -0.744 OA
ENDBRANCH  81  84
ENDBRANCH  53  77
BRANCH  65  88
ATOM     88  C   UNL A   1      45.363  32.741  29.098  1.00  0.00     0.023 A 
ATOM     89  C   UNL A   1      46.102  33.038  30.260  1.00  0.00     0.012 A 
ATOM     90  C   UNL A   1      45.139  33.751  28.142  1.00  0.00     0.148 A 
ATOM     91  C   UNL A   1      46.594  34.325  30.477  1.00  0.00     0.002 A 
ATOM     92  C   UNL A   1      45.665  35.022  28.348  1.00  0.00     0.091 A 
ATOM     93  F   UNL A   1      44.413  33.457  27.054  1.00  0.00    -0.205 F 
ATOM     94  C   UNL A   1      46.387  35.312  29.516  1.00  0.00     0.022 A 
BRANCH  92  95
ATOM     95  S   UNL A   1      45.513  36.316  27.110  1.00  0.00     0.127 S 
ATOM     96  O   UNL A   1      46.109  35.680  25.937  1.00  0.00    -0.237 OA
ATOM     97  O   UNL A   1      44.065  36.512  27.026  1.00  0.00    -0.237 OA
ATOM     98  O   UNL A   1      46.239  37.458  27.653  1.00  0.00    -0.744 OA
ENDBRANCH  92  95
ENDBRANCH  65  88
ENDBRANCH  39  40
ENDBRANCH  31  34
ENDBRANCH  29  30
ENDBRANCH  28  29
ENDBRANCH  27  28
ENDBRANCH   1  27
TORSDOF 19
ENDMDL
