MODEL 1
REMARK VINA RESULT:     -11.9      0.000      0.000
REMARK SMILES O=C(C[C@@H]1COc2ccccc2N1Cc1ccccc1)NCCCCCCNC(=O)c1ccc(-c2c3nc(c(-c4cccc(S(=O)(=O)[O-])c4F)c4ccc([nH]4)c(-c4cccc(S(=O)(=O)[O-])c4F)c4nc(c(-c5cccc(S(=O)(=O)[O-])c5F)c5ccc2[nH]5)C=C4)C=C3)cc1
REMARK SMILES IDX 24 1 23 2 22 3 21 4 1 5 2 6 3 8 4 9 5 10 13 11 6 12 12 13
REMARK SMILES IDX 7 14 11 15 8 16 10 17 9 18 14 19 15 20 16 21 20 22 17 23
REMARK SMILES IDX 19 24 18 25 25 26 26 27 27 28 28 29 29 30 30 32 31 33 32 34
REMARK SMILES IDX 93 35 33 36 92 37 34 38 35 39 36 40 86 41 37 42 91 43 85 44
REMARK SMILES IDX 87 45 38 46 90 47 84 48 83 49 39 51 71 52 51 53 70 54 52 55
REMARK SMILES IDX 55 56 69 57 88 58 53 59 54 60 68 62 89 63 56 64 40 65 41 66
REMARK SMILES IDX 49 67 42 68 44 69 50 70 43 71 45 72 46 73 47 74 48 75 72 76
REMARK SMILES IDX 73 77 81 78 74 79 76 80 82 81 75 82 77 83 78 84 79 85 80 86
REMARK SMILES IDX 57 87 58 88 66 89 59 90 61 91 67 92 60 93 62 94 63 95 64 96
REMARK SMILES IDX 65 97
REMARK H PARENT 21 7 28 31 87 50 55 61
REMARK Flexibility Score: inf
ROOT
ATOM      1  C   UNL A   1      31.025  28.750  23.869  1.00  0.00     0.002 C 
ENDROOT
BRANCH   1   2
ATOM      2  C   UNL A   1      31.580  27.318  23.826  1.00  0.00     0.021 C 
BRANCH   2   3
ATOM      3  C   UNL A   1      31.479  26.622  22.469  1.00  0.00     0.116 C 
BRANCH   3   4
ATOM      4  N   UNL A   1      31.690  25.195  22.594  1.00  0.00    -0.356 N 
ATOM      5  O   UNL A   1      33.972  25.215  22.349  1.00  0.00    -0.275 OA
ATOM      6  C   UNL A   1      32.935  24.608  22.592  1.00  0.00     0.222 C 
ATOM      7  H   UNL A   1      30.901  24.612  22.684  1.00  0.00     0.163 HD
BRANCH   6   8
ATOM      8  C   UNL A   1      32.904  23.104  22.794  1.00  0.00     0.128 C 
BRANCH   8   9
ATOM      9  C   UNL A   1      32.793  22.545  24.224  1.00  0.00     0.129 C 
ATOM     10  C   UNL A   1      32.739  23.558  25.378  1.00  0.00     0.255 C 
ATOM     11  N   UNL A   1      33.843  21.555  24.504  1.00  0.00    -0.357 N 
ATOM     12  O   UNL A   1      33.966  24.245  25.622  1.00  0.00    -0.489 OA
ATOM     13  C   UNL A   1      35.056  22.169  24.881  1.00  0.00     0.080 A 
ATOM     14  C   UNL A   1      35.086  23.464  25.442  1.00  0.00     0.142 A 
ATOM     15  C   UNL A   1      36.284  21.533  24.660  1.00  0.00     0.030 A 
ATOM     16  C   UNL A   1      36.296  24.067  25.801  1.00  0.00     0.048 A 
ATOM     17  C   UNL A   1      37.493  22.125  25.035  1.00  0.00     0.002 A 
ATOM     18  C   UNL A   1      37.499  23.391  25.611  1.00  0.00     0.004 A 
BRANCH  11  19
ATOM     19  C   UNL A   1      33.462  20.337  25.238  1.00  0.00     0.152 C 
BRANCH  19  20
ATOM     20  C   UNL A   1      33.610  19.081  24.410  1.00  0.00    -0.029 A 
ATOM     21  C   UNL A   1      34.653  18.176  24.657  1.00  0.00     0.005 A 
ATOM     22  C   UNL A   1      32.678  18.780  23.406  1.00  0.00     0.005 A 
ATOM     23  C   UNL A   1      34.738  16.982  23.937  1.00  0.00     0.000 A 
ATOM     24  C   UNL A   1      32.743  17.572  22.713  1.00  0.00     0.000 A 
ATOM     25  C   UNL A   1      33.772  16.673  22.980  1.00  0.00     0.000 A 
ENDBRANCH  19  20
ENDBRANCH  11  19
ENDBRANCH   8   9
ENDBRANCH   6   8
ENDBRANCH   3   4
ENDBRANCH   2   3
ENDBRANCH   1   2
BRANCH   1  26
ATOM     26  C   UNL A   1      31.473  29.597  25.064  1.00  0.00     0.002 C 
BRANCH  26  27
ATOM     27  C   UNL A   1      32.114  28.817  26.214  1.00  0.00     0.021 C 
BRANCH  27  28
ATOM     28  C   UNL A   1      33.526  29.257  26.594  1.00  0.00     0.116 C 
BRANCH  28  29
ATOM     29  N   UNL A   1      33.576  30.622  27.098  1.00  0.00    -0.352 N 
ATOM     30  C   UNL A   1      34.507  31.209  27.921  1.00  0.00     0.251 C 
ATOM     31  H   UNL A   1      32.840  31.208  26.806  1.00  0.00     0.163 HD
ATOM     32  O   UNL A   1      34.317  32.342  28.358  1.00  0.00    -0.269 OA
BRANCH  30  33
ATOM     33  C   UNL A   1      35.722  30.460  28.308  1.00  0.00     0.039 A 
ATOM     34  C   UNL A   1      36.839  30.503  27.469  1.00  0.00     0.014 A 
ATOM     35  C   UNL A   1      35.772  29.742  29.506  1.00  0.00     0.014 A 
ATOM     36  C   UNL A   1      38.031  29.894  27.870  1.00  0.00     0.010 A 
ATOM     37  C   UNL A   1      36.979  29.196  29.936  1.00  0.00     0.010 A 
ATOM     38  C   UNL A   1      38.124  29.275  29.128  1.00  0.00    -0.014 A 
BRANCH  38  39
ATOM     39  C   UNL A   1      39.420  28.756  29.639  1.00  0.00     0.031 A 
ATOM     40  C   UNL A   1      40.166  29.486  30.720  1.00  0.00     0.074 A 
ATOM     41  C   UNL A   1      39.977  27.681  29.049  1.00  0.00     0.049 A 
ATOM     42  N   UNL A   1      41.340  29.222  31.235  1.00  0.00    -0.248 NA
ATOM     43  C   UNL A   1      39.523  30.686  31.278  1.00  0.00     0.031 C 
ATOM     44  C   UNL A   1      39.398  26.938  27.928  1.00  0.00     0.029 A 
ATOM     45  N   UNL A   1      41.175  27.049  29.282  1.00  0.00    -0.354 N 
ATOM     46  C   UNL A   1      41.590  30.233  32.153  1.00  0.00     0.074 A 
ATOM     47  C   UNL A   1      40.460  31.137  32.099  1.00  0.00     0.031 C 
ATOM     48  C   UNL A   1      40.244  25.962  27.564  1.00  0.00     0.029 A 
ATOM     49  C   UNL A   1      41.438  26.027  28.399  1.00  0.00     0.049 A 
ATOM     50  H   UNL A   1      41.786  27.303  30.010  1.00  0.00     0.167 HD
ATOM     51  C   UNL A   1      42.647  30.382  32.988  1.00  0.00     0.034 A 
ATOM     52  C   UNL A   1      42.525  25.244  28.260  1.00  0.00     0.034 A 
ATOM     53  C   UNL A   1      43.757  29.470  33.055  1.00  0.00     0.049 A 
ATOM     54  C   UNL A   1      43.677  25.411  29.212  1.00  0.00     0.074 A 
ATOM     55  C   UNL A   1      44.832  29.484  33.927  1.00  0.00     0.029 A 
ATOM     56  N   UNL A   1      43.949  28.391  32.205  1.00  0.00    -0.354 N 
ATOM     57  N   UNL A   1      43.817  26.268  30.193  1.00  0.00    -0.248 NA
ATOM     58  C   UNL A   1      44.805  24.480  29.062  1.00  0.00     0.031 C 
ATOM     59  C   UNL A   1      45.688  28.432  33.585  1.00  0.00     0.029 A 
ATOM     60  C   UNL A   1      45.133  27.743  32.518  1.00  0.00     0.049 A 
ATOM     61  H   UNL A   1      43.335  28.125  31.484  1.00  0.00     0.167 HD
ATOM     62  C   UNL A   1      45.035  25.968  30.792  1.00  0.00     0.074 A 
ATOM     63  C   UNL A   1      45.581  24.831  30.079  1.00  0.00     0.031 C 
ATOM     64  C   UNL A   1      45.652  26.589  31.827  1.00  0.00     0.034 A 
BRANCH  51  65
ATOM     65  C   UNL A   1      42.625  31.558  33.932  1.00  0.00     0.023 A 
ATOM     66  C   UNL A   1      43.117  32.808  33.498  1.00  0.00     0.012 A 
ATOM     67  C   UNL A   1      42.088  31.442  35.229  1.00  0.00     0.148 A 
ATOM     68  C   UNL A   1      43.119  33.909  34.353  1.00  0.00     0.002 A 
ATOM     69  C   UNL A   1      42.049  32.558  36.060  1.00  0.00     0.091 A 
ATOM     70  F   UNL A   1      41.642  30.245  35.634  1.00  0.00    -0.205 F 
ATOM     71  C   UNL A   1      42.577  33.786  35.629  1.00  0.00     0.022 A 
BRANCH  69  72
ATOM     72  S   UNL A   1      41.300  32.522  37.692  1.00  0.00     0.127 S 
ATOM     73  O   UNL A   1      39.946  32.061  37.386  1.00  0.00    -0.237 OA
ATOM     74  O   UNL A   1      42.132  31.545  38.394  1.00  0.00    -0.237 OA
ATOM     75  O   UNL A   1      41.399  33.881  38.205  1.00  0.00    -0.744 OA
ENDBRANCH  69  72
ENDBRANCH  51  65
BRANCH  52  76
ATOM     76  C   UNL A   1      42.547  24.204  27.193  1.00  0.00     0.023 A 
ATOM     77  C   UNL A   1      43.229  24.456  25.987  1.00  0.00     0.012 A 
ATOM     78  C   UNL A   1      41.947  22.945  27.394  1.00  0.00     0.148 A 
ATOM     79  C   UNL A   1      43.293  23.482  24.991  1.00  0.00     0.002 A 
ATOM     80  C   UNL A   1      42.065  21.959  26.422  1.00  0.00     0.091 A 
ATOM     81  F   UNL A   1      41.295  22.730  28.545  1.00  0.00    -0.205 F 
ATOM     82  C   UNL A   1      42.723  22.231  25.213  1.00  0.00     0.022 A 
BRANCH  80  83
ATOM     83  S   UNL A   1      41.488  20.278  26.679  1.00  0.00     0.127 S 
ATOM     84  O   UNL A   1      41.832  19.646  25.408  1.00  0.00    -0.237 OA
ATOM     85  O   UNL A   1      42.300  19.854  27.819  1.00  0.00    -0.237 OA
ATOM     86  O   UNL A   1      40.063  20.388  26.965  1.00  0.00    -0.744 OA
ENDBRANCH  80  83
ENDBRANCH  52  76
BRANCH  64  87
ATOM     87  C   UNL A   1      46.988  26.048  32.272  1.00  0.00     0.023 A 
ATOM     88  C   UNL A   1      48.172  26.557  31.704  1.00  0.00     0.012 A 
ATOM     89  C   UNL A   1      47.071  25.094  33.305  1.00  0.00     0.148 A 
ATOM     90  C   UNL A   1      49.418  26.102  32.134  1.00  0.00     0.002 A 
ATOM     91  C   UNL A   1      48.317  24.681  33.763  1.00  0.00     0.091 A 
ATOM     92  F   UNL A   1      45.932  24.609  33.822  1.00  0.00    -0.205 F 
ATOM     93  C   UNL A   1      49.491  25.175  33.172  1.00  0.00     0.022 A 
BRANCH  91  94
ATOM     94  S   UNL A   1      48.512  23.562  35.154  1.00  0.00     0.127 S 
ATOM     95  O   UNL A   1      49.968  23.453  35.247  1.00  0.00    -0.237 OA
ATOM     96  O   UNL A   1      47.887  24.311  36.245  1.00  0.00    -0.237 OA
ATOM     97  O   UNL A   1      47.818  22.335  34.787  1.00  0.00    -0.744 OA
ENDBRANCH  91  94
ENDBRANCH  64  87
ENDBRANCH  38  39
ENDBRANCH  30  33
ENDBRANCH  28  29
ENDBRANCH  27  28
ENDBRANCH  26  27
ENDBRANCH   1  26
TORSDOF 19
ENDMDL
MODEL 2
REMARK VINA RESULT:     -11.8      1.619      2.980
REMARK SMILES O=C(C[C@@H]1COc2ccccc2N1Cc1ccccc1)NCCCCCCNC(=O)c1ccc(-c2c3nc(c(-c4cccc(S(=O)(=O)[O-])c4F)c4ccc([nH]4)c(-c4cccc(S(=O)(=O)[O-])c4F)c4nc(c(-c5cccc(S(=O)(=O)[O-])c5F)c5ccc2[nH]5)C=C4)C=C3)cc1
REMARK SMILES IDX 24 1 23 2 22 3 21 4 1 5 2 6 3 8 4 9 5 10 13 11 6 12 12 13
REMARK SMILES IDX 7 14 11 15 8 16 10 17 9 18 14 19 15 20 16 21 20 22 17 23
REMARK SMILES IDX 19 24 18 25 25 26 26 27 27 28 28 29 29 30 30 32 31 33 32 34
REMARK SMILES IDX 93 35 33 36 92 37 34 38 35 39 36 40 86 41 37 42 91 43 85 44
REMARK SMILES IDX 87 45 38 46 90 47 84 48 83 49 39 51 71 52 51 53 70 54 52 55
REMARK SMILES IDX 55 56 69 57 88 58 53 59 54 60 68 62 89 63 56 64 40 65 41 66
REMARK SMILES IDX 49 67 42 68 44 69 50 70 43 71 45 72 46 73 47 74 48 75 72 76
REMARK SMILES IDX 73 77 81 78 74 79 76 80 82 81 75 82 77 83 78 84 79 85 80 86
REMARK SMILES IDX 57 87 58 88 66 89 59 90 61 91 67 92 60 93 62 94 63 95 64 96
REMARK SMILES IDX 65 97
REMARK H PARENT 21 7 28 31 87 50 55 61
REMARK Flexibility Score: inf
ROOT
ATOM      1  C   UNL A   1      33.344  29.065  23.973  1.00  0.00     0.002 C 
ENDROOT
BRANCH   1   2
ATOM      2  C   UNL A   1      34.073  27.982  23.164  1.00  0.00     0.021 C 
BRANCH   2   3
ATOM      3  C   UNL A   1      33.270  26.705  22.916  1.00  0.00     0.116 C 
BRANCH   3   4
ATOM      4  N   UNL A   1      33.901  25.559  23.539  1.00  0.00    -0.356 N 
ATOM      5  O   UNL A   1      33.639  24.097  21.788  1.00  0.00    -0.275 OA
ATOM      6  C   UNL A   1      34.097  24.359  22.895  1.00  0.00     0.222 C 
ATOM      7  H   UNL A   1      34.204  25.643  24.471  1.00  0.00     0.163 HD
BRANCH   6   8
ATOM      8  C   UNL A   1      34.830  23.326  23.734  1.00  0.00     0.128 C 
BRANCH   8   9
ATOM      9  C   UNL A   1      34.191  22.847  25.050  1.00  0.00     0.129 C 
ATOM     10  C   UNL A   1      35.080  22.056  26.022  1.00  0.00     0.255 C 
ATOM     11  N   UNL A   1      32.953  22.092  24.810  1.00  0.00    -0.357 N 
ATOM     12  O   UNL A   1      35.421  20.742  25.579  1.00  0.00    -0.489 OA
ATOM     13  C   UNL A   1      33.215  20.742  24.493  1.00  0.00     0.080 A 
ATOM     14  C   UNL A   1      34.408  20.106  24.897  1.00  0.00     0.142 A 
ATOM     15  C   UNL A   1      32.320  19.999  23.713  1.00  0.00     0.030 A 
ATOM     16  C   UNL A   1      34.662  18.771  24.566  1.00  0.00     0.048 A 
ATOM     17  C   UNL A   1      32.562  18.660  23.396  1.00  0.00     0.002 A 
ATOM     18  C   UNL A   1      33.731  18.043  23.828  1.00  0.00     0.004 A 
BRANCH  11  19
ATOM     19  C   UNL A   1      31.805  22.352  25.695  1.00  0.00     0.152 C 
BRANCH  19  20
ATOM     20  C   UNL A   1      31.031  23.590  25.305  1.00  0.00    -0.029 A 
ATOM     21  C   UNL A   1      30.643  24.529  26.272  1.00  0.00     0.005 A 
ATOM     22  C   UNL A   1      30.725  23.841  23.959  1.00  0.00     0.005 A 
ATOM     23  C   UNL A   1      29.994  25.707  25.893  1.00  0.00     0.000 A 
ATOM     24  C   UNL A   1      30.109  25.032  23.579  1.00  0.00     0.000 A 
ATOM     25  C   UNL A   1      29.746  25.965  24.546  1.00  0.00     0.000 A 
ENDBRANCH  19  20
ENDBRANCH  11  19
ENDBRANCH   8   9
ENDBRANCH   6   8
ENDBRANCH   3   4
ENDBRANCH   2   3
ENDBRANCH   1   2
BRANCH   1  26
ATOM     26  C   UNL A   1      32.096  28.598  24.729  1.00  0.00     0.002 C 
BRANCH  26  27
ATOM     27  C   UNL A   1      32.137  28.801  26.245  1.00  0.00     0.021 C 
BRANCH  27  28
ATOM     28  C   UNL A   1      33.505  29.158  26.819  1.00  0.00     0.116 C 
BRANCH  28  29
ATOM     29  N   UNL A   1      33.605  30.556  27.216  1.00  0.00    -0.352 N 
ATOM     30  C   UNL A   1      34.592  31.184  27.938  1.00  0.00     0.251 C 
ATOM     31  H   UNL A   1      32.862  31.132  26.925  1.00  0.00     0.163 HD
ATOM     32  O   UNL A   1      34.445  32.349  28.300  1.00  0.00    -0.269 OA
BRANCH  30  33
ATOM     33  C   UNL A   1      35.818  30.443  28.307  1.00  0.00     0.039 A 
ATOM     34  C   UNL A   1      36.933  30.519  27.469  1.00  0.00     0.014 A 
ATOM     35  C   UNL A   1      35.877  29.699  29.489  1.00  0.00     0.014 A 
ATOM     36  C   UNL A   1      38.133  29.916  27.856  1.00  0.00     0.010 A 
ATOM     37  C   UNL A   1      37.092  29.160  29.907  1.00  0.00     0.010 A 
ATOM     38  C   UNL A   1      38.235  29.271  29.100  1.00  0.00    -0.014 A 
BRANCH  38  39
ATOM     39  C   UNL A   1      39.538  28.758  29.599  1.00  0.00     0.031 A 
ATOM     40  C   UNL A   1      40.285  29.486  30.682  1.00  0.00     0.074 A 
ATOM     41  C   UNL A   1      40.101  27.693  28.997  1.00  0.00     0.049 A 
ATOM     42  N   UNL A   1      41.464  29.226  31.187  1.00  0.00    -0.248 NA
ATOM     43  C   UNL A   1      39.636  30.675  31.254  1.00  0.00     0.031 C 
ATOM     44  C   UNL A   1      39.521  26.955  27.872  1.00  0.00     0.029 A 
ATOM     45  N   UNL A   1      41.305  27.069  29.217  1.00  0.00    -0.354 N 
ATOM     46  C   UNL A   1      41.711  30.231  32.113  1.00  0.00     0.074 A 
ATOM     47  C   UNL A   1      40.575  31.127  32.073  1.00  0.00     0.031 C 
ATOM     48  C   UNL A   1      40.372  25.988  27.495  1.00  0.00     0.029 A 
ATOM     49  C   UNL A   1      41.570  26.057  28.324  1.00  0.00     0.049 A 
ATOM     50  H   UNL A   1      41.918  27.321  29.943  1.00  0.00     0.167 HD
ATOM     51  C   UNL A   1      42.773  30.382  32.942  1.00  0.00     0.034 A 
ATOM     52  C   UNL A   1      42.663  25.283  28.171  1.00  0.00     0.034 A 
ATOM     53  C   UNL A   1      43.891  29.478  32.995  1.00  0.00     0.049 A 
ATOM     54  C   UNL A   1      43.819  25.451  29.117  1.00  0.00     0.074 A 
ATOM     55  C   UNL A   1      44.970  29.493  33.861  1.00  0.00     0.029 A 
ATOM     56  N   UNL A   1      44.086  28.408  32.134  1.00  0.00    -0.354 N 
ATOM     57  N   UNL A   1      43.958  26.301  30.105  1.00  0.00    -0.248 NA
ATOM     58  C   UNL A   1      44.954  24.531  28.952  1.00  0.00     0.031 C 
ATOM     59  C   UNL A   1      45.832  28.450  33.504  1.00  0.00     0.029 A 
ATOM     60  C   UNL A   1      45.277  27.766  32.435  1.00  0.00     0.049 A 
ATOM     61  H   UNL A   1      43.469  28.143  31.414  1.00  0.00     0.167 HD
ATOM     62  C   UNL A   1      45.183  26.006  30.694  1.00  0.00     0.074 A 
ATOM     63  C   UNL A   1      45.733  24.879  29.968  1.00  0.00     0.031 C 
ATOM     64  C   UNL A   1      45.801  26.623  31.731  1.00  0.00     0.034 A 
BRANCH  51  65
ATOM     65  C   UNL A   1      42.747  31.549  33.897  1.00  0.00     0.023 A 
ATOM     66  C   UNL A   1      43.251  32.799  33.479  1.00  0.00     0.012 A 
ATOM     67  C   UNL A   1      42.195  31.425  35.186  1.00  0.00     0.148 A 
ATOM     68  C   UNL A   1      43.250  33.893  34.344  1.00  0.00     0.002 A 
ATOM     69  C   UNL A   1      42.153  32.533  36.027  1.00  0.00     0.091 A 
ATOM     70  F   UNL A   1      41.737  30.227  35.576  1.00  0.00    -0.205 F 
ATOM     71  C   UNL A   1      42.693  33.762  35.613  1.00  0.00     0.022 A 
BRANCH  69  72
ATOM     72  S   UNL A   1      41.385  32.488  37.650  1.00  0.00     0.127 S 
ATOM     73  O   UNL A   1      40.033  32.037  37.324  1.00  0.00    -0.237 OA
ATOM     74  O   UNL A   1      42.204  31.499  38.353  1.00  0.00    -0.237 OA
ATOM     75  O   UNL A   1      41.486  33.842  38.176  1.00  0.00    -0.744 OA
ENDBRANCH  69  72
ENDBRANCH  51  65
BRANCH  52  76
ATOM     76  C   UNL A   1      42.687  24.253  27.095  1.00  0.00     0.023 A 
ATOM     77  C   UNL A   1      43.439  24.481  25.927  1.00  0.00     0.012 A 
ATOM     78  C   UNL A   1      42.016  23.023  27.252  1.00  0.00     0.148 A 
ATOM     79  C   UNL A   1      43.505  23.514  24.924  1.00  0.00     0.002 A 
ATOM     80  C   UNL A   1      42.133  22.041  26.276  1.00  0.00     0.091 A 
ATOM     81  F   UNL A   1      41.298  22.832  28.367  1.00  0.00    -0.205 F 
ATOM     82  C   UNL A   1      42.863  22.290  25.104  1.00  0.00     0.022 A 
BRANCH  80  83
ATOM     83  S   UNL A   1      41.462  20.389  26.486  1.00  0.00     0.127 S 
ATOM     84  O   UNL A   1      40.030  20.624  26.320  1.00  0.00    -0.237 OA
ATOM     85  O   UNL A   1      42.100  19.665  25.386  1.00  0.00    -0.237 OA
ATOM     86  O   UNL A   1      41.882  19.957  27.813  1.00  0.00    -0.744 OA
ENDBRANCH  80  83
ENDBRANCH  52  76
BRANCH  64  87
ATOM     87  C   UNL A   1      47.143  26.089  32.163  1.00  0.00     0.023 A 
ATOM     88  C   UNL A   1      47.221  25.179  33.237  1.00  0.00     0.012 A 
ATOM     89  C   UNL A   1      48.315  26.429  31.458  1.00  0.00     0.148 A 
ATOM     90  C   UNL A   1      48.448  24.640  33.622  1.00  0.00     0.002 A 
ATOM     91  C   UNL A   1      49.527  25.849  31.817  1.00  0.00     0.091 A 
ATOM     92  F   UNL A   1      48.223  27.309  30.450  1.00  0.00    -0.205 F 
ATOM     93  C   UNL A   1      49.598  24.964  32.905  1.00  0.00     0.022 A 
BRANCH  91  94
ATOM     94  S   UNL A   1      51.043  26.134  30.896  1.00  0.00     0.127 S 
ATOM     95  O   UNL A   1      50.683  25.638  29.568  1.00  0.00    -0.237 OA
ATOM     96  O   UNL A   1      51.190  27.587  30.985  1.00  0.00    -0.237 OA
ATOM     97  O   UNL A   1      52.081  25.377  31.584  1.00  0.00    -0.744 OA
ENDBRANCH  91  94
ENDBRANCH  64  87
ENDBRANCH  38  39
ENDBRANCH  30  33
ENDBRANCH  28  29
ENDBRANCH  27  28
ENDBRANCH  26  27
ENDBRANCH   1  26
TORSDOF 19
ENDMDL
MODEL 3
REMARK VINA RESULT:     -11.7      2.134      7.872
REMARK SMILES O=C(C[C@@H]1COc2ccccc2N1Cc1ccccc1)NCCCCCCNC(=O)c1ccc(-c2c3nc(c(-c4cccc(S(=O)(=O)[O-])c4F)c4ccc([nH]4)c(-c4cccc(S(=O)(=O)[O-])c4F)c4nc(c(-c5cccc(S(=O)(=O)[O-])c5F)c5ccc2[nH]5)C=C4)C=C3)cc1
REMARK SMILES IDX 24 1 23 2 22 3 21 4 1 5 2 6 3 8 4 9 5 10 13 11 6 12 12 13
REMARK SMILES IDX 7 14 11 15 8 16 10 17 9 18 14 19 15 20 16 21 20 22 17 23
REMARK SMILES IDX 19 24 18 25 25 26 26 27 27 28 28 29 29 30 30 32 31 33 32 34
REMARK SMILES IDX 93 35 33 36 92 37 34 38 35 39 36 40 86 41 37 42 91 43 85 44
REMARK SMILES IDX 87 45 38 46 90 47 84 48 83 49 39 51 71 52 51 53 70 54 52 55
REMARK SMILES IDX 55 56 69 57 88 58 53 59 54 60 68 62 89 63 56 64 40 65 41 66
REMARK SMILES IDX 49 67 42 68 44 69 50 70 43 71 45 72 46 73 47 74 48 75 72 76
REMARK SMILES IDX 73 77 81 78 74 79 76 80 82 81 75 82 77 83 78 84 79 85 80 86
REMARK SMILES IDX 57 87 58 88 66 89 59 90 61 91 67 92 60 93 62 94 63 95 64 96
REMARK SMILES IDX 65 97
REMARK H PARENT 21 7 28 31 87 50 55 61
REMARK Flexibility Score: inf
ROOT
ATOM      1  C   UNL A   1      33.505  28.535  23.860  1.00  0.00     0.002 C 
ENDROOT
BRANCH   1   2
ATOM      2  C   UNL A   1      33.897  27.065  23.645  1.00  0.00     0.021 C 
BRANCH   2   3
ATOM      3  C   UNL A   1      33.172  26.359  22.500  1.00  0.00     0.116 C 
BRANCH   3   4
ATOM      4  N   UNL A   1      33.058  24.937  22.748  1.00  0.00    -0.356 N 
ATOM      5  O   UNL A   1      30.799  24.894  23.158  1.00  0.00    -0.275 OA
ATOM      6  C   UNL A   1      31.860  24.303  22.991  1.00  0.00     0.222 C 
ATOM      7  H   UNL A   1      33.879  24.395  22.743  1.00  0.00     0.163 HD
BRANCH   6   8
ATOM      8  C   UNL A   1      31.988  22.800  23.165  1.00  0.00     0.128 C 
BRANCH   8   9
ATOM      9  C   UNL A   1      32.183  22.228  24.581  1.00  0.00     0.129 C 
ATOM     10  C   UNL A   1      32.189  23.221  25.753  1.00  0.00     0.255 C 
ATOM     11  N   UNL A   1      33.381  21.380  24.664  1.00  0.00    -0.357 N 
ATOM     12  O   UNL A   1      33.343  24.060  25.812  1.00  0.00    -0.489 OA
ATOM     13  C   UNL A   1      34.551  22.144  24.856  1.00  0.00     0.080 A 
ATOM     14  C   UNL A   1      34.508  23.430  25.435  1.00  0.00     0.142 A 
ATOM     15  C   UNL A   1      35.797  21.673  24.425  1.00  0.00     0.030 A 
ATOM     16  C   UNL A   1      35.674  24.183  25.610  1.00  0.00     0.048 A 
ATOM     17  C   UNL A   1      36.967  22.414  24.613  1.00  0.00     0.002 A 
ATOM     18  C   UNL A   1      36.906  23.668  25.211  1.00  0.00     0.004 A 
BRANCH  11  19
ATOM     19  C   UNL A   1      33.283  20.121  25.420  1.00  0.00     0.152 C 
BRANCH  19  20
ATOM     20  C   UNL A   1      33.447  18.897  24.549  1.00  0.00    -0.029 A 
ATOM     21  C   UNL A   1      32.571  18.651  23.482  1.00  0.00     0.005 A 
ATOM     22  C   UNL A   1      34.509  18.007  24.770  1.00  0.00     0.005 A 
ATOM     23  C   UNL A   1      32.776  17.559  22.636  1.00  0.00     0.000 A 
ATOM     24  C   UNL A   1      34.732  16.937  23.905  1.00  0.00     0.000 A 
ATOM     25  C   UNL A   1      33.867  16.715  22.837  1.00  0.00     0.000 A 
ENDBRANCH  19  20
ENDBRANCH  11  19
ENDBRANCH   8   9
ENDBRANCH   6   8
ENDBRANCH   3   4
ENDBRANCH   2   3
ENDBRANCH   1   2
BRANCH   1  26
ATOM     26  C   UNL A   1      32.005  28.837  23.787  1.00  0.00     0.002 C 
BRANCH  26  27
ATOM     27  C   UNL A   1      31.438  29.616  24.976  1.00  0.00     0.021 C 
BRANCH  27  28
ATOM     28  C   UNL A   1      32.475  30.149  25.961  1.00  0.00     0.116 C 
BRANCH  28  29
ATOM     29  N   UNL A   1      32.174  31.496  26.426  1.00  0.00    -0.352 N 
ATOM     30  C   UNL A   1      32.888  32.297  27.285  1.00  0.00     0.251 C 
ATOM     31  H   UNL A   1      31.343  31.889  26.074  1.00  0.00     0.163 HD
ATOM     32  O   UNL A   1      32.412  33.360  27.675  1.00  0.00    -0.269 OA
BRANCH  30  33
ATOM     33  C   UNL A   1      34.217  31.859  27.764  1.00  0.00     0.039 A 
ATOM     34  C   UNL A   1      35.244  32.801  27.867  1.00  0.00     0.014 A 
ATOM     35  C   UNL A   1      34.443  30.531  28.139  1.00  0.00     0.014 A 
ATOM     36  C   UNL A   1      36.472  32.430  28.422  1.00  0.00     0.010 A 
ATOM     37  C   UNL A   1      35.642  30.181  28.755  1.00  0.00     0.010 A 
ATOM     38  C   UNL A   1      36.665  31.128  28.913  1.00  0.00    -0.014 A 
BRANCH  38  39
ATOM     39  C   UNL A   1      37.905  30.755  29.643  1.00  0.00     0.031 A 
ATOM     40  C   UNL A   1      38.867  29.756  29.062  1.00  0.00     0.074 A 
ATOM     41  C   UNL A   1      38.108  31.237  30.885  1.00  0.00     0.049 A 
ATOM     42  N   UNL A   1      39.956  29.258  29.589  1.00  0.00    -0.248 NA
ATOM     43  C   UNL A   1      38.551  29.228  27.726  1.00  0.00     0.031 C 
ATOM     44  C   UNL A   1      37.203  32.140  31.598  1.00  0.00     0.029 A 
ATOM     45  N   UNL A   1      39.120  31.003  31.784  1.00  0.00    -0.354 N 
ATOM     46  C   UNL A   1      40.440  28.340  28.666  1.00  0.00     0.074 A 
ATOM     47  C   UNL A   1      39.505  28.323  27.561  1.00  0.00     0.031 C 
ATOM     48  C   UNL A   1      37.693  32.375  32.825  1.00  0.00     0.029 A 
ATOM     49  C   UNL A   1      38.926  31.615  33.000  1.00  0.00     0.049 A 
ATOM     50  H   UNL A   1      39.908  30.451  31.577  1.00  0.00     0.167 HD
ATOM     51  C   UNL A   1      41.573  27.598  28.718  1.00  0.00     0.034 A 
ATOM     52  C   UNL A   1      39.644  31.556  34.139  1.00  0.00     0.034 A 
ATOM     53  C   UNL A   1      42.512  27.634  29.807  1.00  0.00     0.049 A 
ATOM     54  C   UNL A   1      40.911  30.747  34.166  1.00  0.00     0.074 A 
ATOM     55  C   UNL A   1      43.733  26.990  29.913  1.00  0.00     0.029 A 
ATOM     56  N   UNL A   1      42.328  28.336  30.989  1.00  0.00    -0.354 N 
ATOM     57  N   UNL A   1      41.445  30.020  33.215  1.00  0.00    -0.248 NA
ATOM     58  C   UNL A   1      41.695  30.779  35.409  1.00  0.00     0.031 C 
ATOM     59  C   UNL A   1      44.273  27.279  31.171  1.00  0.00     0.029 A 
ATOM     60  C   UNL A   1      43.403  28.127  31.839  1.00  0.00     0.049 A 
ATOM     61  H   UNL A   1      41.549  28.900  31.195  1.00  0.00     0.167 HD
ATOM     62  C   UNL A   1      42.636  29.525  33.735  1.00  0.00     0.074 A 
ATOM     63  C   UNL A   1      42.758  30.059  35.076  1.00  0.00     0.031 C 
ATOM     64  C   UNL A   1      43.536  28.691  33.159  1.00  0.00     0.034 A 
BRANCH  51  65
ATOM     65  C   UNL A   1      41.881  26.719  27.532  1.00  0.00     0.023 A 
ATOM     66  C   UNL A   1      42.482  27.283  26.386  1.00  0.00     0.012 A 
ATOM     67  C   UNL A   1      41.614  25.337  27.559  1.00  0.00     0.148 A 
ATOM     68  C   UNL A   1      42.767  26.496  25.271  1.00  0.00     0.002 A 
ATOM     69  C   UNL A   1      41.946  24.549  26.461  1.00  0.00     0.091 A 
ATOM     70  F   UNL A   1      41.026  24.818  28.646  1.00  0.00    -0.205 F 
ATOM     71  C   UNL A   1      42.509  25.130  25.312  1.00  0.00     0.022 A 
BRANCH  69  72
ATOM     72  S   UNL A   1      41.726  22.767  26.447  1.00  0.00     0.127 S 
ATOM     73  O   UNL A   1      42.393  22.397  25.199  1.00  0.00    -0.237 OA
ATOM     74  O   UNL A   1      42.435  22.357  27.660  1.00  0.00    -0.237 OA
ATOM     75  O   UNL A   1      40.288  22.543  26.481  1.00  0.00    -0.744 OA
ENDBRANCH  69  72
ENDBRANCH  51  65
BRANCH  52  76
ATOM     76  C   UNL A   1      39.192  32.325  35.332  1.00  0.00     0.023 A 
ATOM     77  C   UNL A   1      38.317  31.724  36.258  1.00  0.00     0.012 A 
ATOM     78  C   UNL A   1      39.671  33.626  35.583  1.00  0.00     0.148 A 
ATOM     79  C   UNL A   1      37.911  32.413  37.401  1.00  0.00     0.002 A 
ATOM     80  C   UNL A   1      39.308  34.284  36.752  1.00  0.00     0.091 A 
ATOM     81  F   UNL A   1      40.493  34.182  34.683  1.00  0.00    -0.205 F 
ATOM     82  C   UNL A   1      38.415  33.686  37.654  1.00  0.00     0.022 A 
BRANCH  80  83
ATOM     83  S   UNL A   1      40.018  35.863  37.229  1.00  0.00     0.127 S 
ATOM     84  O   UNL A   1      41.436  35.530  37.347  1.00  0.00    -0.237 OA
ATOM     85  O   UNL A   1      39.675  36.704  36.083  1.00  0.00    -0.237 OA
ATOM     86  O   UNL A   1      39.352  36.237  38.469  1.00  0.00    -0.744 OA
ENDBRANCH  80  83
ENDBRANCH  52  76
BRANCH  64  87
ATOM     87  C   UNL A   1      44.751  28.308  33.965  1.00  0.00     0.023 A 
ATOM     88  C   UNL A   1      45.896  29.130  33.938  1.00  0.00     0.012 A 
ATOM     89  C   UNL A   1      44.731  27.178  34.806  1.00  0.00     0.148 A 
ATOM     90  C   UNL A   1      47.013  28.817  34.712  1.00  0.00     0.002 A 
ATOM     91  C   UNL A   1      45.830  26.900  35.613  1.00  0.00     0.091 A 
ATOM     92  F   UNL A   1      43.640  26.399  34.806  1.00  0.00    -0.205 F 
ATOM     93  C   UNL A   1      46.975  27.711  35.558  1.00  0.00     0.022 A 
BRANCH  91  94
ATOM     94  S   UNL A   1      45.839  25.553  36.800  1.00  0.00     0.127 S 
ATOM     95  O   UNL A   1      47.077  25.812  37.535  1.00  0.00    -0.237 OA
ATOM     96  O   UNL A   1      44.615  25.803  37.562  1.00  0.00    -0.237 OA
ATOM     97  O   UNL A   1      45.825  24.324  36.018  1.00  0.00    -0.744 OA
ENDBRANCH  91  94
ENDBRANCH  64  87
ENDBRANCH  38  39
ENDBRANCH  30  33
ENDBRANCH  28  29
ENDBRANCH  27  28
ENDBRANCH  26  27
ENDBRANCH   1  26
TORSDOF 19
ENDMDL
