MODEL 1
REMARK VINA RESULT:      -9.8      0.000      0.000
REMARK SMILES Cc1cc(Br)cc([N+](=O)[O-])c1OCCC[C@@](C)([NH3+])C(=O)NCCCCCCNC(=O)c1ccc(-c2c3nc(c(-c4cccc(S(=O)(=O)[O-])c4F)c4ccc([nH]4)c(-c4cccc(S(=O)(=O)[O-])c4F)c4nc(c(-c5cccc(S(=O)(=O)[O-])c5F)c5ccc2[nH]5)C=C4)C=C3)cc1
REMARK SMILES IDX 23 1 22 2 21 3 19 4 20 5 16 7 17 8 15 9 14 10 13 11 12 12
REMARK SMILES IDX 11 13 1 14 2 15 3 16 4 17 7 18 5 19 6 20 8 21 9 22 10 23
REMARK SMILES IDX 18 24 24 28 25 29 26 30 27 31 28 32 29 33 30 35 31 36 32 37
REMARK SMILES IDX 93 38 33 39 92 40 34 41 35 42 36 43 86 44 37 45 91 46 85 47
REMARK SMILES IDX 87 48 38 49 90 50 84 51 83 52 39 54 71 55 51 56 70 57 52 58
REMARK SMILES IDX 55 59 69 60 88 61 53 62 54 63 68 65 89 66 56 67 40 68 41 69
REMARK SMILES IDX 49 70 42 71 44 72 50 73 43 74 45 75 46 76 47 77 48 78 72 79
REMARK SMILES IDX 73 80 81 81 74 82 76 83 82 84 75 85 77 86 78 87 79 88 80 89
REMARK SMILES IDX 57 90 58 91 66 92 59 93 61 94 67 95 60 96 62 97 63 98 64 99
REMARK SMILES IDX 65 100
REMARK H PARENT 21 6 18 25 18 26 18 27 28 34 87 53 55 64
REMARK Flexibility Score: inf
ROOT
ATOM      1  C   UNL A   1      33.769  25.799  25.517  1.00  0.00     0.021 C 
ENDROOT
BRANCH   1   2
ATOM      2  C   UNL A   1      32.743  26.302  26.536  1.00  0.00     0.116 C 
BRANCH   2   3
ATOM      3  N   UNL A   1      33.099  27.607  27.060  1.00  0.00    -0.351 N 
ATOM      4  C   UNL A   1      32.725  28.871  26.739  1.00  0.00     0.280 C 
ATOM      5  O   UNL A   1      32.916  29.701  27.637  1.00  0.00    -0.268 OA
ATOM      6  H   UNL A   1      33.746  27.568  27.802  1.00  0.00     0.163 HD
BRANCH   4   7
ATOM      7  C   UNL A   1      32.076  29.302  25.385  1.00  0.00     0.171 C 
ATOM      8  C   UNL A   1      31.631  30.759  25.581  1.00  0.00     0.090 C 
BRANCH   7   9
ATOM      9  C   UNL A   1      33.024  29.161  24.140  1.00  0.00     0.082 C 
BRANCH   9  10
ATOM     10  C   UNL A   1      32.546  28.442  22.860  1.00  0.00     0.049 C 
BRANCH  10  11
ATOM     11  C   UNL A   1      33.040  26.990  22.622  1.00  0.00     0.230 C 
BRANCH  11  12
ATOM     12  O   UNL A   1      32.034  26.220  21.939  1.00  0.00    -0.487 OA
BRANCH  12  13
ATOM     13  C   UNL A   1      31.731  24.971  22.438  1.00  0.00     0.200 A 
ATOM     14  C   UNL A   1      33.302  23.813  20.792  1.00  0.00     0.049 C 
ATOM     15  C   UNL A   1      32.523  23.870  22.057  1.00  0.00    -0.001 A 
ATOM     16  C   UNL A   1      32.651  22.754  22.902  1.00  0.00     0.023 A 
ATOM     17  C   UNL A   1      31.937  22.679  24.084  1.00  0.00     0.025 A 
ATOM     18  C   UNL A   1      30.932  24.824  23.585  1.00  0.00     0.312 A 
ATOM     19  Br  UNL A   1      32.200  21.206  25.234  1.00  0.00    -0.051 Br
ATOM     20  C   UNL A   1      31.035  23.682  24.409  1.00  0.00     0.105 A 
BRANCH  18  21
ATOM     21  N   UNL A   1      29.911  25.809  23.939  1.00  0.00     0.066 N 
ATOM     22  O   UNL A   1      29.558  26.605  23.054  1.00  0.00    -0.258 OA
ATOM     23  O   UNL A   1      29.520  25.858  25.113  1.00  0.00    -0.258 OA
ENDBRANCH  18  21
ENDBRANCH  12  13
ENDBRANCH  11  12
ENDBRANCH  10  11
ENDBRANCH   9  10
ENDBRANCH   7   9
BRANCH   7  24
ATOM     24  N   UNL A   1      30.828  28.569  25.064  1.00  0.00    -0.345 N 
ATOM     25  H   UNL A   1      30.637  28.645  24.065  1.00  0.00     0.345 HD
ATOM     26  H   UNL A   1      30.053  28.971  25.591  1.00  0.00     0.345 HD
ATOM     27  H   UNL A   1      30.936  27.586  25.315  1.00  0.00     0.345 HD
ENDBRANCH   7  24
ENDBRANCH   4   7
ENDBRANCH   2   3
ENDBRANCH   1   2
BRANCH   1  28
ATOM     28  C   UNL A   1      34.542  24.535  25.924  1.00  0.00     0.002 C 
BRANCH  28  29
ATOM     29  C   UNL A   1      35.439  23.924  24.843  1.00  0.00     0.002 C 
BRANCH  29  30
ATOM     30  C   UNL A   1      35.959  22.516  25.139  1.00  0.00     0.021 C 
BRANCH  30  31
ATOM     31  C   UNL A   1      37.312  22.191  24.522  1.00  0.00     0.116 C 
BRANCH  31  32
ATOM     32  N   UNL A   1      37.937  21.038  25.149  1.00  0.00    -0.352 N 
ATOM     33  C   UNL A   1      39.032  21.001  25.981  1.00  0.00     0.251 C 
ATOM     34  H   UNL A   1      37.521  20.168  24.952  1.00  0.00     0.163 HD
ATOM     35  O   UNL A   1      39.550  19.930  26.270  1.00  0.00    -0.269 OA
BRANCH  33  36
ATOM     36  C   UNL A   1      39.592  22.267  26.506  1.00  0.00     0.039 A 
ATOM     37  C   UNL A   1      40.621  22.214  27.449  1.00  0.00     0.014 A 
ATOM     38  C   UNL A   1      39.113  23.501  26.057  1.00  0.00     0.014 A 
ATOM     39  C   UNL A   1      41.210  23.399  27.897  1.00  0.00     0.010 A 
ATOM     40  C   UNL A   1      39.754  24.676  26.444  1.00  0.00     0.010 A 
ATOM     41  C   UNL A   1      40.804  24.638  27.374  1.00  0.00    -0.014 A 
BRANCH  41  42
ATOM     42  C   UNL A   1      41.471  25.902  27.779  1.00  0.00     0.031 A 
ATOM     43  C   UNL A   1      40.708  26.955  28.540  1.00  0.00     0.074 A 
ATOM     44  C   UNL A   1      42.739  26.142  27.389  1.00  0.00     0.049 A 
ATOM     45  N   UNL A   1      41.105  28.137  28.934  1.00  0.00    -0.248 NA
ATOM     46  C   UNL A   1      39.308  26.650  28.879  1.00  0.00     0.031 C 
ATOM     47  C   UNL A   1      43.559  25.239  26.579  1.00  0.00     0.029 A 
ATOM     48  N   UNL A   1      43.552  27.228  27.598  1.00  0.00    -0.354 N 
ATOM     49  C   UNL A   1      40.000  28.730  29.533  1.00  0.00     0.074 A 
ATOM     50  C   UNL A   1      38.905  27.792  29.419  1.00  0.00     0.031 C 
ATOM     51  C   UNL A   1      44.758  25.804  26.364  1.00  0.00     0.029 A 
ATOM     52  C   UNL A   1      44.782  27.121  26.992  1.00  0.00     0.049 A 
ATOM     53  H   UNL A   1      43.280  28.010  28.131  1.00  0.00     0.167 HD
ATOM     54  C   UNL A   1      39.910  29.934  30.147  1.00  0.00     0.034 A 
ATOM     55  C   UNL A   1      45.813  27.990  26.939  1.00  0.00     0.034 A 
ATOM     56  C   UNL A   1      41.011  30.847  30.294  1.00  0.00     0.049 A 
ATOM     57  C   UNL A   1      45.700  29.303  27.663  1.00  0.00     0.074 A 
ATOM     58  C   UNL A   1      41.045  32.048  30.979  1.00  0.00     0.029 A 
ATOM     59  N   UNL A   1      42.268  30.666  29.739  1.00  0.00    -0.354 N 
ATOM     60  N   UNL A   1      44.697  29.776  28.361  1.00  0.00    -0.248 NA
ATOM     61  C   UNL A   1      46.873  30.189  27.622  1.00  0.00     0.031 C 
ATOM     62  C   UNL A   1      42.316  32.610  30.813  1.00  0.00     0.029 A 
ATOM     63  C   UNL A   1      43.083  31.741  30.055  1.00  0.00     0.049 A 
ATOM     64  H   UNL A   1      42.542  29.889  29.201  1.00  0.00     0.167 HD
ATOM     65  C   UNL A   1      45.129  30.994  28.874  1.00  0.00     0.074 A 
ATOM     66  C   UNL A   1      46.494  31.176  28.421  1.00  0.00     0.031 C 
ATOM     67  C   UNL A   1      44.455  31.887  29.640  1.00  0.00     0.034 A 
BRANCH  54  68
ATOM     68  C   UNL A   1      38.583  30.314  30.753  1.00  0.00     0.023 A 
ATOM     69  C   UNL A   1      38.266  29.891  32.061  1.00  0.00     0.012 A 
ATOM     70  C   UNL A   1      37.678  31.139  30.057  1.00  0.00     0.148 A 
ATOM     71  C   UNL A   1      37.055  30.249  32.650  1.00  0.00     0.002 A 
ATOM     72  C   UNL A   1      36.493  31.531  30.670  1.00  0.00     0.091 A 
ATOM     73  F   UNL A   1      37.986  31.515  28.807  1.00  0.00    -0.205 F 
ATOM     74  C   UNL A   1      36.176  31.078  31.961  1.00  0.00     0.022 A 
BRANCH  72  75
ATOM     75  S   UNL A   1      35.330  32.661  29.898  1.00  0.00     0.127 S 
ATOM     76  O   UNL A   1      34.378  32.892  30.983  1.00  0.00    -0.237 OA
ATOM     77  O   UNL A   1      36.181  33.808  29.579  1.00  0.00    -0.237 OA
ATOM     78  O   UNL A   1      34.797  31.959  28.738  1.00  0.00    -0.744 OA
ENDBRANCH  72  75
ENDBRANCH  54  68
BRANCH  55  79
ATOM     79  C   UNL A   1      47.065  27.615  26.222  1.00  0.00     0.023 A 
ATOM     80  C   UNL A   1      48.100  26.970  26.926  1.00  0.00     0.012 A 
ATOM     81  C   UNL A   1      47.226  27.870  24.847  1.00  0.00     0.148 A 
ATOM     82  C   UNL A   1      49.287  26.616  26.282  1.00  0.00     0.002 A 
ATOM     83  C   UNL A   1      48.386  27.464  24.198  1.00  0.00     0.091 A 
ATOM     84  F   UNL A   1      46.234  28.495  24.196  1.00  0.00    -0.205 F 
ATOM     85  C   UNL A   1      49.426  26.854  24.918  1.00  0.00     0.022 A 
BRANCH  83  86
ATOM     86  S   UNL A   1      48.597  27.608  22.421  1.00  0.00     0.127 S 
ATOM     87  O   UNL A   1      49.873  28.312  22.325  1.00  0.00    -0.237 OA
ATOM     88  O   UNL A   1      48.632  26.205  22.006  1.00  0.00    -0.237 OA
ATOM     89  O   UNL A   1      47.432  28.343  21.945  1.00  0.00    -0.744 OA
ENDBRANCH  83  86
ENDBRANCH  55  79
BRANCH  67  90
ATOM     90  C   UNL A   1      45.187  33.128  30.077  1.00  0.00     0.023 A 
ATOM     91  C   UNL A   1      45.948  33.118  31.263  1.00  0.00     0.012 A 
ATOM     92  C   UNL A   1      45.182  34.284  29.269  1.00  0.00     0.148 A 
ATOM     93  C   UNL A   1      46.663  34.249  31.656  1.00  0.00     0.002 A 
ATOM     94  C   UNL A   1      45.938  35.389  29.641  1.00  0.00     0.091 A 
ATOM     95  F   UNL A   1      44.438  34.281  28.154  1.00  0.00    -0.205 F 
ATOM     96  C   UNL A   1      46.668  35.378  30.841  1.00  0.00     0.022 A 
BRANCH  94  97
ATOM     97  S   UNL A   1      46.084  36.849  28.605  1.00  0.00     0.127 S 
ATOM     98  O   UNL A   1      46.618  36.283  27.367  1.00  0.00    -0.237 OA
ATOM     99  O   UNL A   1      44.696  37.305  28.517  1.00  0.00    -0.237 OA
ATOM    100  O   UNL A   1      46.975  37.758  29.312  1.00  0.00    -0.744 OA
ENDBRANCH  94  97
ENDBRANCH  67  90
ENDBRANCH  41  42
ENDBRANCH  33  36
ENDBRANCH  31  32
ENDBRANCH  30  31
ENDBRANCH  29  30
ENDBRANCH  28  29
ENDBRANCH   1  28
TORSDOF 23
ENDMDL
MODEL 2
REMARK VINA RESULT:      -9.2      5.158     10.048
REMARK SMILES Cc1cc(Br)cc([N+](=O)[O-])c1OCCC[C@@](C)([NH3+])C(=O)NCCCCCCNC(=O)c1ccc(-c2c3nc(c(-c4cccc(S(=O)(=O)[O-])c4F)c4ccc([nH]4)c(-c4cccc(S(=O)(=O)[O-])c4F)c4nc(c(-c5cccc(S(=O)(=O)[O-])c5F)c5ccc2[nH]5)C=C4)C=C3)cc1
REMARK SMILES IDX 23 1 22 2 21 3 19 4 20 5 16 7 17 8 15 9 14 10 13 11 12 12
REMARK SMILES IDX 11 13 1 14 2 15 3 16 4 17 7 18 5 19 6 20 8 21 9 22 10 23
REMARK SMILES IDX 18 24 24 28 25 29 26 30 27 31 28 32 29 33 30 35 31 36 32 37
REMARK SMILES IDX 93 38 33 39 92 40 34 41 35 42 36 43 86 44 37 45 91 46 85 47
REMARK SMILES IDX 87 48 38 49 90 50 84 51 83 52 39 54 71 55 51 56 70 57 52 58
REMARK SMILES IDX 55 59 69 60 88 61 53 62 54 63 68 65 89 66 56 67 40 68 41 69
REMARK SMILES IDX 49 70 42 71 44 72 50 73 43 74 45 75 46 76 47 77 48 78 72 79
REMARK SMILES IDX 73 80 81 81 74 82 76 83 82 84 75 85 77 86 78 87 79 88 80 89
REMARK SMILES IDX 57 90 58 91 66 92 59 93 61 94 67 95 60 96 62 97 63 98 64 99
REMARK SMILES IDX 65 100
REMARK H PARENT 21 6 18 25 18 26 18 27 28 34 87 53 55 64
REMARK Flexibility Score: inf
ROOT
ATOM      1  C   UNL A   1      35.537  33.056  32.741  1.00  0.00     0.021 C 
ENDROOT
BRANCH   1   2
ATOM      2  C   UNL A   1      37.030  32.873  32.455  1.00  0.00     0.116 C 
BRANCH   2   3
ATOM      3  N   UNL A   1      37.478  31.530  32.767  1.00  0.00    -0.351 N 
ATOM      4  C   UNL A   1      38.118  30.989  33.835  1.00  0.00     0.280 C 
ATOM      5  O   UNL A   1      37.988  29.762  33.936  1.00  0.00    -0.268 OA
ATOM      6  H   UNL A   1      37.278  30.875  32.060  1.00  0.00     0.163 HD
BRANCH   4   7
ATOM      7  C   UNL A   1      38.936  31.791  34.897  1.00  0.00     0.171 C 
ATOM      8  C   UNL A   1      37.935  32.749  35.558  1.00  0.00     0.090 C 
BRANCH   7   9
ATOM      9  C   UNL A   1      39.655  30.895  35.969  1.00  0.00     0.082 C 
BRANCH   9  10
ATOM     10  C   UNL A   1      41.065  30.325  35.704  1.00  0.00     0.049 C 
BRANCH  10  11
ATOM     11  C   UNL A   1      41.191  28.797  35.455  1.00  0.00     0.230 C 
BRANCH  11  12
ATOM     12  O   UNL A   1      41.849  28.157  36.562  1.00  0.00    -0.487 OA
BRANCH  12  13
ATOM     13  C   UNL A   1      42.513  26.973  36.319  1.00  0.00     0.200 A 
ATOM     14  C   UNL A   1      40.701  25.593  37.472  1.00  0.00     0.049 C 
ATOM     15  C   UNL A   1      41.840  25.754  36.531  1.00  0.00    -0.001 A 
ATOM     16  C   UNL A   1      42.199  24.603  35.808  1.00  0.00     0.023 A 
ATOM     17  C   UNL A   1      43.273  24.625  34.936  1.00  0.00     0.025 A 
ATOM     18  C   UNL A   1      43.666  26.942  35.514  1.00  0.00     0.312 A 
ATOM     19  Br  UNL A   1      43.671  23.086  33.919  1.00  0.00    -0.051 Br
ATOM     20  C   UNL A   1      44.046  25.771  34.822  1.00  0.00     0.105 A 
BRANCH  18  21
ATOM     21  N   UNL A   1      44.561  28.094  35.413  1.00  0.00     0.066 N 
ATOM     22  O   UNL A   1      45.085  28.500  36.463  1.00  0.00    -0.258 OA
ATOM     23  O   UNL A   1      44.679  28.654  34.316  1.00  0.00    -0.258 OA
ENDBRANCH  18  21
ENDBRANCH  12  13
ENDBRANCH  11  12
ENDBRANCH  10  11
ENDBRANCH   9  10
ENDBRANCH   7   9
BRANCH   7  24
ATOM     24  N   UNL A   1      39.970  32.676  34.308  1.00  0.00    -0.345 N 
ATOM     25  H   UNL A   1      39.518  33.426  33.786  1.00  0.00     0.345 HD
ATOM     26  H   UNL A   1      40.563  32.133  33.681  1.00  0.00     0.345 HD
ATOM     27  H   UNL A   1      40.539  33.075  35.053  1.00  0.00     0.345 HD
ENDBRANCH   7  24
ENDBRANCH   4   7
ENDBRANCH   2   3
ENDBRANCH   1   2
BRANCH   1  28
ATOM     28  C   UNL A   1      34.584  32.514  31.666  1.00  0.00     0.002 C 
BRANCH  28  29
ATOM     29  C   UNL A   1      34.550  33.293  30.347  1.00  0.00     0.002 C 
BRANCH  29  30
ATOM     30  C   UNL A   1      35.586  32.868  29.306  1.00  0.00     0.021 C 
BRANCH  30  31
ATOM     31  C   UNL A   1      35.024  32.593  27.919  1.00  0.00     0.116 C 
BRANCH  31  32
ATOM     32  N   UNL A   1      34.315  31.326  27.856  1.00  0.00    -0.352 N 
ATOM     33  C   UNL A   1      34.825  30.050  27.941  1.00  0.00     0.251 C 
ATOM     34  H   UNL A   1      33.340  31.388  27.738  1.00  0.00     0.163 HD
ATOM     35  O   UNL A   1      34.119  29.086  27.677  1.00  0.00    -0.269 OA
BRANCH  33  36
ATOM     36  C   UNL A   1      36.239  29.856  28.333  1.00  0.00     0.039 A 
ATOM     37  C   UNL A   1      36.538  29.536  29.659  1.00  0.00     0.014 A 
ATOM     38  C   UNL A   1      37.265  29.974  27.391  1.00  0.00     0.014 A 
ATOM     39  C   UNL A   1      37.861  29.277  30.027  1.00  0.00     0.010 A 
ATOM     40  C   UNL A   1      38.570  29.637  27.741  1.00  0.00     0.010 A 
ATOM     41  C   UNL A   1      38.883  29.293  29.064  1.00  0.00    -0.014 A 
BRANCH  41  42
ATOM     42  C   UNL A   1      40.283  28.942  29.420  1.00  0.00     0.031 A 
ATOM     43  C   UNL A   1      41.178  29.961  30.075  1.00  0.00     0.074 A 
ATOM     44  C   UNL A   1      40.776  27.736  29.076  1.00  0.00     0.049 A 
ATOM     45  N   UNL A   1      42.438  29.855  30.412  1.00  0.00    -0.248 NA
ATOM     46  C   UNL A   1      40.590  31.278  30.366  1.00  0.00     0.031 C 
ATOM     47  C   UNL A   1      40.036  26.692  28.364  1.00  0.00     0.029 A 
ATOM     48  N   UNL A   1      42.025  27.193  29.254  1.00  0.00    -0.354 N 
ATOM     49  C   UNL A   1      42.802  31.097  30.919  1.00  0.00     0.074 A 
ATOM     50  C   UNL A   1      41.640  31.953  30.814  1.00  0.00     0.031 C 
ATOM     51  C   UNL A   1      40.841  25.634  28.171  1.00  0.00     0.029 A 
ATOM     52  C   UNL A   1      42.161  25.935  28.715  1.00  0.00     0.049 A 
ATOM     53  H   UNL A   1      42.754  27.660  29.723  1.00  0.00     0.167 HD
ATOM     54  C   UNL A   1      43.986  31.484  31.452  1.00  0.00     0.034 A 
ATOM     55  C   UNL A   1      43.232  25.117  28.656  1.00  0.00     0.034 A 
ATOM     56  C   UNL A   1      45.126  30.619  31.593  1.00  0.00     0.049 A 
ATOM     57  C   UNL A   1      44.524  25.557  29.290  1.00  0.00     0.074 A 
ATOM     58  C   UNL A   1      46.339  30.889  32.201  1.00  0.00     0.029 A 
ATOM     59  N   UNL A   1      45.199  29.322  31.110  1.00  0.00    -0.354 N 
ATOM     60  N   UNL A   1      44.799  26.679  29.909  1.00  0.00    -0.248 NA
ATOM     61  C   UNL A   1      45.643  24.605  29.249  1.00  0.00     0.031 C 
ATOM     62  C   UNL A   1      47.158  29.763  32.061  1.00  0.00     0.029 A 
ATOM     63  C   UNL A   1      46.442  28.781  31.396  1.00  0.00     0.049 A 
ATOM     64  H   UNL A   1      44.475  28.853  30.636  1.00  0.00     0.167 HD
ATOM     65  C   UNL A   1      46.106  26.554  30.363  1.00  0.00     0.074 A 
ATOM     66  C   UNL A   1      46.562  25.237  29.965  1.00  0.00     0.031 C 
ATOM     67  C   UNL A   1      46.866  27.451  31.038  1.00  0.00     0.034 A 
BRANCH  54  68
ATOM     68  C   UNL A   1      44.094  32.896  31.968  1.00  0.00     0.023 A 
ATOM     69  C   UNL A   1      44.490  33.930  31.094  1.00  0.00     0.012 A 
ATOM     70  C   UNL A   1      43.746  33.212  33.296  1.00  0.00     0.148 A 
ATOM     71  C   UNL A   1      44.574  35.247  31.543  1.00  0.00     0.002 A 
ATOM     72  C   UNL A   1      43.787  34.534  33.723  1.00  0.00     0.091 A 
ATOM     73  F   UNL A   1      43.392  32.213  34.118  1.00  0.00    -0.205 F 
ATOM     74  C   UNL A   1      44.213  35.550  32.851  1.00  0.00     0.022 A 
BRANCH  72  75
ATOM     75  S   UNL A   1      43.266  35.039  35.365  1.00  0.00     0.127 S 
ATOM     76  O   UNL A   1      41.863  34.625  35.370  1.00  0.00    -0.237 OA
ATOM     77  O   UNL A   1      44.140  34.241  36.225  1.00  0.00    -0.237 OA
ATOM     78  O   UNL A   1      43.492  36.476  35.435  1.00  0.00    -0.744 OA
ENDBRANCH  72  75
ENDBRANCH  54  68
BRANCH  55  79
ATOM     79  C   UNL A   1      43.108  23.773  28.025  1.00  0.00     0.023 A 
ATOM     80  C   UNL A   1      42.229  22.824  28.583  1.00  0.00     0.012 A 
ATOM     81  C   UNL A   1      43.832  23.439  26.865  1.00  0.00     0.148 A 
ATOM     82  C   UNL A   1      42.099  21.554  28.017  1.00  0.00     0.002 A 
ATOM     83  C   UNL A   1      43.655  22.193  26.273  1.00  0.00     0.091 A 
ATOM     84  F   UNL A   1      44.671  24.351  26.355  1.00  0.00    -0.205 F 
ATOM     85  C   UNL A   1      42.804  21.243  26.858  1.00  0.00     0.022 A 
BRANCH  83  86
ATOM     86  S   UNL A   1      44.419  21.754  24.708  1.00  0.00     0.127 S 
ATOM     87  O   UNL A   1      43.990  20.367  24.544  1.00  0.00    -0.237 OA
ATOM     88  O   UNL A   1      43.793  22.707  23.789  1.00  0.00    -0.237 OA
ATOM     89  O   UNL A   1      45.849  21.957  24.897  1.00  0.00    -0.744 OA
ENDBRANCH  83  86
ENDBRANCH  55  79
BRANCH  67  90
ATOM     90  C   UNL A   1      48.259  27.035  31.430  1.00  0.00     0.023 A 
ATOM     91  C   UNL A   1      48.479  26.373  32.655  1.00  0.00     0.012 A 
ATOM     92  C   UNL A   1      49.341  27.233  30.548  1.00  0.00     0.148 A 
ATOM     93  C   UNL A   1      49.758  25.946  33.010  1.00  0.00     0.002 A 
ATOM     94  C   UNL A   1      50.603  26.759  30.886  1.00  0.00     0.091 A 
ATOM     95  F   UNL A   1      49.115  27.881  29.396  1.00  0.00    -0.205 F 
ATOM     96  C   UNL A   1      50.816  26.128  32.122  1.00  0.00     0.022 A 
BRANCH  94  97
ATOM     97  S   UNL A   1      52.001  26.860  29.763  1.00  0.00     0.127 S 
ATOM     98  O   UNL A   1      53.057  26.220  30.546  1.00  0.00    -0.237 OA
ATOM     99  O   UNL A   1      51.534  26.079  28.616  1.00  0.00    -0.237 OA
ATOM    100  O   UNL A   1      52.197  28.277  29.490  1.00  0.00    -0.744 OA
ENDBRANCH  94  97
ENDBRANCH  67  90
ENDBRANCH  41  42
ENDBRANCH  33  36
ENDBRANCH  31  32
ENDBRANCH  30  31
ENDBRANCH  29  30
ENDBRANCH  28  29
ENDBRANCH   1  28
TORSDOF 23
ENDMDL
MODEL 3
REMARK VINA RESULT:      -9.1      6.787     10.599
REMARK SMILES Cc1cc(Br)cc([N+](=O)[O-])c1OCCC[C@@](C)([NH3+])C(=O)NCCCCCCNC(=O)c1ccc(-c2c3nc(c(-c4cccc(S(=O)(=O)[O-])c4F)c4ccc([nH]4)c(-c4cccc(S(=O)(=O)[O-])c4F)c4nc(c(-c5cccc(S(=O)(=O)[O-])c5F)c5ccc2[nH]5)C=C4)C=C3)cc1
REMARK SMILES IDX 23 1 22 2 21 3 19 4 20 5 16 7 17 8 15 9 14 10 13 11 12 12
REMARK SMILES IDX 11 13 1 14 2 15 3 16 4 17 7 18 5 19 6 20 8 21 9 22 10 23
REMARK SMILES IDX 18 24 24 28 25 29 26 30 27 31 28 32 29 33 30 35 31 36 32 37
REMARK SMILES IDX 93 38 33 39 92 40 34 41 35 42 36 43 86 44 37 45 91 46 85 47
REMARK SMILES IDX 87 48 38 49 90 50 84 51 83 52 39 54 71 55 51 56 70 57 52 58
REMARK SMILES IDX 55 59 69 60 88 61 53 62 54 63 68 65 89 66 56 67 40 68 41 69
REMARK SMILES IDX 49 70 42 71 44 72 50 73 43 74 45 75 46 76 47 77 48 78 72 79
REMARK SMILES IDX 73 80 81 81 74 82 76 83 82 84 75 85 77 86 78 87 79 88 80 89
REMARK SMILES IDX 57 90 58 91 66 92 59 93 61 94 67 95 60 96 62 97 63 98 64 99
REMARK SMILES IDX 65 100
REMARK H PARENT 21 6 18 25 18 26 18 27 28 34 87 53 55 64
REMARK Flexibility Score: inf
ROOT
ATOM      1  C   UNL A   1      39.481  25.130  27.675  1.00  0.00     0.021 C 
ENDROOT
BRANCH   1   2
ATOM      2  C   UNL A   1      38.385  24.611  26.740  1.00  0.00     0.116 C 
BRANCH   2   3
ATOM      3  N   UNL A   1      38.593  23.221  26.384  1.00  0.00    -0.351 N 
ATOM      4  C   UNL A   1      37.811  22.289  25.782  1.00  0.00     0.280 C 
ATOM      5  O   UNL A   1      38.439  21.343  25.288  1.00  0.00    -0.268 OA
ATOM      6  H   UNL A   1      39.484  22.883  26.631  1.00  0.00     0.163 HD
BRANCH   4   7
ATOM      7  C   UNL A   1      36.256  22.360  25.659  1.00  0.00     0.171 C 
ATOM      8  C   UNL A   1      35.971  23.394  24.561  1.00  0.00     0.090 C 
BRANCH   7   9
ATOM      9  C   UNL A   1      35.571  20.984  25.334  1.00  0.00     0.082 C 
BRANCH   9  10
ATOM     10  C   UNL A   1      34.173  20.932  24.680  1.00  0.00     0.049 C 
BRANCH  10  11
ATOM     11  C   UNL A   1      32.947  21.257  25.575  1.00  0.00     0.230 C 
BRANCH  11  12
ATOM     12  O   UNL A   1      31.864  21.772  24.780  1.00  0.00    -0.487 OA
BRANCH  12  13
ATOM     13  C   UNL A   1      31.747  23.142  24.663  1.00  0.00     0.200 A 
ATOM     14  C   UNL A   1      32.909  23.158  22.390  1.00  0.00     0.049 C 
ATOM     15  C   UNL A   1      32.018  23.750  23.422  1.00  0.00    -0.001 A 
ATOM     16  C   UNL A   1      31.406  24.966  23.072  1.00  0.00     0.023 A 
ATOM     17  C   UNL A   1      30.591  25.629  23.972  1.00  0.00     0.025 A 
ATOM     18  C   UNL A   1      31.008  23.887  25.598  1.00  0.00     0.312 A 
ATOM     19  Br  UNL A   1      29.717  27.214  23.436  1.00  0.00    -0.051 Br
ATOM     20  C   UNL A   1      30.428  25.128  25.255  1.00  0.00     0.105 A 
BRANCH  18  21
ATOM     21  N   UNL A   1      30.864  23.447  26.986  1.00  0.00     0.066 N 
ATOM     22  O   UNL A   1      29.721  23.161  27.376  1.00  0.00    -0.258 OA
ATOM     23  O   UNL A   1      31.862  23.468  27.717  1.00  0.00    -0.258 OA
ENDBRANCH  18  21
ENDBRANCH  12  13
ENDBRANCH  11  12
ENDBRANCH  10  11
ENDBRANCH   9  10
ENDBRANCH   7   9
BRANCH   7  24
ATOM     24  N   UNL A   1      35.588  22.901  26.867  1.00  0.00    -0.345 N 
ATOM     25  H   UNL A   1      34.660  22.487  26.956  1.00  0.00     0.345 HD
ATOM     26  H   UNL A   1      35.503  23.913  26.782  1.00  0.00     0.345 HD
ATOM     27  H   UNL A   1      36.142  22.674  27.693  1.00  0.00     0.345 HD
ENDBRANCH   7  24
ENDBRANCH   4   7
ENDBRANCH   2   3
ENDBRANCH   1   2
BRANCH   1  28
ATOM     28  C   UNL A   1      39.870  26.604  27.486  1.00  0.00     0.002 C 
BRANCH  28  29
ATOM     29  C   UNL A   1      39.537  27.538  28.654  1.00  0.00     0.002 C 
BRANCH  29  30
ATOM     30  C   UNL A   1      38.122  28.117  28.650  1.00  0.00     0.021 C 
BRANCH  30  31
ATOM     31  C   UNL A   1      38.040  29.610  28.928  1.00  0.00     0.116 C 
BRANCH  31  32
ATOM     32  N   UNL A   1      37.229  29.907  30.098  1.00  0.00    -0.352 N 
ATOM     33  C   UNL A   1      37.517  29.678  31.424  1.00  0.00     0.251 C 
ATOM     34  H   UNL A   1      36.358  30.329  29.917  1.00  0.00     0.163 HD
ATOM     35  O   UNL A   1      36.646  29.809  32.274  1.00  0.00    -0.269 OA
BRANCH  33  36
ATOM     36  C   UNL A   1      38.880  29.250  31.810  1.00  0.00     0.039 A 
ATOM     37  C   UNL A   1      39.085  27.933  32.230  1.00  0.00     0.014 A 
ATOM     38  C   UNL A   1      39.955  30.140  31.743  1.00  0.00     0.014 A 
ATOM     39  C   UNL A   1      40.377  27.494  32.526  1.00  0.00     0.010 A 
ATOM     40  C   UNL A   1      41.252  29.680  31.961  1.00  0.00     0.010 A 
ATOM     41  C   UNL A   1      41.476  28.355  32.362  1.00  0.00    -0.014 A 
BRANCH  41  42
ATOM     42  C   UNL A   1      42.866  27.883  32.596  1.00  0.00     0.031 A 
ATOM     43  C   UNL A   1      43.733  27.471  31.436  1.00  0.00     0.074 A 
ATOM     44  C   UNL A   1      43.319  27.744  33.857  1.00  0.00     0.049 A 
ATOM     45  N   UNL A   1      44.949  26.988  31.447  1.00  0.00    -0.248 NA
ATOM     46  C   UNL A   1      43.150  27.592  30.090  1.00  0.00     0.031 C 
ATOM     47  C   UNL A   1      42.549  28.030  35.070  1.00  0.00     0.029 A 
ATOM     48  N   UNL A   1      44.529  27.300  34.332  1.00  0.00    -0.354 N 
ATOM     49  C   UNL A   1      45.262  26.714  30.121  1.00  0.00     0.074 A 
ATOM     50  C   UNL A   1      44.096  27.052  29.334  1.00  0.00     0.031 C 
ATOM     51  C   UNL A   1      43.304  27.760  36.146  1.00  0.00     0.029 A 
ATOM     52  C   UNL A   1      44.599  27.253  35.705  1.00  0.00     0.049 A 
ATOM     53  H   UNL A   1      45.276  27.040  33.745  1.00  0.00     0.167 HD
ATOM     54  C   UNL A   1      46.424  26.252  29.600  1.00  0.00     0.034 A 
ATOM     55  C   UNL A   1      45.591  26.839  36.519  1.00  0.00     0.034 A 
ATOM     56  C   UNL A   1      47.595  25.956  30.380  1.00  0.00     0.049 A 
ATOM     57  C   UNL A   1      46.885  26.366  35.914  1.00  0.00     0.074 A 
ATOM     58  C   UNL A   1      48.847  25.570  29.938  1.00  0.00     0.029 A 
ATOM     59  N   UNL A   1      47.655  26.001  31.764  1.00  0.00    -0.354 N 
ATOM     60  N   UNL A   1      47.216  26.268  34.650  1.00  0.00    -0.248 NA
ATOM     61  C   UNL A   1      47.954  25.981  36.846  1.00  0.00     0.031 C 
ATOM     62  C   UNL A   1      49.658  25.353  31.057  1.00  0.00     0.029 A 
ATOM     63  C   UNL A   1      48.921  25.638  32.194  1.00  0.00     0.049 A 
ATOM     64  H   UNL A   1      46.910  26.255  32.355  1.00  0.00     0.167 HD
ATOM     65  C   UNL A   1      48.541  25.847  34.633  1.00  0.00     0.074 A 
ATOM     66  C   UNL A   1      48.957  25.729  36.017  1.00  0.00     0.031 C 
ATOM     67  C   UNL A   1      49.337  25.572  33.572  1.00  0.00     0.034 A 
BRANCH  54  68
ATOM     68  C   UNL A   1      46.503  26.083  28.104  1.00  0.00     0.023 A 
ATOM     69  C   UNL A   1      47.140  27.070  27.323  1.00  0.00     0.012 A 
ATOM     70  C   UNL A   1      46.005  24.924  27.477  1.00  0.00     0.148 A 
ATOM     71  C   UNL A   1      47.246  26.925  25.941  1.00  0.00     0.002 A 
ATOM     72  C   UNL A   1      46.156  24.764  26.105  1.00  0.00     0.091 A 
ATOM     73  F   UNL A   1      45.383  24.006  28.232  1.00  0.00    -0.205 F 
ATOM     74  C   UNL A   1      46.766  25.768  25.334  1.00  0.00     0.022 A 
BRANCH  72  75
ATOM     75  S   UNL A   1      45.643  23.276  25.239  1.00  0.00     0.127 S 
ATOM     76  O   UNL A   1      44.193  23.312  25.425  1.00  0.00    -0.237 OA
ATOM     77  O   UNL A   1      46.089  23.547  23.873  1.00  0.00    -0.237 OA
ATOM     78  O   UNL A   1      46.329  22.172  25.895  1.00  0.00    -0.744 OA
ENDBRANCH  72  75
ENDBRANCH  54  68
BRANCH  55  79
ATOM     79  C   UNL A   1      45.420  26.912  37.998  1.00  0.00     0.023 A 
ATOM     80  C   UNL A   1      44.935  25.789  38.696  1.00  0.00     0.012 A 
ATOM     81  C   UNL A   1      45.758  28.074  38.718  1.00  0.00     0.148 A 
ATOM     82  C   UNL A   1      44.757  25.833  40.080  1.00  0.00     0.002 A 
ATOM     83  C   UNL A   1      45.632  28.092  40.102  1.00  0.00     0.091 A 
ATOM     84  F   UNL A   1      46.208  29.136  38.034  1.00  0.00    -0.205 F 
ATOM     85  C   UNL A   1      45.114  26.980  40.783  1.00  0.00     0.022 A 
BRANCH  83  86
ATOM     86  S   UNL A   1      46.193  29.475  41.102  1.00  0.00     0.127 S 
ATOM     87  O   UNL A   1      45.404  30.578  40.558  1.00  0.00    -0.237 OA
ATOM     88  O   UNL A   1      45.812  29.048  42.449  1.00  0.00    -0.237 OA
ATOM     89  O   UNL A   1      47.632  29.559  40.885  1.00  0.00    -0.744 OA
ENDBRANCH  83  86
ENDBRANCH  55  79
BRANCH  67  90
ATOM     90  C   UNL A   1      50.757  25.153  33.851  1.00  0.00     0.023 A 
ATOM     91  C   UNL A   1      51.750  26.128  34.072  1.00  0.00     0.012 A 
ATOM     92  C   UNL A   1      51.090  23.788  33.970  1.00  0.00     0.148 A 
ATOM     93  C   UNL A   1      53.059  25.751  34.372  1.00  0.00     0.002 A 
ATOM     94  C   UNL A   1      52.384  23.422  34.320  1.00  0.00     0.091 A 
ATOM     95  F   UNL A   1      50.135  22.875  33.739  1.00  0.00    -0.205 F 
ATOM     96  C   UNL A   1      53.372  24.401  34.507  1.00  0.00     0.022 A 
BRANCH  94  97
ATOM     97  S   UNL A   1      52.854  21.713  34.614  1.00  0.00     0.127 S 
ATOM     98  O   UNL A   1      53.453  21.794  35.946  1.00  0.00    -0.237 OA
ATOM     99  O   UNL A   1      51.563  21.025  34.568  1.00  0.00    -0.237 OA
ATOM    100  O   UNL A   1      53.768  21.356  33.539  1.00  0.00    -0.744 OA
ENDBRANCH  94  97
ENDBRANCH  67  90
ENDBRANCH  41  42
ENDBRANCH  33  36
ENDBRANCH  31  32
ENDBRANCH  30  31
ENDBRANCH  29  30
ENDBRANCH  28  29
ENDBRANCH   1  28
TORSDOF 23
ENDMDL
