MODEL 1
REMARK VINA RESULT:     -10.5      0.000      0.000
REMARK SMILES C/C(=C\C(=O)NCCCCCCNC(=O)c1ccc(-c2c3nc(c(-c4cccc(S(=O)(=O)[O-])c4F)c4ccc([nH]4)c(-c4cccc(S(=O)(=O)[O-])c4F)c4nc(c(-c5cccc(S(=O)(=O)[O-])c5F)c5ccc2[nH]5)C=C4)C=C3)cc1)CSc1ccc(N)c(C)c1
REMARK SMILES IDX 9 1 8 2 7 3 6 4 4 5 5 6 3 8 1 9 2 10 79 11 80 12 81 13 82 14
REMARK SMILES IDX 88 15 83 16 86 17 84 18 87 19 85 20 10 23 11 24 12 25 13 26
REMARK SMILES IDX 14 27 15 29 16 30 17 31 78 32 18 33 77 34 19 35 20 36 21 37
REMARK SMILES IDX 71 38 22 39 76 40 70 41 72 42 23 43 75 44 69 45 68 46 24 48
REMARK SMILES IDX 56 49 36 50 55 51 37 52 40 53 54 54 73 55 38 56 39 57 53 59
REMARK SMILES IDX 74 60 41 61 25 62 26 63 34 64 27 65 29 66 35 67 28 68 30 69
REMARK SMILES IDX 31 70 32 71 33 72 57 73 58 74 66 75 59 76 61 77 67 78 60 79
REMARK SMILES IDX 62 80 63 81 64 82 65 83 42 84 43 85 51 86 44 87 46 88 52 89
REMARK SMILES IDX 45 90 47 91 48 92 49 93 50 94
REMARK H PARENT 6 7 85 21 85 22 13 28 72 47 40 58
REMARK Flexibility Score: inf
ROOT
ATOM      1  C   UNL A   1      31.348  28.910  24.382  1.00  0.00     0.002 C 
ENDROOT
BRANCH   1   2
ATOM      2  C   UNL A   1      30.823  29.032  22.945  1.00  0.00     0.021 C 
BRANCH   2   3
ATOM      3  C   UNL A   1      30.604  27.679  22.270  1.00  0.00     0.116 C 
BRANCH   3   4
ATOM      4  N   UNL A   1      31.831  27.081  21.808  1.00  0.00    -0.353 N 
ATOM      5  C   UNL A   1      32.667  26.144  22.286  1.00  0.00     0.243 C 
ATOM      6  O   UNL A   1      33.619  25.841  21.554  1.00  0.00    -0.270 OA
ATOM      7  H   UNL A   1      32.126  27.444  20.941  1.00  0.00     0.163 HD
BRANCH   5   8
ATOM      8  C   UNL A   1      32.609  25.460  23.609  1.00  0.00     0.071 C 
ATOM      9  C   UNL A   1      30.308  25.417  24.737  1.00  0.00     0.040 C 
ATOM     10  C   UNL A   1      31.777  25.143  24.624  1.00  0.00    -0.058 C 
BRANCH  10  11
ATOM     11  C   UNL A   1      32.328  24.321  25.781  1.00  0.00     0.105 C 
BRANCH  11  12
ATOM     12  S   UNL A   1      32.831  22.646  25.267  1.00  0.00    -0.122 SA
BRANCH  12  13
ATOM     13  C   UNL A   1      34.609  22.645  25.432  1.00  0.00     0.008 A 
ATOM     14  C   UNL A   1      35.378  23.781  25.668  1.00  0.00     0.017 A 
ATOM     15  C   UNL A   1      35.270  21.429  25.218  1.00  0.00     0.020 A 
ATOM     16  C   UNL A   1      36.774  23.696  25.720  1.00  0.00     0.027 A 
ATOM     17  C   UNL A   1      36.675  21.334  25.253  1.00  0.00    -0.027 A 
ATOM     18  C   UNL A   1      37.437  22.479  25.531  1.00  0.00     0.034 A 
ATOM     19  C   UNL A   1      37.318  20.008  24.951  1.00  0.00     0.046 C 
BRANCH  18  20
ATOM     20  N   UNL A   1      38.825  22.469  25.480  1.00  0.00    -0.399 N 
ATOM     21  H   UNL A   1      39.285  22.458  24.609  1.00  0.00     0.156 HD
ATOM     22  H   UNL A   1      39.350  22.472  26.313  1.00  0.00     0.156 HD
ENDBRANCH  18  20
ENDBRANCH  12  13
ENDBRANCH  11  12
ENDBRANCH  10  11
ENDBRANCH   5   8
ENDBRANCH   3   4
ENDBRANCH   2   3
ENDBRANCH   1   2
BRANCH   1  23
ATOM     23  C   UNL A   1      32.834  29.252  24.568  1.00  0.00     0.002 C 
BRANCH  23  24
ATOM     24  C   UNL A   1      33.614  28.305  25.483  1.00  0.00     0.021 C 
BRANCH  24  25
ATOM     25  C   UNL A   1      33.615  28.711  26.953  1.00  0.00     0.116 C 
BRANCH  25  26
ATOM     26  N   UNL A   1      33.695  30.157  27.109  1.00  0.00    -0.352 N 
ATOM     27  C   UNL A   1      34.589  30.909  27.828  1.00  0.00     0.251 C 
ATOM     28  H   UNL A   1      33.007  30.669  26.628  1.00  0.00     0.163 HD
ATOM     29  O   UNL A   1      34.347  32.089  28.062  1.00  0.00    -0.269 OA
BRANCH  27  30
ATOM     30  C   UNL A   1      35.843  30.296  28.313  1.00  0.00     0.039 A 
ATOM     31  C   UNL A   1      36.976  30.325  27.496  1.00  0.00     0.014 A 
ATOM     32  C   UNL A   1      35.887  29.666  29.558  1.00  0.00     0.014 A 
ATOM     33  C   UNL A   1      38.169  29.759  27.952  1.00  0.00     0.010 A 
ATOM     34  C   UNL A   1      37.093  29.171  30.041  1.00  0.00     0.010 A 
ATOM     35  C   UNL A   1      38.241  29.198  29.238  1.00  0.00    -0.014 A 
BRANCH  35  36
ATOM     36  C   UNL A   1      39.509  28.633  29.763  1.00  0.00     0.031 A 
ATOM     37  C   UNL A   1      40.185  29.267  30.949  1.00  0.00     0.074 A 
ATOM     38  C   UNL A   1      40.097  27.608  29.114  1.00  0.00     0.049 A 
ATOM     39  N   UNL A   1      41.325  28.958  31.511  1.00  0.00    -0.248 NA
ATOM     40  C   UNL A   1      39.506  30.419  31.567  1.00  0.00     0.031 C 
ATOM     41  C   UNL A   1      39.578  26.965  27.904  1.00  0.00     0.029 A 
ATOM     42  N   UNL A   1      41.272  26.948  29.363  1.00  0.00    -0.354 N 
ATOM     43  C   UNL A   1      41.517  29.895  32.519  1.00  0.00     0.074 A 
ATOM     44  C   UNL A   1      40.395  30.806  32.471  1.00  0.00     0.031 C 
ATOM     45  C   UNL A   1      40.430  26.003  27.518  1.00  0.00     0.029 A 
ATOM     46  C   UNL A   1      41.567  25.977  28.433  1.00  0.00     0.049 A 
ATOM     47  H   UNL A   1      41.852  27.148  30.134  1.00  0.00     0.167 HD
ATOM     48  C   UNL A   1      42.523  29.973  33.422  1.00  0.00     0.034 A 
ATOM     49  C   UNL A   1      42.636  25.165  28.326  1.00  0.00     0.034 A 
ATOM     50  C   UNL A   1      43.612  29.037  33.493  1.00  0.00     0.049 A 
ATOM     51  C   UNL A   1      43.715  25.240  29.373  1.00  0.00     0.074 A 
ATOM     52  C   UNL A   1      44.631  28.971  34.427  1.00  0.00     0.029 A 
ATOM     53  N   UNL A   1      43.827  28.006  32.591  1.00  0.00    -0.354 N 
ATOM     54  N   UNL A   1      43.798  26.030  30.417  1.00  0.00    -0.248 NA
ATOM     55  C   UNL A   1      44.828  24.289  29.249  1.00  0.00     0.031 C 
ATOM     56  C   UNL A   1      45.476  27.913  34.075  1.00  0.00     0.029 A 
ATOM     57  C   UNL A   1      44.968  27.303  32.939  1.00  0.00     0.049 A 
ATOM     58  H   UNL A   1      43.254  27.805  31.816  1.00  0.00     0.167 HD
ATOM     59  C   UNL A   1      44.949  25.646  31.094  1.00  0.00     0.074 A 
ATOM     60  C   UNL A   1      45.521  24.541  30.353  1.00  0.00     0.031 C 
ATOM     61  C   UNL A   1      45.493  26.170  32.220  1.00  0.00     0.034 A 
BRANCH  48  62
ATOM     62  C   UNL A   1      42.463  31.079  34.444  1.00  0.00     0.023 A 
ATOM     63  C   UNL A   1      41.830  30.848  35.683  1.00  0.00     0.012 A 
ATOM     64  C   UNL A   1      43.080  32.323  34.206  1.00  0.00     0.148 A 
ATOM     65  C   UNL A   1      41.779  31.848  36.653  1.00  0.00     0.002 A 
ATOM     66  C   UNL A   1      43.065  33.299  35.197  1.00  0.00     0.091 A 
ATOM     67  F   UNL A   1      43.660  32.533  33.016  1.00  0.00    -0.205 F 
ATOM     68  C   UNL A   1      42.404  33.068  36.415  1.00  0.00     0.022 A 
BRANCH  66  69
ATOM     69  S   UNL A   1      43.910  34.874  35.020  1.00  0.00     0.127 S 
ATOM     70  O   UNL A   1      44.012  35.313  36.411  1.00  0.00    -0.237 OA
ATOM     71  O   UNL A   1      45.181  34.475  34.413  1.00  0.00    -0.237 OA
ATOM     72  O   UNL A   1      43.060  35.693  34.167  1.00  0.00    -0.744 OA
ENDBRANCH  66  69
ENDBRANCH  48  62
BRANCH  49  73
ATOM     73  C   UNL A   1      42.701  24.161  27.227  1.00  0.00     0.023 A 
ATOM     74  C   UNL A   1      43.318  24.509  26.010  1.00  0.00     0.012 A 
ATOM     75  C   UNL A   1      42.187  22.861  27.390  1.00  0.00     0.148 A 
ATOM     76  C   UNL A   1      43.393  23.590  24.962  1.00  0.00     0.002 A 
ATOM     77  C   UNL A   1      42.314  21.933  26.361  1.00  0.00     0.091 A 
ATOM     78  F   UNL A   1      41.594  22.553  28.552  1.00  0.00    -0.205 F 
ATOM     79  C   UNL A   1      42.901  22.300  25.141  1.00  0.00     0.022 A 
BRANCH  77  80
ATOM     80  S   UNL A   1      41.831  20.213  26.553  1.00  0.00     0.127 S 
ATOM     81  O   UNL A   1      42.539  19.838  27.774  1.00  0.00    -0.237 OA
ATOM     82  O   UNL A   1      40.378  20.320  26.689  1.00  0.00    -0.237 OA
ATOM     83  O   UNL A   1      42.269  19.545  25.334  1.00  0.00    -0.744 OA
ENDBRANCH  77  80
ENDBRANCH  49  73
BRANCH  61  84
ATOM     84  C   UNL A   1      46.752  25.536  32.749  1.00  0.00     0.023 A 
ATOM     85  C   UNL A   1      48.009  26.001  32.312  1.00  0.00     0.012 A 
ATOM     86  C   UNL A   1      46.690  24.533  33.736  1.00  0.00     0.148 A 
ATOM     87  C   UNL A   1      49.184  25.453  32.826  1.00  0.00     0.002 A 
ATOM     88  C   UNL A   1      47.864  24.028  34.279  1.00  0.00     0.091 A 
ATOM     89  F   UNL A   1      45.484  24.091  34.124  1.00  0.00    -0.205 F 
ATOM     90  C   UNL A   1      49.112  24.477  33.817  1.00  0.00     0.022 A 
BRANCH  88  91
ATOM     91  S   UNL A   1      47.866  22.842  35.629  1.00  0.00     0.127 S 
ATOM     92  O   UNL A   1      47.239  21.679  35.003  1.00  0.00    -0.237 OA
ATOM     93  O   UNL A   1      49.297  22.689  35.904  1.00  0.00    -0.237 OA
ATOM     94  O   UNL A   1      47.107  23.458  36.708  1.00  0.00    -0.744 OA
ENDBRANCH  88  91
ENDBRANCH  61  84
ENDBRANCH  35  36
ENDBRANCH  27  30
ENDBRANCH  25  26
ENDBRANCH  24  25
ENDBRANCH  23  24
ENDBRANCH   1  23
TORSDOF 20
ENDMDL
MODEL 2
REMARK VINA RESULT:     -10.2      1.453      1.971
REMARK SMILES C/C(=C\C(=O)NCCCCCCNC(=O)c1ccc(-c2c3nc(c(-c4cccc(S(=O)(=O)[O-])c4F)c4ccc([nH]4)c(-c4cccc(S(=O)(=O)[O-])c4F)c4nc(c(-c5cccc(S(=O)(=O)[O-])c5F)c5ccc2[nH]5)C=C4)C=C3)cc1)CSc1ccc(N)c(C)c1
REMARK SMILES IDX 9 1 8 2 7 3 6 4 4 5 5 6 3 8 1 9 2 10 79 11 80 12 81 13 82 14
REMARK SMILES IDX 88 15 83 16 86 17 84 18 87 19 85 20 10 23 11 24 12 25 13 26
REMARK SMILES IDX 14 27 15 29 16 30 17 31 78 32 18 33 77 34 19 35 20 36 21 37
REMARK SMILES IDX 71 38 22 39 76 40 70 41 72 42 23 43 75 44 69 45 68 46 24 48
REMARK SMILES IDX 56 49 36 50 55 51 37 52 40 53 54 54 73 55 38 56 39 57 53 59
REMARK SMILES IDX 74 60 41 61 25 62 26 63 34 64 27 65 29 66 35 67 28 68 30 69
REMARK SMILES IDX 31 70 32 71 33 72 57 73 58 74 66 75 59 76 61 77 67 78 60 79
REMARK SMILES IDX 62 80 63 81 64 82 65 83 42 84 43 85 51 86 44 87 46 88 52 89
REMARK SMILES IDX 45 90 47 91 48 92 49 93 50 94
REMARK H PARENT 6 7 85 21 85 22 13 28 72 47 40 58
REMARK Flexibility Score: inf
ROOT
ATOM      1  C   UNL A   1      31.102  28.627  24.574  1.00  0.00     0.002 C 
ENDROOT
BRANCH   1   2
ATOM      2  C   UNL A   1      30.524  28.842  23.170  1.00  0.00     0.021 C 
BRANCH   2   3
ATOM      3  C   UNL A   1      30.451  27.556  22.348  1.00  0.00     0.116 C 
BRANCH   3   4
ATOM      4  N   UNL A   1      31.705  27.221  21.724  1.00  0.00    -0.353 N 
ATOM      5  C   UNL A   1      32.734  26.416  22.039  1.00  0.00     0.243 C 
ATOM      6  O   UNL A   1      33.641  26.340  21.198  1.00  0.00    -0.270 OA
ATOM      7  H   UNL A   1      31.841  27.692  20.870  1.00  0.00     0.163 HD
BRANCH   5   8
ATOM      8  C   UNL A   1      32.933  25.639  23.295  1.00  0.00     0.071 C 
ATOM      9  C   UNL A   1      30.827  24.560  24.279  1.00  0.00     0.040 C 
ATOM     10  C   UNL A   1      32.282  24.915  24.230  1.00  0.00    -0.058 C 
BRANCH  10  11
ATOM     11  C   UNL A   1      33.097  24.275  25.346  1.00  0.00     0.105 C 
BRANCH  11  12
ATOM     12  S   UNL A   1      32.215  22.897  26.150  1.00  0.00    -0.122 SA
BRANCH  12  13
ATOM     13  C   UNL A   1      33.053  21.432  25.568  1.00  0.00     0.008 A 
ATOM     14  C   UNL A   1      32.431  20.208  25.340  1.00  0.00     0.017 A 
ATOM     15  C   UNL A   1      34.444  21.507  25.422  1.00  0.00     0.020 A 
ATOM     16  C   UNL A   1      33.179  19.093  24.944  1.00  0.00     0.027 A 
ATOM     17  C   UNL A   1      35.209  20.388  25.038  1.00  0.00    -0.027 A 
ATOM     18  C   UNL A   1      34.565  19.169  24.773  1.00  0.00     0.034 A 
ATOM     19  C   UNL A   1      36.706  20.526  24.964  1.00  0.00     0.046 C 
BRANCH  18  20
ATOM     20  N   UNL A   1      35.274  18.009  24.490  1.00  0.00    -0.399 N 
ATOM     21  H   UNL A   1      36.036  18.037  23.869  1.00  0.00     0.156 HD
ATOM     22  H   UNL A   1      35.014  17.158  24.911  1.00  0.00     0.156 HD
ENDBRANCH  18  20
ENDBRANCH  12  13
ENDBRANCH  11  12
ENDBRANCH  10  11
ENDBRANCH   5   8
ENDBRANCH   3   4
ENDBRANCH   2   3
ENDBRANCH   1   2
BRANCH   1  23
ATOM     23  C   UNL A   1      32.436  29.339  24.849  1.00  0.00     0.002 C 
BRANCH  23  24
ATOM     24  C   UNL A   1      33.581  28.431  25.303  1.00  0.00     0.021 C 
BRANCH  24  25
ATOM     25  C   UNL A   1      34.043  28.672  26.736  1.00  0.00     0.116 C 
BRANCH  25  26
ATOM     26  N   UNL A   1      33.867  30.063  27.129  1.00  0.00    -0.352 N 
ATOM     27  C   UNL A   1      34.583  30.816  28.024  1.00  0.00     0.251 C 
ATOM     28  H   UNL A   1      33.124  30.532  26.686  1.00  0.00     0.163 HD
ATOM     29  O   UNL A   1      34.132  31.883  28.426  1.00  0.00    -0.269 OA
BRANCH  27  30
ATOM     30  C   UNL A   1      35.900  30.339  28.496  1.00  0.00     0.039 A 
ATOM     31  C   UNL A   1      35.973  29.600  29.680  1.00  0.00     0.014 A 
ATOM     32  C   UNL A   1      37.061  30.650  27.786  1.00  0.00     0.014 A 
ATOM     33  C   UNL A   1      37.212  29.135  30.126  1.00  0.00     0.010 A 
ATOM     34  C   UNL A   1      38.282  30.122  28.192  1.00  0.00     0.010 A 
ATOM     35  C   UNL A   1      38.372  29.373  29.372  1.00  0.00    -0.014 A 
BRANCH  35  36
ATOM     36  C   UNL A   1      39.693  28.849  29.802  1.00  0.00     0.031 A 
ATOM     37  C   UNL A   1      40.466  29.549  30.886  1.00  0.00     0.074 A 
ATOM     38  C   UNL A   1      40.234  27.801  29.149  1.00  0.00     0.049 A 
ATOM     39  N   UNL A   1      41.660  29.282  31.351  1.00  0.00    -0.248 NA
ATOM     40  C   UNL A   1      39.830  30.722  31.510  1.00  0.00     0.031 C 
ATOM     41  C   UNL A   1      39.615  27.093  28.027  1.00  0.00     0.029 A 
ATOM     42  N   UNL A   1      41.438  27.168  29.317  1.00  0.00    -0.354 N 
ATOM     43  C   UNL A   1      41.930  30.270  32.291  1.00  0.00     0.074 A 
ATOM     44  C   UNL A   1      40.794  31.164  32.306  1.00  0.00     0.031 C 
ATOM     45  C   UNL A   1      40.443  26.124  27.608  1.00  0.00     0.029 A 
ATOM     46  C   UNL A   1      41.661  26.157  28.411  1.00  0.00     0.049 A 
ATOM     47  H   UNL A   1      42.084  27.413  30.020  1.00  0.00     0.167 HD
ATOM     48  C   UNL A   1      43.015  30.405  33.090  1.00  0.00     0.034 A 
ATOM     49  C   UNL A   1      42.729  25.353  28.243  1.00  0.00     0.034 A 
ATOM     50  C   UNL A   1      44.121  29.486  33.103  1.00  0.00     0.049 A 
ATOM     51  C   UNL A   1      43.900  25.492  29.178  1.00  0.00     0.074 A 
ATOM     52  C   UNL A   1      45.224  29.478  33.938  1.00  0.00     0.029 A 
ATOM     53  N   UNL A   1      44.268  28.415  32.234  1.00  0.00    -0.354 N 
ATOM     54  N   UNL A   1      44.067  26.333  30.170  1.00  0.00    -0.248 NA
ATOM     55  C   UNL A   1      45.012  24.550  28.995  1.00  0.00     0.031 C 
ATOM     56  C   UNL A   1      46.050  28.415  33.559  1.00  0.00     0.029 A 
ATOM     57  C   UNL A   1      45.447  27.743  32.507  1.00  0.00     0.049 A 
ATOM     58  H   UNL A   1      43.628  28.168  31.528  1.00  0.00     0.167 HD
ATOM     59  C   UNL A   1      45.283  25.997  30.753  1.00  0.00     0.074 A 
ATOM     60  C   UNL A   1      45.801  24.864  30.015  1.00  0.00     0.031 C 
ATOM     61  C   UNL A   1      45.921  26.583  31.796  1.00  0.00     0.034 A 
BRANCH  48  62
ATOM     62  C   UNL A   1      43.033  31.559  34.059  1.00  0.00     0.023 A 
ATOM     63  C   UNL A   1      43.468  32.828  33.623  1.00  0.00     0.012 A 
ATOM     64  C   UNL A   1      42.568  31.406  35.380  1.00  0.00     0.148 A 
ATOM     65  C   UNL A   1      43.475  33.916  34.493  1.00  0.00     0.002 A 
ATOM     66  C   UNL A   1      42.535  32.507  36.229  1.00  0.00     0.091 A 
ATOM     67  F   UNL A   1      42.178  30.189  35.785  1.00  0.00    -0.205 F 
ATOM     68  C   UNL A   1      43.000  33.758  35.792  1.00  0.00     0.022 A 
BRANCH  66  69
ATOM     69  S   UNL A   1      41.867  32.427  37.894  1.00  0.00     0.127 S 
ATOM     70  O   UNL A   1      40.446  32.200  37.632  1.00  0.00    -0.237 OA
ATOM     71  O   UNL A   1      42.574  31.275  38.455  1.00  0.00    -0.237 OA
ATOM     72  O   UNL A   1      42.190  33.702  38.520  1.00  0.00    -0.744 OA
ENDBRANCH  66  69
ENDBRANCH  48  62
BRANCH  49  73
ATOM     73  C   UNL A   1      42.706  24.297  27.191  1.00  0.00     0.023 A 
ATOM     74  C   UNL A   1      43.353  24.531  25.963  1.00  0.00     0.012 A 
ATOM     75  C   UNL A   1      42.079  23.056  27.412  1.00  0.00     0.148 A 
ATOM     76  C   UNL A   1      43.349  23.562  24.960  1.00  0.00     0.002 A 
ATOM     77  C   UNL A   1      42.125  22.073  26.429  1.00  0.00     0.091 A 
ATOM     78  F   UNL A   1      41.459  22.856  28.584  1.00  0.00    -0.205 F 
ATOM     79  C   UNL A   1      42.744  22.330  25.196  1.00  0.00     0.022 A 
BRANCH  77  80
ATOM     80  S   UNL A   1      41.492  20.413  26.697  1.00  0.00     0.127 S 
ATOM     81  O   UNL A   1      40.060  20.660  26.846  1.00  0.00    -0.237 OA
ATOM     82  O   UNL A   1      41.876  19.739  25.456  1.00  0.00    -0.237 OA
ATOM     83  O   UNL A   1      42.177  19.919  27.883  1.00  0.00    -0.744 OA
ENDBRANCH  77  80
ENDBRANCH  49  73
BRANCH  61  84
ATOM     84  C   UNL A   1      47.235  25.990  32.233  1.00  0.00     0.023 A 
ATOM     85  C   UNL A   1      48.439  26.466  31.676  1.00  0.00     0.012 A 
ATOM     86  C   UNL A   1      47.280  25.018  33.251  1.00  0.00     0.148 A 
ATOM     87  C   UNL A   1      49.665  25.958  32.103  1.00  0.00     0.002 A 
ATOM     88  C   UNL A   1      48.507  24.553  33.706  1.00  0.00     0.091 A 
ATOM     89  F   UNL A   1      46.122  24.565  33.754  1.00  0.00    -0.205 F 
ATOM     90  C   UNL A   1      49.700  25.013  33.125  1.00  0.00     0.022 A 
BRANCH  88  91
ATOM     91  S   UNL A   1      48.651  23.410  35.084  1.00  0.00     0.127 S 
ATOM     92  O   UNL A   1      50.019  22.921  34.923  1.00  0.00    -0.237 OA
ATOM     93  O   UNL A   1      48.449  24.289  36.238  1.00  0.00    -0.237 OA
ATOM     94  O   UNL A   1      47.604  22.416  34.893  1.00  0.00    -0.744 OA
ENDBRANCH  88  91
ENDBRANCH  61  84
ENDBRANCH  35  36
ENDBRANCH  27  30
ENDBRANCH  25  26
ENDBRANCH  24  25
ENDBRANCH  23  24
ENDBRANCH   1  23
TORSDOF 20
ENDMDL
MODEL 3
REMARK VINA RESULT:      -9.7      3.867      8.657
REMARK SMILES C/C(=C\C(=O)NCCCCCCNC(=O)c1ccc(-c2c3nc(c(-c4cccc(S(=O)(=O)[O-])c4F)c4ccc([nH]4)c(-c4cccc(S(=O)(=O)[O-])c4F)c4nc(c(-c5cccc(S(=O)(=O)[O-])c5F)c5ccc2[nH]5)C=C4)C=C3)cc1)CSc1ccc(N)c(C)c1
REMARK SMILES IDX 9 1 8 2 7 3 6 4 4 5 5 6 3 8 1 9 2 10 79 11 80 12 81 13 82 14
REMARK SMILES IDX 88 15 83 16 86 17 84 18 87 19 85 20 10 23 11 24 12 25 13 26
REMARK SMILES IDX 14 27 15 29 16 30 17 31 78 32 18 33 77 34 19 35 20 36 21 37
REMARK SMILES IDX 71 38 22 39 76 40 70 41 72 42 23 43 75 44 69 45 68 46 24 48
REMARK SMILES IDX 56 49 36 50 55 51 37 52 40 53 54 54 73 55 38 56 39 57 53 59
REMARK SMILES IDX 74 60 41 61 25 62 26 63 34 64 27 65 29 66 35 67 28 68 30 69
REMARK SMILES IDX 31 70 32 71 33 72 57 73 58 74 66 75 59 76 61 77 67 78 60 79
REMARK SMILES IDX 62 80 63 81 64 82 65 83 42 84 43 85 51 86 44 87 46 88 52 89
REMARK SMILES IDX 45 90 47 91 48 92 49 93 50 94
REMARK H PARENT 6 7 85 21 85 22 13 28 72 47 40 58
REMARK Flexibility Score: inf
ROOT
ATOM      1  C   UNL A   1      33.148  29.771  26.820  1.00  0.00     0.002 C 
ENDROOT
BRANCH   1   2
ATOM      2  C   UNL A   1      32.109  30.043  25.724  1.00  0.00     0.021 C 
BRANCH   2   3
ATOM      3  C   UNL A   1      31.409  28.777  25.234  1.00  0.00     0.116 C 
BRANCH   3   4
ATOM      4  N   UNL A   1      30.725  28.968  23.980  1.00  0.00    -0.353 N 
ATOM      5  C   UNL A   1      30.571  28.235  22.864  1.00  0.00     0.243 C 
ATOM      6  O   UNL A   1      29.839  28.723  21.991  1.00  0.00    -0.270 OA
ATOM      7  H   UNL A   1      30.265  29.837  23.928  1.00  0.00     0.163 HD
BRANCH   5   8
ATOM      8  C   UNL A   1      31.209  26.928  22.535  1.00  0.00     0.071 C 
ATOM      9  C   UNL A   1      33.767  26.949  22.381  1.00  0.00     0.040 C 
ATOM     10  C   UNL A   1      32.401  26.335  22.313  1.00  0.00    -0.058 C 
BRANCH  10  11
ATOM     11  C   UNL A   1      32.426  24.836  22.051  1.00  0.00     0.105 C 
BRANCH  11  12
ATOM     12  S   UNL A   1      31.491  23.895  23.302  1.00  0.00    -0.122 SA
BRANCH  12  13
ATOM     13  C   UNL A   1      32.655  22.686  23.910  1.00  0.00     0.008 A 
ATOM     14  C   UNL A   1      33.971  22.970  24.266  1.00  0.00     0.017 A 
ATOM     15  C   UNL A   1      32.233  21.351  23.941  1.00  0.00     0.020 A 
ATOM     16  C   UNL A   1      34.833  21.945  24.673  1.00  0.00     0.027 A 
ATOM     17  C   UNL A   1      33.096  20.311  24.336  1.00  0.00    -0.027 A 
ATOM     18  C   UNL A   1      34.408  20.614  24.731  1.00  0.00     0.034 A 
ATOM     19  C   UNL A   1      32.592  18.893  24.284  1.00  0.00     0.046 C 
BRANCH  18  20
ATOM     20  N   UNL A   1      35.334  19.623  25.032  1.00  0.00    -0.399 N 
ATOM     21  H   UNL A   1      35.755  19.107  24.307  1.00  0.00     0.156 HD
ATOM     22  H   UNL A   1      35.569  19.437  25.969  1.00  0.00     0.156 HD
ENDBRANCH  18  20
ENDBRANCH  12  13
ENDBRANCH  11  12
ENDBRANCH  10  11
ENDBRANCH   5   8
ENDBRANCH   3   4
ENDBRANCH   2   3
ENDBRANCH   1   2
BRANCH   1  23
ATOM     23  C   UNL A   1      33.608  31.008  27.608  1.00  0.00     0.002 C 
BRANCH  23  24
ATOM     24  C   UNL A   1      32.621  32.177  27.624  1.00  0.00     0.021 C 
BRANCH  24  25
ATOM     25  C   UNL A   1      33.190  33.487  27.091  1.00  0.00     0.116 C 
BRANCH  25  26
ATOM     26  N   UNL A   1      32.788  34.620  27.914  1.00  0.00    -0.352 N 
ATOM     27  C   UNL A   1      33.153  34.941  29.196  1.00  0.00     0.251 C 
ATOM     28  H   UNL A   1      32.162  35.247  27.486  1.00  0.00     0.163 HD
ATOM     29  O   UNL A   1      32.514  35.781  29.823  1.00  0.00    -0.269 OA
BRANCH  27  30
ATOM     30  C   UNL A   1      34.319  34.278  29.816  1.00  0.00     0.039 A 
ATOM     31  C   UNL A   1      35.602  34.583  29.353  1.00  0.00     0.014 A 
ATOM     32  C   UNL A   1      34.141  33.335  30.831  1.00  0.00     0.014 A 
ATOM     33  C   UNL A   1      36.710  33.970  29.942  1.00  0.00     0.010 A 
ATOM     34  C   UNL A   1      35.248  32.784  31.465  1.00  0.00     0.010 A 
ATOM     35  C   UNL A   1      36.542  33.084  31.019  1.00  0.00    -0.014 A 
BRANCH  35  36
ATOM     36  C   UNL A   1      37.707  32.456  31.692  1.00  0.00     0.031 A 
ATOM     37  C   UNL A   1      38.449  31.331  31.023  1.00  0.00     0.074 A 
ATOM     38  C   UNL A   1      38.034  32.838  32.942  1.00  0.00     0.049 A 
ATOM     39  N   UNL A   1      39.446  30.616  31.477  1.00  0.00    -0.248 NA
ATOM     40  C   UNL A   1      37.993  30.935  29.679  1.00  0.00     0.031 C 
ATOM     41  C   UNL A   1      37.335  33.860  33.724  1.00  0.00     0.029 A 
ATOM     42  N   UNL A   1      39.019  32.390  33.785  1.00  0.00    -0.354 N 
ATOM     43  C   UNL A   1      39.710  29.668  30.496  1.00  0.00     0.074 A 
ATOM     44  C   UNL A   1      38.747  29.873  29.437  1.00  0.00     0.031 C 
ATOM     45  C   UNL A   1      37.914  33.962  34.931  1.00  0.00     0.029 A 
ATOM     46  C   UNL A   1      39.005  32.996  35.020  1.00  0.00     0.049 A 
ATOM     47  H   UNL A   1      39.674  31.700  33.532  1.00  0.00     0.167 HD
ATOM     48  C   UNL A   1      40.686  28.729  30.467  1.00  0.00     0.034 A 
ATOM     49  C   UNL A   1      39.778  32.791  36.104  1.00  0.00     0.034 A 
ATOM     50  C   UNL A   1      41.669  28.561  31.502  1.00  0.00     0.049 A 
ATOM     51  C   UNL A   1      40.886  31.776  36.025  1.00  0.00     0.074 A 
ATOM     52  C   UNL A   1      42.755  27.704  31.527  1.00  0.00     0.029 A 
ATOM     53  N   UNL A   1      41.682  29.260  32.700  1.00  0.00    -0.354 N 
ATOM     54  N   UNL A   1      41.224  30.999  35.024  1.00  0.00    -0.248 NA
ATOM     55  C   UNL A   1      41.744  31.635  37.210  1.00  0.00     0.031 C 
ATOM     56  C   UNL A   1      43.411  27.869  32.752  1.00  0.00     0.029 A 
ATOM     57  C   UNL A   1      42.751  28.848  33.476  1.00  0.00     0.049 A 
ATOM     58  H   UNL A   1      41.027  29.947  32.960  1.00  0.00     0.167 HD
ATOM     59  C   UNL A   1      42.353  30.305  35.443  1.00  0.00     0.074 A 
ATOM     60  C   UNL A   1      42.654  30.769  36.782  1.00  0.00     0.031 C 
ATOM     61  C   UNL A   1      43.068  29.359  34.786  1.00  0.00     0.034 A 
BRANCH  48  62
ATOM     62  C   UNL A   1      40.773  27.846  29.248  1.00  0.00     0.023 A 
ATOM     63  C   UNL A   1      39.951  26.703  29.157  1.00  0.00     0.012 A 
ATOM     64  C   UNL A   1      41.620  28.174  28.172  1.00  0.00     0.148 A 
ATOM     65  C   UNL A   1      39.997  25.882  28.032  1.00  0.00     0.002 A 
ATOM     66  C   UNL A   1      41.627  27.374  27.033  1.00  0.00     0.091 A 
ATOM     67  F   UNL A   1      42.410  29.251  28.284  1.00  0.00    -0.205 F 
ATOM     68  C   UNL A   1      40.827  26.222  26.967  1.00  0.00     0.022 A 
BRANCH  66  69
ATOM     69  S   UNL A   1      42.600  27.771  25.577  1.00  0.00     0.127 S 
ATOM     70  O   UNL A   1      42.355  26.603  24.731  1.00  0.00    -0.237 OA
ATOM     71  O   UNL A   1      41.965  29.005  25.109  1.00  0.00    -0.237 OA
ATOM     72  O   UNL A   1      43.971  27.931  26.039  1.00  0.00    -0.744 OA
ENDBRANCH  66  69
ENDBRANCH  48  62
BRANCH  49  73
ATOM     73  C   UNL A   1      39.577  33.616  37.328  1.00  0.00     0.023 A 
ATOM     74  C   UNL A   1      40.157  34.897  37.400  1.00  0.00     0.012 A 
ATOM     75  C   UNL A   1      38.791  33.156  38.401  1.00  0.00     0.148 A 
ATOM     76  C   UNL A   1      39.986  35.693  38.533  1.00  0.00     0.002 A 
ATOM     77  C   UNL A   1      38.579  33.976  39.505  1.00  0.00     0.091 A 
ATOM     78  F   UNL A   1      38.256  31.930  38.318  1.00  0.00    -0.205 F 
ATOM     79  C   UNL A   1      39.190  35.237  39.581  1.00  0.00     0.022 A 
BRANCH  77  80
ATOM     80  S   UNL A   1      37.460  33.527  40.837  1.00  0.00     0.127 S 
ATOM     81  O   UNL A   1      37.305  34.799  41.538  1.00  0.00    -0.237 OA
ATOM     82  O   UNL A   1      36.277  33.080  40.101  1.00  0.00    -0.237 OA
ATOM     83  O   UNL A   1      38.138  32.472  41.579  1.00  0.00    -0.744 OA
ENDBRANCH  77  80
ENDBRANCH  49  73
BRANCH  61  84
ATOM     84  C   UNL A   1      44.272  28.784  35.483  1.00  0.00     0.023 A 
ATOM     85  C   UNL A   1      45.549  29.328  35.243  1.00  0.00     0.012 A 
ATOM     86  C   UNL A   1      44.125  27.756  36.435  1.00  0.00     0.148 A 
ATOM     87  C   UNL A   1      46.667  28.835  35.915  1.00  0.00     0.002 A 
ATOM     88  C   UNL A   1      45.236  27.304  37.137  1.00  0.00     0.091 A 
ATOM     89  F   UNL A   1      42.904  27.238  36.635  1.00  0.00    -0.205 F 
ATOM     90  C   UNL A   1      46.508  27.833  36.870  1.00  0.00     0.022 A 
BRANCH  88  91
ATOM     91  S   UNL A   1      45.111  26.088  38.454  1.00  0.00     0.127 S 
ATOM     92  O   UNL A   1      44.378  25.009  37.793  1.00  0.00    -0.237 OA
ATOM     93  O   UNL A   1      46.517  25.789  38.733  1.00  0.00    -0.237 OA
ATOM     94  O   UNL A   1      44.406  26.747  39.545  1.00  0.00    -0.744 OA
ENDBRANCH  88  91
ENDBRANCH  61  84
ENDBRANCH  35  36
ENDBRANCH  27  30
ENDBRANCH  25  26
ENDBRANCH  24  25
ENDBRANCH  23  24
ENDBRANCH   1  23
TORSDOF 20
ENDMDL
