MODEL 1
REMARK VINA RESULT:     -11.4      0.000      0.000
REMARK SMILES CC(=O)OCC1=C(C(=O)NCCCCCCNC(=O)c2ccc(-c3c4nc(c(-c5cccc(S(=O)(=O)[O-])c5F)c5ccc([nH]5)c(-c5cccc(S(=O)(=O)[O-])c5F)c5nc(c(-c6cccc(S(=O)(=O)[O-])c6F)c6ccc3[nH]6)C=C5)C=C4)cc2)N2C(=O)[C@H](NC(=O)C3CCCCC3)[C@@H]2SC1
REMARK SMILES IDX 13 1 12 2 11 3 10 4 8 5 9 6 7 8 6 9 98 10 83 11 97 12 84 13
REMARK SMILES IDX 96 14 85 15 86 16 5 17 4 18 2 19 1 20 3 21 87 22 88 23 89 25
REMARK SMILES IDX 90 26 91 27 95 28 92 29 94 30 93 31 14 32 15 33 16 34 17 35
REMARK SMILES IDX 18 36 19 38 20 39 21 40 82 41 22 42 81 43 23 44 24 45 25 46
REMARK SMILES IDX 75 47 26 48 80 49 74 50 76 51 27 52 79 53 73 54 72 55 28 57
REMARK SMILES IDX 60 58 40 59 59 60 41 61 44 62 58 63 77 64 42 65 43 66 57 68
REMARK SMILES IDX 78 69 45 70 29 71 30 72 38 73 31 74 33 75 39 76 32 77 34 78
REMARK SMILES IDX 35 79 36 80 37 81 61 82 62 83 70 84 63 85 65 86 71 87 64 88
REMARK SMILES IDX 66 89 67 90 68 91 69 92 46 93 47 94 55 95 48 96 50 97 56 98
REMARK SMILES IDX 49 99 51 100 52 101 53 102 54 103
REMARK H PARENT 10 7 87 24 17 37 76 56 44 67
REMARK Flexibility Score: inf
ROOT
ATOM      1  C   UNL A   1      34.550  32.069  28.980  1.00  0.00     0.002 C 
ENDROOT
BRANCH   1   2
ATOM      2  C   UNL A   1      34.719  30.834  28.092  1.00  0.00     0.021 C 
BRANCH   2   3
ATOM      3  C   UNL A   1      33.634  30.575  27.022  1.00  0.00     0.116 C 
BRANCH   3   4
ATOM      4  N   UNL A   1      32.638  29.564  27.367  1.00  0.00    -0.351 N 
ATOM      5  C   UNL A   1      31.971  28.572  26.698  1.00  0.00     0.268 C 
ATOM      6  O   UNL A   1      31.244  27.873  27.407  1.00  0.00    -0.268 OA
ATOM      7  H   UNL A   1      32.383  29.606  28.317  1.00  0.00     0.163 HD
BRANCH   5   8
ATOM      8  C   UNL A   1      32.099  28.284  25.199  1.00  0.00     0.114 C 
ATOM      9  C   UNL A   1      31.632  29.082  24.203  1.00  0.00     0.007 C 
ATOM     10  C   UNL A   1      32.153  29.058  22.766  1.00  0.00     0.108 C 
ATOM     11  N   UNL A   1      32.455  27.013  24.799  1.00  0.00    -0.290 N 
ATOM     12  S   UNL A   1      33.178  27.609  22.354  1.00  0.00    -0.129 SA
ATOM     13  C   UNL A   1      32.656  25.777  25.307  1.00  0.00     0.253 C 
ATOM     14  C   UNL A   1      32.201  26.559  23.438  1.00  0.00     0.181 C 
ATOM     15  O   UNL A   1      32.716  25.284  26.413  1.00  0.00    -0.272 OA
ATOM     16  C   UNL A   1      32.735  25.182  23.858  1.00  0.00     0.205 C 
BRANCH   9  17
ATOM     17  C   UNL A   1      30.306  29.802  24.314  1.00  0.00     0.267 C 
BRANCH  17  18
ATOM     18  O   UNL A   1      29.381  29.304  23.340  1.00  0.00    -0.461 OA
BRANCH  18  19
ATOM     19  C   UNL A   1      28.362  30.027  22.839  1.00  0.00     0.302 C 
ATOM     20  C   UNL A   1      28.790  30.605  21.513  1.00  0.00     0.139 C 
ATOM     21  O   UNL A   1      27.301  30.242  23.401  1.00  0.00    -0.253 OA
ENDBRANCH  18  19
ENDBRANCH  17  18
ENDBRANCH   9  17
BRANCH  16  22
ATOM     22  N   UNL A   1      34.090  24.769  23.430  1.00  0.00    -0.342 N 
ATOM     23  C   UNL A   1      34.701  23.552  23.540  1.00  0.00     0.223 C 
ATOM     24  H   UNL A   1      34.630  25.473  23.002  1.00  0.00     0.164 HD
ATOM     25  O   UNL A   1      35.861  23.444  23.143  1.00  0.00    -0.275 OA
BRANCH  23  26
ATOM     26  C   UNL A   1      33.930  22.378  24.145  1.00  0.00     0.078 C 
ATOM     27  C   UNL A   1      33.004  21.745  23.091  1.00  0.00     0.013 C 
ATOM     28  C   UNL A   1      34.886  21.312  24.699  1.00  0.00     0.013 C 
ATOM     29  C   UNL A   1      32.248  20.536  23.638  1.00  0.00     0.001 C 
ATOM     30  C   UNL A   1      34.118  20.125  25.277  1.00  0.00     0.001 C 
ATOM     31  C   UNL A   1      33.195  19.501  24.237  1.00  0.00     0.000 C 
ENDBRANCH  23  26
ENDBRANCH  16  22
ENDBRANCH   5   8
ENDBRANCH   3   4
ENDBRANCH   2   3
ENDBRANCH   1   2
BRANCH   1  32
ATOM     32  C   UNL A   1      34.404  33.381  28.217  1.00  0.00     0.002 C 
BRANCH  32  33
ATOM     33  C   UNL A   1      33.270  34.276  28.720  1.00  0.00     0.021 C 
BRANCH  33  34
ATOM     34  C   UNL A   1      33.729  35.640  29.223  1.00  0.00     0.116 C 
BRANCH  34  35
ATOM     35  N   UNL A   1      32.809  36.168  30.220  1.00  0.00    -0.352 N 
ATOM     36  C   UNL A   1      32.699  35.784  31.534  1.00  0.00     0.251 C 
ATOM     37  H   UNL A   1      32.197  36.879  29.918  1.00  0.00     0.163 HD
ATOM     38  O   UNL A   1      31.717  36.077  32.205  1.00  0.00    -0.269 OA
BRANCH  36  39
ATOM     39  C   UNL A   1      33.811  35.008  32.113  1.00  0.00     0.039 A 
ATOM     40  C   UNL A   1      33.570  33.748  32.662  1.00  0.00     0.014 A 
ATOM     41  C   UNL A   1      35.108  35.523  32.028  1.00  0.00     0.014 A 
ATOM     42  C   UNL A   1      34.652  32.978  33.097  1.00  0.00     0.010 A 
ATOM     43  C   UNL A   1      36.183  34.723  32.385  1.00  0.00     0.010 A 
ATOM     44  C   UNL A   1      35.965  33.452  32.942  1.00  0.00    -0.014 A 
BRANCH  44  45
ATOM     45  C   UNL A   1      37.141  32.672  33.397  1.00  0.00     0.031 A 
ATOM     46  C   UNL A   1      37.860  33.100  34.648  1.00  0.00     0.074 A 
ATOM     47  C   UNL A   1      37.624  31.667  32.641  1.00  0.00     0.049 A 
ATOM     48  N   UNL A   1      38.986  32.661  35.145  1.00  0.00    -0.248 NA
ATOM     49  C   UNL A   1      37.249  34.195  35.422  1.00  0.00     0.031 C 
ATOM     50  C   UNL A   1      37.046  31.200  31.379  1.00  0.00     0.029 A 
ATOM     51  N   UNL A   1      38.736  30.880  32.808  1.00  0.00    -0.354 N 
ATOM     52  C   UNL A   1      39.242  33.456  36.255  1.00  0.00     0.074 A 
ATOM     53  C   UNL A   1      38.176  34.428  36.338  1.00  0.00     0.031 C 
ATOM     54  C   UNL A   1      37.809  30.212  30.886  1.00  0.00     0.029 A 
ATOM     55  C   UNL A   1      38.952  30.004  31.770  1.00  0.00     0.049 A 
ATOM     56  H   UNL A   1      39.324  30.937  33.597  1.00  0.00     0.167 HD
ATOM     57  C   UNL A   1      40.259  33.368  37.142  1.00  0.00     0.034 A 
ATOM     58  C   UNL A   1      39.968  29.147  31.547  1.00  0.00     0.034 A 
ATOM     59  C   UNL A   1      41.291  32.372  37.076  1.00  0.00     0.049 A 
ATOM     60  C   UNL A   1      41.078  29.053  32.562  1.00  0.00     0.074 A 
ATOM     61  C   UNL A   1      42.324  32.143  37.967  1.00  0.00     0.029 A 
ATOM     62  N   UNL A   1      41.428  31.444  36.055  1.00  0.00    -0.354 N 
ATOM     63  N   UNL A   1      41.238  29.728  33.673  1.00  0.00    -0.248 NA
ATOM     64  C   UNL A   1      42.129  28.056  32.308  1.00  0.00     0.031 C 
ATOM     65  C   UNL A   1      43.108  31.101  37.465  1.00  0.00     0.029 A 
ATOM     66  C   UNL A   1      42.532  30.646  36.289  1.00  0.00     0.049 A 
ATOM     67  H   UNL A   1      40.827  31.366  35.280  1.00  0.00     0.167 HD
ATOM     68  C   UNL A   1      42.375  29.204  34.278  1.00  0.00     0.074 A 
ATOM     69  C   UNL A   1      42.862  28.151  33.410  1.00  0.00     0.031 C 
ATOM     70  C   UNL A   1      42.965  29.563  35.444  1.00  0.00     0.034 A 
BRANCH  57  71
ATOM     71  C   UNL A   1      40.287  34.358  38.278  1.00  0.00     0.023 A 
ATOM     72  C   UNL A   1      40.979  35.578  38.131  1.00  0.00     0.012 A 
ATOM     73  C   UNL A   1      39.587  34.100  39.472  1.00  0.00     0.148 A 
ATOM     74  C   UNL A   1      41.012  36.506  39.171  1.00  0.00     0.002 A 
ATOM     75  C   UNL A   1      39.580  35.053  40.484  1.00  0.00     0.091 A 
ATOM     76  F   UNL A   1      38.952  32.927  39.602  1.00  0.00    -0.205 F 
ATOM     77  C   UNL A   1      40.303  36.248  40.342  1.00  0.00     0.022 A 
BRANCH  75  78
ATOM     78  S   UNL A   1      38.629  34.855  41.994  1.00  0.00     0.127 S 
ATOM     79  O   UNL A   1      38.944  36.094  42.705  1.00  0.00    -0.237 OA
ATOM     80  O   UNL A   1      37.260  34.776  41.485  1.00  0.00    -0.237 OA
ATOM     81  O   UNL A   1      39.118  33.636  42.622  1.00  0.00    -0.744 OA
ENDBRANCH  75  78
ENDBRANCH  57  71
BRANCH  58  82
ATOM     82  C   UNL A   1      39.964  28.277  30.337  1.00  0.00     0.023 A 
ATOM     83  C   UNL A   1      39.047  27.212  30.251  1.00  0.00     0.012 A 
ATOM     84  C   UNL A   1      40.851  28.506  29.269  1.00  0.00     0.148 A 
ATOM     85  C   UNL A   1      39.040  26.366  29.141  1.00  0.00     0.002 A 
ATOM     86  C   UNL A   1      40.802  27.697  28.141  1.00  0.00     0.091 A 
ATOM     87  F   UNL A   1      41.720  29.523  29.372  1.00  0.00    -0.205 F 
ATOM     88  C   UNL A   1      39.911  26.613  28.082  1.00  0.00     0.022 A 
BRANCH  86  89
ATOM     89  S   UNL A   1      41.794  28.017  26.679  1.00  0.00     0.127 S 
ATOM     90  O   UNL A   1      43.135  27.673  27.146  1.00  0.00    -0.237 OA
ATOM     91  O   UNL A   1      41.216  27.083  25.713  1.00  0.00    -0.237 OA
ATOM     92  O   UNL A   1      41.581  29.422  26.356  1.00  0.00    -0.744 OA
ENDBRANCH  86  89
ENDBRANCH  58  82
BRANCH  70  93
ATOM     93  C   UNL A   1      44.158  28.770  35.906  1.00  0.00     0.023 A 
ATOM     94  C   UNL A   1      45.460  29.153  35.528  1.00  0.00     0.012 A 
ATOM     95  C   UNL A   1      43.983  27.699  36.806  1.00  0.00     0.148 A 
ATOM     96  C   UNL A   1      46.568  28.465  36.022  1.00  0.00     0.002 A 
ATOM     97  C   UNL A   1      45.093  27.054  37.335  1.00  0.00     0.091 A 
ATOM     98  F   UNL A   1      42.733  27.341  37.137  1.00  0.00    -0.205 F 
ATOM     99  C   UNL A   1      46.385  27.427  36.934  1.00  0.00     0.022 A 
BRANCH  97 100
ATOM    100  S   UNL A   1      44.958  25.783  38.596  1.00  0.00     0.127 S 
ATOM    101  O   UNL A   1      46.363  25.531  38.914  1.00  0.00    -0.237 OA
ATOM    102  O   UNL A   1      44.208  26.471  39.646  1.00  0.00    -0.237 OA
ATOM    103  O   UNL A   1      44.252  24.671  37.976  1.00  0.00    -0.744 OA
ENDBRANCH  97 100
ENDBRANCH  70  93
ENDBRANCH  44  45
ENDBRANCH  36  39
ENDBRANCH  34  35
ENDBRANCH  33  34
ENDBRANCH  32  33
ENDBRANCH   1  32
TORSDOF 21
ENDMDL
MODEL 2
REMARK VINA RESULT:     -11.1      1.917      7.870
REMARK SMILES CC(=O)OCC1=C(C(=O)NCCCCCCNC(=O)c2ccc(-c3c4nc(c(-c5cccc(S(=O)(=O)[O-])c5F)c5ccc([nH]5)c(-c5cccc(S(=O)(=O)[O-])c5F)c5nc(c(-c6cccc(S(=O)(=O)[O-])c6F)c6ccc3[nH]6)C=C5)C=C4)cc2)N2C(=O)[C@H](NC(=O)C3CCCCC3)[C@@H]2SC1
REMARK SMILES IDX 13 1 12 2 11 3 10 4 8 5 9 6 7 8 6 9 98 10 83 11 97 12 84 13
REMARK SMILES IDX 96 14 85 15 86 16 5 17 4 18 2 19 1 20 3 21 87 22 88 23 89 25
REMARK SMILES IDX 90 26 91 27 95 28 92 29 94 30 93 31 14 32 15 33 16 34 17 35
REMARK SMILES IDX 18 36 19 38 20 39 21 40 82 41 22 42 81 43 23 44 24 45 25 46
REMARK SMILES IDX 75 47 26 48 80 49 74 50 76 51 27 52 79 53 73 54 72 55 28 57
REMARK SMILES IDX 60 58 40 59 59 60 41 61 44 62 58 63 77 64 42 65 43 66 57 68
REMARK SMILES IDX 78 69 45 70 29 71 30 72 38 73 31 74 33 75 39 76 32 77 34 78
REMARK SMILES IDX 35 79 36 80 37 81 61 82 62 83 70 84 63 85 65 86 71 87 64 88
REMARK SMILES IDX 66 89 67 90 68 91 69 92 46 93 47 94 55 95 48 96 50 97 56 98
REMARK SMILES IDX 49 99 51 100 52 101 53 102 54 103
REMARK H PARENT 10 7 87 24 17 37 76 56 44 67
REMARK Flexibility Score: inf
ROOT
ATOM      1  C   UNL A   1      32.547  29.788  24.782  1.00  0.00     0.002 C 
ENDROOT
BRANCH   1   2
ATOM      2  C   UNL A   1      33.454  28.644  24.321  1.00  0.00     0.021 C 
BRANCH   2   3
ATOM      3  C   UNL A   1      33.987  28.700  22.872  1.00  0.00     0.116 C 
BRANCH   3   4
ATOM      4  N   UNL A   1      33.575  27.598  22.006  1.00  0.00    -0.351 N 
ATOM      5  C   UNL A   1      32.446  26.837  21.853  1.00  0.00     0.268 C 
ATOM      6  O   UNL A   1      32.493  26.030  20.922  1.00  0.00    -0.268 OA
ATOM      7  H   UNL A   1      34.286  27.337  21.377  1.00  0.00     0.163 HD
BRANCH   5   8
ATOM      8  C   UNL A   1      31.186  26.952  22.716  1.00  0.00     0.114 C 
ATOM      9  C   UNL A   1      30.200  27.871  22.547  1.00  0.00     0.007 C 
ATOM     10  C   UNL A   1      28.771  27.704  23.064  1.00  0.00     0.108 C 
ATOM     11  N   UNL A   1      31.147  26.279  23.919  1.00  0.00    -0.290 N 
ATOM     12  S   UNL A   1      28.554  26.362  24.277  1.00  0.00    -0.129 SA
ATOM     13  C   UNL A   1      31.944  25.560  24.740  1.00  0.00     0.253 C 
ATOM     14  C   UNL A   1      30.193  26.655  24.955  1.00  0.00     0.181 C 
ATOM     15  O   UNL A   1      33.062  25.092  24.687  1.00  0.00    -0.272 OA
ATOM     16  C   UNL A   1      30.849  25.603  25.862  1.00  0.00     0.205 C 
BRANCH   9  17
ATOM     17  C   UNL A   1      30.502  29.304  22.168  1.00  0.00     0.267 C 
BRANCH  17  18
ATOM     18  O   UNL A   1      29.384  29.891  21.493  1.00  0.00    -0.461 OA
BRANCH  18  19
ATOM     19  C   UNL A   1      28.921  31.129  21.750  1.00  0.00     0.302 C 
ATOM     20  C   UNL A   1      28.935  31.346  23.242  1.00  0.00     0.139 C 
ATOM     21  O   UNL A   1      28.489  31.911  20.919  1.00  0.00    -0.253 OA
ENDBRANCH  18  19
ENDBRANCH  17  18
ENDBRANCH   9  17
BRANCH  16  22
ATOM     22  N   UNL A   1      30.153  24.318  26.100  1.00  0.00    -0.342 N 
ATOM     23  C   UNL A   1      30.674  23.063  26.236  1.00  0.00     0.223 C 
ATOM     24  H   UNL A   1      29.173  24.377  26.173  1.00  0.00     0.164 HD
ATOM     25  O   UNL A   1      29.896  22.123  26.394  1.00  0.00    -0.275 OA
BRANCH  23  26
ATOM     26  C   UNL A   1      32.190  22.871  26.188  1.00  0.00     0.078 C 
ATOM     27  C   UNL A   1      32.746  22.640  27.605  1.00  0.00     0.013 C 
ATOM     28  C   UNL A   1      32.573  21.690  25.285  1.00  0.00     0.013 C 
ATOM     29  C   UNL A   1      34.254  22.395  27.602  1.00  0.00     0.001 C 
ATOM     30  C   UNL A   1      34.085  21.479  25.259  1.00  0.00     0.001 C 
ATOM     31  C   UNL A   1      34.639  21.256  26.662  1.00  0.00     0.000 C 
ENDBRANCH  23  26
ENDBRANCH  16  22
ENDBRANCH   5   8
ENDBRANCH   3   4
ENDBRANCH   2   3
ENDBRANCH   1   2
BRANCH   1  32
ATOM     32  C   UNL A   1      32.152  29.727  26.253  1.00  0.00     0.002 C 
BRANCH  32  33
ATOM     33  C   UNL A   1      31.823  31.087  26.871  1.00  0.00     0.021 C 
BRANCH  33  34
ATOM     34  C   UNL A   1      33.048  31.907  27.260  1.00  0.00     0.116 C 
BRANCH  34  35
ATOM     35  N   UNL A   1      32.708  33.314  27.417  1.00  0.00    -0.352 N 
ATOM     36  C   UNL A   1      33.131  34.164  28.409  1.00  0.00     0.251 C 
ATOM     37  H   UNL A   1      32.108  33.698  26.736  1.00  0.00     0.163 HD
ATOM     38  O   UNL A   1      32.570  35.233  28.616  1.00  0.00    -0.269 OA
BRANCH  36  39
ATOM     39  C   UNL A   1      34.291  33.746  29.218  1.00  0.00     0.039 A 
ATOM     40  C   UNL A   1      34.120  32.841  30.267  1.00  0.00     0.014 A 
ATOM     41  C   UNL A   1      35.561  34.207  28.862  1.00  0.00     0.014 A 
ATOM     42  C   UNL A   1      35.245  32.366  30.944  1.00  0.00     0.010 A 
ATOM     43  C   UNL A   1      36.679  33.670  29.482  1.00  0.00     0.010 A 
ATOM     44  C   UNL A   1      36.532  32.761  30.542  1.00  0.00    -0.014 A 
BRANCH  44  45
ATOM     45  C   UNL A   1      37.753  32.287  31.238  1.00  0.00     0.031 A 
ATOM     46  C   UNL A   1      38.548  31.165  30.628  1.00  0.00     0.074 A 
ATOM     47  C   UNL A   1      38.079  32.777  32.450  1.00  0.00     0.049 A 
ATOM     48  N   UNL A   1      39.554  30.498  31.129  1.00  0.00    -0.248 NA
ATOM     49  C   UNL A   1      38.132  30.706  29.291  1.00  0.00     0.031 C 
ATOM     50  C   UNL A   1      37.349  33.824  33.167  1.00  0.00     0.029 A 
ATOM     51  N   UNL A   1      39.090  32.428  33.310  1.00  0.00    -0.354 N 
ATOM     52  C   UNL A   1      39.856  29.514  30.196  1.00  0.00     0.074 A 
ATOM     53  C   UNL A   1      38.904  29.645  29.116  1.00  0.00     0.031 C 
ATOM     54  C   UNL A   1      37.935  34.031  34.357  1.00  0.00     0.029 A 
ATOM     55  C   UNL A   1      39.051  33.103  34.508  1.00  0.00     0.049 A 
ATOM     56  H   UNL A   1      39.778  31.759  33.090  1.00  0.00     0.167 HD
ATOM     57  C   UNL A   1      40.852  28.600  30.221  1.00  0.00     0.034 A 
ATOM     58  C   UNL A   1      39.817  32.971  35.610  1.00  0.00     0.034 A 
ATOM     59  C   UNL A   1      41.819  28.504  31.279  1.00  0.00     0.049 A 
ATOM     60  C   UNL A   1      40.934  31.960  35.604  1.00  0.00     0.074 A 
ATOM     61  C   UNL A   1      42.917  27.667  31.366  1.00  0.00     0.029 A 
ATOM     62  N   UNL A   1      41.800  29.265  32.437  1.00  0.00    -0.354 N 
ATOM     63  N   UNL A   1      41.283  31.122  34.659  1.00  0.00    -0.248 NA
ATOM     64  C   UNL A   1      41.783  31.901  36.803  1.00  0.00     0.031 C 
ATOM     65  C   UNL A   1      43.540  27.896  32.596  1.00  0.00     0.029 A 
ATOM     66  C   UNL A   1      42.860  28.912  33.250  1.00  0.00     0.049 A 
ATOM     67  H   UNL A   1      41.129  29.954  32.649  1.00  0.00     0.167 HD
ATOM     68  C   UNL A   1      42.420  30.473  35.126  1.00  0.00     0.074 A 
ATOM     69  C   UNL A   1      42.704  31.019  36.437  1.00  0.00     0.031 C 
ATOM     70  C   UNL A   1      43.162  29.511  34.525  1.00  0.00     0.034 A 
BRANCH  57  71
ATOM     71  C   UNL A   1      40.963  27.650  29.057  1.00  0.00     0.023 A 
ATOM     72  C   UNL A   1      40.173  26.483  29.023  1.00  0.00     0.012 A 
ATOM     73  C   UNL A   1      41.814  27.940  27.973  1.00  0.00     0.148 A 
ATOM     74  C   UNL A   1      40.262  25.595  27.951  1.00  0.00     0.002 A 
ATOM     75  C   UNL A   1      41.858  27.078  26.884  1.00  0.00     0.091 A 
ATOM     76  F   UNL A   1      42.573  29.044  28.032  1.00  0.00    -0.205 F 
ATOM     77  C   UNL A   1      41.095  25.899  26.878  1.00  0.00     0.022 A 
BRANCH  75  78
ATOM     78  S   UNL A   1      42.832  27.422  25.416  1.00  0.00     0.127 S 
ATOM     79  O   UNL A   1      42.743  26.151  24.698  1.00  0.00    -0.237 OA
ATOM     80  O   UNL A   1      42.085  28.521  24.803  1.00  0.00    -0.237 OA
ATOM     81  O   UNL A   1      44.163  27.778  25.888  1.00  0.00    -0.744 OA
ENDBRANCH  75  78
ENDBRANCH  57  71
BRANCH  58  82
ATOM     82  C   UNL A   1      39.584  33.847  36.793  1.00  0.00     0.023 A 
ATOM     83  C   UNL A   1      39.939  35.208  36.730  1.00  0.00     0.012 A 
ATOM     84  C   UNL A   1      39.003  33.343  37.972  1.00  0.00     0.148 A 
ATOM     85  C   UNL A   1      39.757  36.043  37.833  1.00  0.00     0.002 A 
ATOM     86  C   UNL A   1      38.771  34.192  39.047  1.00  0.00     0.091 A 
ATOM     87  F   UNL A   1      38.677  32.043  38.014  1.00  0.00    -0.205 F 
ATOM     88  C   UNL A   1      39.165  35.538  38.988  1.00  0.00     0.022 A 
BRANCH  86  89
ATOM     89  S   UNL A   1      37.899  33.660  40.525  1.00  0.00     0.127 S 
ATOM     90  O   UNL A   1      38.829  32.683  41.086  1.00  0.00    -0.237 OA
ATOM     91  O   UNL A   1      37.789  34.911  41.274  1.00  0.00    -0.237 OA
ATOM     92  O   UNL A   1      36.626  33.124  40.061  1.00  0.00    -0.744 OA
ENDBRANCH  86  89
ENDBRANCH  58  82
BRANCH  70  93
ATOM     93  C   UNL A   1      44.402  29.029  35.230  1.00  0.00     0.023 A 
ATOM     94  C   UNL A   1      45.648  29.632  34.974  1.00  0.00     0.012 A 
ATOM     95  C   UNL A   1      44.301  28.040  36.229  1.00  0.00     0.148 A 
ATOM     96  C   UNL A   1      46.781  29.238  35.685  1.00  0.00     0.002 A 
ATOM     97  C   UNL A   1      45.422  27.692  36.971  1.00  0.00     0.091 A 
ATOM     98  F   UNL A   1      43.106  27.467  36.443  1.00  0.00    -0.205 F 
ATOM     99  C   UNL A   1      46.665  28.281  36.692  1.00  0.00     0.022 A 
BRANCH  97 100
ATOM    100  S   UNL A   1      45.344  26.551  38.355  1.00  0.00     0.127 S 
ATOM    101  O   UNL A   1      44.610  25.429  37.773  1.00  0.00    -0.237 OA
ATOM    102  O   UNL A   1      46.758  26.286  38.615  1.00  0.00    -0.237 OA
ATOM    103  O   UNL A   1      44.652  27.258  39.424  1.00  0.00    -0.744 OA
ENDBRANCH  97 100
ENDBRANCH  70  93
ENDBRANCH  44  45
ENDBRANCH  36  39
ENDBRANCH  34  35
ENDBRANCH  33  34
ENDBRANCH  32  33
ENDBRANCH   1  32
TORSDOF 21
ENDMDL
MODEL 3
REMARK VINA RESULT:     -10.8      2.269      3.281
REMARK SMILES CC(=O)OCC1=C(C(=O)NCCCCCCNC(=O)c2ccc(-c3c4nc(c(-c5cccc(S(=O)(=O)[O-])c5F)c5ccc([nH]5)c(-c5cccc(S(=O)(=O)[O-])c5F)c5nc(c(-c6cccc(S(=O)(=O)[O-])c6F)c6ccc3[nH]6)C=C5)C=C4)cc2)N2C(=O)[C@H](NC(=O)C3CCCCC3)[C@@H]2SC1
REMARK SMILES IDX 13 1 12 2 11 3 10 4 8 5 9 6 7 8 6 9 98 10 83 11 97 12 84 13
REMARK SMILES IDX 96 14 85 15 86 16 5 17 4 18 2 19 1 20 3 21 87 22 88 23 89 25
REMARK SMILES IDX 90 26 91 27 95 28 92 29 94 30 93 31 14 32 15 33 16 34 17 35
REMARK SMILES IDX 18 36 19 38 20 39 21 40 82 41 22 42 81 43 23 44 24 45 25 46
REMARK SMILES IDX 75 47 26 48 80 49 74 50 76 51 27 52 79 53 73 54 72 55 28 57
REMARK SMILES IDX 60 58 40 59 59 60 41 61 44 62 58 63 77 64 42 65 43 66 57 68
REMARK SMILES IDX 78 69 45 70 29 71 30 72 38 73 31 74 33 75 39 76 32 77 34 78
REMARK SMILES IDX 35 79 36 80 37 81 61 82 62 83 70 84 63 85 65 86 71 87 64 88
REMARK SMILES IDX 66 89 67 90 68 91 69 92 46 93 47 94 55 95 48 96 50 97 56 98
REMARK SMILES IDX 49 99 51 100 52 101 53 102 54 103
REMARK H PARENT 10 7 87 24 17 37 76 56 44 67
REMARK Flexibility Score: inf
ROOT
ATOM      1  C   UNL A   1      32.584  30.008  26.988  1.00  0.00     0.002 C 
ENDROOT
BRANCH   1   2
ATOM      2  C   UNL A   1      33.731  29.409  26.170  1.00  0.00     0.021 C 
BRANCH   2   3
ATOM      3  C   UNL A   1      33.709  27.882  25.928  1.00  0.00     0.116 C 
BRANCH   3   4
ATOM      4  N   UNL A   1      32.513  27.187  26.396  1.00  0.00    -0.351 N 
ATOM      5  C   UNL A   1      31.837  26.048  26.047  1.00  0.00     0.268 C 
ATOM      6  O   UNL A   1      30.879  25.775  26.774  1.00  0.00    -0.268 OA
ATOM      7  H   UNL A   1      32.085  27.655  27.151  1.00  0.00     0.163 HD
BRANCH   5   8
ATOM      8  C   UNL A   1      32.209  25.129  24.880  1.00  0.00     0.114 C 
ATOM      9  C   UNL A   1      31.853  25.323  23.583  1.00  0.00     0.007 C 
ATOM     10  C   UNL A   1      32.588  24.714  22.389  1.00  0.00     0.108 C 
ATOM     11  N   UNL A   1      32.697  23.870  25.161  1.00  0.00    -0.290 N 
ATOM     12  S   UNL A   1      33.748  23.375  22.814  1.00  0.00    -0.129 SA
ATOM     13  C   UNL A   1      32.891  23.035  26.205  1.00  0.00     0.253 C 
ATOM     14  C   UNL A   1      32.681  22.819  24.150  1.00  0.00     0.181 C 
ATOM     15  O   UNL A   1      32.810  23.110  27.413  1.00  0.00    -0.272 OA
ATOM     16  C   UNL A   1      33.225  21.861  25.220  1.00  0.00     0.205 C 
BRANCH   9  17
ATOM     17  C   UNL A   1      30.485  25.845  23.201  1.00  0.00     0.267 C 
BRANCH  17  18
ATOM     18  O   UNL A   1      30.605  27.035  22.412  1.00  0.00    -0.461 OA
BRANCH  18  19
ATOM     19  C   UNL A   1      31.100  28.196  22.881  1.00  0.00     0.302 C 
ATOM     20  C   UNL A   1      29.976  28.976  23.515  1.00  0.00     0.139 C 
ATOM     21  O   UNL A   1      32.249  28.583  22.745  1.00  0.00    -0.253 OA
ENDBRANCH  18  19
ENDBRANCH  17  18
ENDBRANCH   9  17
BRANCH  16  22
ATOM     22  N   UNL A   1      34.652  21.469  25.183  1.00  0.00    -0.342 N 
ATOM     23  C   UNL A   1      35.208  20.236  24.999  1.00  0.00     0.223 C 
ATOM     24  H   UNL A   1      35.295  22.205  25.307  1.00  0.00     0.164 HD
ATOM     25  O   UNL A   1      36.433  20.135  25.042  1.00  0.00    -0.275 OA
BRANCH  23  26
ATOM     26  C   UNL A   1      34.297  19.033  24.748  1.00  0.00     0.078 C 
ATOM     27  C   UNL A   1      33.373  19.304  23.546  1.00  0.00     0.013 C 
ATOM     28  C   UNL A   1      35.115  17.759  24.493  1.00  0.00     0.013 C 
ATOM     29  C   UNL A   1      32.476  18.109  23.227  1.00  0.00     0.001 C 
ATOM     30  C   UNL A   1      34.206  16.564  24.212  1.00  0.00     0.001 C 
ATOM     31  C   UNL A   1      33.286  16.831  23.027  1.00  0.00     0.000 C 
ENDBRANCH  23  26
ENDBRANCH  16  22
ENDBRANCH   5   8
ENDBRANCH   3   4
ENDBRANCH   2   3
ENDBRANCH   1   2
BRANCH   1  32
ATOM     32  C   UNL A   1      31.570  30.798  26.168  1.00  0.00     0.002 C 
BRANCH  32  33
ATOM     33  C   UNL A   1      31.619  32.310  26.399  1.00  0.00     0.021 C 
BRANCH  33  34
ATOM     34  C   UNL A   1      32.236  32.717  27.732  1.00  0.00     0.116 C 
BRANCH  34  35
ATOM     35  N   UNL A   1      32.606  34.125  27.730  1.00  0.00    -0.352 N 
ATOM     36  C   UNL A   1      33.642  34.712  28.415  1.00  0.00     0.251 C 
ATOM     37  H   UNL A   1      32.052  34.723  27.177  1.00  0.00     0.163 HD
ATOM     38  O   UNL A   1      33.695  35.925  28.576  1.00  0.00    -0.269 OA
BRANCH  36  39
ATOM     39  C   UNL A   1      34.696  33.828  28.947  1.00  0.00     0.039 A 
ATOM     40  C   UNL A   1      35.817  33.533  28.170  1.00  0.00     0.014 A 
ATOM     41  C   UNL A   1      34.585  33.363  30.260  1.00  0.00     0.014 A 
ATOM     42  C   UNL A   1      36.859  32.793  28.733  1.00  0.00     0.010 A 
ATOM     43  C   UNL A   1      35.656  32.700  30.841  1.00  0.00     0.010 A 
ATOM     44  C   UNL A   1      36.793  32.390  30.078  1.00  0.00    -0.014 A 
BRANCH  44  45
ATOM     45  C   UNL A   1      37.873  31.596  30.714  1.00  0.00     0.031 A 
ATOM     46  C   UNL A   1      38.223  31.864  32.152  1.00  0.00     0.074 A 
ATOM     47  C   UNL A   1      38.601  30.730  29.982  1.00  0.00     0.049 A 
ATOM     48  N   UNL A   1      39.217  31.400  32.861  1.00  0.00    -0.248 NA
ATOM     49  C   UNL A   1      37.359  32.811  32.880  1.00  0.00     0.031 C 
ATOM     50  C   UNL A   1      38.393  30.431  28.565  1.00  0.00     0.029 A 
ATOM     51  N   UNL A   1      39.691  29.970  30.326  1.00  0.00    -0.354 N 
ATOM     52  C   UNL A   1      39.129  32.034  34.094  1.00  0.00     0.074 A 
ATOM     53  C   UNL A   1      38.007  32.943  34.026  1.00  0.00     0.031 C 
ATOM     54  C   UNL A   1      39.326  29.554  28.160  1.00  0.00     0.029 A 
ATOM     55  C   UNL A   1      40.223  29.263  29.273  1.00  0.00     0.049 A 
ATOM     56  H   UNL A   1      40.057  29.934  31.240  1.00  0.00     0.167 HD
ATOM     57  C   UNL A   1      39.895  31.857  35.194  1.00  0.00     0.034 A 
ATOM     58  C   UNL A   1      41.323  28.486  29.210  1.00  0.00     0.034 A 
ATOM     59  C   UNL A   1      40.982  30.920  35.266  1.00  0.00     0.049 A 
ATOM     60  C   UNL A   1      42.147  28.287  30.455  1.00  0.00     0.074 A 
ATOM     61  C   UNL A   1      41.773  30.603  36.356  1.00  0.00     0.029 A 
ATOM     62  N   UNL A   1      41.437  30.156  34.203  1.00  0.00    -0.354 N 
ATOM     63  N   UNL A   1      41.975  28.799  31.649  1.00  0.00    -0.248 NA
ATOM     64  C   UNL A   1      43.299  27.378  30.353  1.00  0.00     0.031 C 
ATOM     65  C   UNL A   1      42.731  29.675  35.941  1.00  0.00     0.029 A 
ATOM     66  C   UNL A   1      42.503  29.375  34.606  1.00  0.00     0.049 A 
ATOM     67  H   UNL A   1      41.056  30.169  33.295  1.00  0.00     0.167 HD
ATOM     68  C   UNL A   1      42.960  28.236  32.452  1.00  0.00     0.074 A 
ATOM     69  C   UNL A   1      43.724  27.340  31.608  1.00  0.00     0.031 C 
ATOM     70  C   UNL A   1      43.212  28.443  33.767  1.00  0.00     0.034 A 
BRANCH  57  71
ATOM     71  C   UNL A   1      39.566  32.672  36.418  1.00  0.00     0.023 A 
ATOM     72  C   UNL A   1      40.162  33.936  36.603  1.00  0.00     0.012 A 
ATOM     73  C   UNL A   1      38.629  32.205  37.360  1.00  0.00     0.148 A 
ATOM     74  C   UNL A   1      39.866  34.703  37.729  1.00  0.00     0.002 A 
ATOM     75  C   UNL A   1      38.297  32.999  38.451  1.00  0.00     0.091 A 
ATOM     76  F   UNL A   1      38.088  30.992  37.178  1.00  0.00    -0.205 F 
ATOM     77  C   UNL A   1      38.926  34.240  38.645  1.00  0.00     0.022 A 
BRANCH  75  78
ATOM     78  S   UNL A   1      37.038  32.532  39.642  1.00  0.00     0.127 S 
ATOM     79  O   UNL A   1      37.529  31.231  40.095  1.00  0.00    -0.237 OA
ATOM     80  O   UNL A   1      37.142  33.602  40.634  1.00  0.00    -0.237 OA
ATOM     81  O   UNL A   1      35.780  32.500  38.908  1.00  0.00    -0.744 OA
ENDBRANCH  75  78
ENDBRANCH  57  71
BRANCH  58  82
ATOM     82  C   UNL A   1      41.685  27.802  27.936  1.00  0.00     0.023 A 
ATOM     83  C   UNL A   1      42.141  28.564  26.844  1.00  0.00     0.012 A 
ATOM     84  C   UNL A   1      41.593  26.403  27.806  1.00  0.00     0.148 A 
ATOM     85  C   UNL A   1      42.460  27.951  25.631  1.00  0.00     0.002 A 
ATOM     86  C   UNL A   1      41.967  25.792  26.616  1.00  0.00     0.091 A 
ATOM     87  F   UNL A   1      41.151  25.695  28.856  1.00  0.00    -0.205 F 
ATOM     88  C   UNL A   1      42.382  26.565  25.520  1.00  0.00     0.022 A 
BRANCH  86  89
ATOM     89  S   UNL A   1      42.021  24.007  26.423  1.00  0.00     0.127 S 
ATOM     90  O   UNL A   1      40.601  23.663  26.425  1.00  0.00    -0.237 OA
ATOM     91  O   UNL A   1      42.691  23.865  25.131  1.00  0.00    -0.237 OA
ATOM     92  O   UNL A   1      42.791  23.511  27.556  1.00  0.00    -0.744 OA
ENDBRANCH  86  89
ENDBRANCH  58  82
BRANCH  70  93
ATOM     93  C   UNL A   1      44.307  27.637  34.414  1.00  0.00     0.023 A 
ATOM     94  C   UNL A   1      45.611  28.157  34.514  1.00  0.00     0.012 A 
ATOM     95  C   UNL A   1      44.004  26.398  35.013  1.00  0.00     0.148 A 
ATOM     96  C   UNL A   1      46.605  27.442  35.183  1.00  0.00     0.002 A 
ATOM     97  C   UNL A   1      44.985  25.718  35.724  1.00  0.00     0.091 A 
ATOM     98  F   UNL A   1      42.759  25.915  34.889  1.00  0.00    -0.205 F 
ATOM     99  C   UNL A   1      46.288  26.232  35.799  1.00  0.00     0.022 A 
BRANCH  97 100
ATOM    100  S   UNL A   1      44.640  24.212  36.639  1.00  0.00     0.127 S 
ATOM    101  O   UNL A   1      44.102  24.743  37.891  1.00  0.00    -0.237 OA
ATOM    102  O   UNL A   1      43.656  23.551  35.784  1.00  0.00    -0.237 OA
ATOM    103  O   UNL A   1      45.911  23.510  36.757  1.00  0.00    -0.744 OA
ENDBRANCH  97 100
ENDBRANCH  70  93
ENDBRANCH  44  45
ENDBRANCH  36  39
ENDBRANCH  34  35
ENDBRANCH  33  34
ENDBRANCH  32  33
ENDBRANCH   1  32
TORSDOF 21
ENDMDL
