MODEL 1
REMARK VINA RESULT:     -11.4      0.000      0.000
REMARK SMILES O=C(NCCCCCCNC(=O)c1ccccc1C[N@H+]1CCCC[C@@H]1CCn1cccn1)c1ccc(-c2c3nc(c(-c4cccc(S(=O)(=O)[O-])c4F)c4ccc([nH]4)c(-c4cccc(S(=O)(=O)[O-])c4F)c4nc(c(-c5cccc(S(=O)(=O)[O-])c5F)c5ccc2[nH]5)C=C4)C=C3)cc1
REMARK SMILES IDX 7 1 6 2 5 3 4 4 3 5 1 6 2 7 33 9 34 10 95 11 35 12 94 13
REMARK SMILES IDX 36 14 37 15 38 16 88 17 39 18 93 19 87 20 89 21 40 22 92 23
REMARK SMILES IDX 86 24 85 25 41 27 73 28 53 29 72 30 54 31 57 32 71 33 90 34
REMARK SMILES IDX 55 35 56 36 70 38 91 39 58 40 42 41 43 42 51 43 44 44 46 45
REMARK SMILES IDX 52 46 45 47 47 48 48 49 49 50 50 51 74 52 75 53 83 54 76 55
REMARK SMILES IDX 78 56 84 57 77 58 79 59 80 60 81 61 82 62 59 63 60 64 68 65
REMARK SMILES IDX 61 66 63 67 69 68 62 69 64 70 65 71 66 72 67 73 8 74 9 75
REMARK SMILES IDX 10 76 11 77 12 79 13 80 14 81 18 82 15 83 17 84 16 85 19 86
REMARK SMILES IDX 20 87 21 88 25 89 22 91 24 92 23 93 26 94 27 95 28 96 29 97
REMARK SMILES IDX 32 98 30 99 31 100
REMARK H PARENT 3 8 89 26 57 37 10 78 20 90
REMARK Flexibility Score: inf
ROOT
ATOM      1  C   UNL A   1      32.894  27.682  26.537  1.00  0.00     0.002 C 
ENDROOT
BRANCH   1   2
ATOM      2  C   UNL A   1      33.141  28.875  27.467  1.00  0.00     0.002 C 
BRANCH   2   3
ATOM      3  C   UNL A   1      34.584  29.389  27.519  1.00  0.00     0.021 C 
BRANCH   3   4
ATOM      4  C   UNL A   1      34.715  30.910  27.618  1.00  0.00     0.116 C 
BRANCH   4   5
ATOM      5  N   UNL A   1      34.757  31.418  28.969  1.00  0.00    -0.352 N 
ATOM      6  O   UNL A   1      35.424  32.108  30.956  1.00  0.00    -0.269 OA
ATOM      7  C   UNL A   1      35.715  31.471  29.941  1.00  0.00     0.251 C 
ATOM      8  H   UNL A   1      33.902  31.814  29.255  1.00  0.00     0.163 HD
BRANCH   7   9
ATOM      9  C   UNL A   1      37.012  30.754  29.874  1.00  0.00     0.039 A 
ATOM     10  C   UNL A   1      37.171  29.365  29.886  1.00  0.00     0.014 A 
ATOM     11  C   UNL A   1      38.156  31.569  29.834  1.00  0.00     0.014 A 
ATOM     12  C   UNL A   1      38.433  28.801  29.982  1.00  0.00     0.010 A 
ATOM     13  C   UNL A   1      39.422  31.010  29.895  1.00  0.00     0.010 A 
ATOM     14  C   UNL A   1      39.550  29.628  30.018  1.00  0.00    -0.014 A 
BRANCH  14  15
ATOM     15  C   UNL A   1      40.863  28.999  30.031  1.00  0.00     0.031 A 
ATOM     16  C   UNL A   1      41.406  28.724  31.398  1.00  0.00     0.074 A 
ATOM     17  C   UNL A   1      41.422  28.553  28.888  1.00  0.00     0.049 A 
ATOM     18  N   UNL A   1      42.568  29.020  31.887  1.00  0.00    -0.248 NA
ATOM     19  C   UNL A   1      40.479  28.141  32.385  1.00  0.00     0.031 C 
ATOM     20  C   UNL A   1      40.812  28.539  27.554  1.00  0.00     0.029 A 
ATOM     21  N   UNL A   1      42.575  27.849  28.708  1.00  0.00    -0.354 N 
ATOM     22  C   UNL A   1      42.589  28.462  33.170  1.00  0.00     0.074 A 
ATOM     23  C   UNL A   1      41.235  28.096  33.479  1.00  0.00     0.031 C 
ATOM     24  C   UNL A   1      41.448  27.625  26.790  1.00  0.00     0.029 A 
ATOM     25  C   UNL A   1      42.570  27.091  27.540  1.00  0.00     0.049 A 
ATOM     26  H   UNL A   1      43.331  27.873  29.339  1.00  0.00     0.167 HD
ATOM     27  C   UNL A   1      43.751  28.114  33.788  1.00  0.00     0.034 A 
ATOM     28  C   UNL A   1      43.348  26.015  27.269  1.00  0.00     0.034 A 
ATOM     29  C   UNL A   1      44.877  28.814  33.234  1.00  0.00     0.049 A 
ATOM     30  C   UNL A   1      44.494  26.045  28.204  1.00  0.00     0.074 A 
ATOM     31  C   UNL A   1      45.245  30.138  33.109  1.00  0.00     0.029 A 
ATOM     32  N   UNL A   1      45.697  28.115  32.383  1.00  0.00    -0.354 N 
ATOM     33  N   UNL A   1      45.414  26.968  28.190  1.00  0.00    -0.248 NA
ATOM     34  C   UNL A   1      44.384  25.285  29.439  1.00  0.00     0.031 C 
ATOM     35  C   UNL A   1      45.908  30.214  31.850  1.00  0.00     0.029 A 
ATOM     36  C   UNL A   1      45.946  28.926  31.312  1.00  0.00     0.049 A 
ATOM     37  H   UNL A   1      46.039  27.202  32.520  1.00  0.00     0.167 HD
ATOM     38  C   UNL A   1      45.682  27.208  29.531  1.00  0.00     0.074 A 
ATOM     39  C   UNL A   1      45.101  26.072  30.244  1.00  0.00     0.031 C 
ATOM     40  C   UNL A   1      46.089  28.440  29.958  1.00  0.00     0.034 A 
BRANCH  27  41
ATOM     41  C   UNL A   1      43.934  26.860  34.624  1.00  0.00     0.023 A 
ATOM     42  C   UNL A   1      43.305  25.679  34.160  1.00  0.00     0.012 A 
ATOM     43  C   UNL A   1      44.405  26.845  35.957  1.00  0.00     0.148 A 
ATOM     44  C   UNL A   1      43.078  24.585  35.001  1.00  0.00     0.002 A 
ATOM     45  C   UNL A   1      44.237  25.727  36.769  1.00  0.00     0.091 A 
ATOM     46  F   UNL A   1      44.909  27.951  36.508  1.00  0.00    -0.205 F 
ATOM     47  C   UNL A   1      43.542  24.610  36.310  1.00  0.00     0.022 A 
BRANCH  45  48
ATOM     48  S   UNL A   1      44.858  25.702  38.458  1.00  0.00     0.127 S 
ATOM     49  O   UNL A   1      43.868  26.541  39.138  1.00  0.00    -0.237 OA
ATOM     50  O   UNL A   1      44.778  24.274  38.782  1.00  0.00    -0.237 OA
ATOM     51  O   UNL A   1      46.208  26.222  38.388  1.00  0.00    -0.744 OA
ENDBRANCH  45  48
ENDBRANCH  27  41
BRANCH  28  52
ATOM     52  C   UNL A   1      42.998  24.802  26.492  1.00  0.00     0.023 A 
ATOM     53  C   UNL A   1      43.844  24.362  25.457  1.00  0.00     0.012 A 
ATOM     54  C   UNL A   1      41.971  23.934  26.928  1.00  0.00     0.148 A 
ATOM     55  C   UNL A   1      43.681  23.095  24.883  1.00  0.00     0.002 A 
ATOM     56  C   UNL A   1      41.801  22.683  26.343  1.00  0.00     0.091 A 
ATOM     57  F   UNL A   1      41.221  24.295  27.976  1.00  0.00    -0.205 F 
ATOM     58  C   UNL A   1      42.663  22.255  25.327  1.00  0.00     0.022 A 
BRANCH  56  59
ATOM     59  S   UNL A   1      40.510  21.547  26.873  1.00  0.00     0.127 S 
ATOM     60  O   UNL A   1      40.834  20.345  26.102  1.00  0.00    -0.237 OA
ATOM     61  O   UNL A   1      40.768  21.443  28.306  1.00  0.00    -0.237 OA
ATOM     62  O   UNL A   1      39.250  22.176  26.497  1.00  0.00    -0.744 OA
ENDBRANCH  56  59
ENDBRANCH  28  52
BRANCH  40  63
ATOM     63  C   UNL A   1      46.448  29.473  28.921  1.00  0.00     0.023 A 
ATOM     64  C   UNL A   1      47.730  29.528  28.335  1.00  0.00     0.012 A 
ATOM     65  C   UNL A   1      45.421  30.265  28.384  1.00  0.00     0.148 A 
ATOM     66  C   UNL A   1      47.987  30.371  27.250  1.00  0.00     0.002 A 
ATOM     67  C   UNL A   1      45.667  31.066  27.276  1.00  0.00     0.091 A 
ATOM     68  F   UNL A   1      44.204  30.190  28.946  1.00  0.00    -0.205 F 
ATOM     69  C   UNL A   1      46.951  31.130  26.712  1.00  0.00     0.022 A 
BRANCH  67  70
ATOM     70  S   UNL A   1      44.349  31.959  26.450  1.00  0.00     0.127 S 
ATOM     71  O   UNL A   1      43.940  32.917  27.475  1.00  0.00    -0.237 OA
ATOM     72  O   UNL A   1      45.042  32.547  25.303  1.00  0.00    -0.237 OA
ATOM     73  O   UNL A   1      43.350  30.960  26.092  1.00  0.00    -0.744 OA
ENDBRANCH  67  70
ENDBRANCH  40  63
ENDBRANCH  14  15
ENDBRANCH   7   9
ENDBRANCH   4   5
ENDBRANCH   3   4
ENDBRANCH   2   3
ENDBRANCH   1   2
BRANCH   1  74
ATOM     74  C   UNL A   1      34.133  27.106  25.842  1.00  0.00     0.021 C 
BRANCH  74  75
ATOM     75  C   UNL A   1      33.978  25.672  25.361  1.00  0.00     0.116 C 
BRANCH  75  76
ATOM     76  N   UNL A   1      33.976  25.571  23.912  1.00  0.00    -0.352 N 
ATOM     77  C   UNL A   1      33.993  24.461  23.112  1.00  0.00     0.251 C 
ATOM     78  H   UNL A   1      33.961  26.432  23.434  1.00  0.00     0.163 HD
ATOM     79  O   UNL A   1      34.061  24.584  21.892  1.00  0.00    -0.269 OA
BRANCH  77  80
ATOM     80  C   UNL A   1      33.995  23.104  23.701  1.00  0.00     0.048 A 
ATOM     81  C   UNL A   1      35.265  22.608  24.056  1.00  0.00     0.014 A 
ATOM     82  C   UNL A   1      32.836  22.318  23.870  1.00  0.00     0.019 A 
ATOM     83  C   UNL A   1      35.402  21.348  24.630  1.00  0.00     0.001 A 
ATOM     84  C   UNL A   1      33.011  21.077  24.503  1.00  0.00     0.010 A 
ATOM     85  C   UNL A   1      34.269  20.587  24.864  1.00  0.00     0.001 A 
BRANCH  82  86
ATOM     86  C   UNL A   1      31.452  22.800  23.460  1.00  0.00     0.300 C 
BRANCH  86  87
ATOM     87  N   UNL A   1      30.650  23.601  24.401  1.00  0.00    -0.329 N 
ATOM     88  C   UNL A   1      30.847  23.117  25.774  1.00  0.00     0.262 C 
ATOM     89  C   UNL A   1      30.669  25.075  24.264  1.00  0.00     0.186 C 
ATOM     90  H   UNL A   1      29.685  23.431  24.117  1.00  0.00     0.348 HD
ATOM     91  C   UNL A   1      29.864  23.740  26.759  1.00  0.00     0.062 C 
ATOM     92  C   UNL A   1      29.669  25.711  25.255  1.00  0.00     0.065 C 
ATOM     93  C   UNL A   1      29.928  25.254  26.687  1.00  0.00     0.012 C 
BRANCH  89  94
ATOM     94  C   UNL A   1      30.330  25.544  22.821  1.00  0.00     0.088 C 
BRANCH  94  95
ATOM     95  C   UNL A   1      31.161  26.725  22.308  1.00  0.00     0.150 C 
BRANCH  95  96
ATOM     96  N   UNL A   1      30.639  28.015  22.726  1.00  0.00    -0.273 N 
ATOM     97  C   UNL A   1      31.103  28.798  23.749  1.00  0.00     0.108 A 
ATOM     98  N   UNL A   1      29.560  28.540  22.111  1.00  0.00    -0.182 NA
ATOM     99  C   UNL A   1      30.268  29.891  23.803  1.00  0.00     0.042 A 
ATOM    100  C   UNL A   1      29.348  29.686  22.761  1.00  0.00     0.135 A 
ENDBRANCH  95  96
ENDBRANCH  94  95
ENDBRANCH  89  94
ENDBRANCH  86  87
ENDBRANCH  82  86
ENDBRANCH  77  80
ENDBRANCH  75  76
ENDBRANCH  74  75
ENDBRANCH   1  74
TORSDOF 21
ENDMDL
MODEL 2
REMARK VINA RESULT:     -11.3      3.021      8.194
REMARK SMILES O=C(NCCCCCCNC(=O)c1ccccc1C[N@H+]1CCCC[C@@H]1CCn1cccn1)c1ccc(-c2c3nc(c(-c4cccc(S(=O)(=O)[O-])c4F)c4ccc([nH]4)c(-c4cccc(S(=O)(=O)[O-])c4F)c4nc(c(-c5cccc(S(=O)(=O)[O-])c5F)c5ccc2[nH]5)C=C4)C=C3)cc1
REMARK SMILES IDX 7 1 6 2 5 3 4 4 3 5 1 6 2 7 33 9 34 10 95 11 35 12 94 13
REMARK SMILES IDX 36 14 37 15 38 16 88 17 39 18 93 19 87 20 89 21 40 22 92 23
REMARK SMILES IDX 86 24 85 25 41 27 73 28 53 29 72 30 54 31 57 32 71 33 90 34
REMARK SMILES IDX 55 35 56 36 70 38 91 39 58 40 42 41 43 42 51 43 44 44 46 45
REMARK SMILES IDX 52 46 45 47 47 48 48 49 49 50 50 51 74 52 75 53 83 54 76 55
REMARK SMILES IDX 78 56 84 57 77 58 79 59 80 60 81 61 82 62 59 63 60 64 68 65
REMARK SMILES IDX 61 66 63 67 69 68 62 69 64 70 65 71 66 72 67 73 8 74 9 75
REMARK SMILES IDX 10 76 11 77 12 79 13 80 14 81 18 82 15 83 17 84 16 85 19 86
REMARK SMILES IDX 20 87 21 88 25 89 22 91 24 92 23 93 26 94 27 95 28 96 29 97
REMARK SMILES IDX 32 98 30 99 31 100
REMARK H PARENT 3 8 89 26 57 37 10 78 20 90
REMARK Flexibility Score: inf
ROOT
ATOM      1  C   UNL A   1      36.372  24.084  25.671  1.00  0.00     0.002 C 
ENDROOT
BRANCH   1   2
ATOM      2  C   UNL A   1      37.680  23.772  26.406  1.00  0.00     0.002 C 
BRANCH   2   3
ATOM      3  C   UNL A   1      38.393  22.485  25.977  1.00  0.00     0.021 C 
BRANCH   3   4
ATOM      4  C   UNL A   1      39.681  22.184  26.745  1.00  0.00     0.116 C 
BRANCH   4   5
ATOM      5  N   UNL A   1      40.892  22.440  26.001  1.00  0.00    -0.352 N 
ATOM      6  O   UNL A   1      42.834  23.234  25.319  1.00  0.00    -0.269 OA
ATOM      7  C   UNL A   1      41.849  23.412  26.040  1.00  0.00     0.251 C 
ATOM      8  H   UNL A   1      41.067  21.760  25.310  1.00  0.00     0.163 HD
BRANCH   7   9
ATOM      9  C   UNL A   1      41.729  24.671  26.815  1.00  0.00     0.039 A 
ATOM     10  C   UNL A   1      40.890  25.743  26.495  1.00  0.00     0.014 A 
ATOM     11  C   UNL A   1      42.569  24.778  27.937  1.00  0.00     0.014 A 
ATOM     12  C   UNL A   1      40.971  26.935  27.194  1.00  0.00     0.010 A 
ATOM     13  C   UNL A   1      42.631  25.957  28.661  1.00  0.00     0.010 A 
ATOM     14  C   UNL A   1      41.864  27.047  28.254  1.00  0.00    -0.014 A 
BRANCH  14  15
ATOM     15  C   UNL A   1      41.861  28.285  29.020  1.00  0.00     0.031 A 
ATOM     16  C   UNL A   1      42.860  29.300  28.563  1.00  0.00     0.074 A 
ATOM     17  C   UNL A   1      40.900  28.524  29.935  1.00  0.00     0.049 A 
ATOM     18  N   UNL A   1      43.731  29.958  29.261  1.00  0.00    -0.248 NA
ATOM     19  C   UNL A   1      42.976  29.523  27.111  1.00  0.00     0.031 C 
ATOM     20  C   UNL A   1      39.730  27.687  30.225  1.00  0.00     0.029 A 
ATOM     21  N   UNL A   1      40.663  29.650  30.665  1.00  0.00    -0.354 N 
ATOM     22  C   UNL A   1      44.348  30.835  28.363  1.00  0.00     0.074 A 
ATOM     23  C   UNL A   1      43.972  30.403  27.046  1.00  0.00     0.031 C 
ATOM     24  C   UNL A   1      38.786  28.444  30.825  1.00  0.00     0.029 A 
ATOM     25  C   UNL A   1      39.333  29.767  31.063  1.00  0.00     0.049 A 
ATOM     26  H   UNL A   1      41.358  30.310  30.885  1.00  0.00     0.167 HD
ATOM     27  C   UNL A   1      44.922  32.001  28.770  1.00  0.00     0.034 A 
ATOM     28  C   UNL A   1      38.697  30.904  31.437  1.00  0.00     0.034 A 
ATOM     29  C   UNL A   1      45.255  31.969  30.167  1.00  0.00     0.049 A 
ATOM     30  C   UNL A   1      39.732  31.904  31.781  1.00  0.00     0.074 A 
ATOM     31  C   UNL A   1      46.073  31.193  30.963  1.00  0.00     0.029 A 
ATOM     32  N   UNL A   1      44.430  32.650  31.026  1.00  0.00    -0.354 N 
ATOM     33  N   UNL A   1      40.543  31.785  32.794  1.00  0.00    -0.248 NA
ATOM     34  C   UNL A   1      40.153  32.830  30.742  1.00  0.00     0.031 C 
ATOM     35  C   UNL A   1      45.372  31.078  32.199  1.00  0.00     0.029 A 
ATOM     36  C   UNL A   1      44.199  31.829  32.095  1.00  0.00     0.049 A 
ATOM     37  H   UNL A   1      44.071  33.558  30.897  1.00  0.00     0.167 HD
ATOM     38  C   UNL A   1      41.759  32.258  32.319  1.00  0.00     0.074 A 
ATOM     39  C   UNL A   1      41.432  32.985  31.094  1.00  0.00     0.031 C 
ATOM     40  C   UNL A   1      42.940  31.772  32.802  1.00  0.00     0.034 A 
BRANCH  27  41
ATOM     41  C   UNL A   1      44.829  33.311  28.009  1.00  0.00     0.023 A 
ATOM     42  C   UNL A   1      46.021  33.805  27.428  1.00  0.00     0.012 A 
ATOM     43  C   UNL A   1      43.746  34.217  28.099  1.00  0.00     0.148 A 
ATOM     44  C   UNL A   1      46.156  35.144  27.043  1.00  0.00     0.002 A 
ATOM     45  C   UNL A   1      43.863  35.529  27.652  1.00  0.00     0.091 A 
ATOM     46  F   UNL A   1      42.624  33.868  28.733  1.00  0.00    -0.205 F 
ATOM     47  C   UNL A   1      45.076  36.008  27.158  1.00  0.00     0.022 A 
BRANCH  45  48
ATOM     48  S   UNL A   1      42.477  36.672  27.746  1.00  0.00     0.127 S 
ATOM     49  O   UNL A   1      42.335  36.829  29.196  1.00  0.00    -0.237 OA
ATOM     50  O   UNL A   1      43.012  37.846  27.050  1.00  0.00    -0.237 OA
ATOM     51  O   UNL A   1      41.382  36.019  27.056  1.00  0.00    -0.744 OA
ENDBRANCH  45  48
ENDBRANCH  27  41
BRANCH  28  52
ATOM     52  C   UNL A   1      37.284  31.283  31.200  1.00  0.00     0.023 A 
ATOM     53  C   UNL A   1      36.472  31.678  32.281  1.00  0.00     0.012 A 
ATOM     54  C   UNL A   1      36.801  31.502  29.890  1.00  0.00     0.148 A 
ATOM     55  C   UNL A   1      35.227  32.282  32.064  1.00  0.00     0.002 A 
ATOM     56  C   UNL A   1      35.557  32.086  29.678  1.00  0.00     0.091 A 
ATOM     57  F   UNL A   1      37.601  31.225  28.852  1.00  0.00    -0.205 F 
ATOM     58  C   UNL A   1      34.771  32.489  30.764  1.00  0.00     0.022 A 
BRANCH  56  59
ATOM     59  S   UNL A   1      34.910  32.387  28.027  1.00  0.00     0.127 S 
ATOM     60  O   UNL A   1      33.592  32.953  28.319  1.00  0.00    -0.237 OA
ATOM     61  O   UNL A   1      35.879  33.339  27.491  1.00  0.00    -0.237 OA
ATOM     62  O   UNL A   1      34.870  31.086  27.373  1.00  0.00    -0.744 OA
ENDBRANCH  56  59
ENDBRANCH  28  52
BRANCH  40  63
ATOM     63  C   UNL A   1      42.901  30.869  34.008  1.00  0.00     0.023 A 
ATOM     64  C   UNL A   1      42.979  31.377  35.323  1.00  0.00     0.012 A 
ATOM     65  C   UNL A   1      42.579  29.516  33.820  1.00  0.00     0.148 A 
ATOM     66  C   UNL A   1      42.760  30.547  36.426  1.00  0.00     0.002 A 
ATOM     67  C   UNL A   1      42.314  28.706  34.917  1.00  0.00     0.091 A 
ATOM     68  F   UNL A   1      42.496  29.054  32.563  1.00  0.00    -0.205 F 
ATOM     69  C   UNL A   1      42.413  29.213  36.222  1.00  0.00     0.022 A 
BRANCH  67  70
ATOM     70  S   UNL A   1      41.728  27.022  34.720  1.00  0.00     0.127 S 
ATOM     71  O   UNL A   1      41.330  26.676  36.083  1.00  0.00    -0.237 OA
ATOM     72  O   UNL A   1      40.618  27.186  33.780  1.00  0.00    -0.237 OA
ATOM     73  O   UNL A   1      42.853  26.264  34.185  1.00  0.00    -0.744 OA
ENDBRANCH  67  70
ENDBRANCH  40  63
ENDBRANCH  14  15
ENDBRANCH   7   9
ENDBRANCH   4   5
ENDBRANCH   3   4
ENDBRANCH   2   3
ENDBRANCH   1   2
BRANCH   1  74
ATOM     74  C   UNL A   1      36.184  23.395  24.315  1.00  0.00     0.021 C 
BRANCH  74  75
ATOM     75  C   UNL A   1      35.061  23.967  23.465  1.00  0.00     0.116 C 
BRANCH  75  76
ATOM     76  N   UNL A   1      34.128  22.947  23.021  1.00  0.00    -0.352 N 
ATOM     77  C   UNL A   1      33.264  22.174  23.750  1.00  0.00     0.251 C 
ATOM     78  H   UNL A   1      34.115  22.788  22.050  1.00  0.00     0.163 HD
ATOM     79  O   UNL A   1      32.598  21.305  23.193  1.00  0.00    -0.269 OA
BRANCH  77  80
ATOM     80  C   UNL A   1      33.167  22.328  25.218  1.00  0.00     0.048 A 
ATOM     81  C   UNL A   1      33.822  21.331  25.968  1.00  0.00     0.014 A 
ATOM     82  C   UNL A   1      32.444  23.357  25.855  1.00  0.00     0.019 A 
ATOM     83  C   UNL A   1      33.814  21.366  27.359  1.00  0.00     0.001 A 
ATOM     84  C   UNL A   1      32.508  23.388  27.258  1.00  0.00     0.010 A 
ATOM     85  C   UNL A   1      33.165  22.405  28.003  1.00  0.00     0.001 A 
BRANCH  82  86
ATOM     86  C   UNL A   1      31.687  24.427  25.082  1.00  0.00     0.300 C 
BRANCH  86  87
ATOM     87  N   UNL A   1      32.134  25.830  25.150  1.00  0.00    -0.329 N 
ATOM     88  C   UNL A   1      33.349  25.934  25.969  1.00  0.00     0.262 C 
ATOM     89  C   UNL A   1      32.170  26.617  23.898  1.00  0.00     0.186 C 
ATOM     90  H   UNL A   1      31.368  26.315  25.617  1.00  0.00     0.348 HD
ATOM     91  C   UNL A   1      33.722  27.379  26.279  1.00  0.00     0.062 C 
ATOM     92  C   UNL A   1      32.540  28.086  24.208  1.00  0.00     0.065 C 
ATOM     93  C   UNL A   1      33.840  28.184  24.997  1.00  0.00     0.012 C 
BRANCH  89  94
ATOM     94  C   UNL A   1      30.820  26.580  23.129  1.00  0.00     0.088 C 
BRANCH  94  95
ATOM     95  C   UNL A   1      30.594  27.737  22.150  1.00  0.00     0.150 C 
BRANCH  95  96
ATOM     96  N   UNL A   1      29.372  28.479  22.415  1.00  0.00    -0.273 N 
ATOM     97  C   UNL A   1      28.318  28.078  23.190  1.00  0.00     0.108 A 
ATOM     98  N   UNL A   1      29.172  29.680  21.836  1.00  0.00    -0.182 NA
ATOM     99  C   UNL A   1      27.376  29.076  23.102  1.00  0.00     0.042 A 
ATOM    100  C   UNL A   1      27.963  30.044  22.268  1.00  0.00     0.135 A 
ENDBRANCH  95  96
ENDBRANCH  94  95
ENDBRANCH  89  94
ENDBRANCH  86  87
ENDBRANCH  82  86
ENDBRANCH  77  80
ENDBRANCH  75  76
ENDBRANCH  74  75
ENDBRANCH   1  74
TORSDOF 21
ENDMDL
MODEL 3
REMARK VINA RESULT:     -11.3      2.446      4.412
REMARK SMILES O=C(NCCCCCCNC(=O)c1ccccc1C[N@H+]1CCCC[C@@H]1CCn1cccn1)c1ccc(-c2c3nc(c(-c4cccc(S(=O)(=O)[O-])c4F)c4ccc([nH]4)c(-c4cccc(S(=O)(=O)[O-])c4F)c4nc(c(-c5cccc(S(=O)(=O)[O-])c5F)c5ccc2[nH]5)C=C4)C=C3)cc1
REMARK SMILES IDX 7 1 6 2 5 3 4 4 3 5 1 6 2 7 33 9 34 10 95 11 35 12 94 13
REMARK SMILES IDX 36 14 37 15 38 16 88 17 39 18 93 19 87 20 89 21 40 22 92 23
REMARK SMILES IDX 86 24 85 25 41 27 73 28 53 29 72 30 54 31 57 32 71 33 90 34
REMARK SMILES IDX 55 35 56 36 70 38 91 39 58 40 42 41 43 42 51 43 44 44 46 45
REMARK SMILES IDX 52 46 45 47 47 48 48 49 49 50 50 51 74 52 75 53 83 54 76 55
REMARK SMILES IDX 78 56 84 57 77 58 79 59 80 60 81 61 82 62 59 63 60 64 68 65
REMARK SMILES IDX 61 66 63 67 69 68 62 69 64 70 65 71 66 72 67 73 8 74 9 75
REMARK SMILES IDX 10 76 11 77 12 79 13 80 14 81 18 82 15 83 17 84 16 85 19 86
REMARK SMILES IDX 20 87 21 88 25 89 22 91 24 92 23 93 26 94 27 95 28 96 29 97
REMARK SMILES IDX 32 98 30 99 31 100
REMARK H PARENT 3 8 89 26 57 37 10 78 20 90
REMARK Flexibility Score: inf
ROOT
ATOM      1  C   UNL A   1      33.813  29.466  27.243  1.00  0.00     0.002 C 
ENDROOT
BRANCH   1   2
ATOM      2  C   UNL A   1      33.003  30.767  27.200  1.00  0.00     0.002 C 
BRANCH   2   3
ATOM      3  C   UNL A   1      33.768  32.038  27.586  1.00  0.00     0.021 C 
BRANCH   3   4
ATOM      4  C   UNL A   1      35.172  31.793  28.139  1.00  0.00     0.116 C 
BRANCH   4   5
ATOM      5  N   UNL A   1      35.343  32.173  29.523  1.00  0.00    -0.352 N 
ATOM      6  O   UNL A   1      36.169  32.535  31.536  1.00  0.00    -0.269 OA
ATOM      7  C   UNL A   1      36.294  31.927  30.470  1.00  0.00     0.251 C 
ATOM      8  H   UNL A   1      34.608  32.735  29.858  1.00  0.00     0.163 HD
BRANCH   7   9
ATOM      9  C   UNL A   1      37.386  30.934  30.318  1.00  0.00     0.039 A 
ATOM     10  C   UNL A   1      37.255  29.553  30.492  1.00  0.00     0.014 A 
ATOM     11  C   UNL A   1      38.651  31.463  30.012  1.00  0.00     0.014 A 
ATOM     12  C   UNL A   1      38.370  28.732  30.484  1.00  0.00     0.010 A 
ATOM     13  C   UNL A   1      39.767  30.643  29.970  1.00  0.00     0.010 A 
ATOM     14  C   UNL A   1      39.625  29.287  30.254  1.00  0.00    -0.014 A 
BRANCH  14  15
ATOM     15  C   UNL A   1      40.763  28.383  30.167  1.00  0.00     0.031 A 
ATOM     16  C   UNL A   1      41.556  28.259  31.431  1.00  0.00     0.074 A 
ATOM     17  C   UNL A   1      40.942  27.607  29.080  1.00  0.00     0.049 A 
ATOM     18  N   UNL A   1      42.835  28.365  31.604  1.00  0.00    -0.248 NA
ATOM     19  C   UNL A   1      40.799  28.111  32.687  1.00  0.00     0.031 C 
ATOM     20  C   UNL A   1      40.040  27.478  27.930  1.00  0.00     0.029 A 
ATOM     21  N   UNL A   1      41.868  26.632  28.858  1.00  0.00    -0.354 N 
ATOM     22  C   UNL A   1      43.057  28.076  32.954  1.00  0.00     0.074 A 
ATOM     23  C   UNL A   1      41.772  28.103  33.595  1.00  0.00     0.031 C 
ATOM     24  C   UNL A   1      40.295  26.310  27.301  1.00  0.00     0.029 A 
ATOM     25  C   UNL A   1      41.444  25.684  27.929  1.00  0.00     0.049 A 
ATOM     26  H   UNL A   1      42.743  26.601  29.307  1.00  0.00     0.167 HD
ATOM     27  C   UNL A   1      44.248  27.593  33.404  1.00  0.00     0.034 A 
ATOM     28  C   UNL A   1      41.923  24.425  27.781  1.00  0.00     0.034 A 
ATOM     29  C   UNL A   1      45.319  27.890  32.494  1.00  0.00     0.049 A 
ATOM     30  C   UNL A   1      43.244  24.367  28.445  1.00  0.00     0.074 A 
ATOM     31  C   UNL A   1      45.885  29.042  31.987  1.00  0.00     0.029 A 
ATOM     32  N   UNL A   1      45.768  26.868  31.696  1.00  0.00    -0.354 N 
ATOM     33  N   UNL A   1      44.288  25.029  28.033  1.00  0.00    -0.248 NA
ATOM     34  C   UNL A   1      43.292  23.908  29.823  1.00  0.00     0.031 C 
ATOM     35  C   UNL A   1      46.231  28.715  30.644  1.00  0.00     0.029 A 
ATOM     36  C   UNL A   1      45.901  27.375  30.433  1.00  0.00     0.049 A 
ATOM     37  H   UNL A   1      45.957  25.944  31.979  1.00  0.00     0.167 HD
ATOM     38  C   UNL A   1      44.908  25.455  29.201  1.00  0.00     0.074 A 
ATOM     39  C   UNL A   1      44.313  24.646  30.264  1.00  0.00     0.031 C 
ATOM     40  C   UNL A   1      45.625  26.616  29.234  1.00  0.00     0.034 A 
BRANCH  27  41
ATOM     41  C   UNL A   1      44.388  26.517  34.466  1.00  0.00     0.023 A 
ATOM     42  C   UNL A   1      43.761  25.274  34.210  1.00  0.00     0.012 A 
ATOM     43  C   UNL A   1      44.816  26.750  35.794  1.00  0.00     0.148 A 
ATOM     44  C   UNL A   1      43.493  24.358  35.234  1.00  0.00     0.002 A 
ATOM     45  C   UNL A   1      44.609  25.805  36.795  1.00  0.00     0.091 A 
ATOM     46  F   UNL A   1      45.316  27.937  36.145  1.00  0.00    -0.205 F 
ATOM     47  C   UNL A   1      43.915  24.626  36.529  1.00  0.00     0.022 A 
BRANCH  45  48
ATOM     48  S   UNL A   1      45.174  26.094  38.478  1.00  0.00     0.127 S 
ATOM     49  O   UNL A   1      46.627  26.119  38.290  1.00  0.00    -0.237 OA
ATOM     50  O   UNL A   1      44.571  27.396  38.775  1.00  0.00    -0.237 OA
ATOM     51  O   UNL A   1      44.643  24.999  39.264  1.00  0.00    -0.744 OA
ENDBRANCH  45  48
ENDBRANCH  27  41
BRANCH  28  52
ATOM     52  C   UNL A   1      41.179  23.201  27.399  1.00  0.00     0.023 A 
ATOM     53  C   UNL A   1      39.815  23.284  27.061  1.00  0.00     0.012 A 
ATOM     54  C   UNL A   1      41.862  21.994  27.121  1.00  0.00     0.148 A 
ATOM     55  C   UNL A   1      39.156  22.207  26.454  1.00  0.00     0.002 A 
ATOM     56  C   UNL A   1      41.200  20.921  26.536  1.00  0.00     0.091 A 
ATOM     57  F   UNL A   1      43.180  21.932  27.345  1.00  0.00    -0.205 F 
ATOM     58  C   UNL A   1      39.848  21.028  26.189  1.00  0.00     0.022 A 
BRANCH  56  59
ATOM     59  S   UNL A   1      42.034  19.372  26.162  1.00  0.00     0.127 S 
ATOM     60  O   UNL A   1      40.929  18.547  25.669  1.00  0.00    -0.237 OA
ATOM     61  O   UNL A   1      42.992  19.783  25.141  1.00  0.00    -0.237 OA
ATOM     62  O   UNL A   1      42.604  18.914  27.422  1.00  0.00    -0.744 OA
ENDBRANCH  56  59
ENDBRANCH  28  52
BRANCH  40  63
ATOM     63  C   UNL A   1      45.911  27.316  27.930  1.00  0.00     0.023 A 
ATOM     64  C   UNL A   1      45.313  28.550  27.598  1.00  0.00     0.012 A 
ATOM     65  C   UNL A   1      46.949  26.825  27.123  1.00  0.00     0.148 A 
ATOM     66  C   UNL A   1      45.727  29.268  26.473  1.00  0.00     0.002 A 
ATOM     67  C   UNL A   1      47.391  27.564  26.033  1.00  0.00     0.091 A 
ATOM     68  F   UNL A   1      47.516  25.657  27.462  1.00  0.00    -0.205 F 
ATOM     69  C   UNL A   1      46.777  28.781  25.697  1.00  0.00     0.022 A 
BRANCH  67  70
ATOM     70  S   UNL A   1      48.826  27.064  25.079  1.00  0.00     0.127 S 
ATOM     71  O   UNL A   1      48.926  28.138  24.093  1.00  0.00    -0.237 OA
ATOM     72  O   UNL A   1      49.885  27.059  26.089  1.00  0.00    -0.237 OA
ATOM     73  O   UNL A   1      48.512  25.746  24.540  1.00  0.00    -0.744 OA
ENDBRANCH  67  70
ENDBRANCH  40  63
ENDBRANCH  14  15
ENDBRANCH   7   9
ENDBRANCH   4   5
ENDBRANCH   3   4
ENDBRANCH   2   3
ENDBRANCH   1   2
BRANCH   1  74
ATOM     74  C   UNL A   1      33.769  28.607  25.975  1.00  0.00     0.021 C 
BRANCH  74  75
ATOM     75  C   UNL A   1      33.641  27.113  26.228  1.00  0.00     0.116 C 
BRANCH  75  76
ATOM     76  N   UNL A   1      32.305  26.737  26.654  1.00  0.00    -0.352 N 
ATOM     77  C   UNL A   1      31.238  26.306  25.913  1.00  0.00     0.251 C 
ATOM     78  H   UNL A   1      32.143  26.802  27.623  1.00  0.00     0.163 HD
ATOM     79  O   UNL A   1      30.155  26.102  26.456  1.00  0.00    -0.269 OA
BRANCH  77  80
ATOM     80  C   UNL A   1      31.353  26.142  24.447  1.00  0.00     0.048 A 
ATOM     81  C   UNL A   1      31.001  27.277  23.690  1.00  0.00     0.014 A 
ATOM     82  C   UNL A   1      31.740  24.941  23.818  1.00  0.00     0.019 A 
ATOM     83  C   UNL A   1      31.075  27.256  22.300  1.00  0.00     0.001 A 
ATOM     84  C   UNL A   1      31.856  24.979  22.418  1.00  0.00     0.010 A 
ATOM     85  C   UNL A   1      31.516  26.106  21.666  1.00  0.00     0.001 A 
BRANCH  82  86
ATOM     86  C   UNL A   1      32.086  23.681  24.598  1.00  0.00     0.300 C 
BRANCH  86  87
ATOM     87  N   UNL A   1      33.375  23.007  24.360  1.00  0.00    -0.329 N 
ATOM     88  C   UNL A   1      34.465  23.991  24.344  1.00  0.00     0.262 C 
ATOM     89  C   UNL A   1      33.675  21.774  25.121  1.00  0.00     0.186 C 
ATOM     90  H   UNL A   1      33.276  22.596  23.431  1.00  0.00     0.348 HD
ATOM     91  C   UNL A   1      35.783  23.395  23.863  1.00  0.00     0.062 C 
ATOM     92  C   UNL A   1      35.007  21.161  24.631  1.00  0.00     0.065 C 
ATOM     93  C   UNL A   1      36.145  22.173  24.686  1.00  0.00     0.012 C 
BRANCH  89  94
ATOM     94  C   UNL A   1      32.547  20.710  25.004  1.00  0.00     0.088 C 
BRANCH  94  95
ATOM     95  C   UNL A   1      32.761  19.651  23.918  1.00  0.00     0.150 C 
BRANCH  95  96
ATOM     96  N   UNL A   1      33.067  18.335  24.456  1.00  0.00    -0.273 N 
ATOM     97  C   UNL A   1      34.234  17.636  24.303  1.00  0.00     0.108 A 
ATOM     98  N   UNL A   1      32.136  17.658  25.157  1.00  0.00    -0.182 NA
ATOM     99  C   UNL A   1      34.043  16.429  24.937  1.00  0.00     0.042 A 
ATOM    100  C   UNL A   1      32.739  16.507  25.458  1.00  0.00     0.135 A 
ENDBRANCH  95  96
ENDBRANCH  94  95
ENDBRANCH  89  94
ENDBRANCH  86  87
ENDBRANCH  82  86
ENDBRANCH  77  80
ENDBRANCH  75  76
ENDBRANCH  74  75
ENDBRANCH   1  74
TORSDOF 21
ENDMDL
