MODEL 1
REMARK VINA RESULT:     -12.0      0.000      0.000
REMARK SMILES O=C(NCCCCCCNC(=O)c1ccc(C[N@H+]2CC[N@H+]3CCCC[C@@H]3C2)c(F)c1)c1ccc(-c2c3nc(c(-c4cccc(S(=O)(=O)[O-])c4F)c4ccc([nH]4)c(-c4cccc(S(=O)(=O)[O-])c4F)c4nc(c(-c5cccc(S(=O)(=O)[O-])c5F)c5ccc2[nH]5)C=C4)C=C3)cc1
REMARK SMILES IDX 6 1 5 2 4 3 3 4 1 5 2 6 31 8 32 9 93 10 33 11 92 12 34 13
REMARK SMILES IDX 35 14 36 15 86 16 37 17 91 18 85 19 87 20 38 21 90 22 84 23
REMARK SMILES IDX 83 24 39 26 71 27 51 28 70 29 52 30 55 31 69 32 88 33 53 34
REMARK SMILES IDX 54 35 68 37 89 38 56 39 40 40 41 41 49 42 42 43 44 44 50 45
REMARK SMILES IDX 43 46 45 47 46 48 47 49 48 50 72 51 73 52 81 53 74 54 76 55
REMARK SMILES IDX 82 56 75 57 77 58 78 59 79 60 80 61 57 62 58 63 66 64 59 65
REMARK SMILES IDX 61 66 67 67 60 68 62 69 63 70 64 71 65 72 7 73 8 74 9 75
REMARK SMILES IDX 10 76 11 77 12 79 13 80 14 81 30 82 15 83 28 84 16 85 29 86
REMARK SMILES IDX 17 87 18 88 19 89 27 90 20 92 26 93 21 94 25 95 22 96 24 98
REMARK SMILES IDX 23 99
REMARK H PARENT 3 7 87 25 55 36 10 78 18 91 21 97
REMARK Flexibility Score: inf
ROOT
ATOM      1  C   UNL A   1      36.813  20.343  24.833  1.00  0.00     0.002 C 
ENDROOT
BRANCH   1   2
ATOM      2  C   UNL A   1      38.145  19.591  24.905  1.00  0.00     0.021 C 
BRANCH   2   3
ATOM      3  C   UNL A   1      39.047  19.971  26.078  1.00  0.00     0.116 C 
BRANCH   3   4
ATOM      4  N   UNL A   1      40.282  19.206  26.088  1.00  0.00    -0.352 N 
ATOM      5  O   UNL A   1      42.492  18.840  25.908  1.00  0.00    -0.269 OA
ATOM      6  C   UNL A   1      41.587  19.638  26.135  1.00  0.00     0.251 C 
ATOM      7  H   UNL A   1      40.168  18.229  26.055  1.00  0.00     0.163 HD
BRANCH   6   8
ATOM      8  C   UNL A   1      41.904  21.051  26.446  1.00  0.00     0.039 A 
ATOM      9  C   UNL A   1      42.188  21.456  27.753  1.00  0.00     0.014 A 
ATOM     10  C   UNL A   1      41.977  21.978  25.402  1.00  0.00     0.014 A 
ATOM     11  C   UNL A   1      42.433  22.800  28.030  1.00  0.00     0.010 A 
ATOM     12  C   UNL A   1      42.293  23.315  25.671  1.00  0.00     0.010 A 
ATOM     13  C   UNL A   1      42.506  23.742  26.990  1.00  0.00    -0.014 A 
BRANCH  13  14
ATOM     14  C   UNL A   1      42.895  25.146  27.288  1.00  0.00     0.031 A 
ATOM     15  C   UNL A   1      44.243  25.683  26.890  1.00  0.00     0.074 A 
ATOM     16  C   UNL A   1      42.016  25.938  27.936  1.00  0.00     0.049 A 
ATOM     17  N   UNL A   1      44.744  26.874  27.095  1.00  0.00    -0.248 NA
ATOM     18  C   UNL A   1      45.147  24.772  26.169  1.00  0.00     0.031 C 
ATOM     19  C   UNL A   1      40.688  25.523  28.392  1.00  0.00     0.029 A 
ATOM     20  N   UNL A   1      42.104  27.250  28.327  1.00  0.00    -0.354 N 
ATOM     21  C   UNL A   1      46.024  26.853  26.554  1.00  0.00     0.074 A 
ATOM     22  C   UNL A   1      46.231  25.524  26.020  1.00  0.00     0.031 C 
ATOM     23  C   UNL A   1      40.076  26.562  28.978  1.00  0.00     0.029 A 
ATOM     24  C   UNL A   1      40.987  27.701  28.993  1.00  0.00     0.049 A 
ATOM     25  H   UNL A   1      42.890  27.815  28.149  1.00  0.00     0.167 HD
ATOM     26  C   UNL A   1      46.934  27.855  26.493  1.00  0.00     0.034 A 
ATOM     27  C   UNL A   1      40.727  28.892  29.568  1.00  0.00     0.034 A 
ATOM     28  C   UNL A   1      46.711  29.183  27.004  1.00  0.00     0.049 A 
ATOM     29  C   UNL A   1      41.766  29.975  29.499  1.00  0.00     0.074 A 
ATOM     30  C   UNL A   1      47.566  30.271  26.962  1.00  0.00     0.029 A 
ATOM     31  N   UNL A   1      45.559  29.607  27.648  1.00  0.00    -0.354 N 
ATOM     32  N   UNL A   1      42.934  29.960  28.902  1.00  0.00    -0.248 NA
ATOM     33  C   UNL A   1      41.445  31.248  30.159  1.00  0.00     0.031 C 
ATOM     34  C   UNL A   1      46.940  31.347  27.596  1.00  0.00     0.029 A 
ATOM     35  C   UNL A   1      45.682  30.938  28.008  1.00  0.00     0.049 A 
ATOM     36  H   UNL A   1      44.770  29.045  27.822  1.00  0.00     0.167 HD
ATOM     37  C   UNL A   1      43.471  31.228  29.088  1.00  0.00     0.074 A 
ATOM     38  C   UNL A   1      42.491  31.993  29.831  1.00  0.00     0.031 C 
ATOM     39  C   UNL A   1      44.676  31.707  28.696  1.00  0.00     0.034 A 
BRANCH  26  40
ATOM     40  C   UNL A   1      48.246  27.593  25.799  1.00  0.00     0.023 A 
ATOM     41  C   UNL A   1      49.339  27.120  26.554  1.00  0.00     0.012 A 
ATOM     42  C   UNL A   1      48.358  27.677  24.397  1.00  0.00     0.148 A 
ATOM     43  C   UNL A   1      50.526  26.744  25.925  1.00  0.00     0.002 A 
ATOM     44  C   UNL A   1      49.531  27.261  23.774  1.00  0.00     0.091 A 
ATOM     45  F   UNL A   1      47.311  28.139  23.700  1.00  0.00    -0.205 F 
ATOM     46  C   UNL A   1      50.616  26.802  24.538  1.00  0.00     0.022 A 
BRANCH  44  47
ATOM     47  S   UNL A   1      49.725  27.217  21.988  1.00  0.00     0.127 S 
ATOM     48  O   UNL A   1      48.673  26.279  21.600  1.00  0.00    -0.237 OA
ATOM     49  O   UNL A   1      49.468  28.609  21.619  1.00  0.00    -0.237 OA
ATOM     50  O   UNL A   1      51.085  26.758  21.741  1.00  0.00    -0.744 OA
ENDBRANCH  44  47
ENDBRANCH  26  40
BRANCH  27  51
ATOM     51  C   UNL A   1      39.406  29.135  30.214  1.00  0.00     0.023 A 
ATOM     52  C   UNL A   1      39.142  28.568  31.476  1.00  0.00     0.012 A 
ATOM     53  C   UNL A   1      38.428  29.948  29.610  1.00  0.00     0.148 A 
ATOM     54  C   UNL A   1      37.919  28.782  32.111  1.00  0.00     0.002 A 
ATOM     55  C   UNL A   1      37.236  30.209  30.276  1.00  0.00     0.091 A 
ATOM     56  F   UNL A   1      38.689  30.465  28.401  1.00  0.00    -0.205 F 
ATOM     57  C   UNL A   1      36.972  29.613  31.519  1.00  0.00     0.022 A 
BRANCH  55  58
ATOM     58  S   UNL A   1      36.025  31.380  29.654  1.00  0.00     0.127 S 
ATOM     59  O   UNL A   1      35.410  30.625  28.565  1.00  0.00    -0.237 OA
ATOM     60  O   UNL A   1      35.169  31.583  30.824  1.00  0.00    -0.237 OA
ATOM     61  O   UNL A   1      36.786  32.558  29.260  1.00  0.00    -0.744 OA
ENDBRANCH  55  58
ENDBRANCH  27  51
BRANCH  39  62
ATOM     62  C   UNL A   1      45.003  33.141  29.026  1.00  0.00     0.023 A 
ATOM     63  C   UNL A   1      45.791  33.435  30.156  1.00  0.00     0.012 A 
ATOM     64  C   UNL A   1      44.608  34.185  28.167  1.00  0.00     0.148 A 
ATOM     65  C   UNL A   1      46.156  34.750  30.443  1.00  0.00     0.002 A 
ATOM     66  C   UNL A   1      45.019  35.486  28.430  1.00  0.00     0.091 A 
ATOM     67  F   UNL A   1      43.844  33.886  27.106  1.00  0.00    -0.205 F 
ATOM     68  C   UNL A   1      45.782  35.771  29.574  1.00  0.00     0.022 A 
BRANCH  66  69
ATOM     69  S   UNL A   1      44.674  36.850  27.313  1.00  0.00     0.127 S 
ATOM     70  O   UNL A   1      45.168  37.994  28.077  1.00  0.00    -0.237 OA
ATOM     71  O   UNL A   1      45.482  36.503  26.142  1.00  0.00    -0.237 OA
ATOM     72  O   UNL A   1      43.235  36.826  27.082  1.00  0.00    -0.744 OA
ENDBRANCH  66  69
ENDBRANCH  39  62
ENDBRANCH  13  14
ENDBRANCH   6   8
ENDBRANCH   3   4
ENDBRANCH   2   3
ENDBRANCH   1   2
BRANCH   1  73
ATOM     73  C   UNL A   1      36.707  21.611  25.687  1.00  0.00     0.002 C 
BRANCH  73  74
ATOM     74  C   UNL A   1      35.300  22.206  25.834  1.00  0.00     0.021 C 
BRANCH  74  75
ATOM     75  C   UNL A   1      34.420  21.547  26.900  1.00  0.00     0.116 C 
BRANCH  75  76
ATOM     76  N   UNL A   1      33.762  20.350  26.401  1.00  0.00    -0.352 N 
ATOM     77  C   UNL A   1      32.663  20.240  25.585  1.00  0.00     0.251 C 
ATOM     78  H   UNL A   1      34.161  19.497  26.691  1.00  0.00     0.163 HD
ATOM     79  O   UNL A   1      32.149  19.150  25.361  1.00  0.00    -0.269 OA
BRANCH  77  80
ATOM     80  C   UNL A   1      32.078  21.449  24.975  1.00  0.00     0.042 A 
ATOM     81  C   UNL A   1      32.283  21.730  23.621  1.00  0.00     0.014 A 
ATOM     82  C   UNL A   1      31.284  22.285  25.758  1.00  0.00     0.053 A 
ATOM     83  C   UNL A   1      31.749  22.900  23.070  1.00  0.00     0.013 A 
ATOM     84  C   UNL A   1      30.786  23.461  25.204  1.00  0.00     0.132 A 
ATOM     85  C   UNL A   1      31.052  23.819  23.877  1.00  0.00     0.042 A 
ATOM     86  F   UNL A   1      30.070  24.283  25.984  1.00  0.00    -0.206 F 
BRANCH  85  87
ATOM     87  C   UNL A   1      30.634  25.171  23.342  1.00  0.00     0.302 C 
BRANCH  87  88
ATOM     88  N   UNL A   1      31.680  26.143  22.987  1.00  0.00    -0.322 N 
ATOM     89  C   UNL A   1      31.225  27.397  22.369  1.00  0.00     0.324 C 
ATOM     90  C   UNL A   1      32.693  26.419  24.015  1.00  0.00     0.328 C 
ATOM     91  H   UNL A   1      32.146  25.608  22.255  1.00  0.00     0.348 HD
ATOM     92  C   UNL A   1      30.922  28.574  23.333  1.00  0.00     0.324 C 
ATOM     93  C   UNL A   1      32.277  27.507  25.034  1.00  0.00     0.239 C 
ATOM     94  N   UNL A   1      31.932  28.791  24.393  1.00  0.00    -0.323 N 
ATOM     95  C   UNL A   1      33.352  27.699  26.109  1.00  0.00     0.071 C 
ATOM     96  C   UNL A   1      31.418  29.749  25.385  1.00  0.00     0.262 C 
ATOM     97  H   UNL A   1      32.779  29.179  23.976  1.00  0.00     0.348 HD
ATOM     98  C   UNL A   1      32.810  28.621  27.195  1.00  0.00     0.012 C 
ATOM     99  C   UNL A   1      32.359  29.942  26.580  1.00  0.00     0.062 C 
ENDBRANCH  87  88
ENDBRANCH  85  87
ENDBRANCH  77  80
ENDBRANCH  75  76
ENDBRANCH  74  75
ENDBRANCH  73  74
ENDBRANCH   1  73
TORSDOF 18
ENDMDL
MODEL 2
REMARK VINA RESULT:     -11.9      5.454     11.327
REMARK SMILES O=C(NCCCCCCNC(=O)c1ccc(C[N@H+]2CC[N@H+]3CCCC[C@@H]3C2)c(F)c1)c1ccc(-c2c3nc(c(-c4cccc(S(=O)(=O)[O-])c4F)c4ccc([nH]4)c(-c4cccc(S(=O)(=O)[O-])c4F)c4nc(c(-c5cccc(S(=O)(=O)[O-])c5F)c5ccc2[nH]5)C=C4)C=C3)cc1
REMARK SMILES IDX 6 1 5 2 4 3 3 4 1 5 2 6 31 8 32 9 93 10 33 11 92 12 34 13
REMARK SMILES IDX 35 14 36 15 86 16 37 17 91 18 85 19 87 20 38 21 90 22 84 23
REMARK SMILES IDX 83 24 39 26 71 27 51 28 70 29 52 30 55 31 69 32 88 33 53 34
REMARK SMILES IDX 54 35 68 37 89 38 56 39 40 40 41 41 49 42 42 43 44 44 50 45
REMARK SMILES IDX 43 46 45 47 46 48 47 49 48 50 72 51 73 52 81 53 74 54 76 55
REMARK SMILES IDX 82 56 75 57 77 58 78 59 79 60 80 61 57 62 58 63 66 64 59 65
REMARK SMILES IDX 61 66 67 67 60 68 62 69 63 70 64 71 65 72 7 73 8 74 9 75
REMARK SMILES IDX 10 76 11 77 12 79 13 80 14 81 30 82 15 83 28 84 16 85 29 86
REMARK SMILES IDX 17 87 18 88 19 89 27 90 20 92 26 93 21 94 25 95 22 96 24 98
REMARK SMILES IDX 23 99
REMARK H PARENT 3 7 87 25 55 36 10 78 18 91 21 97
REMARK Flexibility Score: inf
ROOT
ATOM      1  C   UNL A   1      33.804  29.996  27.452  1.00  0.00     0.002 C 
ENDROOT
BRANCH   1   2
ATOM      2  C   UNL A   1      33.215  31.145  26.628  1.00  0.00     0.021 C 
BRANCH   2   3
ATOM      3  C   UNL A   1      32.093  31.928  27.306  1.00  0.00     0.116 C 
BRANCH   3   4
ATOM      4  N   UNL A   1      32.366  33.355  27.341  1.00  0.00    -0.352 N 
ATOM      5  O   UNL A   1      33.271  35.272  28.084  1.00  0.00    -0.269 OA
ATOM      6  C   UNL A   1      33.349  34.050  28.005  1.00  0.00     0.251 C 
ATOM      7  H   UNL A   1      31.752  33.909  26.806  1.00  0.00     0.163 HD
BRANCH   6   8
ATOM      8  C   UNL A   1      34.486  33.336  28.631  1.00  0.00     0.039 A 
ATOM      9  C   UNL A   1      35.771  33.410  28.087  1.00  0.00     0.014 A 
ATOM     10  C   UNL A   1      34.276  32.628  29.818  1.00  0.00     0.014 A 
ATOM     11  C   UNL A   1      36.816  32.690  28.662  1.00  0.00     0.010 A 
ATOM     12  C   UNL A   1      35.341  31.962  30.435  1.00  0.00     0.010 A 
ATOM     13  C   UNL A   1      36.617  31.971  29.852  1.00  0.00    -0.014 A 
BRANCH  13  14
ATOM     14  C   UNL A   1      37.770  31.314  30.524  1.00  0.00     0.031 A 
ATOM     15  C   UNL A   1      38.159  31.668  31.933  1.00  0.00     0.074 A 
ATOM     16  C   UNL A   1      38.479  30.392  29.840  1.00  0.00     0.049 A 
ATOM     17  N   UNL A   1      39.149  31.206  32.652  1.00  0.00    -0.248 NA
ATOM     18  C   UNL A   1      37.333  32.669  32.630  1.00  0.00     0.031 C 
ATOM     19  C   UNL A   1      38.211  29.981  28.459  1.00  0.00     0.029 A 
ATOM     20  N   UNL A   1      39.564  29.637  30.204  1.00  0.00    -0.354 N 
ATOM     21  C   UNL A   1      39.084  31.870  33.872  1.00  0.00     0.074 A 
ATOM     22  C   UNL A   1      37.962  32.780  33.794  1.00  0.00     0.031 C 
ATOM     23  C   UNL A   1      39.090  29.035  28.101  1.00  0.00     0.029 A 
ATOM     24  C   UNL A   1      40.020  28.811  29.202  1.00  0.00     0.049 A 
ATOM     25  H   UNL A   1      39.979  29.682  31.095  1.00  0.00     0.167 HD
ATOM     26  C   UNL A   1      39.876  31.718  34.961  1.00  0.00     0.034 A 
ATOM     27  C   UNL A   1      41.078  27.977  29.163  1.00  0.00     0.034 A 
ATOM     28  C   UNL A   1      40.975  30.792  35.039  1.00  0.00     0.049 A 
ATOM     29  C   UNL A   1      41.948  27.849  30.382  1.00  0.00     0.074 A 
ATOM     30  C   UNL A   1      41.817  30.551  36.113  1.00  0.00     0.029 A 
ATOM     31  N   UNL A   1      41.389  29.956  34.015  1.00  0.00    -0.354 N 
ATOM     32  N   UNL A   1      41.813  28.419  31.555  1.00  0.00    -0.248 NA
ATOM     33  C   UNL A   1      43.102  26.944  30.283  1.00  0.00     0.031 C 
ATOM     34  C   UNL A   1      42.750  29.584  35.731  1.00  0.00     0.029 A 
ATOM     35  C   UNL A   1      42.473  29.200  34.429  1.00  0.00     0.049 A 
ATOM     36  H   UNL A   1      40.973  29.906  33.124  1.00  0.00     0.167 HD
ATOM     37  C   UNL A   1      42.843  27.919  32.341  1.00  0.00     0.074 A 
ATOM     38  C   UNL A   1      43.579  26.980  31.520  1.00  0.00     0.031 C 
ATOM     39  C   UNL A   1      43.161  28.226  33.622  1.00  0.00     0.034 A 
BRANCH  26  40
ATOM     40  C   UNL A   1      39.563  32.527  36.194  1.00  0.00     0.023 A 
ATOM     41  C   UNL A   1      40.112  33.819  36.325  1.00  0.00     0.012 A 
ATOM     42  C   UNL A   1      38.627  32.073  37.144  1.00  0.00     0.148 A 
ATOM     43  C   UNL A   1      39.741  34.643  37.387  1.00  0.00     0.002 A 
ATOM     44  C   UNL A   1      38.232  32.916  38.178  1.00  0.00     0.091 A 
ATOM     45  F   UNL A   1      38.126  30.837  37.007  1.00  0.00    -0.205 F 
ATOM     46  C   UNL A   1      38.793  34.197  38.304  1.00  0.00     0.022 A 
BRANCH  44  47
ATOM     47  S   UNL A   1      36.958  32.473  39.366  1.00  0.00     0.127 S 
ATOM     48  O   UNL A   1      35.739  32.714  38.595  1.00  0.00    -0.237 OA
ATOM     49  O   UNL A   1      37.252  31.062  39.617  1.00  0.00    -0.237 OA
ATOM     50  O   UNL A   1      37.150  33.353  40.511  1.00  0.00    -0.744 OA
ENDBRANCH  44  47
ENDBRANCH  26  40
BRANCH  27  51
ATOM     51  C   UNL A   1      41.341  27.163  27.943  1.00  0.00     0.023 A 
ATOM     52  C   UNL A   1      41.961  27.767  26.831  1.00  0.00     0.012 A 
ATOM     53  C   UNL A   1      41.018  25.793  27.886  1.00  0.00     0.148 A 
ATOM     54  C   UNL A   1      42.227  27.031  25.677  1.00  0.00     0.002 A 
ATOM     55  C   UNL A   1      41.343  25.050  26.758  1.00  0.00     0.091 A 
ATOM     56  F   UNL A   1      40.413  25.239  28.946  1.00  0.00    -0.205 F 
ATOM     57  C   UNL A   1      41.932  25.671  25.645  1.00  0.00     0.022 A 
BRANCH  55  58
ATOM     58  S   UNL A   1      41.131  23.268  26.687  1.00  0.00     0.127 S 
ATOM     59  O   UNL A   1      39.704  23.148  26.399  1.00  0.00    -0.237 OA
ATOM     60  O   UNL A   1      42.016  22.901  25.580  1.00  0.00    -0.237 OA
ATOM     61  O   UNL A   1      41.562  22.771  27.986  1.00  0.00    -0.744 OA
ENDBRANCH  55  58
ENDBRANCH  27  51
BRANCH  39  62
ATOM     62  C   UNL A   1      44.339  27.518  34.241  1.00  0.00     0.023 A 
ATOM     63  C   UNL A   1      45.625  28.085  34.143  1.00  0.00     0.012 A 
ATOM     64  C   UNL A   1      44.157  26.343  34.997  1.00  0.00     0.148 A 
ATOM     65  C   UNL A   1      46.717  27.477  34.763  1.00  0.00     0.002 A 
ATOM     66  C   UNL A   1      45.239  25.772  35.655  1.00  0.00     0.091 A 
ATOM     67  F   UNL A   1      42.928  25.810  35.063  1.00  0.00    -0.205 F 
ATOM     68  C   UNL A   1      46.521  26.331  35.528  1.00  0.00     0.022 A 
BRANCH  66  69
ATOM     69  S   UNL A   1      45.065  24.356  36.746  1.00  0.00     0.127 S 
ATOM     70  O   UNL A   1      46.450  24.118  37.148  1.00  0.00    -0.237 OA
ATOM     71  O   UNL A   1      44.205  24.886  37.806  1.00  0.00    -0.237 OA
ATOM     72  O   UNL A   1      44.457  23.303  35.944  1.00  0.00    -0.744 OA
ENDBRANCH  66  69
ENDBRANCH  39  62
ENDBRANCH  13  14
ENDBRANCH   6   8
ENDBRANCH   3   4
ENDBRANCH   2   3
ENDBRANCH   1   2
BRANCH   1  73
ATOM     73  C   UNL A   1      33.319  28.588  27.089  1.00  0.00     0.002 C 
BRANCH  73  74
ATOM     74  C   UNL A   1      31.809  28.436  26.862  1.00  0.00     0.021 C 
BRANCH  74  75
ATOM     75  C   UNL A   1      31.412  27.625  25.626  1.00  0.00     0.116 C 
BRANCH  75  76
ATOM     76  N   UNL A   1      31.933  28.209  24.400  1.00  0.00    -0.352 N 
ATOM     77  C   UNL A   1      32.832  27.684  23.503  1.00  0.00     0.251 C 
ATOM     78  H   UNL A   1      31.594  29.107  24.182  1.00  0.00     0.163 HD
ATOM     79  O   UNL A   1      33.272  28.361  22.581  1.00  0.00    -0.269 OA
BRANCH  77  80
ATOM     80  C   UNL A   1      33.291  26.290  23.653  1.00  0.00     0.042 A 
ATOM     81  C   UNL A   1      34.150  25.935  24.697  1.00  0.00     0.014 A 
ATOM     82  C   UNL A   1      32.823  25.325  22.763  1.00  0.00     0.053 A 
ATOM     83  C   UNL A   1      34.601  24.614  24.801  1.00  0.00     0.013 A 
ATOM     84  C   UNL A   1      33.306  24.023  22.860  1.00  0.00     0.132 A 
ATOM     85  C   UNL A   1      34.239  23.656  23.836  1.00  0.00     0.042 A 
ATOM     86  F   UNL A   1      32.889  23.118  21.963  1.00  0.00    -0.206 F 
BRANCH  85  87
ATOM     87  C   UNL A   1      34.866  22.279  23.826  1.00  0.00     0.302 C 
BRANCH  87  88
ATOM     88  N   UNL A   1      34.890  21.506  25.078  1.00  0.00    -0.322 N 
ATOM     89  C   UNL A   1      33.643  21.484  25.857  1.00  0.00     0.324 C 
ATOM     90  C   UNL A   1      35.469  20.158  25.003  1.00  0.00     0.328 C 
ATOM     91  H   UNL A   1      35.551  22.079  25.601  1.00  0.00     0.348 HD
ATOM     92  C   UNL A   1      32.655  20.328  25.549  1.00  0.00     0.324 C 
ATOM     93  C   UNL A   1      34.468  19.066  24.556  1.00  0.00     0.239 C 
ATOM     94  N   UNL A   1      33.276  18.991  25.423  1.00  0.00    -0.323 N 
ATOM     95  C   UNL A   1      35.153  17.700  24.442  1.00  0.00     0.071 C 
ATOM     96  C   UNL A   1      32.297  18.034  24.883  1.00  0.00     0.262 C 
ATOM     97  H   UNL A   1      33.570  18.668  26.345  1.00  0.00     0.348 HD
ATOM     98  C   UNL A   1      34.185  16.710  23.803  1.00  0.00     0.012 C 
ATOM     99  C   UNL A   1      32.894  16.648  24.613  1.00  0.00     0.062 C 
ENDBRANCH  87  88
ENDBRANCH  85  87
ENDBRANCH  77  80
ENDBRANCH  75  76
ENDBRANCH  74  75
ENDBRANCH  73  74
ENDBRANCH   1  73
TORSDOF 18
ENDMDL
MODEL 3
REMARK VINA RESULT:     -11.8      5.381     11.109
REMARK SMILES O=C(NCCCCCCNC(=O)c1ccc(C[N@H+]2CC[N@H+]3CCCC[C@@H]3C2)c(F)c1)c1ccc(-c2c3nc(c(-c4cccc(S(=O)(=O)[O-])c4F)c4ccc([nH]4)c(-c4cccc(S(=O)(=O)[O-])c4F)c4nc(c(-c5cccc(S(=O)(=O)[O-])c5F)c5ccc2[nH]5)C=C4)C=C3)cc1
REMARK SMILES IDX 6 1 5 2 4 3 3 4 1 5 2 6 31 8 32 9 93 10 33 11 92 12 34 13
REMARK SMILES IDX 35 14 36 15 86 16 37 17 91 18 85 19 87 20 38 21 90 22 84 23
REMARK SMILES IDX 83 24 39 26 71 27 51 28 70 29 52 30 55 31 69 32 88 33 53 34
REMARK SMILES IDX 54 35 68 37 89 38 56 39 40 40 41 41 49 42 42 43 44 44 50 45
REMARK SMILES IDX 43 46 45 47 46 48 47 49 48 50 72 51 73 52 81 53 74 54 76 55
REMARK SMILES IDX 82 56 75 57 77 58 78 59 79 60 80 61 57 62 58 63 66 64 59 65
REMARK SMILES IDX 61 66 67 67 60 68 62 69 63 70 64 71 65 72 7 73 8 74 9 75
REMARK SMILES IDX 10 76 11 77 12 79 13 80 14 81 30 82 15 83 28 84 16 85 29 86
REMARK SMILES IDX 17 87 18 88 19 89 27 90 20 92 26 93 21 94 25 95 22 96 24 98
REMARK SMILES IDX 23 99
REMARK H PARENT 3 7 87 25 55 36 10 78 18 91 21 97
REMARK Flexibility Score: inf
ROOT
ATOM      1  C   UNL A   1      33.952  29.649  27.249  1.00  0.00     0.002 C 
ENDROOT
BRANCH   1   2
ATOM      2  C   UNL A   1      33.569  31.006  26.651  1.00  0.00     0.021 C 
BRANCH   2   3
ATOM      3  C   UNL A   1      32.359  31.684  27.290  1.00  0.00     0.116 C 
BRANCH   3   4
ATOM      4  N   UNL A   1      32.511  33.127  27.353  1.00  0.00    -0.352 N 
ATOM      5  O   UNL A   1      33.212  35.101  28.166  1.00  0.00    -0.269 OA
ATOM      6  C   UNL A   1      33.395  33.891  28.080  1.00  0.00     0.251 C 
ATOM      7  H   UNL A   1      31.885  33.638  26.789  1.00  0.00     0.163 HD
BRANCH   6   8
ATOM      8  C   UNL A   1      34.549  33.263  28.763  1.00  0.00     0.039 A 
ATOM      9  C   UNL A   1      34.371  32.468  29.898  1.00  0.00     0.014 A 
ATOM     10  C   UNL A   1      35.829  33.423  28.223  1.00  0.00     0.014 A 
ATOM     11  C   UNL A   1      35.475  31.929  30.555  1.00  0.00     0.010 A 
ATOM     12  C   UNL A   1      36.931  32.823  28.843  1.00  0.00     0.010 A 
ATOM     13  C   UNL A   1      36.767  32.086  30.025  1.00  0.00    -0.014 A 
BRANCH  13  14
ATOM     14  C   UNL A   1      37.919  31.397  30.665  1.00  0.00     0.031 A 
ATOM     15  C   UNL A   1      38.321  31.701  32.083  1.00  0.00     0.074 A 
ATOM     16  C   UNL A   1      38.614  30.492  29.946  1.00  0.00     0.049 A 
ATOM     17  N   UNL A   1      39.313  31.207  32.778  1.00  0.00    -0.248 NA
ATOM     18  C   UNL A   1      37.510  32.685  32.818  1.00  0.00     0.031 C 
ATOM     19  C   UNL A   1      38.333  30.129  28.555  1.00  0.00     0.029 A 
ATOM     20  N   UNL A   1      39.696  29.716  30.276  1.00  0.00    -0.354 N 
ATOM     21  C   UNL A   1      39.262  31.831  34.020  1.00  0.00     0.074 A 
ATOM     22  C   UNL A   1      38.147  32.752  33.980  1.00  0.00     0.031 C 
ATOM     23  C   UNL A   1      39.201  29.188  28.159  1.00  0.00     0.029 A 
ATOM     24  C   UNL A   1      40.137  28.920  29.244  1.00  0.00     0.049 A 
ATOM     25  H   UNL A   1      40.118  29.729  31.166  1.00  0.00     0.167 HD
ATOM     26  C   UNL A   1      40.061  31.636  35.097  1.00  0.00     0.034 A 
ATOM     27  C   UNL A   1      41.188  28.079  29.170  1.00  0.00     0.034 A 
ATOM     28  C   UNL A   1      41.153  30.699  35.136  1.00  0.00     0.049 A 
ATOM     29  C   UNL A   1      42.065  27.903  30.377  1.00  0.00     0.074 A 
ATOM     30  C   UNL A   1      42.000  30.415  36.195  1.00  0.00     0.029 A 
ATOM     31  N   UNL A   1      41.552  29.894  34.082  1.00  0.00    -0.354 N 
ATOM     32  N   UNL A   1      41.944  28.436  31.569  1.00  0.00    -0.248 NA
ATOM     33  C   UNL A   1      43.211  26.993  30.240  1.00  0.00     0.031 C 
ATOM     34  C   UNL A   1      42.923  29.454  35.774  1.00  0.00     0.029 A 
ATOM     35  C   UNL A   1      42.632  29.115  34.462  1.00  0.00     0.049 A 
ATOM     36  H   UNL A   1      41.129  29.876  33.193  1.00  0.00     0.167 HD
ATOM     37  C   UNL A   1      42.975  27.901  32.331  1.00  0.00     0.074 A 
ATOM     38  C   UNL A   1      43.698  26.984  31.473  1.00  0.00     0.031 C 
ATOM     39  C   UNL A   1      43.306  28.163  33.618  1.00  0.00     0.034 A 
BRANCH  26  40
ATOM     40  C   UNL A   1      39.765  32.407  36.359  1.00  0.00     0.023 A 
ATOM     41  C   UNL A   1      40.421  33.634  36.584  1.00  0.00     0.012 A 
ATOM     42  C   UNL A   1      38.748  31.993  37.242  1.00  0.00     0.148 A 
ATOM     43  C   UNL A   1      40.075  34.433  37.673  1.00  0.00     0.002 A 
ATOM     44  C   UNL A   1      38.381  32.815  38.303  1.00  0.00     0.091 A 
ATOM     45  F   UNL A   1      38.145  30.818  37.015  1.00  0.00    -0.205 F 
ATOM     46  C   UNL A   1      39.049  34.031  38.523  1.00  0.00     0.022 A 
BRANCH  44  47
ATOM     47  S   UNL A   1      37.018  32.432  39.410  1.00  0.00     0.127 S 
ATOM     48  O   UNL A   1      35.863  32.645  38.539  1.00  0.00    -0.237 OA
ATOM     49  O   UNL A   1      37.281  31.032  39.743  1.00  0.00    -0.237 OA
ATOM     50  O   UNL A   1      37.131  33.360  40.526  1.00  0.00    -0.744 OA
ENDBRANCH  44  47
ENDBRANCH  26  40
BRANCH  27  51
ATOM     51  C   UNL A   1      41.434  27.303  27.921  1.00  0.00     0.023 A 
ATOM     52  C   UNL A   1      41.908  27.973  26.776  1.00  0.00     0.012 A 
ATOM     53  C   UNL A   1      41.241  25.909  27.869  1.00  0.00     0.148 A 
ATOM     54  C   UNL A   1      42.156  27.275  25.595  1.00  0.00     0.002 A 
ATOM     55  C   UNL A   1      41.550  25.210  26.708  1.00  0.00     0.091 A 
ATOM     56  F   UNL A   1      40.774  25.291  28.963  1.00  0.00    -0.205 F 
ATOM     57  C   UNL A   1      41.990  25.893  25.564  1.00  0.00     0.022 A 
BRANCH  55  58
ATOM     58  S   UNL A   1      41.505  23.416  26.627  1.00  0.00     0.127 S 
ATOM     59  O   UNL A   1      42.156  23.043  27.880  1.00  0.00    -0.237 OA
ATOM     60  O   UNL A   1      40.067  23.151  26.577  1.00  0.00    -0.237 OA
ATOM     61  O   UNL A   1      42.220  23.063  25.408  1.00  0.00    -0.744 OA
ENDBRANCH  55  58
ENDBRANCH  27  51
BRANCH  39  62
ATOM     62  C   UNL A   1      44.482  27.425  34.205  1.00  0.00     0.023 A 
ATOM     63  C   UNL A   1      45.770  27.993  34.134  1.00  0.00     0.012 A 
ATOM     64  C   UNL A   1      44.297  26.217  34.905  1.00  0.00     0.148 A 
ATOM     65  C   UNL A   1      46.859  27.356  34.725  1.00  0.00     0.002 A 
ATOM     66  C   UNL A   1      45.378  25.613  35.537  1.00  0.00     0.091 A 
ATOM     67  F   UNL A   1      43.067  25.683  34.946  1.00  0.00    -0.205 F 
ATOM     68  C   UNL A   1      46.661  26.175  35.437  1.00  0.00     0.022 A 
BRANCH  66  69
ATOM     69  S   UNL A   1      45.201  24.148  36.561  1.00  0.00     0.127 S 
ATOM     70  O   UNL A   1      44.442  23.261  35.682  1.00  0.00    -0.237 OA
ATOM     71  O   UNL A   1      46.594  23.750  36.774  1.00  0.00    -0.237 OA
ATOM     72  O   UNL A   1      44.506  24.582  37.765  1.00  0.00    -0.744 OA
ENDBRANCH  66  69
ENDBRANCH  39  62
ENDBRANCH  13  14
ENDBRANCH   6   8
ENDBRANCH   3   4
ENDBRANCH   2   3
ENDBRANCH   1   2
BRANCH   1  73
ATOM     73  C   UNL A   1      33.951  28.461  26.281  1.00  0.00     0.002 C 
BRANCH  73  74
ATOM     74  C   UNL A   1      32.785  28.409  25.284  1.00  0.00     0.021 C 
BRANCH  74  75
ATOM     75  C   UNL A   1      33.094  28.961  23.889  1.00  0.00     0.116 C 
BRANCH  75  76
ATOM     76  N   UNL A   1      31.886  29.327  23.167  1.00  0.00    -0.352 N 
ATOM     77  C   UNL A   1      30.957  28.513  22.564  1.00  0.00     0.251 C 
ATOM     78  H   UNL A   1      31.710  30.293  23.099  1.00  0.00     0.163 HD
ATOM     79  O   UNL A   1      30.058  28.984  21.877  1.00  0.00    -0.269 OA
BRANCH  77  80
ATOM     80  C   UNL A   1      31.044  27.050  22.730  1.00  0.00     0.042 A 
ATOM     81  C   UNL A   1      30.154  26.379  23.574  1.00  0.00     0.014 A 
ATOM     82  C   UNL A   1      31.999  26.342  22.002  1.00  0.00     0.053 A 
ATOM     83  C   UNL A   1      30.275  24.995  23.745  1.00  0.00     0.013 A 
ATOM     84  C   UNL A   1      32.128  24.971  22.208  1.00  0.00     0.132 A 
ATOM     85  C   UNL A   1      31.314  24.284  23.116  1.00  0.00     0.042 A 
ATOM     86  F   UNL A   1      33.087  24.313  21.542  1.00  0.00    -0.206 F 
BRANCH  85  87
ATOM     87  C   UNL A   1      31.574  22.829  23.438  1.00  0.00     0.302 C 
BRANCH  87  88
ATOM     88  N   UNL A   1      31.955  22.468  24.812  1.00  0.00    -0.322 N 
ATOM     89  C   UNL A   1      32.129  21.033  25.087  1.00  0.00     0.324 C 
ATOM     90  C   UNL A   1      33.054  23.238  25.410  1.00  0.00     0.328 C 
ATOM     91  H   UNL A   1      31.102  22.756  25.290  1.00  0.00     0.348 HD
ATOM     92  C   UNL A   1      33.556  20.459  24.892  1.00  0.00     0.324 C 
ATOM     93  C   UNL A   1      34.463  22.698  25.067  1.00  0.00     0.239 C 
ATOM     94  N   UNL A   1      34.646  21.286  25.456  1.00  0.00    -0.323 N 
ATOM     95  C   UNL A   1      35.558  23.583  25.671  1.00  0.00     0.071 C 
ATOM     96  C   UNL A   1      35.948  20.781  24.991  1.00  0.00     0.262 C 
ATOM     97  H   UNL A   1      34.621  21.228  26.474  1.00  0.00     0.348 HD
ATOM     98  C   UNL A   1      36.913  23.134  25.136  1.00  0.00     0.012 C 
ATOM     99  C   UNL A   1      37.127  21.654  25.437  1.00  0.00     0.062 C 
ENDBRANCH  87  88
ENDBRANCH  85  87
ENDBRANCH  77  80
ENDBRANCH  75  76
ENDBRANCH  74  75
ENDBRANCH  73  74
ENDBRANCH   1  73
TORSDOF 18
ENDMDL
