MODEL 1
REMARK VINA RESULT:     -11.2      0.000      0.000
REMARK SMILES Cc1c(NS(=O)(=O)c2ncn(C)c2Cl)cccc1C(=O)NCCCCCCNC(=O)c1ccc(-c2c3nc(c(-c4cccc(S(=O)(=O)[O-])c4F)c4ccc([nH]4)c(-c4cccc(S(=O)(=O)[O-])c4F)c4nc(c(-c5cccc(S(=O)(=O)[O-])c5F)c5ccc2[nH]5)C=C4)C=C3)cc1
REMARK SMILES IDX 24 1 23 2 22 3 21 4 19 5 20 6 18 8 1 9 2 10 3 11 15 12 17 13
REMARK SMILES IDX 16 14 4 15 5 17 6 18 7 19 8 20 9 21 13 22 10 23 11 24 14 25
REMARK SMILES IDX 12 26 25 27 26 28 27 29 28 30 29 31 30 33 31 34 32 35 93 36
REMARK SMILES IDX 33 37 92 38 34 39 35 40 36 41 86 42 37 43 91 44 85 45 87 46
REMARK SMILES IDX 38 47 90 48 84 49 83 50 39 52 71 53 51 54 70 55 52 56 55 57
REMARK SMILES IDX 69 58 88 59 53 60 54 61 68 63 89 64 56 65 40 66 41 67 49 68
REMARK SMILES IDX 42 69 44 70 50 71 43 72 45 73 46 74 47 75 48 76 72 77 73 78
REMARK SMILES IDX 81 79 74 80 76 81 82 82 75 83 77 84 78 85 79 86 80 87 57 88
REMARK SMILES IDX 58 89 66 90 59 91 61 92 67 93 60 94 62 95 63 96 64 97 65 98
REMARK H PARENT 21 7 4 16 28 32 87 51 55 62
REMARK Flexibility Score: inf
ROOT
ATOM      1  C   UNL A   1      39.421  21.647  26.122  1.00  0.00     0.002 C 
ENDROOT
BRANCH   1   2
ATOM      2  C   UNL A   1      39.481  23.130  26.493  1.00  0.00     0.021 C 
BRANCH   2   3
ATOM      3  C   UNL A   1      38.144  23.879  26.410  1.00  0.00     0.116 C 
BRANCH   3   4
ATOM      4  N   UNL A   1      37.586  23.714  25.097  1.00  0.00    -0.352 N 
ATOM      5  C   UNL A   1      36.373  23.329  24.612  1.00  0.00     0.251 C 
ATOM      6  O   UNL A   1      36.350  23.190  23.381  1.00  0.00    -0.269 OA
ATOM      7  H   UNL A   1      38.228  23.931  24.383  1.00  0.00     0.163 HD
BRANCH   5   8
ATOM      8  C   UNL A   1      35.081  23.144  25.369  1.00  0.00     0.044 A 
ATOM      9  C   UNL A   1      34.261  25.563  25.707  1.00  0.00     0.047 C 
ATOM     10  C   UNL A   1      34.102  24.076  25.827  1.00  0.00    -0.014 A 
ATOM     11  C   UNL A   1      32.988  23.611  26.580  1.00  0.00     0.053 A 
ATOM     12  C   UNL A   1      33.074  22.348  27.154  1.00  0.00     0.027 A 
ATOM     13  C   UNL A   1      34.957  21.803  25.799  1.00  0.00     0.014 A 
ATOM     14  C   UNL A   1      34.011  21.421  26.734  1.00  0.00     0.003 A 
BRANCH  11  15
ATOM     15  N   UNL A   1      31.924  24.496  27.008  1.00  0.00    -0.278 N 
ATOM     16  H   UNL A   1      31.950  24.885  27.913  1.00  0.00     0.180 HD
BRANCH  15  17
ATOM     17  S   UNL A   1      30.615  24.876  25.959  1.00  0.00     0.282 S 
ATOM     18  O   UNL A   1      30.682  23.888  24.875  1.00  0.00    -0.199 OA
ATOM     19  O   UNL A   1      29.434  24.998  26.748  1.00  0.00    -0.199 OA
BRANCH  17  20
ATOM     20  C   UNL A   1      30.830  26.409  25.161  1.00  0.00     0.213 A 
ATOM     21  N   UNL A   1      30.819  26.577  23.780  1.00  0.00    -0.222 NA
ATOM     22  C   UNL A   1      31.250  27.579  25.761  1.00  0.00     0.149 A 
ATOM     23  C   UNL A   1      31.320  27.773  23.568  1.00  0.00     0.202 A 
ATOM     24  N   UNL A   1      31.734  28.352  24.740  1.00  0.00    -0.324 N 
ATOM     25  Cl  UNL A   1      31.476  28.034  27.385  1.00  0.00    -0.061 Cl
ATOM     26  C   UNL A   1      32.790  29.335  24.797  1.00  0.00     0.152 C 
ENDBRANCH  17  20
ENDBRANCH  15  17
ENDBRANCH  11  15
ENDBRANCH   5   8
ENDBRANCH   3   4
ENDBRANCH   2   3
ENDBRANCH   1   2
BRANCH   1  27
ATOM     27  C   UNL A   1      40.380  20.734  26.892  1.00  0.00     0.002 C 
BRANCH  27  28
ATOM     28  C   UNL A   1      41.563  20.200  26.084  1.00  0.00     0.021 C 
BRANCH  28  29
ATOM     29  C   UNL A   1      42.882  20.279  26.830  1.00  0.00     0.116 C 
BRANCH  29  30
ATOM     30  N   UNL A   1      43.911  20.925  26.043  1.00  0.00    -0.352 N 
ATOM     31  C   UNL A   1      43.945  22.195  25.511  1.00  0.00     0.251 C 
ATOM     32  H   UNL A   1      44.705  20.372  25.860  1.00  0.00     0.163 HD
ATOM     33  O   UNL A   1      44.713  22.413  24.580  1.00  0.00    -0.269 OA
BRANCH  31  34
ATOM     34  C   UNL A   1      43.214  23.297  26.184  1.00  0.00     0.039 A 
ATOM     35  C   UNL A   1      42.935  24.428  25.406  1.00  0.00     0.014 A 
ATOM     36  C   UNL A   1      43.078  23.355  27.568  1.00  0.00     0.014 A 
ATOM     37  C   UNL A   1      42.802  25.668  26.021  1.00  0.00     0.010 A 
ATOM     38  C   UNL A   1      43.032  24.584  28.177  1.00  0.00     0.010 A 
ATOM     39  C   UNL A   1      42.980  25.740  27.396  1.00  0.00    -0.014 A 
BRANCH  39  40
ATOM     40  C   UNL A   1      43.065  26.965  28.162  1.00  0.00     0.031 A 
ATOM     41  C   UNL A   1      41.833  27.722  28.414  1.00  0.00     0.074 A 
ATOM     42  C   UNL A   1      44.226  27.270  28.777  1.00  0.00     0.049 A 
ATOM     43  N   UNL A   1      41.800  28.870  28.986  1.00  0.00    -0.248 NA
ATOM     44  C   UNL A   1      40.522  27.227  28.017  1.00  0.00     0.031 C 
ATOM     45  C   UNL A   1      44.445  28.181  29.895  1.00  0.00     0.029 A 
ATOM     46  N   UNL A   1      45.513  26.888  28.459  1.00  0.00    -0.354 N 
ATOM     47  C   UNL A   1      40.483  29.173  29.245  1.00  0.00     0.074 A 
ATOM     48  C   UNL A   1      39.727  28.152  28.562  1.00  0.00     0.031 C 
ATOM     49  C   UNL A   1      45.755  28.485  29.959  1.00  0.00     0.029 A 
ATOM     50  C   UNL A   1      46.376  27.941  28.764  1.00  0.00     0.049 A 
ATOM     51  H   UNL A   1      45.778  26.020  28.080  1.00  0.00     0.167 HD
ATOM     52  C   UNL A   1      40.225  30.193  30.110  1.00  0.00     0.034 A 
ATOM     53  C   UNL A   1      46.957  28.699  27.777  1.00  0.00     0.034 A 
ATOM     54  C   UNL A   1      41.468  30.919  30.431  1.00  0.00     0.049 A 
ATOM     55  C   UNL A   1      46.481  30.156  27.759  1.00  0.00     0.074 A 
ATOM     56  C   UNL A   1      42.400  30.864  31.454  1.00  0.00     0.029 A 
ATOM     57  N   UNL A   1      42.068  31.641  29.415  1.00  0.00    -0.354 N 
ATOM     58  N   UNL A   1      45.607  30.669  28.586  1.00  0.00    -0.248 NA
ATOM     59  C   UNL A   1      46.903  31.125  26.744  1.00  0.00     0.031 C 
ATOM     60  C   UNL A   1      43.600  31.498  30.990  1.00  0.00     0.029 A 
ATOM     61  C   UNL A   1      43.380  31.968  29.707  1.00  0.00     0.049 A 
ATOM     62  H   UNL A   1      41.611  31.893  28.579  1.00  0.00     0.167 HD
ATOM     63  C   UNL A   1      45.221  31.907  28.138  1.00  0.00     0.074 A 
ATOM     64  C   UNL A   1      46.093  32.165  27.004  1.00  0.00     0.031 C 
ATOM     65  C   UNL A   1      44.177  32.616  28.669  1.00  0.00     0.034 A 
BRANCH  52  66
ATOM     66  C   UNL A   1      38.911  30.443  30.830  1.00  0.00     0.023 A 
ATOM     67  C   UNL A   1      38.607  29.582  31.909  1.00  0.00     0.012 A 
ATOM     68  C   UNL A   1      37.916  31.396  30.506  1.00  0.00     0.148 A 
ATOM     69  C   UNL A   1      37.377  29.612  32.574  1.00  0.00     0.002 A 
ATOM     70  C   UNL A   1      36.669  31.400  31.138  1.00  0.00     0.091 A 
ATOM     71  F   UNL A   1      38.170  32.359  29.622  1.00  0.00    -0.205 F 
ATOM     72  C   UNL A   1      36.395  30.505  32.173  1.00  0.00     0.022 A 
BRANCH  70  73
ATOM     73  S   UNL A   1      35.325  32.496  30.637  1.00  0.00     0.127 S 
ATOM     74  O   UNL A   1      35.993  33.799  30.606  1.00  0.00    -0.237 OA
ATOM     75  O   UNL A   1      34.965  31.968  29.322  1.00  0.00    -0.237 OA
ATOM     76  O   UNL A   1      34.292  32.379  31.658  1.00  0.00    -0.744 OA
ENDBRANCH  70  73
ENDBRANCH  52  66
BRANCH  53  77
ATOM     77  C   UNL A   1      47.274  27.885  26.555  1.00  0.00     0.023 A 
ATOM     78  C   UNL A   1      46.207  27.655  25.650  1.00  0.00     0.012 A 
ATOM     79  C   UNL A   1      48.590  27.726  26.092  1.00  0.00     0.148 A 
ATOM     80  C   UNL A   1      46.449  27.511  24.283  1.00  0.00     0.002 A 
ATOM     81  C   UNL A   1      48.824  27.531  24.732  1.00  0.00     0.091 A 
ATOM     82  F   UNL A   1      49.606  27.818  26.960  1.00  0.00    -0.205 F 
ATOM     83  C   UNL A   1      47.760  27.496  23.819  1.00  0.00     0.022 A 
BRANCH  81  84
ATOM     84  S   UNL A   1      50.502  27.410  24.103  1.00  0.00     0.127 S 
ATOM     85  O   UNL A   1      50.264  27.150  22.686  1.00  0.00    -0.237 OA
ATOM     86  O   UNL A   1      51.056  28.732  24.395  1.00  0.00    -0.237 OA
ATOM     87  O   UNL A   1      51.105  26.329  24.868  1.00  0.00    -0.744 OA
ENDBRANCH  81  84
ENDBRANCH  53  77
BRANCH  65  88
ATOM     88  C   UNL A   1      43.838  34.022  28.214  1.00  0.00     0.023 A 
ATOM     89  C   UNL A   1      43.338  34.239  26.913  1.00  0.00     0.012 A 
ATOM     90  C   UNL A   1      44.137  35.172  28.985  1.00  0.00     0.148 A 
ATOM     91  C   UNL A   1      43.084  35.524  26.425  1.00  0.00     0.002 A 
ATOM     92  C   UNL A   1      43.992  36.450  28.453  1.00  0.00     0.091 A 
ATOM     93  F   UNL A   1      44.514  35.042  30.261  1.00  0.00    -0.205 F 
ATOM     94  C   UNL A   1      43.432  36.631  27.187  1.00  0.00     0.022 A 
BRANCH  92  95
ATOM     95  S   UNL A   1      44.635  37.909  29.286  1.00  0.00     0.127 S 
ATOM     96  O   UNL A   1      46.036  37.539  29.496  1.00  0.00    -0.237 OA
ATOM     97  O   UNL A   1      44.423  38.947  28.281  1.00  0.00    -0.237 OA
ATOM     98  O   UNL A   1      43.862  38.039  30.513  1.00  0.00    -0.744 OA
ENDBRANCH  92  95
ENDBRANCH  65  88
ENDBRANCH  39  40
ENDBRANCH  31  34
ENDBRANCH  29  30
ENDBRANCH  28  29
ENDBRANCH  27  28
ENDBRANCH   1  27
TORSDOF 19
ENDMDL
MODEL 2
REMARK VINA RESULT:     -11.1      4.583      9.958
REMARK SMILES Cc1c(NS(=O)(=O)c2ncn(C)c2Cl)cccc1C(=O)NCCCCCCNC(=O)c1ccc(-c2c3nc(c(-c4cccc(S(=O)(=O)[O-])c4F)c4ccc([nH]4)c(-c4cccc(S(=O)(=O)[O-])c4F)c4nc(c(-c5cccc(S(=O)(=O)[O-])c5F)c5ccc2[nH]5)C=C4)C=C3)cc1
REMARK SMILES IDX 24 1 23 2 22 3 21 4 19 5 20 6 18 8 1 9 2 10 3 11 15 12 17 13
REMARK SMILES IDX 16 14 4 15 5 17 6 18 7 19 8 20 9 21 13 22 10 23 11 24 14 25
REMARK SMILES IDX 12 26 25 27 26 28 27 29 28 30 29 31 30 33 31 34 32 35 93 36
REMARK SMILES IDX 33 37 92 38 34 39 35 40 36 41 86 42 37 43 91 44 85 45 87 46
REMARK SMILES IDX 38 47 90 48 84 49 83 50 39 52 71 53 51 54 70 55 52 56 55 57
REMARK SMILES IDX 69 58 88 59 53 60 54 61 68 63 89 64 56 65 40 66 41 67 49 68
REMARK SMILES IDX 42 69 44 70 50 71 43 72 45 73 46 74 47 75 48 76 72 77 73 78
REMARK SMILES IDX 81 79 74 80 76 81 82 82 75 83 77 84 78 85 79 86 80 87 57 88
REMARK SMILES IDX 58 89 66 90 59 91 61 92 67 93 60 94 62 95 63 96 64 97 65 98
REMARK H PARENT 21 7 4 16 28 32 87 51 55 62
REMARK Flexibility Score: inf
ROOT
ATOM      1  C   UNL A   1      31.837  30.156  26.497  1.00  0.00     0.002 C 
ENDROOT
BRANCH   1   2
ATOM      2  C   UNL A   1      31.858  29.923  24.985  1.00  0.00     0.021 C 
BRANCH   2   3
ATOM      3  C   UNL A   1      30.480  29.880  24.312  1.00  0.00     0.116 C 
BRANCH   3   4
ATOM      4  N   UNL A   1      30.508  28.937  23.228  1.00  0.00    -0.352 N 
ATOM      5  C   UNL A   1      31.104  27.731  23.021  1.00  0.00     0.251 C 
ATOM      6  O   UNL A   1      30.975  27.303  21.865  1.00  0.00    -0.269 OA
ATOM      7  H   UNL A   1      29.971  29.232  22.457  1.00  0.00     0.163 HD
BRANCH   5   8
ATOM      8  C   UNL A   1      31.803  26.850  24.028  1.00  0.00     0.044 A 
ATOM      9  C   UNL A   1      29.870  26.051  25.532  1.00  0.00     0.047 C 
ATOM     10  C   UNL A   1      31.309  26.060  25.109  1.00  0.00    -0.014 A 
ATOM     11  C   UNL A   1      32.225  25.361  25.944  1.00  0.00     0.053 A 
ATOM     12  C   UNL A   1      33.559  25.754  25.916  1.00  0.00     0.027 A 
ATOM     13  C   UNL A   1      33.205  27.000  23.916  1.00  0.00     0.014 A 
ATOM     14  C   UNL A   1      34.069  26.521  24.883  1.00  0.00     0.003 A 
BRANCH  11  15
ATOM     15  N   UNL A   1      31.784  24.485  27.009  1.00  0.00    -0.278 N 
ATOM     16  H   UNL A   1      31.363  24.870  27.812  1.00  0.00     0.180 HD
BRANCH  15  17
ATOM     17  S   UNL A   1      31.985  22.781  26.891  1.00  0.00     0.282 S 
ATOM     18  O   UNL A   1      32.244  22.321  28.260  1.00  0.00    -0.199 OA
ATOM     19  O   UNL A   1      30.885  22.254  26.152  1.00  0.00    -0.199 OA
BRANCH  17  20
ATOM     20  C   UNL A   1      33.420  22.342  26.007  1.00  0.00     0.213 A 
ATOM     21  N   UNL A   1      34.652  22.085  26.601  1.00  0.00    -0.222 NA
ATOM     22  C   UNL A   1      33.576  22.411  24.638  1.00  0.00     0.149 A 
ATOM     23  C   UNL A   1      35.526  22.110  25.620  1.00  0.00     0.202 A 
ATOM     24  N   UNL A   1      34.930  22.455  24.434  1.00  0.00    -0.324 N 
ATOM     25  Cl  UNL A   1      32.490  22.686  23.357  1.00  0.00    -0.061 Cl
ATOM     26  C   UNL A   1      35.644  23.104  23.359  1.00  0.00     0.152 C 
ENDBRANCH  17  20
ENDBRANCH  15  17
ENDBRANCH  11  15
ENDBRANCH   5   8
ENDBRANCH   3   4
ENDBRANCH   2   3
ENDBRANCH   1   2
BRANCH   1  27
ATOM     27  C   UNL A   1      33.163  30.614  27.114  1.00  0.00     0.002 C 
BRANCH  27  28
ATOM     28  C   UNL A   1      33.156  32.026  27.700  1.00  0.00     0.021 C 
BRANCH  28  29
ATOM     29  C   UNL A   1      34.548  32.581  27.941  1.00  0.00     0.116 C 
BRANCH  29  30
ATOM     30  N   UNL A   1      34.878  32.621  29.350  1.00  0.00    -0.352 N 
ATOM     31  C   UNL A   1      35.529  31.690  30.129  1.00  0.00     0.251 C 
ATOM     32  H   UNL A   1      34.592  33.437  29.822  1.00  0.00     0.163 HD
ATOM     33  O   UNL A   1      35.375  31.741  31.345  1.00  0.00    -0.269 OA
BRANCH  31  34
ATOM     34  C   UNL A   1      36.534  30.788  29.514  1.00  0.00     0.039 A 
ATOM     35  C   UNL A   1      36.650  29.509  30.074  1.00  0.00     0.014 A 
ATOM     36  C   UNL A   1      37.516  31.258  28.648  1.00  0.00     0.014 A 
ATOM     37  C   UNL A   1      37.862  28.832  29.994  1.00  0.00     0.010 A 
ATOM     38  C   UNL A   1      38.740  30.637  28.637  1.00  0.00     0.010 A 
ATOM     39  C   UNL A   1      38.930  29.471  29.379  1.00  0.00    -0.014 A 
BRANCH  39  40
ATOM     40  C   UNL A   1      40.297  28.996  29.379  1.00  0.00     0.031 A 
ATOM     41  C   UNL A   1      40.549  27.584  29.065  1.00  0.00     0.074 A 
ATOM     42  C   UNL A   1      41.299  29.893  29.476  1.00  0.00     0.049 A 
ATOM     43  N   UNL A   1      41.702  27.027  29.138  1.00  0.00    -0.248 NA
ATOM     44  C   UNL A   1      39.486  26.680  28.646  1.00  0.00     0.031 C 
ATOM     45  C   UNL A   1      42.699  29.730  29.100  1.00  0.00     0.029 A 
ATOM     46  N   UNL A   1      41.298  31.151  30.041  1.00  0.00    -0.354 N 
ATOM     47  C   UNL A   1      41.602  25.777  28.571  1.00  0.00     0.074 A 
ATOM     48  C   UNL A   1      40.190  25.586  28.345  1.00  0.00     0.031 C 
ATOM     49  C   UNL A   1      43.425  30.696  29.692  1.00  0.00     0.029 A 
ATOM     50  C   UNL A   1      42.545  31.378  30.623  1.00  0.00     0.049 A 
ATOM     51  H   UNL A   1      40.543  31.783  30.035  1.00  0.00     0.167 HD
ATOM     52  C   UNL A   1      42.758  25.124  28.264  1.00  0.00     0.034 A 
ATOM     53  C   UNL A   1      42.708  31.380  31.987  1.00  0.00     0.034 A 
ATOM     54  C   UNL A   1      43.916  25.845  28.826  1.00  0.00     0.049 A 
ATOM     55  C   UNL A   1      43.572  30.225  32.506  1.00  0.00     0.074 A 
ATOM     56  C   UNL A   1      44.822  26.775  28.342  1.00  0.00     0.029 A 
ATOM     57  N   UNL A   1      44.043  25.878  30.202  1.00  0.00    -0.354 N 
ATOM     58  N   UNL A   1      44.121  29.305  31.756  1.00  0.00    -0.248 NA
ATOM     59  C   UNL A   1      43.813  29.981  33.930  1.00  0.00     0.031 C 
ATOM     60  C   UNL A   1      45.430  27.422  29.467  1.00  0.00     0.029 A 
ATOM     61  C   UNL A   1      44.923  26.859  30.625  1.00  0.00     0.049 A 
ATOM     62  H   UNL A   1      43.562  25.272  30.812  1.00  0.00     0.167 HD
ATOM     63  C   UNL A   1      44.603  28.294  32.547  1.00  0.00     0.074 A 
ATOM     64  C   UNL A   1      44.425  28.784  33.903  1.00  0.00     0.031 C 
ATOM     65  C   UNL A   1      45.055  27.096  32.060  1.00  0.00     0.034 A 
BRANCH  52  66
ATOM     66  C   UNL A   1      42.895  23.953  27.308  1.00  0.00     0.023 A 
ATOM     67  C   UNL A   1      43.560  24.207  26.087  1.00  0.00     0.012 A 
ATOM     68  C   UNL A   1      42.375  22.645  27.463  1.00  0.00     0.148 A 
ATOM     69  C   UNL A   1      43.641  23.260  25.061  1.00  0.00     0.002 A 
ATOM     70  C   UNL A   1      42.415  21.711  26.423  1.00  0.00     0.091 A 
ATOM     71  F   UNL A   1      41.882  22.253  28.635  1.00  0.00    -0.205 F 
ATOM     72  C   UNL A   1      43.047  22.017  25.217  1.00  0.00     0.022 A 
BRANCH  70  73
ATOM     73  S   UNL A   1      41.619  20.095  26.534  1.00  0.00     0.127 S 
ATOM     74  O   UNL A   1      40.201  20.448  26.435  1.00  0.00    -0.237 OA
ATOM     75  O   UNL A   1      42.154  19.401  25.365  1.00  0.00    -0.237 OA
ATOM     76  O   UNL A   1      42.005  19.531  27.822  1.00  0.00    -0.744 OA
ENDBRANCH  70  73
ENDBRANCH  52  66
BRANCH  53  77
ATOM     77  C   UNL A   1      41.509  31.940  32.697  1.00  0.00     0.023 A 
ATOM     78  C   UNL A   1      41.137  33.268  32.367  1.00  0.00     0.012 A 
ATOM     79  C   UNL A   1      40.553  31.109  33.305  1.00  0.00     0.148 A 
ATOM     80  C   UNL A   1      39.801  33.670  32.420  1.00  0.00     0.002 A 
ATOM     81  C   UNL A   1      39.230  31.536  33.401  1.00  0.00     0.091 A 
ATOM     82  F   UNL A   1      40.919  29.895  33.734  1.00  0.00    -0.205 F 
ATOM     83  C   UNL A   1      38.840  32.784  32.895  1.00  0.00     0.022 A 
BRANCH  81  84
ATOM     84  S   UNL A   1      37.972  30.458  34.097  1.00  0.00     0.127 S 
ATOM     85  O   UNL A   1      38.454  30.293  35.465  1.00  0.00    -0.237 OA
ATOM     86  O   UNL A   1      36.753  31.256  33.972  1.00  0.00    -0.237 OA
ATOM     87  O   UNL A   1      37.997  29.273  33.253  1.00  0.00    -0.744 OA
ENDBRANCH  81  84
ENDBRANCH  53  77
BRANCH  65  88
ATOM     88  C   UNL A   1      45.671  26.038  32.954  1.00  0.00     0.023 A 
ATOM     89  C   UNL A   1      47.057  25.782  32.888  1.00  0.00     0.012 A 
ATOM     90  C   UNL A   1      44.897  25.172  33.765  1.00  0.00     0.148 A 
ATOM     91  C   UNL A   1      47.654  24.764  33.638  1.00  0.00     0.002 A 
ATOM     92  C   UNL A   1      45.480  24.089  34.417  1.00  0.00     0.091 A 
ATOM     93  F   UNL A   1      43.597  25.420  33.957  1.00  0.00    -0.205 F 
ATOM     94  C   UNL A   1      46.862  23.903  34.385  1.00  0.00     0.022 A 
BRANCH  92  95
ATOM     95  S   UNL A   1      44.493  22.808  35.208  1.00  0.00     0.127 S 
ATOM     96  O   UNL A   1      45.117  22.726  36.530  1.00  0.00    -0.237 OA
ATOM     97  O   UNL A   1      43.161  23.406  35.199  1.00  0.00    -0.237 OA
ATOM     98  O   UNL A   1      44.665  21.615  34.392  1.00  0.00    -0.744 OA
ENDBRANCH  92  95
ENDBRANCH  65  88
ENDBRANCH  39  40
ENDBRANCH  31  34
ENDBRANCH  29  30
ENDBRANCH  28  29
ENDBRANCH  27  28
ENDBRANCH   1  27
TORSDOF 19
ENDMDL
MODEL 3
REMARK VINA RESULT:     -11.0      4.904     10.572
REMARK SMILES Cc1c(NS(=O)(=O)c2ncn(C)c2Cl)cccc1C(=O)NCCCCCCNC(=O)c1ccc(-c2c3nc(c(-c4cccc(S(=O)(=O)[O-])c4F)c4ccc([nH]4)c(-c4cccc(S(=O)(=O)[O-])c4F)c4nc(c(-c5cccc(S(=O)(=O)[O-])c5F)c5ccc2[nH]5)C=C4)C=C3)cc1
REMARK SMILES IDX 24 1 23 2 22 3 21 4 19 5 20 6 18 8 1 9 2 10 3 11 15 12 17 13
REMARK SMILES IDX 16 14 4 15 5 17 6 18 7 19 8 20 9 21 13 22 10 23 11 24 14 25
REMARK SMILES IDX 12 26 25 27 26 28 27 29 28 30 29 31 30 33 31 34 32 35 93 36
REMARK SMILES IDX 33 37 92 38 34 39 35 40 36 41 86 42 37 43 91 44 85 45 87 46
REMARK SMILES IDX 38 47 90 48 84 49 83 50 39 52 71 53 51 54 70 55 52 56 55 57
REMARK SMILES IDX 69 58 88 59 53 60 54 61 68 63 89 64 56 65 40 66 41 67 49 68
REMARK SMILES IDX 42 69 44 70 50 71 43 72 45 73 46 74 47 75 48 76 72 77 73 78
REMARK SMILES IDX 81 79 74 80 76 81 82 82 75 83 77 84 78 85 79 86 80 87 57 88
REMARK SMILES IDX 58 89 66 90 59 91 61 92 67 93 60 94 62 95 63 96 64 97 65 98
REMARK H PARENT 21 7 4 16 28 32 87 51 55 62
REMARK Flexibility Score: inf
ROOT
ATOM      1  C   UNL A   1      32.861  29.616  25.422  1.00  0.00     0.002 C 
ENDROOT
BRANCH   1   2
ATOM      2  C   UNL A   1      31.372  29.770  25.106  1.00  0.00     0.021 C 
BRANCH   2   3
ATOM      3  C   UNL A   1      30.957  29.338  23.694  1.00  0.00     0.116 C 
BRANCH   3   4
ATOM      4  N   UNL A   1      30.015  28.256  23.782  1.00  0.00    -0.352 N 
ATOM      5  C   UNL A   1      30.099  26.935  24.101  1.00  0.00     0.251 C 
ATOM      6  O   UNL A   1      29.044  26.311  23.920  1.00  0.00    -0.269 OA
ATOM      7  H   UNL A   1      29.097  28.535  23.563  1.00  0.00     0.163 HD
BRANCH   5   8
ATOM      8  C   UNL A   1      31.265  26.194  24.709  1.00  0.00     0.044 A 
ATOM      9  C   UNL A   1      33.006  26.203  22.811  1.00  0.00     0.047 C 
ATOM     10  C   UNL A   1      32.566  25.889  24.210  1.00  0.00    -0.014 A 
ATOM     11  C   UNL A   1      33.457  25.110  25.000  1.00  0.00     0.053 A 
ATOM     12  C   UNL A   1      32.918  24.372  26.048  1.00  0.00     0.027 A 
ATOM     13  C   UNL A   1      30.876  25.593  25.928  1.00  0.00     0.014 A 
ATOM     14  C   UNL A   1      31.659  24.640  26.555  1.00  0.00     0.003 A 
BRANCH  11  15
ATOM     15  N   UNL A   1      34.815  24.831  24.583  1.00  0.00    -0.278 N 
ATOM     16  H   UNL A   1      35.529  25.479  24.785  1.00  0.00     0.180 HD
BRANCH  15  17
ATOM     17  S   UNL A   1      35.200  23.382  23.739  1.00  0.00     0.282 S 
ATOM     18  O   UNL A   1      34.652  23.558  22.389  1.00  0.00    -0.199 OA
ATOM     19  O   UNL A   1      36.589  23.118  23.922  1.00  0.00    -0.199 OA
BRANCH  17  20
ATOM     20  C   UNL A   1      34.353  22.000  24.375  1.00  0.00     0.213 A 
ATOM     21  N   UNL A   1      34.887  21.122  25.314  1.00  0.00    -0.222 NA
ATOM     22  C   UNL A   1      33.172  21.483  23.885  1.00  0.00     0.149 A 
ATOM     23  C   UNL A   1      34.102  20.070  25.296  1.00  0.00     0.202 A 
ATOM     24  N   UNL A   1      33.135  20.189  24.331  1.00  0.00    -0.324 N 
ATOM     25  Cl  UNL A   1      32.043  22.045  22.742  1.00  0.00    -0.061 Cl
ATOM     26  C   UNL A   1      32.522  19.047  23.692  1.00  0.00     0.152 C 
ENDBRANCH  17  20
ENDBRANCH  15  17
ENDBRANCH  11  15
ENDBRANCH   5   8
ENDBRANCH   3   4
ENDBRANCH   2   3
ENDBRANCH   1   2
BRANCH   1  27
ATOM     27  C   UNL A   1      33.218  29.563  26.911  1.00  0.00     0.002 C 
BRANCH  27  28
ATOM     28  C   UNL A   1      34.569  28.925  27.235  1.00  0.00     0.021 C 
BRANCH  28  29
ATOM     29  C   UNL A   1      35.489  29.841  28.021  1.00  0.00     0.116 C 
BRANCH  29  30
ATOM     30  N   UNL A   1      34.840  31.083  28.380  1.00  0.00    -0.352 N 
ATOM     31  C   UNL A   1      35.002  31.871  29.499  1.00  0.00     0.251 C 
ATOM     32  H   UNL A   1      34.182  31.415  27.726  1.00  0.00     0.163 HD
ATOM     33  O   UNL A   1      34.107  32.658  29.788  1.00  0.00    -0.269 OA
BRANCH  31  34
ATOM     34  C   UNL A   1      36.307  31.890  30.204  1.00  0.00     0.039 A 
ATOM     35  C   UNL A   1      37.349  32.580  29.571  1.00  0.00     0.014 A 
ATOM     36  C   UNL A   1      36.585  31.034  31.265  1.00  0.00     0.014 A 
ATOM     37  C   UNL A   1      38.666  32.200  29.806  1.00  0.00     0.010 A 
ATOM     38  C   UNL A   1      37.874  30.595  31.441  1.00  0.00     0.010 A 
ATOM     39  C   UNL A   1      38.896  31.122  30.649  1.00  0.00    -0.014 A 
BRANCH  39  40
ATOM     40  C   UNL A   1      40.178  30.481  30.850  1.00  0.00     0.031 A 
ATOM     41  C   UNL A   1      40.479  29.261  30.090  1.00  0.00     0.074 A 
ATOM     42  C   UNL A   1      41.120  31.119  31.574  1.00  0.00     0.049 A 
ATOM     43  N   UNL A   1      41.534  28.550  30.262  1.00  0.00    -0.248 NA
ATOM     44  C   UNL A   1      39.583  28.743  29.066  1.00  0.00     0.031 C 
ATOM     45  C   UNL A   1      42.562  30.898  31.579  1.00  0.00     0.029 A 
ATOM     46  N   UNL A   1      40.972  32.069  32.564  1.00  0.00    -0.354 N 
ATOM     47  C   UNL A   1      41.587  27.625  29.245  1.00  0.00     0.074 A 
ATOM     48  C   UNL A   1      40.317  27.743  28.571  1.00  0.00     0.031 C 
ATOM     49  C   UNL A   1      43.086  31.460  32.683  1.00  0.00     0.029 A 
ATOM     50  C   UNL A   1      41.973  31.877  33.516  1.00  0.00     0.049 A 
ATOM     51  H   UNL A   1      40.276  32.764  32.593  1.00  0.00     0.167 HD
ATOM     52  C   UNL A   1      42.762  26.965  29.048  1.00  0.00     0.034 A 
ATOM     53  C   UNL A   1      41.691  31.356  34.755  1.00  0.00     0.034 A 
ATOM     54  C   UNL A   1      43.698  27.248  30.152  1.00  0.00     0.049 A 
ATOM     55  C   UNL A   1      42.312  29.976  34.998  1.00  0.00     0.074 A 
ATOM     56  C   UNL A   1      44.736  28.143  30.354  1.00  0.00     0.029 A 
ATOM     57  N   UNL A   1      43.379  26.755  31.405  1.00  0.00    -0.354 N 
ATOM     58  N   UNL A   1      43.047  29.323  34.136  1.00  0.00    -0.248 NA
ATOM     59  C   UNL A   1      42.078  29.194  36.215  1.00  0.00     0.031 C 
ATOM     60  C   UNL A   1      44.969  28.235  31.765  1.00  0.00     0.029 A 
ATOM     61  C   UNL A   1      44.103  27.370  32.411  1.00  0.00     0.049 A 
ATOM     62  H   UNL A   1      42.712  26.048  31.561  1.00  0.00     0.167 HD
ATOM     63  C   UNL A   1      43.224  28.032  34.565  1.00  0.00     0.074 A 
ATOM     64  C   UNL A   1      42.634  28.013  35.894  1.00  0.00     0.031 C 
ATOM     65  C   UNL A   1      43.775  27.043  33.796  1.00  0.00     0.034 A 
BRANCH  52  66
ATOM     66  C   UNL A   1      43.166  26.218  27.790  1.00  0.00     0.023 A 
ATOM     67  C   UNL A   1      43.783  26.981  26.772  1.00  0.00     0.012 A 
ATOM     68  C   UNL A   1      42.939  24.855  27.482  1.00  0.00     0.148 A 
ATOM     69  C   UNL A   1      44.087  26.453  25.512  1.00  0.00     0.002 A 
ATOM     70  C   UNL A   1      43.199  24.336  26.210  1.00  0.00     0.091 A 
ATOM     71  F   UNL A   1      42.521  24.014  28.426  1.00  0.00    -0.205 F 
ATOM     72  C   UNL A   1      43.772  25.135  25.221  1.00  0.00     0.022 A 
BRANCH  70  73
ATOM     73  S   UNL A   1      42.769  22.647  25.741  1.00  0.00     0.127 S 
ATOM     74  O   UNL A   1      43.672  21.859  26.584  1.00  0.00    -0.237 OA
ATOM     75  O   UNL A   1      41.360  22.565  26.121  1.00  0.00    -0.237 OA
ATOM     76  O   UNL A   1      43.036  22.533  24.312  1.00  0.00    -0.744 OA
ENDBRANCH  70  73
ENDBRANCH  52  66
BRANCH  53  77
ATOM     77  C   UNL A   1      40.342  31.790  35.255  1.00  0.00     0.023 A 
ATOM     78  C   UNL A   1      39.243  30.960  34.919  1.00  0.00     0.012 A 
ATOM     79  C   UNL A   1      40.203  32.681  36.331  1.00  0.00     0.148 A 
ATOM     80  C   UNL A   1      38.141  30.854  35.769  1.00  0.00     0.002 A 
ATOM     81  C   UNL A   1      39.077  32.606  37.148  1.00  0.00     0.091 A 
ATOM     82  F   UNL A   1      41.183  33.557  36.587  1.00  0.00    -0.205 F 
ATOM     83  C   UNL A   1      38.081  31.646  36.911  1.00  0.00     0.022 A 
BRANCH  81  84
ATOM     84  S   UNL A   1      38.915  33.678  38.581  1.00  0.00     0.127 S 
ATOM     85  O   UNL A   1      37.644  33.225  39.140  1.00  0.00    -0.237 OA
ATOM     86  O   UNL A   1      40.089  33.333  39.380  1.00  0.00    -0.237 OA
ATOM     87  O   UNL A   1      38.940  35.026  38.035  1.00  0.00    -0.744 OA
ENDBRANCH  81  84
ENDBRANCH  53  77
BRANCH  65  88
ATOM     88  C   UNL A   1      44.044  25.652  34.335  1.00  0.00     0.023 A 
ATOM     89  C   UNL A   1      43.245  24.568  33.913  1.00  0.00     0.012 A 
ATOM     90  C   UNL A   1      44.977  25.395  35.369  1.00  0.00     0.148 A 
ATOM     91  C   UNL A   1      43.408  23.283  34.440  1.00  0.00     0.002 A 
ATOM     92  C   UNL A   1      45.054  24.143  35.971  1.00  0.00     0.091 A 
ATOM     93  F   UNL A   1      45.837  26.347  35.745  1.00  0.00    -0.205 F 
ATOM     94  C   UNL A   1      44.297  23.076  35.486  1.00  0.00     0.022 A 
BRANCH  92  95
ATOM     95  S   UNL A   1      46.007  23.863  37.471  1.00  0.00     0.127 S 
ATOM     96  O   UNL A   1      45.435  24.861  38.378  1.00  0.00    -0.237 OA
ATOM     97  O   UNL A   1      45.662  22.480  37.793  1.00  0.00    -0.237 OA
ATOM     98  O   UNL A   1      47.395  24.110  37.112  1.00  0.00    -0.744 OA
ENDBRANCH  92  95
ENDBRANCH  65  88
ENDBRANCH  39  40
ENDBRANCH  31  34
ENDBRANCH  29  30
ENDBRANCH  28  29
ENDBRANCH  27  28
ENDBRANCH   1  27
TORSDOF 19
ENDMDL
