MODEL 1
REMARK VINA RESULT:     -13.6      0.000      0.000
REMARK SMILES COc1ccc(-c2[nH]nc3nc(-c4ccc(C(F)(F)F)cc4)cc(C(=O)NCCCCCCNC(=O)c4ccc(-c5c6nc(c(-c7cccc(S(=O)(=O)[O-])c7F)c7ccc([nH]7)c(-c7cccc(S(=O)(=O)[O-])c7F)c7nc(c(-c8cccc(S(=O)(=O)[O-])c8F)c8ccc5[nH]8)C=C7)C=C6)cc4)c23)cc1
REMARK SMILES IDX 31 1 30 2 29 3 28 4 27 5 25 6 26 7 24 9 7 10 8 11 100 12
REMARK SMILES IDX 9 13 10 15 11 16 23 17 12 18 6 19 3 20 4 21 102 22 5 23
REMARK SMILES IDX 101 24 2 25 1 26 13 27 14 28 22 29 15 30 21 31 16 32 17 33
REMARK SMILES IDX 18 34 19 35 20 36 32 37 33 38 34 39 35 40 36 42 37 43 38 44
REMARK SMILES IDX 99 45 39 46 98 47 40 48 41 49 42 50 92 51 43 52 97 53 91 54
REMARK SMILES IDX 93 55 44 56 96 57 90 58 89 59 45 61 77 62 57 63 76 64 58 65
REMARK SMILES IDX 61 66 75 67 94 68 59 69 60 70 74 72 95 73 62 74 46 75 47 76
REMARK SMILES IDX 55 77 48 78 50 79 56 80 49 81 51 82 52 83 53 84 54 85 78 86
REMARK SMILES IDX 79 87 87 88 80 89 82 90 88 91 81 92 83 93 84 94 85 95 86 96
REMARK SMILES IDX 63 97 64 98 72 99 65 100 67 101 73 102 66 103 68 104 69 105
REMARK SMILES IDX 70 106 71 107
REMARK H PARENT 27 8 8 14 34 41 93 60 61 71
REMARK Flexibility Score: inf
ROOT
ATOM      1  C   UNL A   1      33.823  28.252  26.317  1.00  0.00     0.002 C 
ENDROOT
BRANCH   1   2
ATOM      2  C   UNL A   1      33.018  26.966  26.564  1.00  0.00     0.002 C 
BRANCH   2   3
ATOM      3  C   UNL A   1      33.494  25.721  25.801  1.00  0.00     0.021 C 
BRANCH   3   4
ATOM      4  C   UNL A   1      33.448  24.442  26.631  1.00  0.00     0.116 C 
BRANCH   4   5
ATOM      5  N   UNL A   1      32.156  23.795  26.545  1.00  0.00    -0.352 N 
ATOM      6  C   UNL A   1      31.172  23.685  25.600  1.00  0.00     0.252 C 
ATOM      7  O   UNL A   1      30.359  22.797  25.848  1.00  0.00    -0.269 OA
ATOM      8  H   UNL A   1      31.929  23.314  27.373  1.00  0.00     0.163 HD
BRANCH   6   9
ATOM      9  C   UNL A   1      31.102  24.457  24.334  1.00  0.00     0.055 A 
ATOM     10  C   UNL A   1      32.656  23.167  22.781  1.00  0.00     0.075 A 
ATOM     11  N   UNL A   1      33.142  23.521  21.543  1.00  0.00    -0.275 N 
ATOM     12  C   UNL A   1      31.872  24.245  23.169  1.00  0.00     0.059 A 
ATOM     13  N   UNL A   1      32.799  24.740  21.118  1.00  0.00    -0.154 NA
ATOM     14  H   UNL A   1      33.704  22.916  21.007  1.00  0.00     0.190 HD
ATOM     15  C   UNL A   1      31.981  25.182  22.071  1.00  0.00     0.182 A 
ATOM     16  N   UNL A   1      31.358  26.386  22.061  1.00  0.00    -0.226 NA
ATOM     17  C   UNL A   1      30.325  25.610  24.163  1.00  0.00     0.043 A 
ATOM     18  C   UNL A   1      30.528  26.549  23.120  1.00  0.00     0.074 A 
BRANCH  10  19
ATOM     19  C   UNL A   1      32.985  21.853  23.326  1.00  0.00     0.001 A 
ATOM     20  C   UNL A   1      33.588  19.358  24.482  1.00  0.00     0.118 A 
ATOM     21  C   UNL A   1      34.384  20.473  24.748  1.00  0.00     0.047 A 
ATOM     22  C   UNL A   1      32.493  19.488  23.625  1.00  0.00     0.047 A 
ATOM     23  C   UNL A   1      34.092  21.711  24.171  1.00  0.00     0.014 A 
ATOM     24  C   UNL A   1      32.204  20.728  23.036  1.00  0.00     0.014 A 
BRANCH  20  25
ATOM     25  O   UNL A   1      33.954  18.219  25.145  1.00  0.00    -0.497 OA
ATOM     26  C   UNL A   1      34.607  17.226  24.366  1.00  0.00     0.278 C 
ENDBRANCH  20  25
ENDBRANCH  10  19
BRANCH  18  27
ATOM     27  C   UNL A   1      29.923  27.883  23.282  1.00  0.00     0.000 A 
ATOM     28  C   UNL A   1      30.655  28.993  23.715  1.00  0.00     0.011 A 
ATOM     29  C   UNL A   1      28.576  28.077  22.910  1.00  0.00     0.011 A 
ATOM     30  C   UNL A   1      30.073  30.269  23.730  1.00  0.00     0.014 A 
ATOM     31  C   UNL A   1      27.994  29.346  22.928  1.00  0.00     0.014 A 
ATOM     32  C   UNL A   1      28.741  30.459  23.326  1.00  0.00     0.056 A 
BRANCH  32  33
ATOM     33  C   UNL A   1      28.133  31.842  23.310  1.00  0.00     0.416 C 
ATOM     34  F   UNL A   1      29.000  32.799  23.736  1.00  0.00    -0.166 F 
ATOM     35  F   UNL A   1      27.703  32.211  22.079  1.00  0.00    -0.166 F 
ATOM     36  F   UNL A   1      27.044  31.945  24.131  1.00  0.00    -0.166 F 
ENDBRANCH  32  33
ENDBRANCH  18  27
ENDBRANCH   6   9
ENDBRANCH   4   5
ENDBRANCH   3   4
ENDBRANCH   2   3
ENDBRANCH   1   2
BRANCH   1  37
ATOM     37  C   UNL A   1      33.530  29.432  27.256  1.00  0.00     0.021 C 
BRANCH  37  38
ATOM     38  C   UNL A   1      34.491  30.602  27.101  1.00  0.00     0.116 C 
BRANCH  38  39
ATOM     39  N   UNL A   1      34.210  31.656  28.070  1.00  0.00    -0.352 N 
ATOM     40  C   UNL A   1      34.796  31.873  29.297  1.00  0.00     0.251 C 
ATOM     41  H   UNL A   1      33.510  32.297  27.812  1.00  0.00     0.163 HD
ATOM     42  O   UNL A   1      34.238  32.570  30.135  1.00  0.00    -0.269 OA
BRANCH  40  43
ATOM     43  C   UNL A   1      36.089  31.234  29.594  1.00  0.00     0.039 A 
ATOM     44  C   UNL A   1      36.127  29.918  30.054  1.00  0.00     0.014 A 
ATOM     45  C   UNL A   1      37.266  31.947  29.373  1.00  0.00     0.014 A 
ATOM     46  C   UNL A   1      37.362  29.294  30.205  1.00  0.00     0.010 A 
ATOM     47  C   UNL A   1      38.479  31.291  29.407  1.00  0.00     0.010 A 
ATOM     48  C   UNL A   1      38.541  29.971  29.850  1.00  0.00    -0.014 A 
BRANCH  48  49
ATOM     49  C   UNL A   1      39.810  29.242  29.836  1.00  0.00     0.031 A 
ATOM     50  C   UNL A   1      40.424  29.008  31.175  1.00  0.00     0.074 A 
ATOM     51  C   UNL A   1      40.347  28.652  28.747  1.00  0.00     0.049 A 
ATOM     52  N   UNL A   1      41.517  29.520  31.641  1.00  0.00    -0.248 NA
ATOM     53  C   UNL A   1      39.678  28.200  32.151  1.00  0.00     0.031 C 
ATOM     54  C   UNL A   1      39.755  28.495  27.413  1.00  0.00     0.029 A 
ATOM     55  N   UNL A   1      41.507  27.941  28.646  1.00  0.00    -0.354 N 
ATOM     56  C   UNL A   1      41.715  28.919  32.884  1.00  0.00     0.074 A 
ATOM     57  C   UNL A   1      40.479  28.262  33.216  1.00  0.00     0.031 C 
ATOM     58  C   UNL A   1      40.421  27.535  26.736  1.00  0.00     0.029 A 
ATOM     59  C   UNL A   1      41.589  27.154  27.506  1.00  0.00     0.049 A 
ATOM     60  H   UNL A   1      42.222  27.984  29.322  1.00  0.00     0.167 HD
ATOM     61  C   UNL A   1      42.958  28.812  33.433  1.00  0.00     0.034 A 
ATOM     62  C   UNL A   1      42.536  26.233  27.219  1.00  0.00     0.034 A 
ATOM     63  C   UNL A   1      43.906  29.674  32.776  1.00  0.00     0.049 A 
ATOM     64  C   UNL A   1      43.726  26.559  28.031  1.00  0.00     0.074 A 
ATOM     65  C   UNL A   1      44.015  31.030  32.545  1.00  0.00     0.029 A 
ATOM     66  N   UNL A   1      44.790  29.071  31.917  1.00  0.00    -0.354 N 
ATOM     67  N   UNL A   1      44.454  27.625  27.852  1.00  0.00    -0.248 NA
ATOM     68  C   UNL A   1      43.922  25.870  29.295  1.00  0.00     0.031 C 
ATOM     69  C   UNL A   1      44.609  31.137  31.252  1.00  0.00     0.029 A 
ATOM     70  C   UNL A   1      44.869  29.844  30.792  1.00  0.00     0.049 A 
ATOM     71  H   UNL A   1      45.280  28.233  32.082  1.00  0.00     0.167 HD
ATOM     72  C   UNL A   1      44.846  27.991  29.131  1.00  0.00     0.074 A 
ATOM     73  C   UNL A   1      44.623  26.801  29.946  1.00  0.00     0.031 C 
ATOM     74  C   UNL A   1      45.035  29.305  29.458  1.00  0.00     0.034 A 
BRANCH  61  75
ATOM     75  C   UNL A   1      43.427  27.671  34.313  1.00  0.00     0.023 A 
ATOM     76  C   UNL A   1      43.904  27.999  35.605  1.00  0.00     0.012 A 
ATOM     77  C   UNL A   1      43.691  26.363  33.851  1.00  0.00     0.148 A 
ATOM     78  C   UNL A   1      44.650  27.093  36.368  1.00  0.00     0.002 A 
ATOM     79  C   UNL A   1      44.359  25.439  34.647  1.00  0.00     0.091 A 
ATOM     80  F   UNL A   1      43.429  26.035  32.583  1.00  0.00    -0.205 F 
ATOM     81  C   UNL A   1      44.871  25.807  35.893  1.00  0.00     0.022 A 
BRANCH  79  82
ATOM     82  S   UNL A   1      44.613  23.746  34.103  1.00  0.00     0.127 S 
ATOM     83  O   UNL A   1      43.244  23.244  34.066  1.00  0.00    -0.237 OA
ATOM     84  O   UNL A   1      45.240  23.940  32.796  1.00  0.00    -0.237 OA
ATOM     85  O   UNL A   1      45.494  23.152  35.102  1.00  0.00    -0.744 OA
ENDBRANCH  79  82
ENDBRANCH  61  75
BRANCH  62  86
ATOM     86  C   UNL A   1      42.451  24.992  26.419  1.00  0.00     0.023 A 
ATOM     87  C   UNL A   1      43.452  24.708  25.470  1.00  0.00     0.012 A 
ATOM     88  C   UNL A   1      41.559  23.960  26.784  1.00  0.00     0.148 A 
ATOM     89  C   UNL A   1      43.592  23.423  24.936  1.00  0.00     0.002 A 
ATOM     90  C   UNL A   1      41.701  22.683  26.248  1.00  0.00     0.091 A 
ATOM     91  F   UNL A   1      40.636  24.207  27.723  1.00  0.00    -0.205 F 
ATOM     92  C   UNL A   1      42.727  22.409  25.333  1.00  0.00     0.022 A 
BRANCH  90  93
ATOM     93  S   UNL A   1      40.639  21.316  26.735  1.00  0.00     0.127 S 
ATOM     94  O   UNL A   1      40.784  21.322  28.191  1.00  0.00    -0.237 OA
ATOM     95  O   UNL A   1      39.335  21.760  26.248  1.00  0.00    -0.237 OA
ATOM     96  O   UNL A   1      41.187  20.133  26.084  1.00  0.00    -0.744 OA
ENDBRANCH  90  93
ENDBRANCH  62  86
BRANCH  74  97
ATOM     97  C   UNL A   1      45.139  30.310  28.338  1.00  0.00     0.023 A 
ATOM     98  C   UNL A   1      44.005  30.827  27.676  1.00  0.00     0.012 A 
ATOM     99  C   UNL A   1      46.399  30.867  28.053  1.00  0.00     0.148 A 
ATOM    100  C   UNL A   1      44.128  31.850  26.732  1.00  0.00     0.002 A 
ATOM    101  C   UNL A   1      46.511  31.919  27.151  1.00  0.00     0.091 A 
ATOM    102  F   UNL A   1      47.471  30.371  28.690  1.00  0.00    -0.205 F 
ATOM    103  C   UNL A   1      45.379  32.405  26.479  1.00  0.00     0.022 A 
BRANCH 101 104
ATOM    104  S   UNL A   1      48.073  32.760  26.885  1.00  0.00     0.127 S 
ATOM    105  O   UNL A   1      47.706  33.792  25.918  1.00  0.00    -0.237 OA
ATOM    106  O   UNL A   1      48.395  33.263  28.222  1.00  0.00    -0.237 OA
ATOM    107  O   UNL A   1      48.997  31.740  26.400  1.00  0.00    -0.744 OA
ENDBRANCH 101 104
ENDBRANCH  74  97
ENDBRANCH  48  49
ENDBRANCH  40  43
ENDBRANCH  38  39
ENDBRANCH  37  38
ENDBRANCH   1  37
TORSDOF 20
ENDMDL
MODEL 2
REMARK VINA RESULT:     -13.4      3.309      5.487
REMARK SMILES COc1ccc(-c2[nH]nc3nc(-c4ccc(C(F)(F)F)cc4)cc(C(=O)NCCCCCCNC(=O)c4ccc(-c5c6nc(c(-c7cccc(S(=O)(=O)[O-])c7F)c7ccc([nH]7)c(-c7cccc(S(=O)(=O)[O-])c7F)c7nc(c(-c8cccc(S(=O)(=O)[O-])c8F)c8ccc5[nH]8)C=C7)C=C6)cc4)c23)cc1
REMARK SMILES IDX 31 1 30 2 29 3 28 4 27 5 25 6 26 7 24 9 7 10 8 11 100 12
REMARK SMILES IDX 9 13 10 15 11 16 23 17 12 18 6 19 3 20 4 21 102 22 5 23
REMARK SMILES IDX 101 24 2 25 1 26 13 27 14 28 22 29 15 30 21 31 16 32 17 33
REMARK SMILES IDX 18 34 19 35 20 36 32 37 33 38 34 39 35 40 36 42 37 43 38 44
REMARK SMILES IDX 99 45 39 46 98 47 40 48 41 49 42 50 92 51 43 52 97 53 91 54
REMARK SMILES IDX 93 55 44 56 96 57 90 58 89 59 45 61 77 62 57 63 76 64 58 65
REMARK SMILES IDX 61 66 75 67 94 68 59 69 60 70 74 72 95 73 62 74 46 75 47 76
REMARK SMILES IDX 55 77 48 78 50 79 56 80 49 81 51 82 52 83 53 84 54 85 78 86
REMARK SMILES IDX 79 87 87 88 80 89 82 90 88 91 81 92 83 93 84 94 85 95 86 96
REMARK SMILES IDX 63 97 64 98 72 99 65 100 67 101 73 102 66 103 68 104 69 105
REMARK SMILES IDX 70 106 71 107
REMARK H PARENT 27 8 8 14 34 41 93 60 61 71
REMARK Flexibility Score: inf
ROOT
ATOM      1  C   UNL A   1      34.227  29.073  27.343  1.00  0.00     0.002 C 
ENDROOT
BRANCH   1   2
ATOM      2  C   UNL A   1      33.921  28.305  26.046  1.00  0.00     0.002 C 
BRANCH   2   3
ATOM      3  C   UNL A   1      33.338  26.896  26.225  1.00  0.00     0.021 C 
BRANCH   3   4
ATOM      4  C   UNL A   1      32.139  26.847  27.168  1.00  0.00     0.116 C 
BRANCH   4   5
ATOM      5  N   UNL A   1      30.921  26.498  26.466  1.00  0.00    -0.352 N 
ATOM      6  C   UNL A   1      30.596  25.720  25.387  1.00  0.00     0.252 C 
ATOM      7  O   UNL A   1      29.393  25.480  25.309  1.00  0.00    -0.269 OA
ATOM      8  H   UNL A   1      30.130  26.927  26.865  1.00  0.00     0.163 HD
BRANCH   6   9
ATOM      9  C   UNL A   1      31.563  25.111  24.440  1.00  0.00     0.055 A 
ATOM     10  C   UNL A   1      31.623  26.785  22.519  1.00  0.00     0.075 A 
ATOM     11  N   UNL A   1      32.188  26.658  21.271  1.00  0.00    -0.275 N 
ATOM     12  C   UNL A   1      31.880  25.570  23.143  1.00  0.00     0.059 A 
ATOM     13  N   UNL A   1      32.732  25.468  21.003  1.00  0.00    -0.154 NA
ATOM     14  H   UNL A   1      32.191  27.396  20.619  1.00  0.00     0.190 HD
ATOM     15  C   UNL A   1      32.602  24.803  22.150  1.00  0.00     0.182 A 
ATOM     16  N   UNL A   1      33.036  23.537  22.366  1.00  0.00    -0.226 NA
ATOM     17  C   UNL A   1      32.221  23.896  24.666  1.00  0.00     0.043 A 
ATOM     18  C   UNL A   1      32.838  23.132  23.643  1.00  0.00     0.074 A 
BRANCH  10  19
ATOM     19  C   UNL A   1      31.002  28.051  22.895  1.00  0.00     0.001 A 
ATOM     20  C   UNL A   1      29.714  30.434  23.662  1.00  0.00     0.118 A 
ATOM     21  C   UNL A   1      29.212  29.664  22.611  1.00  0.00     0.047 A 
ATOM     22  C   UNL A   1      30.870  30.017  24.323  1.00  0.00     0.047 A 
ATOM     23  C   UNL A   1      29.852  28.485  22.223  1.00  0.00     0.014 A 
ATOM     24  C   UNL A   1      31.521  28.839  23.928  1.00  0.00     0.014 A 
BRANCH  20  25
ATOM     25  O   UNL A   1      28.968  31.538  23.972  1.00  0.00    -0.497 OA
ATOM     26  C   UNL A   1      27.592  31.479  23.620  1.00  0.00     0.278 C 
ENDBRANCH  20  25
ENDBRANCH  10  19
BRANCH  18  27
ATOM     27  C   UNL A   1      33.135  21.719  23.939  1.00  0.00     0.000 A 
ATOM     28  C   UNL A   1      32.327  20.671  23.489  1.00  0.00     0.011 A 
ATOM     29  C   UNL A   1      34.323  21.396  24.629  1.00  0.00     0.011 A 
ATOM     30  C   UNL A   1      32.717  19.338  23.682  1.00  0.00     0.014 A 
ATOM     31  C   UNL A   1      34.711  20.070  24.825  1.00  0.00     0.014 A 
ATOM     32  C   UNL A   1      33.917  19.025  24.341  1.00  0.00     0.056 A 
BRANCH  32  33
ATOM     33  C   UNL A   1      34.349  17.586  24.511  1.00  0.00     0.416 C 
ATOM     34  F   UNL A   1      35.676  17.468  24.782  1.00  0.00    -0.166 F 
ATOM     35  F   UNL A   1      33.679  16.952  25.503  1.00  0.00    -0.166 F 
ATOM     36  F   UNL A   1      34.139  16.840  23.384  1.00  0.00    -0.166 F 
ENDBRANCH  32  33
ENDBRANCH  18  27
ENDBRANCH   6   9
ENDBRANCH   4   5
ENDBRANCH   3   4
ENDBRANCH   2   3
ENDBRANCH   1   2
BRANCH   1  37
ATOM     37  C   UNL A   1      33.593  30.467  27.475  1.00  0.00     0.021 C 
BRANCH  37  38
ATOM     38  C   UNL A   1      34.603  31.592  27.651  1.00  0.00     0.116 C 
BRANCH  38  39
ATOM     39  N   UNL A   1      34.536  32.165  28.991  1.00  0.00    -0.352 N 
ATOM     40  C   UNL A   1      35.259  31.818  30.110  1.00  0.00     0.251 C 
ATOM     41  H   UNL A   1      33.889  32.896  29.111  1.00  0.00     0.163 HD
ATOM     42  O   UNL A   1      34.867  32.137  31.225  1.00  0.00    -0.269 OA
BRANCH  40  43
ATOM     43  C   UNL A   1      36.497  31.036  29.947  1.00  0.00     0.039 A 
ATOM     44  C   UNL A   1      37.697  31.683  29.652  1.00  0.00     0.014 A 
ATOM     45  C   UNL A   1      36.458  29.654  30.129  1.00  0.00     0.014 A 
ATOM     46  C   UNL A   1      38.874  30.941  29.631  1.00  0.00     0.010 A 
ATOM     47  C   UNL A   1      37.636  28.944  30.226  1.00  0.00     0.010 A 
ATOM     48  C   UNL A   1      38.848  29.573  29.950  1.00  0.00    -0.014 A 
BRANCH  48  49
ATOM     49  C   UNL A   1      40.112  28.849  30.106  1.00  0.00     0.031 A 
ATOM     50  C   UNL A   1      40.653  28.809  31.496  1.00  0.00     0.074 A 
ATOM     51  C   UNL A   1      40.701  28.110  29.142  1.00  0.00     0.049 A 
ATOM     52  N   UNL A   1      41.723  29.383  31.942  1.00  0.00    -0.248 NA
ATOM     53  C   UNL A   1      39.852  28.147  32.536  1.00  0.00     0.031 C 
ATOM     54  C   UNL A   1      40.179  27.765  27.815  1.00  0.00     0.029 A 
ATOM     55  N   UNL A   1      41.860  27.394  29.205  1.00  0.00    -0.354 N 
ATOM     56  C   UNL A   1      41.852  28.966  33.266  1.00  0.00     0.074 A 
ATOM     57  C   UNL A   1      40.596  28.361  33.623  1.00  0.00     0.031 C 
ATOM     58  C   UNL A   1      40.872  26.719  27.317  1.00  0.00     0.029 A 
ATOM     59  C   UNL A   1      41.996  26.452  28.194  1.00  0.00     0.049 A 
ATOM     60  H   UNL A   1      42.539  27.533  29.905  1.00  0.00     0.167 HD
ATOM     61  C   UNL A   1      43.064  28.939  33.889  1.00  0.00     0.034 A 
ATOM     62  C   UNL A   1      42.951  25.500  28.092  1.00  0.00     0.034 A 
ATOM     63  C   UNL A   1      44.051  29.699  33.168  1.00  0.00     0.049 A 
ATOM     64  C   UNL A   1      44.098  25.939  28.911  1.00  0.00     0.074 A 
ATOM     65  C   UNL A   1      44.181  31.009  32.752  1.00  0.00     0.029 A 
ATOM     66  N   UNL A   1      44.975  28.981  32.451  1.00  0.00    -0.354 N 
ATOM     67  N   UNL A   1      44.842  26.970  28.621  1.00  0.00    -0.248 NA
ATOM     68  C   UNL A   1      44.223  25.438  30.269  1.00  0.00     0.031 C 
ATOM     69  C   UNL A   1      44.843  30.931  31.490  1.00  0.00     0.029 A 
ATOM     70  C   UNL A   1      45.118  29.585  31.233  1.00  0.00     0.049 A 
ATOM     71  H   UNL A   1      45.450  28.174  32.759  1.00  0.00     0.167 HD
ATOM     72  C   UNL A   1      45.169  27.515  29.853  1.00  0.00     0.074 A 
ATOM     73  C   UNL A   1      44.895  26.453  30.816  1.00  0.00     0.031 C 
ATOM     74  C   UNL A   1      45.350  28.862  30.000  1.00  0.00     0.034 A 
BRANCH  61  75
ATOM     75  C   UNL A   1      43.479  27.935  34.946  1.00  0.00     0.023 A 
ATOM     76  C   UNL A   1      44.059  28.442  36.134  1.00  0.00     0.012 A 
ATOM     77  C   UNL A   1      43.594  26.545  34.726  1.00  0.00     0.148 A 
ATOM     78  C   UNL A   1      44.764  27.619  37.020  1.00  0.00     0.002 A 
ATOM     79  C   UNL A   1      44.221  25.718  35.652  1.00  0.00     0.091 A 
ATOM     80  F   UNL A   1      43.228  26.020  33.553  1.00  0.00    -0.205 F 
ATOM     81  C   UNL A   1      44.838  26.253  36.784  1.00  0.00     0.022 A 
BRANCH  79  82
ATOM     82  S   UNL A   1      44.286  23.938  35.422  1.00  0.00     0.127 S 
ATOM     83  O   UNL A   1      45.127  23.827  34.236  1.00  0.00    -0.237 OA
ATOM     84  O   UNL A   1      44.908  23.495  36.669  1.00  0.00    -0.237 OA
ATOM     85  O   UNL A   1      42.896  23.522  35.271  1.00  0.00    -0.744 OA
ENDBRANCH  79  82
ENDBRANCH  61  75
BRANCH  62  86
ATOM     86  C   UNL A   1      42.899  24.158  27.473  1.00  0.00     0.023 A 
ATOM     87  C   UNL A   1      41.688  23.439  27.478  1.00  0.00     0.012 A 
ATOM     88  C   UNL A   1      43.943  23.711  26.634  1.00  0.00     0.148 A 
ATOM     89  C   UNL A   1      41.505  22.336  26.638  1.00  0.00     0.002 A 
ATOM     90  C   UNL A   1      43.756  22.612  25.801  1.00  0.00     0.091 A 
ATOM     91  F   UNL A   1      45.079  24.419  26.585  1.00  0.00    -0.205 F 
ATOM     92  C   UNL A   1      42.532  21.930  25.791  1.00  0.00     0.022 A 
BRANCH  90  93
ATOM     93  S   UNL A   1      45.027  22.047  24.660  1.00  0.00     0.127 S 
ATOM     94  O   UNL A   1      44.439  20.815  24.135  1.00  0.00    -0.237 OA
ATOM     95  O   UNL A   1      45.088  23.152  23.706  1.00  0.00    -0.237 OA
ATOM     96  O   UNL A   1      46.223  21.842  25.467  1.00  0.00    -0.744 OA
ENDBRANCH  90  93
ENDBRANCH  62  86
BRANCH  74  97
ATOM     97  C   UNL A   1      45.519  29.697  28.755  1.00  0.00     0.023 A 
ATOM     98  C   UNL A   1      44.422  30.140  27.985  1.00  0.00     0.012 A 
ATOM     99  C   UNL A   1      46.802  30.182  28.444  1.00  0.00     0.148 A 
ATOM    100  C   UNL A   1      44.606  31.017  26.913  1.00  0.00     0.002 A 
ATOM    101  C   UNL A   1      46.973  31.094  27.409  1.00  0.00     0.091 A 
ATOM    102  F   UNL A   1      47.838  29.758  29.185  1.00  0.00    -0.205 F 
ATOM    103  C   UNL A   1      45.879  31.505  26.633  1.00  0.00     0.022 A 
BRANCH 101 104
ATOM    104  S   UNL A   1      48.566  31.857  27.088  1.00  0.00     0.127 S 
ATOM    105  O   UNL A   1      48.229  32.859  26.080  1.00  0.00    -0.237 OA
ATOM    106  O   UNL A   1      48.925  32.404  28.398  1.00  0.00    -0.237 OA
ATOM    107  O   UNL A   1      49.439  30.779  26.639  1.00  0.00    -0.744 OA
ENDBRANCH 101 104
ENDBRANCH  74  97
ENDBRANCH  48  49
ENDBRANCH  40  43
ENDBRANCH  38  39
ENDBRANCH  37  38
ENDBRANCH   1  37
TORSDOF 20
ENDMDL
MODEL 3
REMARK VINA RESULT:     -12.5      3.332      5.544
REMARK SMILES COc1ccc(-c2[nH]nc3nc(-c4ccc(C(F)(F)F)cc4)cc(C(=O)NCCCCCCNC(=O)c4ccc(-c5c6nc(c(-c7cccc(S(=O)(=O)[O-])c7F)c7ccc([nH]7)c(-c7cccc(S(=O)(=O)[O-])c7F)c7nc(c(-c8cccc(S(=O)(=O)[O-])c8F)c8ccc5[nH]8)C=C7)C=C6)cc4)c23)cc1
REMARK SMILES IDX 31 1 30 2 29 3 28 4 27 5 25 6 26 7 24 9 7 10 8 11 100 12
REMARK SMILES IDX 9 13 10 15 11 16 23 17 12 18 6 19 3 20 4 21 102 22 5 23
REMARK SMILES IDX 101 24 2 25 1 26 13 27 14 28 22 29 15 30 21 31 16 32 17 33
REMARK SMILES IDX 18 34 19 35 20 36 32 37 33 38 34 39 35 40 36 42 37 43 38 44
REMARK SMILES IDX 99 45 39 46 98 47 40 48 41 49 42 50 92 51 43 52 97 53 91 54
REMARK SMILES IDX 93 55 44 56 96 57 90 58 89 59 45 61 77 62 57 63 76 64 58 65
REMARK SMILES IDX 61 66 75 67 94 68 59 69 60 70 74 72 95 73 62 74 46 75 47 76
REMARK SMILES IDX 55 77 48 78 50 79 56 80 49 81 51 82 52 83 53 84 54 85 78 86
REMARK SMILES IDX 79 87 87 88 80 89 82 90 88 91 81 92 83 93 84 94 85 95 86 96
REMARK SMILES IDX 63 97 64 98 72 99 65 100 67 101 73 102 66 103 68 104 69 105
REMARK SMILES IDX 70 106 71 107
REMARK H PARENT 27 8 8 14 34 41 93 60 61 71
REMARK Flexibility Score: inf
ROOT
ATOM      1  C   UNL A   1      35.389  30.229  27.884  1.00  0.00     0.002 C 
ENDROOT
BRANCH   1   2
ATOM      2  C   UNL A   1      34.620  29.247  26.985  1.00  0.00     0.002 C 
BRANCH   2   3
ATOM      3  C   UNL A   1      33.091  29.258  27.137  1.00  0.00     0.021 C 
BRANCH   3   4
ATOM      4  C   UNL A   1      32.349  28.858  25.864  1.00  0.00     0.116 C 
BRANCH   4   5
ATOM      5  N   UNL A   1      31.527  27.684  26.072  1.00  0.00    -0.352 N 
ATOM      6  C   UNL A   1      31.528  26.391  25.625  1.00  0.00     0.252 C 
ATOM      7  O   UNL A   1      30.802  25.650  26.284  1.00  0.00    -0.269 OA
ATOM      8  H   UNL A   1      30.781  27.862  26.690  1.00  0.00     0.163 HD
BRANCH   6   9
ATOM      9  C   UNL A   1      32.377  25.857  24.531  1.00  0.00     0.055 A 
ATOM     10  C   UNL A   1      31.304  26.832  22.436  1.00  0.00     0.075 A 
ATOM     11  N   UNL A   1      31.536  26.526  21.114  1.00  0.00    -0.275 N 
ATOM     12  C   UNL A   1      32.153  25.991  23.143  1.00  0.00     0.059 A 
ATOM     13  N   UNL A   1      32.404  25.534  20.898  1.00  0.00    -0.154 NA
ATOM     14  H   UNL A   1      31.092  27.006  20.378  1.00  0.00     0.190 HD
ATOM     15  C   UNL A   1      32.834  25.225  22.120  1.00  0.00     0.182 A 
ATOM     16  N   UNL A   1      33.756  24.273  22.400  1.00  0.00    -0.226 NA
ATOM     17  C   UNL A   1      33.482  25.021  24.735  1.00  0.00     0.043 A 
ATOM     18  C   UNL A   1      34.060  24.217  23.720  1.00  0.00     0.074 A 
BRANCH  10  19
ATOM     19  C   UNL A   1      30.366  27.901  22.764  1.00  0.00     0.001 A 
ATOM     20  C   UNL A   1      28.556  29.994  23.287  1.00  0.00     0.118 A 
ATOM     21  C   UNL A   1      29.882  30.271  22.952  1.00  0.00     0.047 A 
ATOM     22  C   UNL A   1      28.137  28.665  23.373  1.00  0.00     0.047 A 
ATOM     23  C   UNL A   1      30.785  29.236  22.699  1.00  0.00     0.014 A 
ATOM     24  C   UNL A   1      29.044  27.623  23.130  1.00  0.00     0.014 A 
BRANCH  20  25
ATOM     25  O   UNL A   1      27.766  31.096  23.464  1.00  0.00    -0.497 OA
ATOM     26  C   UNL A   1      27.840  32.085  22.446  1.00  0.00     0.278 C 
ENDBRANCH  20  25
ENDBRANCH  10  19
BRANCH  18  27
ATOM     27  C   UNL A   1      34.937  23.113  24.148  1.00  0.00     0.000 A 
ATOM     28  C   UNL A   1      34.469  22.028  24.895  1.00  0.00     0.011 A 
ATOM     29  C   UNL A   1      36.282  23.098  23.722  1.00  0.00     0.011 A 
ATOM     30  C   UNL A   1      35.307  20.937  25.169  1.00  0.00     0.014 A 
ATOM     31  C   UNL A   1      37.119  22.015  23.996  1.00  0.00     0.014 A 
ATOM     32  C   UNL A   1      36.635  20.915  24.712  1.00  0.00     0.056 A 
BRANCH  32  33
ATOM     33  C   UNL A   1      37.521  19.719  24.979  1.00  0.00     0.416 C 
ATOM     34  F   UNL A   1      36.812  18.568  25.123  1.00  0.00    -0.166 F 
ATOM     35  F   UNL A   1      38.428  19.510  23.995  1.00  0.00    -0.166 F 
ATOM     36  F   UNL A   1      38.244  19.850  26.131  1.00  0.00    -0.166 F 
ENDBRANCH  32  33
ENDBRANCH  18  27
ENDBRANCH   6   9
ENDBRANCH   4   5
ENDBRANCH   3   4
ENDBRANCH   2   3
ENDBRANCH   1   2
BRANCH   1  37
ATOM     37  C   UNL A   1      34.826  31.655  27.975  1.00  0.00     0.021 C 
BRANCH  37  38
ATOM     38  C   UNL A   1      35.885  32.727  28.190  1.00  0.00     0.116 C 
BRANCH  38  39
ATOM     39  N   UNL A   1      35.902  33.191  29.573  1.00  0.00    -0.352 N 
ATOM     40  C   UNL A   1      36.618  32.690  30.638  1.00  0.00     0.251 C 
ATOM     41  H   UNL A   1      35.327  33.963  29.772  1.00  0.00     0.163 HD
ATOM     42  O   UNL A   1      36.282  32.950  31.787  1.00  0.00    -0.269 OA
BRANCH  40  43
ATOM     43  C   UNL A   1      37.776  31.819  30.374  1.00  0.00     0.039 A 
ATOM     44  C   UNL A   1      39.046  32.375  30.226  1.00  0.00     0.014 A 
ATOM     45  C   UNL A   1      37.589  30.439  30.316  1.00  0.00     0.014 A 
ATOM     46  C   UNL A   1      40.142  31.525  30.107  1.00  0.00     0.010 A 
ATOM     47  C   UNL A   1      38.684  29.601  30.320  1.00  0.00     0.010 A 
ATOM     48  C   UNL A   1      39.965  30.133  30.186  1.00  0.00    -0.014 A 
BRANCH  48  49
ATOM     49  C   UNL A   1      41.141  29.263  30.248  1.00  0.00     0.031 A 
ATOM     50  C   UNL A   1      41.626  28.947  31.623  1.00  0.00     0.074 A 
ATOM     51  C   UNL A   1      41.683  28.625  29.189  1.00  0.00     0.049 A 
ATOM     52  N   UNL A   1      42.733  29.326  32.174  1.00  0.00    -0.248 NA
ATOM     53  C   UNL A   1      40.724  28.221  32.529  1.00  0.00     0.031 C 
ATOM     54  C   UNL A   1      41.175  28.550  27.815  1.00  0.00     0.029 A 
ATOM     55  N   UNL A   1      42.760  27.788  29.158  1.00  0.00    -0.354 N 
ATOM     56  C   UNL A   1      42.772  28.695  33.417  1.00  0.00     0.074 A 
ATOM     57  C   UNL A   1      41.448  28.180  33.650  1.00  0.00     0.031 C 
ATOM     58  C   UNL A   1      41.775  27.527  27.169  1.00  0.00     0.029 A 
ATOM     59  C   UNL A   1      42.833  27.007  28.013  1.00  0.00     0.049 A 
ATOM     60  H   UNL A   1      43.425  27.741  29.883  1.00  0.00     0.167 HD
ATOM     61  C   UNL A   1      43.952  28.441  34.050  1.00  0.00     0.034 A 
ATOM     62  C   UNL A   1      43.688  25.986  27.777  1.00  0.00     0.034 A 
ATOM     63  C   UNL A   1      45.037  29.194  33.477  1.00  0.00     0.049 A 
ATOM     64  C   UNL A   1      44.845  26.165  28.677  1.00  0.00     0.074 A 
ATOM     65  C   UNL A   1      45.316  30.531  33.278  1.00  0.00     0.029 A 
ATOM     66  N   UNL A   1      45.906  28.502  32.672  1.00  0.00    -0.354 N 
ATOM     67  N   UNL A   1      45.701  27.142  28.569  1.00  0.00    -0.248 NA
ATOM     68  C   UNL A   1      44.870  25.447  29.939  1.00  0.00     0.031 C 
ATOM     69  C   UNL A   1      46.010  30.581  32.032  1.00  0.00     0.029 A 
ATOM     70  C   UNL A   1      46.153  29.271  31.568  1.00  0.00     0.049 A 
ATOM     71  H   UNL A   1      46.284  27.611  32.856  1.00  0.00     0.167 HD
ATOM     72  C   UNL A   1      46.039  27.449  29.878  1.00  0.00     0.074 A 
ATOM     73  C   UNL A   1      45.624  26.285  30.654  1.00  0.00     0.031 C 
ATOM     74  C   UNL A   1      46.353  28.730  30.241  1.00  0.00     0.034 A 
BRANCH  61  75
ATOM     75  C   UNL A   1      44.223  27.245  34.941  1.00  0.00     0.023 A 
ATOM     76  C   UNL A   1      44.892  27.484  36.166  1.00  0.00     0.012 A 
ATOM     77  C   UNL A   1      44.122  25.900  34.524  1.00  0.00     0.148 A 
ATOM     78  C   UNL A   1      45.475  26.446  36.902  1.00  0.00     0.002 A 
ATOM     79  C   UNL A   1      44.629  24.864  35.302  1.00  0.00     0.091 A 
ATOM     80  F   UNL A   1      43.664  25.609  33.303  1.00  0.00    -0.205 F 
ATOM     81  C   UNL A   1      45.336  25.133  36.475  1.00  0.00     0.022 A 
BRANCH  79  82
ATOM     82  S   UNL A   1      44.418  23.146  34.823  1.00  0.00     0.127 S 
ATOM     83  O   UNL A   1      42.997  23.105  34.501  1.00  0.00    -0.237 OA
ATOM     84  O   UNL A   1      45.320  23.039  33.677  1.00  0.00    -0.237 OA
ATOM     85  O   UNL A   1      44.840  22.372  35.986  1.00  0.00    -0.744 OA
ENDBRANCH  79  82
ENDBRANCH  61  75
BRANCH  62  86
ATOM     86  C   UNL A   1      43.520  24.771  26.951  1.00  0.00     0.023 A 
ATOM     87  C   UNL A   1      44.615  24.273  26.219  1.00  0.00     0.012 A 
ATOM     88  C   UNL A   1      42.384  23.946  27.107  1.00  0.00     0.148 A 
ATOM     89  C   UNL A   1      44.600  22.975  25.699  1.00  0.00     0.002 A 
ATOM     90  C   UNL A   1      42.374  22.655  26.585  1.00  0.00     0.091 A 
ATOM     91  F   UNL A   1      41.359  24.392  27.844  1.00  0.00    -0.205 F 
ATOM     92  C   UNL A   1      43.487  22.162  25.892  1.00  0.00     0.022 A 
BRANCH  90  93
ATOM     93  S   UNL A   1      40.983  21.539  26.819  1.00  0.00     0.127 S 
ATOM     94  O   UNL A   1      39.878  22.306  26.244  1.00  0.00    -0.237 OA
ATOM     95  O   UNL A   1      41.394  20.377  26.036  1.00  0.00    -0.237 OA
ATOM     96  O   UNL A   1      40.879  21.328  28.257  1.00  0.00    -0.744 OA
ENDBRANCH  90  93
ENDBRANCH  62  86
BRANCH  74  97
ATOM     97  C   UNL A   1      46.650  29.727  29.148  1.00  0.00     0.023 A 
ATOM     98  C   UNL A   1      47.940  29.882  28.595  1.00  0.00     0.012 A 
ATOM     99  C   UNL A   1      45.574  30.410  28.555  1.00  0.00     0.148 A 
ATOM    100  C   UNL A   1      48.154  30.721  27.499  1.00  0.00     0.002 A 
ATOM    101  C   UNL A   1      45.783  31.204  27.433  1.00  0.00     0.091 A 
ATOM    102  F   UNL A   1      44.352  30.253  29.085  1.00  0.00    -0.205 F 
ATOM    103  C   UNL A   1      47.074  31.372  26.909  1.00  0.00     0.022 A 
BRANCH 101 104
ATOM    104  S   UNL A   1      44.413  31.959  26.553  1.00  0.00     0.127 S 
ATOM    105  O   UNL A   1      43.960  32.973  27.502  1.00  0.00    -0.237 OA
ATOM    106  O   UNL A   1      45.062  32.491  25.353  1.00  0.00    -0.237 OA
ATOM    107  O   UNL A   1      43.470  30.879  26.284  1.00  0.00    -0.744 OA
ENDBRANCH 101 104
ENDBRANCH  74  97
ENDBRANCH  48  49
ENDBRANCH  40  43
ENDBRANCH  38  39
ENDBRANCH  37  38
ENDBRANCH   1  37
TORSDOF 20
ENDMDL
