MODEL 1
REMARK VINA RESULT:     -11.3      0.000      0.000
REMARK SMILES CC(C)Cc1cc2c(cc1Cl)C=C(C(=O)NCCCCCCNC(=O)c1ccc(-c3c4nc(c(-c5cccc(S(=O)(=O)[O-])c5F)c5ccc([nH]5)c(-c5cccc(S(=O)(=O)[O-])c5F)c5nc(c(-c6cccc(S(=O)(=O)[O-])c6F)c6ccc3[nH]6)C=C5)C=C4)cc1)[C@@H](C(F)(F)F)O2
REMARK SMILES IDX 20 1 19 2 18 3 17 4 16 5 14 6 15 7 13 9 5 10 6 11 10 12 7 13
REMARK SMILES IDX 9 14 11 15 8 16 94 17 12 18 89 19 4 20 2 21 1 22 3 23 90 24
REMARK SMILES IDX 91 25 92 26 93 27 21 28 22 29 23 30 24 31 25 33 26 34 27 35
REMARK SMILES IDX 88 36 28 37 87 38 29 39 30 40 31 41 81 42 32 43 86 44 80 45
REMARK SMILES IDX 82 46 33 47 85 48 79 49 78 50 34 52 66 53 46 54 65 55 47 56
REMARK SMILES IDX 50 57 64 58 83 59 48 60 49 61 63 63 84 64 51 65 35 66 36 67
REMARK SMILES IDX 44 68 37 69 39 70 45 71 38 72 40 73 41 74 42 75 43 76 67 77
REMARK SMILES IDX 68 78 76 79 69 80 71 81 77 82 70 83 72 84 73 85 74 86 75 87
REMARK SMILES IDX 52 88 53 89 61 90 54 91 56 92 62 93 55 94 57 95 58 96 59 97
REMARK SMILES IDX 60 98
REMARK H PARENT 16 8 23 32 82 51 50 62
REMARK Flexibility Score: inf
ROOT
ATOM      1  C   UNL A   1      37.756  21.447  25.131  1.00  0.00     0.002 C 
ENDROOT
BRANCH   1   2
ATOM      2  C   UNL A   1      36.993  21.884  23.876  1.00  0.00     0.002 C 
BRANCH   2   3
ATOM      3  C   UNL A   1      36.201  23.190  23.987  1.00  0.00     0.021 C 
BRANCH   3   4
ATOM      4  C   UNL A   1      36.192  23.829  25.371  1.00  0.00     0.116 C 
BRANCH   4   5
ATOM      5  N   UNL A   1      35.103  23.349  26.199  1.00  0.00    -0.352 N 
ATOM      6  C   UNL A   1      33.790  23.643  26.337  1.00  0.00     0.251 C 
ATOM      7  O   UNL A   1      33.174  22.966  27.167  1.00  0.00    -0.270 OA
ATOM      8  H   UNL A   1      35.390  22.632  26.809  1.00  0.00     0.163 HD
BRANCH   6   9
ATOM      9  C   UNL A   1      33.066  24.708  25.577  1.00  0.00     0.067 C 
ATOM     10  C   UNL A   1      30.902  29.133  24.394  1.00  0.00    -0.025 A 
ATOM     11  C   UNL A   1      30.965  27.868  23.786  1.00  0.00     0.052 A 
ATOM     12  C   UNL A   1      31.613  29.330  25.589  1.00  0.00     0.045 A 
ATOM     13  C   UNL A   1      31.691  26.826  24.366  1.00  0.00     0.128 A 
ATOM     14  C   UNL A   1      32.328  28.278  26.174  1.00  0.00     0.032 A 
ATOM     15  Cl  UNL A   1      31.656  30.857  26.396  1.00  0.00    -0.084 Cl
ATOM     16  C   UNL A   1      32.363  27.020  25.566  1.00  0.00     0.019 A 
ATOM     17  O   UNL A   1      31.698  25.653  23.681  1.00  0.00    -0.475 OA
ATOM     18  C   UNL A   1      33.089  25.915  26.170  1.00  0.00     0.025 C 
ATOM     19  C   UNL A   1      32.298  24.480  24.298  1.00  0.00     0.314 C 
BRANCH  10  20
ATOM     20  C   UNL A   1      30.040  30.194  23.744  1.00  0.00     0.040 C 
BRANCH  20  21
ATOM     21  C   UNL A   1      29.064  29.629  22.688  1.00  0.00    -0.013 C 
ATOM     22  C   UNL A   1      27.617  29.593  23.184  1.00  0.00     0.008 C 
ATOM     23  C   UNL A   1      29.143  30.467  21.410  1.00  0.00     0.008 C 
ENDBRANCH  20  21
ENDBRANCH  10  20
BRANCH  19  24
ATOM     24  C   UNL A   1      31.195  23.415  24.410  1.00  0.00     0.429 C 
ATOM     25  F   UNL A   1      30.309  23.547  23.391  1.00  0.00    -0.167 F 
ATOM     26  F   UNL A   1      31.666  22.151  24.341  1.00  0.00    -0.167 F 
ATOM     27  F   UNL A   1      30.502  23.518  25.567  1.00  0.00    -0.167 F 
ENDBRANCH  19  24
ENDBRANCH   6   9
ENDBRANCH   4   5
ENDBRANCH   3   4
ENDBRANCH   2   3
ENDBRANCH   1   2
BRANCH   1  28
ATOM     28  C   UNL A   1      38.641  20.207  24.985  1.00  0.00     0.021 C 
BRANCH  28  29
ATOM     29  C   UNL A   1      39.344  19.748  26.256  1.00  0.00     0.116 C 
BRANCH  29  30
ATOM     30  N   UNL A   1      40.659  19.186  26.006  1.00  0.00    -0.352 N 
ATOM     31  C   UNL A   1      41.885  19.808  26.061  1.00  0.00     0.251 C 
ATOM     32  H   UNL A   1      40.676  18.232  25.766  1.00  0.00     0.163 HD
ATOM     33  O   UNL A   1      42.895  19.214  25.697  1.00  0.00    -0.269 OA
BRANCH  31  34
ATOM     34  C   UNL A   1      41.966  21.211  26.527  1.00  0.00     0.039 A 
ATOM     35  C   UNL A   1      41.884  22.266  25.615  1.00  0.00     0.014 A 
ATOM     36  C   UNL A   1      42.176  21.467  27.884  1.00  0.00     0.014 A 
ATOM     37  C   UNL A   1      42.174  23.561  26.035  1.00  0.00     0.010 A 
ATOM     38  C   UNL A   1      42.392  22.779  28.315  1.00  0.00     0.010 A 
ATOM     39  C   UNL A   1      42.444  23.830  27.387  1.00  0.00    -0.014 A 
BRANCH  39  40
ATOM     40  C   UNL A   1      42.781  25.216  27.805  1.00  0.00     0.031 A 
ATOM     41  C   UNL A   1      44.185  25.745  27.670  1.00  0.00     0.074 A 
ATOM     42  C   UNL A   1      41.805  26.016  28.277  1.00  0.00     0.049 A 
ATOM     43  N   UNL A   1      44.646  26.931  27.972  1.00  0.00    -0.248 NA
ATOM     44  C   UNL A   1      45.204  24.830  27.128  1.00  0.00     0.031 C 
ATOM     45  C   UNL A   1      40.409  25.616  28.470  1.00  0.00     0.029 A 
ATOM     46  N   UNL A   1      41.831  27.331  28.668  1.00  0.00    -0.354 N 
ATOM     47  C   UNL A   1      46.008  26.894  27.700  1.00  0.00     0.074 A 
ATOM     48  C   UNL A   1      46.304  25.567  27.207  1.00  0.00     0.031 C 
ATOM     49  C   UNL A   1      39.705  26.672  28.904  1.00  0.00     0.029 A 
ATOM     50  C   UNL A   1      40.606  27.810  29.066  1.00  0.00     0.049 A 
ATOM     51  H   UNL A   1      42.648  27.879  28.663  1.00  0.00     0.167 HD
ATOM     52  C   UNL A   1      46.925  27.881  27.831  1.00  0.00     0.034 A 
ATOM     53  C   UNL A   1      40.242  29.026  29.519  1.00  0.00     0.034 A 
ATOM     54  C   UNL A   1      46.622  29.219  28.263  1.00  0.00     0.049 A 
ATOM     55  C   UNL A   1      41.275  30.106  29.637  1.00  0.00     0.074 A 
ATOM     56  C   UNL A   1      47.483  30.297  28.376  1.00  0.00     0.029 A 
ATOM     57  N   UNL A   1      45.369  29.664  28.646  1.00  0.00    -0.354 N 
ATOM     58  N   UNL A   1      42.543  30.069  29.305  1.00  0.00    -0.248 NA
ATOM     59  C   UNL A   1      40.832  31.398  30.180  1.00  0.00     0.031 C 
ATOM     60  C   UNL A   1      46.748  31.396  28.828  1.00  0.00     0.029 A 
ATOM     61  C   UNL A   1      45.430  31.001  28.994  1.00  0.00     0.049 A 
ATOM     62  H   UNL A   1      44.554  29.110  28.666  1.00  0.00     0.167 HD
ATOM     63  C   UNL A   1      43.047  31.331  29.589  1.00  0.00     0.074 A 
ATOM     64  C   UNL A   1      41.944  32.119  30.100  1.00  0.00     0.031 C 
ATOM     65  C   UNL A   1      44.316  31.785  29.458  1.00  0.00     0.034 A 
BRANCH  52  66
ATOM     66  C   UNL A   1      48.348  27.582  27.447  1.00  0.00     0.023 A 
ATOM     67  C   UNL A   1      49.210  27.011  28.403  1.00  0.00     0.012 A 
ATOM     68  C   UNL A   1      48.796  27.760  26.124  1.00  0.00     0.148 A 
ATOM     69  C   UNL A   1      50.503  26.629  28.050  1.00  0.00     0.002 A 
ATOM     70  C   UNL A   1      50.077  27.350  25.772  1.00  0.00     0.091 A 
ATOM     71  F   UNL A   1      47.958  28.316  25.236  1.00  0.00    -0.205 F 
ATOM     72  C   UNL A   1      50.933  26.789  26.735  1.00  0.00     0.022 A 
BRANCH  70  73
ATOM     73  S   UNL A   1      50.711  27.462  24.095  1.00  0.00     0.127 S 
ATOM     74  O   UNL A   1      50.982  28.894  23.977  1.00  0.00    -0.237 OA
ATOM     75  O   UNL A   1      51.905  26.619  24.163  1.00  0.00    -0.237 OA
ATOM     76  O   UNL A   1      49.654  26.957  23.229  1.00  0.00    -0.744 OA
ENDBRANCH  70  73
ENDBRANCH  52  66
BRANCH  53  77
ATOM     77  C   UNL A   1      38.813  29.281  29.841  1.00  0.00     0.023 A 
ATOM     78  C   UNL A   1      38.348  29.031  31.145  1.00  0.00     0.012 A 
ATOM     79  C   UNL A   1      37.943  29.853  28.893  1.00  0.00     0.148 A 
ATOM     80  C   UNL A   1      37.037  29.345  31.502  1.00  0.00     0.002 A 
ATOM     81  C   UNL A   1      36.652  30.204  29.267  1.00  0.00     0.091 A 
ATOM     82  F   UNL A   1      38.410  30.072  27.657  1.00  0.00    -0.205 F 
ATOM     83  C   UNL A   1      36.194  29.943  30.568  1.00  0.00     0.022 A 
BRANCH  81  84
ATOM     84  S   UNL A   1      35.535  31.088  28.173  1.00  0.00     0.127 S 
ATOM     85  O   UNL A   1      36.370  32.204  27.733  1.00  0.00    -0.237 OA
ATOM     86  O   UNL A   1      35.261  30.081  27.149  1.00  0.00    -0.237 OA
ATOM     87  O   UNL A   1      34.385  31.450  28.990  1.00  0.00    -0.744 OA
ENDBRANCH  81  84
ENDBRANCH  53  77
BRANCH  65  88
ATOM     88  C   UNL A   1      44.603  33.202  29.869  1.00  0.00     0.023 A 
ATOM     89  C   UNL A   1      45.164  33.446  31.136  1.00  0.00     0.012 A 
ATOM     90  C   UNL A   1      44.435  34.266  28.962  1.00  0.00     0.148 A 
ATOM     91  C   UNL A   1      45.552  34.734  31.499  1.00  0.00     0.002 A 
ATOM     92  C   UNL A   1      44.853  35.542  29.319  1.00  0.00     0.091 A 
ATOM     93  F   UNL A   1      43.888  34.004  27.766  1.00  0.00    -0.205 F 
ATOM     94  C   UNL A   1      45.407  35.778  30.588  1.00  0.00     0.022 A 
BRANCH  92  95
ATOM     95  S   UNL A   1      44.776  36.936  28.189  1.00  0.00     0.127 S 
ATOM     96  O   UNL A   1      43.887  37.850  28.905  1.00  0.00    -0.237 OA
ATOM     97  O   UNL A   1      46.174  37.364  28.131  1.00  0.00    -0.237 OA
ATOM     98  O   UNL A   1      44.248  36.414  26.937  1.00  0.00    -0.744 OA
ENDBRANCH  92  95
ENDBRANCH  65  88
ENDBRANCH  39  40
ENDBRANCH  31  34
ENDBRANCH  29  30
ENDBRANCH  28  29
ENDBRANCH   1  28
TORSDOF 19
ENDMDL
MODEL 2
REMARK VINA RESULT:     -11.2      1.720      2.197
REMARK SMILES CC(C)Cc1cc2c(cc1Cl)C=C(C(=O)NCCCCCCNC(=O)c1ccc(-c3c4nc(c(-c5cccc(S(=O)(=O)[O-])c5F)c5ccc([nH]5)c(-c5cccc(S(=O)(=O)[O-])c5F)c5nc(c(-c6cccc(S(=O)(=O)[O-])c6F)c6ccc3[nH]6)C=C5)C=C4)cc1)[C@@H](C(F)(F)F)O2
REMARK SMILES IDX 20 1 19 2 18 3 17 4 16 5 14 6 15 7 13 9 5 10 6 11 10 12 7 13
REMARK SMILES IDX 9 14 11 15 8 16 94 17 12 18 89 19 4 20 2 21 1 22 3 23 90 24
REMARK SMILES IDX 91 25 92 26 93 27 21 28 22 29 23 30 24 31 25 33 26 34 27 35
REMARK SMILES IDX 88 36 28 37 87 38 29 39 30 40 31 41 81 42 32 43 86 44 80 45
REMARK SMILES IDX 82 46 33 47 85 48 79 49 78 50 34 52 66 53 46 54 65 55 47 56
REMARK SMILES IDX 50 57 64 58 83 59 48 60 49 61 63 63 84 64 51 65 35 66 36 67
REMARK SMILES IDX 44 68 37 69 39 70 45 71 38 72 40 73 41 74 42 75 43 76 67 77
REMARK SMILES IDX 68 78 76 79 69 80 71 81 77 82 70 83 72 84 73 85 74 86 75 87
REMARK SMILES IDX 52 88 53 89 61 90 54 91 56 92 62 93 55 94 57 95 58 96 59 97
REMARK SMILES IDX 60 98
REMARK H PARENT 16 8 23 32 82 51 50 62
REMARK Flexibility Score: inf
ROOT
ATOM      1  C   UNL A   1      37.196  21.704  24.380  1.00  0.00     0.002 C 
ENDROOT
BRANCH   1   2
ATOM      2  C   UNL A   1      35.755  22.030  24.788  1.00  0.00     0.002 C 
BRANCH   2   3
ATOM      3  C   UNL A   1      35.588  22.942  26.006  1.00  0.00     0.021 C 
BRANCH   3   4
ATOM      4  C   UNL A   1      34.327  23.800  26.007  1.00  0.00     0.116 C 
BRANCH   4   5
ATOM      5  N   UNL A   1      33.161  23.075  25.544  1.00  0.00    -0.352 N 
ATOM      6  C   UNL A   1      32.047  23.381  24.838  1.00  0.00     0.251 C 
ATOM      7  O   UNL A   1      31.274  22.441  24.623  1.00  0.00    -0.270 OA
ATOM      8  H   UNL A   1      33.185  22.127  25.807  1.00  0.00     0.163 HD
BRANCH   6   9
ATOM      9  C   UNL A   1      31.704  24.744  24.328  1.00  0.00     0.067 C 
ATOM     10  C   UNL A   1      29.027  28.767  22.806  1.00  0.00    -0.025 A 
ATOM     11  C   UNL A   1      30.390  28.427  22.807  1.00  0.00     0.052 A 
ATOM     12  C   UNL A   1      28.120  27.865  23.386  1.00  0.00     0.045 A 
ATOM     13  C   UNL A   1      30.830  27.215  23.342  1.00  0.00     0.128 A 
ATOM     14  C   UNL A   1      28.564  26.645  23.910  1.00  0.00     0.032 A 
ATOM     15  Cl  UNL A   1      26.429  28.199  23.495  1.00  0.00    -0.084 Cl
ATOM     16  C   UNL A   1      29.922  26.314  23.883  1.00  0.00     0.019 A 
ATOM     17  O   UNL A   1      32.172  27.001  23.306  1.00  0.00    -0.475 OA
ATOM     18  C   UNL A   1      30.395  25.045  24.409  1.00  0.00     0.025 C 
ATOM     19  C   UNL A   1      32.688  25.699  23.699  1.00  0.00     0.314 C 
BRANCH  10  20
ATOM     20  C   UNL A   1      28.616  30.065  22.147  1.00  0.00     0.040 C 
BRANCH  20  21
ATOM     21  C   UNL A   1      28.686  31.283  23.095  1.00  0.00    -0.013 C 
ATOM     22  C   UNL A   1      28.967  32.592  22.352  1.00  0.00     0.008 C 
ATOM     23  C   UNL A   1      27.373  31.412  23.871  1.00  0.00     0.008 C 
ENDBRANCH  20  21
ENDBRANCH  10  20
BRANCH  19  24
ATOM     24  C   UNL A   1      33.432  25.123  22.484  1.00  0.00     0.429 C 
ATOM     25  F   UNL A   1      33.786  26.120  21.634  1.00  0.00    -0.167 F 
ATOM     26  F   UNL A   1      34.574  24.482  22.813  1.00  0.00    -0.167 F 
ATOM     27  F   UNL A   1      32.671  24.247  21.788  1.00  0.00    -0.167 F 
ENDBRANCH  19  24
ENDBRANCH   6   9
ENDBRANCH   4   5
ENDBRANCH   3   4
ENDBRANCH   2   3
ENDBRANCH   1   2
BRANCH   1  28
ATOM     28  C   UNL A   1      37.783  20.411  24.949  1.00  0.00     0.021 C 
BRANCH  28  29
ATOM     29  C   UNL A   1      38.855  20.590  26.016  1.00  0.00     0.116 C 
BRANCH  29  30
ATOM     30  N   UNL A   1      39.860  19.542  25.994  1.00  0.00    -0.352 N 
ATOM     31  C   UNL A   1      41.225  19.656  26.126  1.00  0.00     0.251 C 
ATOM     32  H   UNL A   1      39.519  18.627  25.867  1.00  0.00     0.163 HD
ATOM     33  O   UNL A   1      41.945  18.677  25.957  1.00  0.00    -0.269 OA
BRANCH  31  34
ATOM     34  C   UNL A   1      41.814  20.978  26.435  1.00  0.00     0.039 A 
ATOM     35  C   UNL A   1      42.142  21.318  27.750  1.00  0.00     0.014 A 
ATOM     36  C   UNL A   1      41.992  21.902  25.403  1.00  0.00     0.014 A 
ATOM     37  C   UNL A   1      42.492  22.631  28.053  1.00  0.00     0.010 A 
ATOM     38  C   UNL A   1      42.416  23.199  25.701  1.00  0.00     0.010 A 
ATOM     39  C   UNL A   1      42.621  23.590  27.034  1.00  0.00    -0.014 A 
BRANCH  39  40
ATOM     40  C   UNL A   1      42.965  24.992  27.386  1.00  0.00     0.031 A 
ATOM     41  C   UNL A   1      44.329  25.553  27.079  1.00  0.00     0.074 A 
ATOM     42  C   UNL A   1      42.029  25.777  27.953  1.00  0.00     0.049 A 
ATOM     43  N   UNL A   1      44.790  26.757  27.304  1.00  0.00    -0.248 NA
ATOM     44  C   UNL A   1      45.304  24.652  26.439  1.00  0.00     0.031 C 
ATOM     45  C   UNL A   1      40.676  25.346  28.314  1.00  0.00     0.029 A 
ATOM     46  N   UNL A   1      42.064  27.099  28.314  1.00  0.00    -0.354 N 
ATOM     47  C   UNL A   1      46.112  26.748  26.877  1.00  0.00     0.074 A 
ATOM     48  C   UNL A   1      46.385  25.419  26.376  1.00  0.00     0.031 C 
ATOM     49  C   UNL A   1      39.999  26.393  28.807  1.00  0.00     0.029 A 
ATOM     50  C   UNL A   1      40.880  27.556  28.843  1.00  0.00     0.049 A 
ATOM     51  H   UNL A   1      42.860  27.668  28.205  1.00  0.00     0.167 HD
ATOM     52  C   UNL A   1      47.010  27.761  26.882  1.00  0.00     0.034 A 
ATOM     53  C   UNL A   1      40.538  28.771  29.313  1.00  0.00     0.034 A 
ATOM     54  C   UNL A   1      46.723  29.099  27.323  1.00  0.00     0.049 A 
ATOM     55  C   UNL A   1      41.548  29.880  29.291  1.00  0.00     0.074 A 
ATOM     56  C   UNL A   1      47.560  30.200  27.316  1.00  0.00     0.029 A 
ATOM     57  N   UNL A   1      45.510  29.520  27.840  1.00  0.00    -0.354 N 
ATOM     58  N   UNL A   1      42.769  29.868  28.815  1.00  0.00    -0.248 NA
ATOM     59  C   UNL A   1      41.135  31.172  29.859  1.00  0.00     0.031 C 
ATOM     60  C   UNL A   1      46.853  31.290  27.830  1.00  0.00     0.029 A 
ATOM     61  C   UNL A   1      45.574  30.865  28.154  1.00  0.00     0.049 A 
ATOM     62  H   UNL A   1      44.719  28.946  27.965  1.00  0.00     0.167 HD
ATOM     63  C   UNL A   1      43.268  31.148  29.017  1.00  0.00     0.074 A 
ATOM     64  C   UNL A   1      42.210  31.918  29.638  1.00  0.00     0.031 C 
ATOM     65  C   UNL A   1      44.500  31.631  28.731  1.00  0.00     0.034 A 
BRANCH  52  66
ATOM     66  C   UNL A   1      48.387  27.489  26.341  1.00  0.00     0.023 A 
ATOM     67  C   UNL A   1      48.611  27.592  24.954  1.00  0.00     0.012 A 
ATOM     68  C   UNL A   1      49.472  27.245  27.206  1.00  0.00     0.148 A 
ATOM     69  C   UNL A   1      49.896  27.447  24.434  1.00  0.00     0.002 A 
ATOM     70  C   UNL A   1      50.754  27.129  26.682  1.00  0.00     0.091 A 
ATOM     71  F   UNL A   1      49.229  27.140  28.520  1.00  0.00    -0.205 F 
ATOM     72  C   UNL A   1      50.967  27.225  25.296  1.00  0.00     0.022 A 
BRANCH  70  73
ATOM     73  S   UNL A   1      52.210  26.896  27.708  1.00  0.00     0.127 S 
ATOM     74  O   UNL A   1      52.437  28.250  28.209  1.00  0.00    -0.237 OA
ATOM     75  O   UNL A   1      51.729  25.947  28.710  1.00  0.00    -0.237 OA
ATOM     76  O   UNL A   1      53.247  26.380  26.825  1.00  0.00    -0.744 OA
ENDBRANCH  70  73
ENDBRANCH  52  66
BRANCH  53  77
ATOM     77  C   UNL A   1      39.149  28.997  29.794  1.00  0.00     0.023 A 
ATOM     78  C   UNL A   1      38.820  28.667  31.122  1.00  0.00     0.012 A 
ATOM     79  C   UNL A   1      38.186  29.618  28.976  1.00  0.00     0.148 A 
ATOM     80  C   UNL A   1      37.553  28.951  31.628  1.00  0.00     0.002 A 
ATOM     81  C   UNL A   1      36.940  29.938  29.500  1.00  0.00     0.091 A 
ATOM     82  F   UNL A   1      38.524  29.914  27.714  1.00  0.00    -0.205 F 
ATOM     83  C   UNL A   1      36.618  29.597  30.823  1.00  0.00     0.022 A 
BRANCH  81  84
ATOM     84  S   UNL A   1      35.716  30.877  28.581  1.00  0.00     0.127 S 
ATOM     85  O   UNL A   1      35.112  31.690  29.635  1.00  0.00    -0.237 OA
ATOM     86  O   UNL A   1      36.554  31.615  27.636  1.00  0.00    -0.237 OA
ATOM     87  O   UNL A   1      34.838  29.891  27.968  1.00  0.00    -0.744 OA
ENDBRANCH  81  84
ENDBRANCH  53  77
BRANCH  65  88
ATOM     88  C   UNL A   1      44.794  33.063  29.080  1.00  0.00     0.023 A 
ATOM     89  C   UNL A   1      45.322  33.362  30.350  1.00  0.00     0.012 A 
ATOM     90  C   UNL A   1      44.666  34.083  28.118  1.00  0.00     0.148 A 
ATOM     91  C   UNL A   1      45.715  34.663  30.660  1.00  0.00     0.002 A 
ATOM     92  C   UNL A   1      45.090  35.369  28.424  1.00  0.00     0.091 A 
ATOM     93  F   UNL A   1      44.150  33.768  26.920  1.00  0.00    -0.205 F 
ATOM     94  C   UNL A   1      45.610  35.662  29.695  1.00  0.00     0.022 A 
BRANCH  92  95
ATOM     95  S   UNL A   1      45.064  36.707  27.225  1.00  0.00     0.127 S 
ATOM     96  O   UNL A   1      45.570  37.827  28.018  1.00  0.00    -0.237 OA
ATOM     97  O   UNL A   1      45.985  36.220  26.199  1.00  0.00    -0.237 OA
ATOM     98  O   UNL A   1      43.680  36.833  26.790  1.00  0.00    -0.744 OA
ENDBRANCH  92  95
ENDBRANCH  65  88
ENDBRANCH  39  40
ENDBRANCH  31  34
ENDBRANCH  29  30
ENDBRANCH  28  29
ENDBRANCH   1  28
TORSDOF 19
ENDMDL
MODEL 3
REMARK VINA RESULT:     -10.8      2.421      7.862
REMARK SMILES CC(C)Cc1cc2c(cc1Cl)C=C(C(=O)NCCCCCCNC(=O)c1ccc(-c3c4nc(c(-c5cccc(S(=O)(=O)[O-])c5F)c5ccc([nH]5)c(-c5cccc(S(=O)(=O)[O-])c5F)c5nc(c(-c6cccc(S(=O)(=O)[O-])c6F)c6ccc3[nH]6)C=C5)C=C4)cc1)[C@@H](C(F)(F)F)O2
REMARK SMILES IDX 20 1 19 2 18 3 17 4 16 5 14 6 15 7 13 9 5 10 6 11 10 12 7 13
REMARK SMILES IDX 9 14 11 15 8 16 94 17 12 18 89 19 4 20 2 21 1 22 3 23 90 24
REMARK SMILES IDX 91 25 92 26 93 27 21 28 22 29 23 30 24 31 25 33 26 34 27 35
REMARK SMILES IDX 88 36 28 37 87 38 29 39 30 40 31 41 81 42 32 43 86 44 80 45
REMARK SMILES IDX 82 46 33 47 85 48 79 49 78 50 34 52 66 53 46 54 65 55 47 56
REMARK SMILES IDX 50 57 64 58 83 59 48 60 49 61 63 63 84 64 51 65 35 66 36 67
REMARK SMILES IDX 44 68 37 69 39 70 45 71 38 72 40 73 41 74 42 75 43 76 67 77
REMARK SMILES IDX 68 78 76 79 69 80 71 81 77 82 70 83 72 84 73 85 74 86 75 87
REMARK SMILES IDX 52 88 53 89 61 90 54 91 56 92 62 93 55 94 57 95 58 96 59 97
REMARK SMILES IDX 60 98
REMARK H PARENT 16 8 23 32 82 51 50 62
REMARK Flexibility Score: inf
ROOT
ATOM      1  C   UNL A   1      37.459  21.269  25.022  1.00  0.00     0.002 C 
ENDROOT
BRANCH   1   2
ATOM      2  C   UNL A   1      36.018  20.801  25.260  1.00  0.00     0.002 C 
BRANCH   2   3
ATOM      3  C   UNL A   1      35.229  21.563  26.328  1.00  0.00     0.021 C 
BRANCH   3   4
ATOM      4  C   UNL A   1      33.771  21.142  26.482  1.00  0.00     0.116 C 
BRANCH   4   5
ATOM      5  N   UNL A   1      33.054  21.150  25.222  1.00  0.00    -0.352 N 
ATOM      6  C   UNL A   1      32.292  22.041  24.548  1.00  0.00     0.251 C 
ATOM      7  O   UNL A   1      31.865  21.660  23.453  1.00  0.00    -0.270 OA
ATOM      8  H   UNL A   1      33.145  20.297  24.739  1.00  0.00     0.163 HD
BRANCH   6   9
ATOM      9  C   UNL A   1      31.939  23.409  25.036  1.00  0.00     0.067 C 
ATOM     10  C   UNL A   1      32.375  28.198  26.633  1.00  0.00    -0.025 A 
ATOM     11  C   UNL A   1      31.316  27.281  26.530  1.00  0.00     0.052 A 
ATOM     12  C   UNL A   1      33.639  27.804  26.163  1.00  0.00     0.045 A 
ATOM     13  C   UNL A   1      31.518  26.004  26.003  1.00  0.00     0.128 A 
ATOM     14  C   UNL A   1      33.839  26.518  25.648  1.00  0.00     0.032 A 
ATOM     15  Cl  UNL A   1      35.003  28.865  26.184  1.00  0.00    -0.084 Cl
ATOM     16  C   UNL A   1      32.778  25.611  25.573  1.00  0.00     0.019 A 
ATOM     17  O   UNL A   1      30.417  25.209  25.935  1.00  0.00    -0.475 OA
ATOM     18  C   UNL A   1      32.975  24.268  25.055  1.00  0.00     0.025 C 
ATOM     19  C   UNL A   1      30.579  23.816  25.546  1.00  0.00     0.314 C 
BRANCH  10  20
ATOM     20  C   UNL A   1      32.098  29.538  27.278  1.00  0.00     0.040 C 
BRANCH  20  21
ATOM     21  C   UNL A   1      31.990  30.697  26.262  1.00  0.00    -0.013 C 
ATOM     22  C   UNL A   1      31.153  30.328  25.035  1.00  0.00     0.008 C 
ATOM     23  C   UNL A   1      31.383  31.927  26.941  1.00  0.00     0.008 C 
ENDBRANCH  20  21
ENDBRANCH  10  20
BRANCH  19  24
ATOM     24  C   UNL A   1      30.066  22.959  26.715  1.00  0.00     0.429 C 
ATOM     25  F   UNL A   1      31.058  22.754  27.618  1.00  0.00    -0.167 F 
ATOM     26  F   UNL A   1      29.050  23.537  27.393  1.00  0.00    -0.167 F 
ATOM     27  F   UNL A   1      29.632  21.745  26.306  1.00  0.00    -0.167 F 
ENDBRANCH  19  24
ENDBRANCH   6   9
ENDBRANCH   4   5
ENDBRANCH   3   4
ENDBRANCH   2   3
ENDBRANCH   1   2
BRANCH   1  28
ATOM     28  C   UNL A   1      38.527  20.174  24.991  1.00  0.00     0.021 C 
BRANCH  28  29
ATOM     29  C   UNL A   1      39.607  20.279  26.060  1.00  0.00     0.116 C 
BRANCH  29  30
ATOM     30  N   UNL A   1      40.577  19.200  25.995  1.00  0.00    -0.352 N 
ATOM     31  C   UNL A   1      41.949  19.272  26.073  1.00  0.00     0.251 C 
ATOM     32  H   UNL A   1      40.203  18.297  25.879  1.00  0.00     0.163 HD
ATOM     33  O   UNL A   1      42.631  18.272  25.873  1.00  0.00    -0.269 OA
BRANCH  31  34
ATOM     34  C   UNL A   1      42.591  20.574  26.361  1.00  0.00     0.039 A 
ATOM     35  C   UNL A   1      42.480  21.155  27.626  1.00  0.00     0.014 A 
ATOM     36  C   UNL A   1      43.266  21.241  25.336  1.00  0.00     0.014 A 
ATOM     37  C   UNL A   1      42.902  22.467  27.820  1.00  0.00     0.010 A 
ATOM     38  C   UNL A   1      43.757  22.531  25.556  1.00  0.00     0.010 A 
ATOM     39  C   UNL A   1      43.534  23.175  26.783  1.00  0.00    -0.014 A 
BRANCH  39  40
ATOM     40  C   UNL A   1      43.947  24.585  27.004  1.00  0.00     0.031 A 
ATOM     41  C   UNL A   1      42.978  25.598  27.556  1.00  0.00     0.074 A 
ATOM     42  C   UNL A   1      45.218  24.946  26.741  1.00  0.00     0.049 A 
ATOM     43  N   UNL A   1      43.179  26.863  27.823  1.00  0.00    -0.248 NA
ATOM     44  C   UNL A   1      41.609  25.138  27.843  1.00  0.00     0.031 C 
ATOM     45  C   UNL A   1      46.248  24.061  26.190  1.00  0.00     0.029 A 
ATOM     46  N   UNL A   1      45.866  26.143  26.911  1.00  0.00    -0.354 N 
ATOM     47  C   UNL A   1      41.959  27.359  28.267  1.00  0.00     0.074 A 
ATOM     48  C   UNL A   1      41.020  26.260  28.236  1.00  0.00     0.031 C 
ATOM     49  C   UNL A   1      47.405  24.733  26.105  1.00  0.00     0.029 A 
ATOM     50  C   UNL A   1      47.191  26.108  26.548  1.00  0.00     0.049 A 
ATOM     51  H   UNL A   1      45.424  26.951  27.259  1.00  0.00     0.167 HD
ATOM     52  C   UNL A   1      41.656  28.611  28.682  1.00  0.00     0.034 A 
ATOM     53  C   UNL A   1      48.132  27.072  26.561  1.00  0.00     0.034 A 
ATOM     54  C   UNL A   1      42.602  29.689  28.772  1.00  0.00     0.049 A 
ATOM     55  C   UNL A   1      47.773  28.445  27.043  1.00  0.00     0.074 A 
ATOM     56  C   UNL A   1      42.391  30.978  29.229  1.00  0.00     0.029 A 
ATOM     57  N   UNL A   1      43.935  29.607  28.405  1.00  0.00    -0.354 N 
ATOM     58  N   UNL A   1      46.631  28.872  27.527  1.00  0.00    -0.248 NA
ATOM     59  C   UNL A   1      48.826  29.469  26.993  1.00  0.00     0.031 C 
ATOM     60  C   UNL A   1      43.598  31.677  29.140  1.00  0.00     0.029 A 
ATOM     61  C   UNL A   1      44.560  30.821  28.628  1.00  0.00     0.049 A 
ATOM     62  H   UNL A   1      44.372  28.803  28.041  1.00  0.00     0.167 HD
ATOM     63  C   UNL A   1      46.831  30.208  27.847  1.00  0.00     0.074 A 
ATOM     64  C   UNL A   1      48.209  30.517  27.523  1.00  0.00     0.031 C 
ATOM     65  C   UNL A   1      45.943  31.102  28.344  1.00  0.00     0.034 A 
BRANCH  52  66
ATOM     66  C   UNL A   1      40.248  28.885  29.134  1.00  0.00     0.023 A 
ATOM     67  C   UNL A   1      39.245  29.088  28.165  1.00  0.00     0.012 A 
ATOM     68  C   UNL A   1      39.899  28.832  30.497  1.00  0.00     0.148 A 
ATOM     69  C   UNL A   1      37.913  29.244  28.549  1.00  0.00     0.002 A 
ATOM     70  C   UNL A   1      38.566  28.960  30.870  1.00  0.00     0.091 A 
ATOM     71  F   UNL A   1      40.875  28.650  31.398  1.00  0.00    -0.205 F 
ATOM     72  C   UNL A   1      37.573  29.170  29.898  1.00  0.00     0.022 A 
BRANCH  70  73
ATOM     73  S   UNL A   1      38.012  28.828  32.574  1.00  0.00     0.127 S 
ATOM     74  O   UNL A   1      36.637  29.315  32.475  1.00  0.00    -0.237 OA
ATOM     75  O   UNL A   1      38.134  27.392  32.824  1.00  0.00    -0.237 OA
ATOM     76  O   UNL A   1      38.911  29.665  33.356  1.00  0.00    -0.744 OA
ENDBRANCH  70  73
ENDBRANCH  52  66
BRANCH  53  77
ATOM     77  C   UNL A   1      49.521  26.733  26.147  1.00  0.00     0.023 A 
ATOM     78  C   UNL A   1      49.825  26.645  24.776  1.00  0.00     0.012 A 
ATOM     79  C   UNL A   1      50.551  26.593  27.097  1.00  0.00     0.148 A 
ATOM     80  C   UNL A   1      51.135  26.420  24.356  1.00  0.00     0.002 A 
ATOM     81  C   UNL A   1      51.860  26.413  26.670  1.00  0.00     0.091 A 
ATOM     82  F   UNL A   1      50.230  26.674  28.395  1.00  0.00    -0.205 F 
ATOM     83  C   UNL A   1      52.154  26.317  25.301  1.00  0.00     0.022 A 
BRANCH  81  84
ATOM     84  S   UNL A   1      53.253  26.392  27.804  1.00  0.00     0.127 S 
ATOM     85  O   UNL A   1      54.087  25.337  27.231  1.00  0.00    -0.237 OA
ATOM     86  O   UNL A   1      53.781  27.747  27.653  1.00  0.00    -0.237 OA
ATOM     87  O   UNL A   1      52.691  26.104  29.117  1.00  0.00    -0.744 OA
ENDBRANCH  81  84
ENDBRANCH  53  77
BRANCH  65  88
ATOM     88  C   UNL A   1      46.415  32.509  28.576  1.00  0.00     0.023 A 
ATOM     89  C   UNL A   1      46.905  32.865  29.846  1.00  0.00     0.012 A 
ATOM     90  C   UNL A   1      46.488  33.432  27.514  1.00  0.00     0.148 A 
ATOM     91  C   UNL A   1      47.459  34.126  30.060  1.00  0.00     0.002 A 
ATOM     92  C   UNL A   1      47.071  34.674  27.727  1.00  0.00     0.091 A 
ATOM     93  F   UNL A   1      46.004  33.067  26.318  1.00  0.00    -0.205 F 
ATOM     94  C   UNL A   1      47.553  35.024  28.999  1.00  0.00     0.022 A 
BRANCH  92  95
ATOM     95  S   UNL A   1      47.304  35.872  26.408  1.00  0.00     0.127 S 
ATOM     96  O   UNL A   1      48.052  35.089  25.425  1.00  0.00    -0.237 OA
ATOM     97  O   UNL A   1      45.926  36.179  26.024  1.00  0.00    -0.237 OA
ATOM     98  O   UNL A   1      48.034  36.986  26.997  1.00  0.00    -0.744 OA
ENDBRANCH  92  95
ENDBRANCH  65  88
ENDBRANCH  39  40
ENDBRANCH  31  34
ENDBRANCH  29  30
ENDBRANCH  28  29
ENDBRANCH   1  28
TORSDOF 19
ENDMDL
