MODEL 1
REMARK VINA RESULT:     -10.8      0.000      0.000
REMARK SMILES C[C@H]1SCCC[C@@]1(C(=O)NCCCCCCNC(=O)c1ccc(-c2c3nc(c(-c4cccc(S(=O)(=O)[O-])c4F)c4ccc([nH]4)c(-c4cccc(S(=O)(=O)[O-])c4F)c4nc(c(-c5cccc(S(=O)(=O)[O-])c5F)c5ccc2[nH]5)C=C4)C=C3)cc1)[NH+]1CCCC1
REMARK SMILES IDX 14 1 13 2 12 3 11 4 10 5 8 6 9 7 7 9 1 10 2 11 3 12 4 13
REMARK SMILES IDX 6 14 5 15 83 16 84 17 87 18 85 20 86 21 15 22 16 23 17 24
REMARK SMILES IDX 18 25 19 27 20 28 21 29 82 30 22 31 81 32 23 33 24 34 25 35
REMARK SMILES IDX 75 36 26 37 80 38 74 39 76 40 27 41 79 42 73 43 72 44 28 46
REMARK SMILES IDX 60 47 40 48 59 49 41 50 44 51 58 52 77 53 42 54 43 55 57 57
REMARK SMILES IDX 78 58 45 59 29 60 30 61 38 62 31 63 33 64 39 65 32 66 34 67
REMARK SMILES IDX 35 68 36 69 37 70 61 71 62 72 70 73 63 74 65 75 71 76 64 77
REMARK SMILES IDX 66 78 67 79 68 80 69 81 46 82 47 83 55 84 48 85 50 86 56 87
REMARK SMILES IDX 49 88 51 89 52 90 53 91 54 92
REMARK H PARENT 10 8 83 19 17 26 76 45 44 56
REMARK Flexibility Score: inf
ROOT
ATOM      1  C   UNL A   1      32.838  29.238  24.532  1.00  0.00     0.002 C 
ENDROOT
BRANCH   1   2
ATOM      2  C   UNL A   1      31.568  28.578  23.979  1.00  0.00     0.002 C 
BRANCH   2   3
ATOM      3  C   UNL A   1      31.194  27.247  24.649  1.00  0.00     0.021 C 
BRANCH   3   4
ATOM      4  C   UNL A   1      30.901  26.128  23.644  1.00  0.00     0.116 C 
BRANCH   4   5
ATOM      5  N   UNL A   1      32.112  25.815  22.914  1.00  0.00    -0.351 N 
ATOM      6  C   UNL A   1      33.226  25.093  23.198  1.00  0.00     0.282 C 
ATOM      7  O   UNL A   1      34.130  25.268  22.364  1.00  0.00    -0.268 OA
ATOM      8  H   UNL A   1      32.131  26.212  22.013  1.00  0.00     0.163 HD
BRANCH   6   9
ATOM      9  C   UNL A   1      33.349  23.999  24.374  1.00  0.00     0.188 C 
ATOM     10  C   UNL A   1      32.469  22.234  22.646  1.00  0.00     0.027 C 
ATOM     11  C   UNL A   1      32.207  22.982  23.964  1.00  0.00     0.115 C 
ATOM     12  S   UNL A   1      31.718  21.724  25.206  1.00  0.00    -0.152 SA
ATOM     13  C   UNL A   1      31.414  22.833  26.595  1.00  0.00     0.070 C 
ATOM     14  C   UNL A   1      33.125  24.591  25.804  1.00  0.00     0.081 C 
ATOM     15  C   UNL A   1      32.650  23.651  26.922  1.00  0.00     0.018 C 
BRANCH   9  16
ATOM     16  N   UNL A   1      34.743  23.420  24.271  1.00  0.00    -0.321 N 
ATOM     17  C   UNL A   1      34.970  21.996  24.499  1.00  0.00     0.263 C 
ATOM     18  C   UNL A   1      35.771  24.147  25.049  1.00  0.00     0.263 C 
ATOM     19  H   UNL A   1      34.838  23.556  23.265  1.00  0.00     0.349 HD
ATOM     20  C   UNL A   1      35.656  21.894  25.851  1.00  0.00     0.067 C 
ATOM     21  C   UNL A   1      36.531  23.124  25.880  1.00  0.00     0.067 C 
ENDBRANCH   9  16
ENDBRANCH   6   9
ENDBRANCH   4   5
ENDBRANCH   3   4
ENDBRANCH   2   3
ENDBRANCH   1   2
BRANCH   1  22
ATOM     22  C   UNL A   1      33.735  28.312  25.357  1.00  0.00     0.021 C 
BRANCH  22  23
ATOM     23  C   UNL A   1      33.727  28.604  26.855  1.00  0.00     0.116 C 
BRANCH  23  24
ATOM     24  N   UNL A   1      33.619  30.029  27.119  1.00  0.00    -0.352 N 
ATOM     25  C   UNL A   1      34.420  30.832  27.888  1.00  0.00     0.251 C 
ATOM     26  H   UNL A   1      32.863  30.483  26.680  1.00  0.00     0.163 HD
ATOM     27  O   UNL A   1      34.040  31.960  28.191  1.00  0.00    -0.269 OA
BRANCH  25  28
ATOM     28  C   UNL A   1      35.737  30.344  28.352  1.00  0.00     0.039 A 
ATOM     29  C   UNL A   1      36.853  30.534  27.532  1.00  0.00     0.014 A 
ATOM     30  C   UNL A   1      35.866  29.660  29.565  1.00  0.00     0.014 A 
ATOM     31  C   UNL A   1      38.101  30.058  27.940  1.00  0.00     0.010 A 
ATOM     32  C   UNL A   1      37.123  29.248  30.002  1.00  0.00     0.010 A 
ATOM     33  C   UNL A   1      38.247  29.420  29.184  1.00  0.00    -0.014 A 
BRANCH  33  34
ATOM     34  C   UNL A   1      39.570  28.908  29.624  1.00  0.00     0.031 A 
ATOM     35  C   UNL A   1      40.318  29.598  30.734  1.00  0.00     0.074 A 
ATOM     36  C   UNL A   1      40.122  27.857  28.989  1.00  0.00     0.049 A 
ATOM     37  N   UNL A   1      41.480  29.297  31.254  1.00  0.00    -0.248 NA
ATOM     38  C   UNL A   1      39.696  30.798  31.317  1.00  0.00     0.031 C 
ATOM     39  C   UNL A   1      39.534  27.159  27.843  1.00  0.00     0.029 A 
ATOM     40  N   UNL A   1      41.309  27.204  29.203  1.00  0.00    -0.354 N 
ATOM     41  C   UNL A   1      41.741  30.282  32.200  1.00  0.00     0.074 A 
ATOM     42  C   UNL A   1      40.636  31.214  32.153  1.00  0.00     0.031 C 
ATOM     43  C   UNL A   1      40.358  26.169  27.464  1.00  0.00     0.029 A 
ATOM     44  C   UNL A   1      41.538  26.172  28.323  1.00  0.00     0.049 A 
ATOM     45  H   UNL A   1      41.937  27.451  29.918  1.00  0.00     0.167 HD
ATOM     46  C   UNL A   1      42.786  30.385  33.054  1.00  0.00     0.034 A 
ATOM     47  C   UNL A   1      42.578  25.322  28.226  1.00  0.00     0.034 A 
ATOM     48  C   UNL A   1      43.856  29.427  33.133  1.00  0.00     0.049 A 
ATOM     49  C   UNL A   1      43.696  25.419  29.227  1.00  0.00     0.074 A 
ATOM     50  C   UNL A   1      44.912  29.387  34.027  1.00  0.00     0.029 A 
ATOM     51  N   UNL A   1      44.008  28.340  32.286  1.00  0.00    -0.354 N 
ATOM     52  N   UNL A   1      43.839  26.256  30.226  1.00  0.00    -0.248 NA
ATOM     53  C   UNL A   1      44.776  24.428  29.115  1.00  0.00     0.031 C 
ATOM     54  C   UNL A   1      45.712  28.283  33.708  1.00  0.00     0.029 A 
ATOM     55  C   UNL A   1      45.142  27.626  32.629  1.00  0.00     0.049 A 
ATOM     56  H   UNL A   1      43.398  28.111  31.548  1.00  0.00     0.167 HD
ATOM     57  C   UNL A   1      45.005  25.875  30.881  1.00  0.00     0.074 A 
ATOM     58  C   UNL A   1      45.515  24.714  30.179  1.00  0.00     0.031 C 
ATOM     59  C   UNL A   1      45.609  26.443  31.952  1.00  0.00     0.034 A 
BRANCH  46  60
ATOM     60  C   UNL A   1      42.789  31.541  34.021  1.00  0.00     0.023 A 
ATOM     61  C   UNL A   1      43.349  32.772  33.624  1.00  0.00     0.012 A 
ATOM     62  C   UNL A   1      42.196  31.430  35.293  1.00  0.00     0.148 A 
ATOM     63  C   UNL A   1      43.351  33.865  34.490  1.00  0.00     0.002 A 
ATOM     64  C   UNL A   1      42.163  32.537  36.135  1.00  0.00     0.091 A 
ATOM     65  F   UNL A   1      41.687  30.246  35.662  1.00  0.00    -0.205 F 
ATOM     66  C   UNL A   1      42.750  33.750  35.741  1.00  0.00     0.022 A 
BRANCH  64  67
ATOM     67  S   UNL A   1      41.346  32.514  37.736  1.00  0.00     0.127 S 
ATOM     68  O   UNL A   1      41.426  33.919  38.129  1.00  0.00    -0.237 OA
ATOM     69  O   UNL A   1      40.001  32.052  37.390  1.00  0.00    -0.237 OA
ATOM     70  O   UNL A   1      42.111  31.588  38.561  1.00  0.00    -0.744 OA
ENDBRANCH  64  67
ENDBRANCH  46  60
BRANCH  47  71
ATOM     71  C   UNL A   1      42.565  24.249  27.191  1.00  0.00     0.023 A 
ATOM     72  C   UNL A   1      43.444  24.338  26.094  1.00  0.00     0.012 A 
ATOM     73  C   UNL A   1      41.716  23.131  27.303  1.00  0.00     0.148 A 
ATOM     74  C   UNL A   1      43.456  23.348  25.111  1.00  0.00     0.002 A 
ATOM     75  C   UNL A   1      41.772  22.121  26.348  1.00  0.00     0.091 A 
ATOM     76  F   UNL A   1      40.877  23.070  28.347  1.00  0.00    -0.205 F 
ATOM     77  C   UNL A   1      42.628  22.236  25.242  1.00  0.00     0.022 A 
BRANCH  75  78
ATOM     78  S   UNL A   1      40.840  20.595  26.510  1.00  0.00     0.127 S 
ATOM     79  O   UNL A   1      41.574  19.699  25.622  1.00  0.00    -0.237 OA
ATOM     80  O   UNL A   1      40.980  20.302  27.937  1.00  0.00    -0.237 OA
ATOM     81  O   UNL A   1      39.480  20.923  26.100  1.00  0.00    -0.744 OA
ENDBRANCH  75  78
ENDBRANCH  47  71
BRANCH  59  82
ATOM     82  C   UNL A   1      46.881  25.809  32.452  1.00  0.00     0.023 A 
ATOM     83  C   UNL A   1      48.121  26.233  31.933  1.00  0.00     0.012 A 
ATOM     84  C   UNL A   1      46.853  24.845  33.479  1.00  0.00     0.148 A 
ATOM     85  C   UNL A   1      49.312  25.680  32.404  1.00  0.00     0.002 A 
ATOM     86  C   UNL A   1      48.046  24.335  33.977  1.00  0.00     0.091 A 
ATOM     87  F   UNL A   1      45.662  24.440  33.945  1.00  0.00    -0.205 F 
ATOM     88  C   UNL A   1      49.275  24.743  33.433  1.00  0.00     0.022 A 
BRANCH  86  89
ATOM     89  S   UNL A   1      48.095  23.195  35.364  1.00  0.00     0.127 S 
ATOM     90  O   UNL A   1      47.395  23.954  36.399  1.00  0.00    -0.237 OA
ATOM     91  O   UNL A   1      47.355  22.043  34.848  1.00  0.00    -0.237 OA
ATOM     92  O   UNL A   1      49.506  22.939  35.619  1.00  0.00    -0.744 OA
ENDBRANCH  86  89
ENDBRANCH  59  82
ENDBRANCH  33  34
ENDBRANCH  25  28
ENDBRANCH  23  24
ENDBRANCH  22  23
ENDBRANCH   1  22
TORSDOF 17
ENDMDL
MODEL 2
REMARK VINA RESULT:     -10.7      2.063      2.696
REMARK SMILES C[C@H]1SCCC[C@@]1(C(=O)NCCCCCCNC(=O)c1ccc(-c2c3nc(c(-c4cccc(S(=O)(=O)[O-])c4F)c4ccc([nH]4)c(-c4cccc(S(=O)(=O)[O-])c4F)c4nc(c(-c5cccc(S(=O)(=O)[O-])c5F)c5ccc2[nH]5)C=C4)C=C3)cc1)[NH+]1CCCC1
REMARK SMILES IDX 14 1 13 2 12 3 11 4 10 5 8 6 9 7 7 9 1 10 2 11 3 12 4 13
REMARK SMILES IDX 6 14 5 15 83 16 84 17 87 18 85 20 86 21 15 22 16 23 17 24
REMARK SMILES IDX 18 25 19 27 20 28 21 29 82 30 22 31 81 32 23 33 24 34 25 35
REMARK SMILES IDX 75 36 26 37 80 38 74 39 76 40 27 41 79 42 73 43 72 44 28 46
REMARK SMILES IDX 60 47 40 48 59 49 41 50 44 51 58 52 77 53 42 54 43 55 57 57
REMARK SMILES IDX 78 58 45 59 29 60 30 61 38 62 31 63 33 64 39 65 32 66 34 67
REMARK SMILES IDX 35 68 36 69 37 70 61 71 62 72 70 73 63 74 65 75 71 76 64 77
REMARK SMILES IDX 66 78 67 79 68 80 69 81 46 82 47 83 55 84 48 85 50 86 56 87
REMARK SMILES IDX 49 88 51 89 52 90 53 91 54 92
REMARK H PARENT 10 8 83 19 17 26 76 45 44 56
REMARK Flexibility Score: inf
ROOT
ATOM      1  C   UNL A   1      31.030  29.148  24.214  1.00  0.00     0.002 C 
ENDROOT
BRANCH   1   2
ATOM      2  C   UNL A   1      30.485  27.870  23.564  1.00  0.00     0.002 C 
BRANCH   2   3
ATOM      3  C   UNL A   1      31.562  26.869  23.119  1.00  0.00     0.021 C 
BRANCH   3   4
ATOM      4  C   UNL A   1      31.019  25.449  22.926  1.00  0.00     0.116 C 
BRANCH   4   5
ATOM      5  N   UNL A   1      31.946  24.692  22.111  1.00  0.00    -0.351 N 
ATOM      6  C   UNL A   1      33.055  23.955  22.377  1.00  0.00     0.282 C 
ATOM      7  O   UNL A   1      33.684  23.656  21.349  1.00  0.00    -0.268 OA
ATOM      8  H   UNL A   1      31.722  24.715  21.152  1.00  0.00     0.163 HD
BRANCH   6   9
ATOM      9  C   UNL A   1      33.458  23.375  23.825  1.00  0.00     0.188 C 
ATOM     10  C   UNL A   1      32.133  21.207  23.180  1.00  0.00     0.027 C 
ATOM     11  C   UNL A   1      32.232  22.419  24.122  1.00  0.00     0.115 C 
ATOM     12  S   UNL A   1      32.059  21.784  25.833  1.00  0.00    -0.152 SA
ATOM     13  C   UNL A   1      32.142  23.359  26.707  1.00  0.00     0.070 C 
ATOM     14  C   UNL A   1      33.621  24.481  24.918  1.00  0.00     0.081 C 
ATOM     15  C   UNL A   1      33.435  24.090  26.392  1.00  0.00     0.018 C 
BRANCH   9  16
ATOM     16  N   UNL A   1      34.768  22.642  23.638  1.00  0.00    -0.321 N 
ATOM     17  C   UNL A   1      35.101  21.498  24.481  1.00  0.00     0.263 C 
ATOM     18  C   UNL A   1      35.963  23.514  23.609  1.00  0.00     0.263 C 
ATOM     19  H   UNL A   1      34.541  22.253  22.724  1.00  0.00     0.349 HD
ATOM     20  C   UNL A   1      36.178  21.983  25.438  1.00  0.00     0.067 C 
ATOM     21  C   UNL A   1      36.978  22.941  24.588  1.00  0.00     0.067 C 
ENDBRANCH   9  16
ENDBRANCH   6   9
ENDBRANCH   4   5
ENDBRANCH   3   4
ENDBRANCH   2   3
ENDBRANCH   1   2
BRANCH   1  22
ATOM     22  C   UNL A   1      31.681  28.943  25.585  1.00  0.00     0.021 C 
BRANCH  22  23
ATOM     23  C   UNL A   1      32.972  29.730  25.789  1.00  0.00     0.116 C 
BRANCH  23  24
ATOM     24  N   UNL A   1      32.701  31.114  26.145  1.00  0.00    -0.352 N 
ATOM     25  C   UNL A   1      33.274  31.887  27.121  1.00  0.00     0.251 C 
ATOM     26  H   UNL A   1      32.006  31.559  25.607  1.00  0.00     0.163 HD
ATOM     27  O   UNL A   1      32.753  32.952  27.438  1.00  0.00    -0.269 OA
BRANCH  25  28
ATOM     28  C   UNL A   1      34.516  31.440  27.790  1.00  0.00     0.039 A 
ATOM     29  C   UNL A   1      34.577  30.141  28.300  1.00  0.00     0.014 A 
ATOM     30  C   UNL A   1      35.597  32.311  27.958  1.00  0.00     0.014 A 
ATOM     31  C   UNL A   1      35.730  29.708  28.958  1.00  0.00     0.010 A 
ATOM     32  C   UNL A   1      36.772  31.856  28.552  1.00  0.00     0.010 A 
ATOM     33  C   UNL A   1      36.841  30.560  29.080  1.00  0.00    -0.014 A 
BRANCH  33  34
ATOM     34  C   UNL A   1      38.071  30.109  29.780  1.00  0.00     0.031 A 
ATOM     35  C   UNL A   1      38.373  30.598  31.172  1.00  0.00     0.074 A 
ATOM     36  C   UNL A   1      38.943  29.305  29.143  1.00  0.00     0.049 A 
ATOM     37  N   UNL A   1      39.393  30.314  31.940  1.00  0.00    -0.248 NA
ATOM     38  C   UNL A   1      37.422  31.551  31.769  1.00  0.00     0.031 C 
ATOM     39  C   UNL A   1      38.803  28.834  27.763  1.00  0.00     0.029 A 
ATOM     40  N   UNL A   1      40.127  28.756  29.563  1.00  0.00    -0.354 N 
ATOM     41  C   UNL A   1      39.224  31.073  33.093  1.00  0.00     0.074 A 
ATOM     42  C   UNL A   1      38.025  31.861  32.907  1.00  0.00     0.031 C 
ATOM     43  C   UNL A   1      39.856  28.059  27.456  1.00  0.00     0.029 A 
ATOM     44  C   UNL A   1      40.752  27.992  28.606  1.00  0.00     0.049 A 
ATOM     45  H   UNL A   1      40.495  28.897  30.465  1.00  0.00     0.167 HD
ATOM     46  C   UNL A   1      39.976  31.088  34.219  1.00  0.00     0.034 A 
ATOM     47  C   UNL A   1      41.912  27.309  28.654  1.00  0.00     0.034 A 
ATOM     48  C   UNL A   1      41.137  30.263  34.420  1.00  0.00     0.049 A 
ATOM     49  C   UNL A   1      42.696  27.293  29.937  1.00  0.00     0.074 A 
ATOM     50  C   UNL A   1      41.915  30.133  35.557  1.00  0.00     0.029 A 
ATOM     51  N   UNL A   1      41.691  29.430  33.459  1.00  0.00    -0.354 N 
ATOM     52  N   UNL A   1      42.427  27.882  31.077  1.00  0.00    -0.248 NA
ATOM     53  C   UNL A   1      43.924  26.482  29.956  1.00  0.00     0.031 C 
ATOM     54  C   UNL A   1      42.948  29.231  35.279  1.00  0.00     0.029 A 
ATOM     55  C   UNL A   1      42.802  28.787  33.974  1.00  0.00     0.049 A 
ATOM     56  H   UNL A   1      41.343  29.314  32.546  1.00  0.00     0.167 HD
ATOM     57  C   UNL A   1      43.430  27.490  31.957  1.00  0.00     0.074 A 
ATOM     58  C   UNL A   1      44.298  26.590  31.224  1.00  0.00     0.031 C 
ATOM     59  C   UNL A   1      43.626  27.855  33.247  1.00  0.00     0.034 A 
BRANCH  46  60
ATOM     60  C   UNL A   1      39.527  31.978  35.349  1.00  0.00     0.023 A 
ATOM     61  C   UNL A   1      39.859  33.348  35.324  1.00  0.00     0.012 A 
ATOM     62  C   UNL A   1      38.738  31.478  36.402  1.00  0.00     0.148 A 
ATOM     63  C   UNL A   1      39.443  34.199  36.347  1.00  0.00     0.002 A 
ATOM     64  C   UNL A   1      38.290  32.341  37.397  1.00  0.00     0.091 A 
ATOM     65  F   UNL A   1      38.451  30.169  36.422  1.00  0.00    -0.205 F 
ATOM     66  C   UNL A   1      38.652  33.699  37.377  1.00  0.00     0.022 A 
BRANCH  64  67
ATOM     67  S   UNL A   1      37.204  31.811  38.726  1.00  0.00     0.127 S 
ATOM     68  O   UNL A   1      36.091  32.747  38.589  1.00  0.00    -0.237 OA
ATOM     69  O   UNL A   1      36.896  30.433  38.340  1.00  0.00    -0.237 OA
ATOM     70  O   UNL A   1      37.981  31.937  39.951  1.00  0.00    -0.744 OA
ENDBRANCH  64  67
ENDBRANCH  46  60
BRANCH  47  71
ATOM     71  C   UNL A   1      42.355  26.515  27.474  1.00  0.00     0.023 A 
ATOM     72  C   UNL A   1      43.147  27.131  26.485  1.00  0.00     0.012 A 
ATOM     73  C   UNL A   1      42.027  25.152  27.340  1.00  0.00     0.148 A 
ATOM     74  C   UNL A   1      43.579  26.413  25.369  1.00  0.00     0.002 A 
ATOM     75  C   UNL A   1      42.506  24.428  26.253  1.00  0.00     0.091 A 
ATOM     76  F   UNL A   1      41.262  24.586  28.284  1.00  0.00    -0.205 F 
ATOM     77  C   UNL A   1      43.267  25.060  25.258  1.00  0.00     0.022 A 
BRANCH  75  78
ATOM     78  S   UNL A   1      42.265  22.655  26.100  1.00  0.00     0.127 S 
ATOM     79  O   UNL A   1      40.810  22.549  26.089  1.00  0.00    -0.237 OA
ATOM     80  O   UNL A   1      42.916  22.368  24.821  1.00  0.00    -0.237 OA
ATOM     81  O   UNL A   1      42.937  22.069  27.255  1.00  0.00    -0.744 OA
ENDBRANCH  75  78
ENDBRANCH  47  71
BRANCH  59  82
ATOM     82  C   UNL A   1      44.814  27.267  33.964  1.00  0.00     0.023 A 
ATOM     83  C   UNL A   1      46.055  27.934  33.920  1.00  0.00     0.012 A 
ATOM     84  C   UNL A   1      44.686  26.094  34.733  1.00  0.00     0.148 A 
ATOM     85  C   UNL A   1      47.158  27.423  34.602  1.00  0.00     0.002 A 
ATOM     86  C   UNL A   1      45.778  25.617  35.449  1.00  0.00     0.091 A 
ATOM     87  F   UNL A   1      43.503  25.462  34.745  1.00  0.00    -0.205 F 
ATOM     88  C   UNL A   1      47.017  26.273  35.375  1.00  0.00     0.022 A 
BRANCH  86  89
ATOM     89  S   UNL A   1      45.659  24.198  36.544  1.00  0.00     0.127 S 
ATOM     90  O   UNL A   1      47.030  24.087  37.038  1.00  0.00    -0.237 OA
ATOM     91  O   UNL A   1      44.688  24.653  37.540  1.00  0.00    -0.237 OA
ATOM     92  O   UNL A   1      45.198  23.093  35.715  1.00  0.00    -0.744 OA
ENDBRANCH  86  89
ENDBRANCH  59  82
ENDBRANCH  33  34
ENDBRANCH  25  28
ENDBRANCH  23  24
ENDBRANCH  22  23
ENDBRANCH   1  22
TORSDOF 17
ENDMDL
MODEL 3
REMARK VINA RESULT:     -10.7      1.472      2.184
REMARK SMILES C[C@H]1SCCC[C@@]1(C(=O)NCCCCCCNC(=O)c1ccc(-c2c3nc(c(-c4cccc(S(=O)(=O)[O-])c4F)c4ccc([nH]4)c(-c4cccc(S(=O)(=O)[O-])c4F)c4nc(c(-c5cccc(S(=O)(=O)[O-])c5F)c5ccc2[nH]5)C=C4)C=C3)cc1)[NH+]1CCCC1
REMARK SMILES IDX 14 1 13 2 12 3 11 4 10 5 8 6 9 7 7 9 1 10 2 11 3 12 4 13
REMARK SMILES IDX 6 14 5 15 83 16 84 17 87 18 85 20 86 21 15 22 16 23 17 24
REMARK SMILES IDX 18 25 19 27 20 28 21 29 82 30 22 31 81 32 23 33 24 34 25 35
REMARK SMILES IDX 75 36 26 37 80 38 74 39 76 40 27 41 79 42 73 43 72 44 28 46
REMARK SMILES IDX 60 47 40 48 59 49 41 50 44 51 58 52 77 53 42 54 43 55 57 57
REMARK SMILES IDX 78 58 45 59 29 60 30 61 38 62 31 63 33 64 39 65 32 66 34 67
REMARK SMILES IDX 35 68 36 69 37 70 61 71 62 72 70 73 63 74 65 75 71 76 64 77
REMARK SMILES IDX 66 78 67 79 68 80 69 81 46 82 47 83 55 84 48 85 50 86 56 87
REMARK SMILES IDX 49 88 51 89 52 90 53 91 54 92
REMARK H PARENT 10 8 83 19 17 26 76 45 44 56
REMARK Flexibility Score: inf
ROOT
ATOM      1  C   UNL A   1      31.675  29.049  25.062  1.00  0.00     0.002 C 
ENDROOT
BRANCH   1   2
ATOM      2  C   UNL A   1      31.568  28.506  23.632  1.00  0.00     0.002 C 
BRANCH   2   3
ATOM      3  C   UNL A   1      32.916  28.228  22.949  1.00  0.00     0.021 C 
BRANCH   3   4
ATOM      4  C   UNL A   1      33.198  26.734  22.762  1.00  0.00     0.116 C 
BRANCH   4   5
ATOM      5  N   UNL A   1      31.974  25.988  22.968  1.00  0.00    -0.351 N 
ATOM      6  C   UNL A   1      31.695  24.689  23.248  1.00  0.00     0.282 C 
ATOM      7  O   UNL A   1      30.488  24.425  23.120  1.00  0.00    -0.268 OA
ATOM      8  H   UNL A   1      31.167  26.545  22.887  1.00  0.00     0.163 HD
BRANCH   6   9
ATOM      9  C   UNL A   1      32.746  23.621  23.841  1.00  0.00     0.188 C 
ATOM     10  C   UNL A   1      32.004  24.411  26.227  1.00  0.00     0.027 C 
ATOM     11  C   UNL A   1      33.148  24.314  25.205  1.00  0.00     0.115 C 
ATOM     12  S   UNL A   1      34.605  23.638  26.092  1.00  0.00    -0.152 SA
ATOM     13  C   UNL A   1      35.786  23.686  24.730  1.00  0.00     0.070 C 
ATOM     14  C   UNL A   1      33.982  23.381  22.914  1.00  0.00     0.081 C 
ATOM     15  C   UNL A   1      35.287  22.875  23.547  1.00  0.00     0.018 C 
BRANCH   9  16
ATOM     16  N   UNL A   1      31.980  22.328  24.019  1.00  0.00    -0.321 N 
ATOM     17  C   UNL A   1      32.110  21.558  25.253  1.00  0.00     0.263 C 
ATOM     18  C   UNL A   1      32.119  21.370  22.900  1.00  0.00     0.263 C 
ATOM     19  H   UNL A   1      31.057  22.758  24.060  1.00  0.00     0.349 HD
ATOM     20  C   UNL A   1      32.942  20.338  24.898  1.00  0.00     0.067 C 
ATOM     21  C   UNL A   1      32.493  20.019  23.492  1.00  0.00     0.067 C 
ENDBRANCH   9  16
ENDBRANCH   6   9
ENDBRANCH   4   5
ENDBRANCH   3   4
ENDBRANCH   2   3
ENDBRANCH   1   2
BRANCH   1  22
ATOM     22  C   UNL A   1      32.433  28.143  26.037  1.00  0.00     0.021 C 
BRANCH  22  23
ATOM     23  C   UNL A   1      33.815  28.660  26.427  1.00  0.00     0.116 C 
BRANCH  23  24
ATOM     24  N   UNL A   1      33.797  30.093  26.671  1.00  0.00    -0.352 N 
ATOM     25  C   UNL A   1      34.618  30.848  27.468  1.00  0.00     0.251 C 
ATOM     26  H   UNL A   1      33.095  30.593  26.194  1.00  0.00     0.163 HD
ATOM     27  O   UNL A   1      34.306  32.003  27.742  1.00  0.00    -0.269 OA
BRANCH  25  28
ATOM     28  C   UNL A   1      35.875  30.274  27.995  1.00  0.00     0.039 A 
ATOM     29  C   UNL A   1      35.877  29.719  29.278  1.00  0.00     0.014 A 
ATOM     30  C   UNL A   1      37.059  30.325  27.252  1.00  0.00     0.014 A 
ATOM     31  C   UNL A   1      37.060  29.196  29.804  1.00  0.00     0.010 A 
ATOM     32  C   UNL A   1      38.220  29.740  27.750  1.00  0.00     0.010 A 
ATOM     33  C   UNL A   1      38.239  29.193  29.040  1.00  0.00    -0.014 A 
BRANCH  33  34
ATOM     34  C   UNL A   1      39.501  28.640  29.593  1.00  0.00     0.031 A 
ATOM     35  C   UNL A   1      40.125  29.254  30.818  1.00  0.00     0.074 A 
ATOM     36  C   UNL A   1      40.116  27.623  28.960  1.00  0.00     0.049 A 
ATOM     37  N   UNL A   1      41.220  28.908  31.445  1.00  0.00    -0.248 NA
ATOM     38  C   UNL A   1      39.447  30.424  31.401  1.00  0.00     0.031 C 
ATOM     39  C   UNL A   1      39.655  27.001  27.716  1.00  0.00     0.029 A 
ATOM     40  N   UNL A   1      41.268  26.945  29.264  1.00  0.00    -0.354 N 
ATOM     41  C   UNL A   1      41.379  29.832  32.472  1.00  0.00     0.074 A 
ATOM     42  C   UNL A   1      40.290  30.779  32.360  1.00  0.00     0.031 C 
ATOM     43  C   UNL A   1      40.512  26.026  27.370  1.00  0.00     0.029 A 
ATOM     44  C   UNL A   1      41.589  25.964  28.353  1.00  0.00     0.049 A 
ATOM     45  H   UNL A   1      41.815  27.141  30.058  1.00  0.00     0.167 HD
ATOM     46  C   UNL A   1      42.323  29.872  33.441  1.00  0.00     0.034 A 
ATOM     47  C   UNL A   1      42.629  25.109  28.321  1.00  0.00     0.034 A 
ATOM     48  C   UNL A   1      43.373  28.898  33.580  1.00  0.00     0.049 A 
ATOM     49  C   UNL A   1      43.629  25.134  29.444  1.00  0.00     0.074 A 
ATOM     50  C   UNL A   1      44.323  28.793  34.581  1.00  0.00     0.029 A 
ATOM     51  N   UNL A   1      43.613  27.863  32.690  1.00  0.00    -0.354 N 
ATOM     52  N   UNL A   1      43.664  25.908  30.502  1.00  0.00    -0.248 NA
ATOM     53  C   UNL A   1      44.711  24.139  29.392  1.00  0.00     0.031 C 
ATOM     54  C   UNL A   1      45.148  27.701  34.286  1.00  0.00     0.029 A 
ATOM     55  C   UNL A   1      44.699  27.117  33.113  1.00  0.00     0.049 A 
ATOM     56  H   UNL A   1      43.088  27.685  31.877  1.00  0.00     0.167 HD
ATOM     57  C   UNL A   1      44.748  25.475  31.257  1.00  0.00     0.074 A 
ATOM     58  C   UNL A   1      45.328  24.352  30.547  1.00  0.00     0.031 C 
ATOM     59  C   UNL A   1      45.232  25.971  32.421  1.00  0.00     0.034 A 
BRANCH  46  60
ATOM     60  C   UNL A   1      42.224  30.968  34.471  1.00  0.00     0.023 A 
ATOM     61  C   UNL A   1      41.496  30.740  35.656  1.00  0.00     0.012 A 
ATOM     62  C   UNL A   1      42.888  32.196  34.295  1.00  0.00     0.148 A 
ATOM     63  C   UNL A   1      41.401  31.729  36.635  1.00  0.00     0.002 A 
ATOM     64  C   UNL A   1      42.825  33.163  35.294  1.00  0.00     0.091 A 
ATOM     65  F   UNL A   1      43.558  32.405  33.152  1.00  0.00    -0.205 F 
ATOM     66  C   UNL A   1      42.073  32.935  36.458  1.00  0.00     0.022 A 
BRANCH  64  67
ATOM     67  S   UNL A   1      43.717  34.719  35.195  1.00  0.00     0.127 S 
ATOM     68  O   UNL A   1      43.110  35.333  34.016  1.00  0.00    -0.237 OA
ATOM     69  O   UNL A   1      43.365  35.357  36.465  1.00  0.00    -0.237 OA
ATOM     70  O   UNL A   1      45.124  34.367  35.063  1.00  0.00    -0.744 OA
ENDBRANCH  64  67
ENDBRANCH  46  60
BRANCH  47  71
ATOM     71  C   UNL A   1      42.726  24.101  27.228  1.00  0.00     0.023 A 
ATOM     72  C   UNL A   1      43.513  24.385  26.095  1.00  0.00     0.012 A 
ATOM     73  C   UNL A   1      42.075  22.855  27.318  1.00  0.00     0.148 A 
ATOM     74  C   UNL A   1      43.625  23.460  25.056  1.00  0.00     0.002 A 
ATOM     75  C   UNL A   1      42.235  21.917  26.304  1.00  0.00     0.091 A 
ATOM     76  F   UNL A   1      41.321  22.608  28.398  1.00  0.00    -0.205 F 
ATOM     77  C   UNL A   1      42.994  22.223  25.165  1.00  0.00     0.022 A 
BRANCH  75  78
ATOM     78  S   UNL A   1      41.571  20.252  26.425  1.00  0.00     0.127 S 
ATOM     79  O   UNL A   1      40.145  20.482  26.214  1.00  0.00    -0.237 OA
ATOM     80  O   UNL A   1      42.256  19.570  25.326  1.00  0.00    -0.237 OA
ATOM     81  O   UNL A   1      41.949  19.776  27.749  1.00  0.00    -0.744 OA
ENDBRANCH  75  78
ENDBRANCH  47  71
BRANCH  59  82
ATOM     82  C   UNL A   1      46.438  25.294  33.019  1.00  0.00     0.023 A 
ATOM     83  C   UNL A   1      47.727  25.786  32.733  1.00  0.00     0.012 A 
ATOM     84  C   UNL A   1      46.291  24.215  33.914  1.00  0.00     0.148 A 
ATOM     85  C   UNL A   1      48.854  25.192  33.301  1.00  0.00     0.002 A 
ATOM     86  C   UNL A   1      47.415  23.661  34.513  1.00  0.00     0.091 A 
ATOM     87  F   UNL A   1      45.058  23.748  34.157  1.00  0.00    -0.205 F 
ATOM     88  C   UNL A   1      48.698  24.140  34.199  1.00  0.00     0.022 A 
BRANCH  86  89
ATOM     89  S   UNL A   1      47.299  22.366  35.753  1.00  0.00     0.127 S 
ATOM     90  O   UNL A   1      46.447  22.993  36.761  1.00  0.00    -0.237 OA
ATOM     91  O   UNL A   1      46.663  21.278  35.010  1.00  0.00    -0.237 OA
ATOM     92  O   UNL A   1      48.667  22.091  36.170  1.00  0.00    -0.744 OA
ENDBRANCH  86  89
ENDBRANCH  59  82
ENDBRANCH  33  34
ENDBRANCH  25  28
ENDBRANCH  23  24
ENDBRANCH  22  23
ENDBRANCH   1  22
TORSDOF 17
ENDMDL
