MODEL 1
REMARK VINA RESULT:     -11.3      0.000      0.000
REMARK SMILES Cc1cc(C(=O)N[C@](C)(C(=O)NCCCCCCNC(=O)c2ccc(-c3c4nc(c(-c5cccc(S(=O)(=O)[O-])c5F)c5ccc([nH]5)c(-c5cccc(S(=O)(=O)[O-])c5F)c5nc(c(-c6cccc(S(=O)(=O)[O-])c6F)c6ccc3[nH]6)C=C5)C=C4)cc2)C(F)(F)F)no1
REMARK SMILES IDX 16 1 15 2 14 3 13 4 12 5 10 6 11 7 8 9 9 10 7 11 5 12 6 13
REMARK SMILES IDX 4 15 1 16 2 17 3 18 90 19 89 20 85 21 86 22 87 23 88 24
REMARK SMILES IDX 17 25 18 26 19 27 20 28 21 30 22 31 23 32 84 33 24 34 83 35
REMARK SMILES IDX 25 36 26 37 27 38 77 39 28 40 82 41 76 42 78 43 29 44 81 45
REMARK SMILES IDX 75 46 74 47 30 49 62 50 42 51 61 52 43 53 46 54 60 55 79 56
REMARK SMILES IDX 44 57 45 58 59 60 80 61 47 62 31 63 32 64 40 65 33 66 35 67
REMARK SMILES IDX 41 68 34 69 36 70 37 71 38 72 39 73 63 74 64 75 72 76 65 77
REMARK SMILES IDX 67 78 73 79 66 80 68 81 69 82 70 83 71 84 48 85 49 86 57 87
REMARK SMILES IDX 50 88 52 89 58 90 51 91 53 92 54 93 55 94 56 95
REMARK H PARENT 12 8 7 14 19 29 78 48 46 59
REMARK Flexibility Score: inf
ROOT
ATOM      1  C   UNL A   1      32.278  27.631  26.864  1.00  0.00     0.002 C 
ENDROOT
BRANCH   1   2
ATOM      2  C   UNL A   1      31.705  26.386  26.184  1.00  0.00     0.002 C 
BRANCH   2   3
ATOM      3  C   UNL A   1      32.685  25.630  25.278  1.00  0.00     0.021 C 
BRANCH   3   4
ATOM      4  C   UNL A   1      32.380  24.141  25.142  1.00  0.00     0.116 C 
BRANCH   4   5
ATOM      5  N   UNL A   1      32.939  23.404  26.264  1.00  0.00    -0.354 N 
ATOM      6  C   UNL A   1      34.034  22.594  26.339  1.00  0.00     0.254 C 
ATOM      7  O   UNL A   1      34.238  22.062  27.434  1.00  0.00    -0.272 OA
ATOM      8  H   UNL A   1      32.446  23.507  27.110  1.00  0.00     0.163 HD
BRANCH   6   9
ATOM      9  C   UNL A   1      34.886  22.278  25.101  1.00  0.00     0.212 C 
ATOM     10  C   UNL A   1      35.880  21.162  25.519  1.00  0.00     0.056 C 
BRANCH   9  11
ATOM     11  N   UNL A   1      34.108  21.794  23.909  1.00  0.00    -0.329 N 
ATOM     12  C   UNL A   1      33.025  20.933  23.847  1.00  0.00     0.274 C 
ATOM     13  O   UNL A   1      32.117  21.241  23.076  1.00  0.00    -0.267 OA
ATOM     14  H   UNL A   1      34.416  22.142  23.040  1.00  0.00     0.165 HD
BRANCH  12  15
ATOM     15  C   UNL A   1      33.088  19.628  24.504  1.00  0.00     0.171 A 
ATOM     16  C   UNL A   1      33.233  15.998  24.917  1.00  0.00     0.091 C 
ATOM     17  C   UNL A   1      33.211  17.470  24.935  1.00  0.00     0.134 A 
ATOM     18  C   UNL A   1      33.811  18.451  24.183  1.00  0.00     0.082 A 
ATOM     19  O   UNL A   1      32.371  18.050  25.827  1.00  0.00    -0.361 OA
ATOM     20  N   UNL A   1      32.300  19.403  25.570  1.00  0.00    -0.074 NA
ENDBRANCH  12  15
ENDBRANCH   9  11
BRANCH   9  21
ATOM     21  C   UNL A   1      35.710  23.538  24.751  1.00  0.00     0.420 C 
ATOM     22  F   UNL A   1      35.750  24.453  25.744  1.00  0.00    -0.168 F 
ATOM     23  F   UNL A   1      37.001  23.186  24.507  1.00  0.00    -0.168 F 
ATOM     24  F   UNL A   1      35.261  24.149  23.631  1.00  0.00    -0.168 F 
ENDBRANCH   9  21
ENDBRANCH   6   9
ENDBRANCH   4   5
ENDBRANCH   3   4
ENDBRANCH   2   3
ENDBRANCH   1   2
BRANCH   1  25
ATOM     25  C   UNL A   1      31.748  28.968  26.350  1.00  0.00     0.021 C 
BRANCH  25  26
ATOM     26  C   UNL A   1      32.822  29.953  25.914  1.00  0.00     0.116 C 
BRANCH  26  27
ATOM     27  N   UNL A   1      32.549  31.315  26.344  1.00  0.00    -0.352 N 
ATOM     28  C   UNL A   1      33.255  32.079  27.242  1.00  0.00     0.251 C 
ATOM     29  H   UNL A   1      31.760  31.745  25.942  1.00  0.00     0.163 HD
ATOM     30  O   UNL A   1      32.832  33.175  27.598  1.00  0.00    -0.269 OA
BRANCH  28  31
ATOM     31  C   UNL A   1      34.515  31.543  27.795  1.00  0.00     0.039 A 
ATOM     32  C   UNL A   1      35.606  32.400  27.950  1.00  0.00     0.014 A 
ATOM     33  C   UNL A   1      34.593  30.211  28.212  1.00  0.00     0.014 A 
ATOM     34  C   UNL A   1      36.760  31.934  28.580  1.00  0.00     0.010 A 
ATOM     35  C   UNL A   1      35.712  29.774  28.911  1.00  0.00     0.010 A 
ATOM     36  C   UNL A   1      36.811  30.627  29.095  1.00  0.00    -0.014 A 
BRANCH  36  37
ATOM     37  C   UNL A   1      38.004  30.130  29.826  1.00  0.00     0.031 A 
ATOM     38  C   UNL A   1      38.284  30.614  31.223  1.00  0.00     0.074 A 
ATOM     39  C   UNL A   1      38.877  29.312  29.204  1.00  0.00     0.049 A 
ATOM     40  N   UNL A   1      39.302  30.348  31.999  1.00  0.00    -0.248 NA
ATOM     41  C   UNL A   1      37.306  31.544  31.817  1.00  0.00     0.031 C 
ATOM     42  C   UNL A   1      38.758  28.837  27.824  1.00  0.00     0.029 A 
ATOM     43  N   UNL A   1      40.051  28.755  29.645  1.00  0.00    -0.354 N 
ATOM     44  C   UNL A   1      39.106  31.099  33.152  1.00  0.00     0.074 A 
ATOM     45  C   UNL A   1      37.895  31.864  32.959  1.00  0.00     0.031 C 
ATOM     46  C   UNL A   1      39.811  28.054  27.535  1.00  0.00     0.029 A 
ATOM     47  C   UNL A   1      40.693  27.993  28.695  1.00  0.00     0.049 A 
ATOM     48  H   UNL A   1      40.401  28.887  30.555  1.00  0.00     0.167 HD
ATOM     49  C   UNL A   1      39.847  31.122  34.285  1.00  0.00     0.034 A 
ATOM     50  C   UNL A   1      41.861  27.325  28.754  1.00  0.00     0.034 A 
ATOM     51  C   UNL A   1      41.022  30.322  34.493  1.00  0.00     0.049 A 
ATOM     52  C   UNL A   1      42.643  27.337  30.041  1.00  0.00     0.074 A 
ATOM     53  C   UNL A   1      41.798  30.213  35.633  1.00  0.00     0.029 A 
ATOM     54  N   UNL A   1      41.591  29.491  33.540  1.00  0.00    -0.354 N 
ATOM     55  N   UNL A   1      42.360  27.933  31.174  1.00  0.00    -0.248 NA
ATOM     56  C   UNL A   1      43.887  26.553  30.070  1.00  0.00     0.031 C 
ATOM     57  C   UNL A   1      42.847  29.328  35.363  1.00  0.00     0.029 A 
ATOM     58  C   UNL A   1      42.710  28.869  34.064  1.00  0.00     0.049 A 
ATOM     59  H   UNL A   1      41.250  29.365  32.625  1.00  0.00     0.167 HD
ATOM     60  C   UNL A   1      43.365  27.565  32.060  1.00  0.00     0.074 A 
ATOM     61  C   UNL A   1      44.254  26.677  31.338  1.00  0.00     0.031 C 
ATOM     62  C   UNL A   1      43.547  27.939  33.350  1.00  0.00     0.034 A 
BRANCH  49  63
ATOM     63  C   UNL A   1      39.367  31.995  35.416  1.00  0.00     0.023 A 
ATOM     64  C   UNL A   1      38.482  31.462  36.376  1.00  0.00     0.012 A 
ATOM     65  C   UNL A   1      39.836  33.315  35.567  1.00  0.00     0.148 A 
ATOM     66  C   UNL A   1      38.043  32.237  37.447  1.00  0.00     0.002 A 
ATOM     67  C   UNL A   1      39.430  34.067  36.664  1.00  0.00     0.091 A 
ATOM     68  F   UNL A   1      40.662  33.811  34.634  1.00  0.00    -0.205 F 
ATOM     69  C   UNL A   1      38.526  33.533  37.597  1.00  0.00     0.022 A 
BRANCH  67  70
ATOM     70  S   UNL A   1      40.052  35.720  36.991  1.00  0.00     0.127 S 
ATOM     71  O   UNL A   1      41.491  35.479  37.090  1.00  0.00    -0.237 OA
ATOM     72  O   UNL A   1      39.638  36.447  35.791  1.00  0.00    -0.237 OA
ATOM     73  O   UNL A   1      39.407  36.158  38.220  1.00  0.00    -0.744 OA
ENDBRANCH  67  70
ENDBRANCH  49  63
BRANCH  50  74
ATOM     74  C   UNL A   1      42.332  26.529  27.585  1.00  0.00     0.023 A 
ATOM     75  C   UNL A   1      43.096  27.161  26.584  1.00  0.00     0.012 A 
ATOM     76  C   UNL A   1      42.037  25.159  27.460  1.00  0.00     0.148 A 
ATOM     77  C   UNL A   1      43.526  26.451  25.461  1.00  0.00     0.002 A 
ATOM     78  C   UNL A   1      42.513  24.445  26.366  1.00  0.00     0.091 A 
ATOM     79  F   UNL A   1      41.297  24.578  28.415  1.00  0.00    -0.205 F 
ATOM     80  C   UNL A   1      43.242  25.093  25.356  1.00  0.00     0.022 A 
BRANCH  78  81
ATOM     81  S   UNL A   1      42.300  22.667  26.213  1.00  0.00     0.127 S 
ATOM     82  O   UNL A   1      43.002  22.180  27.396  1.00  0.00    -0.237 OA
ATOM     83  O   UNL A   1      40.843  22.532  26.261  1.00  0.00    -0.237 OA
ATOM     84  O   UNL A   1      42.893  22.314  24.930  1.00  0.00    -0.744 OA
ENDBRANCH  78  81
ENDBRANCH  50  74
BRANCH  62  85
ATOM     85  C   UNL A   1      44.726  27.361  34.086  1.00  0.00     0.023 A 
ATOM     86  C   UNL A   1      45.968  28.025  34.056  1.00  0.00     0.012 A 
ATOM     87  C   UNL A   1      44.582  26.198  34.870  1.00  0.00     0.148 A 
ATOM     88  C   UNL A   1      47.056  27.525  34.770  1.00  0.00     0.002 A 
ATOM     89  C   UNL A   1      45.656  25.734  35.618  1.00  0.00     0.091 A 
ATOM     90  F   UNL A   1      43.397  25.570  34.870  1.00  0.00    -0.205 F 
ATOM     91  C   UNL A   1      46.897  26.389  35.559  1.00  0.00     0.022 A 
BRANCH  89  92
ATOM     92  S   UNL A   1      45.517  24.337  36.738  1.00  0.00     0.127 S 
ATOM     93  O   UNL A   1      44.495  24.806  37.673  1.00  0.00    -0.237 OA
ATOM     94  O   UNL A   1      45.080  23.264  35.844  1.00  0.00    -0.237 OA
ATOM     95  O   UNL A   1      46.844  24.145  37.306  1.00  0.00    -0.744 OA
ENDBRANCH  89  92
ENDBRANCH  62  85
ENDBRANCH  36  37
ENDBRANCH  28  31
ENDBRANCH  26  27
ENDBRANCH  25  26
ENDBRANCH   1  25
TORSDOF 19
ENDMDL
MODEL 2
REMARK VINA RESULT:     -11.3      1.704      7.699
REMARK SMILES Cc1cc(C(=O)N[C@](C)(C(=O)NCCCCCCNC(=O)c2ccc(-c3c4nc(c(-c5cccc(S(=O)(=O)[O-])c5F)c5ccc([nH]5)c(-c5cccc(S(=O)(=O)[O-])c5F)c5nc(c(-c6cccc(S(=O)(=O)[O-])c6F)c6ccc3[nH]6)C=C5)C=C4)cc2)C(F)(F)F)no1
REMARK SMILES IDX 16 1 15 2 14 3 13 4 12 5 10 6 11 7 8 9 9 10 7 11 5 12 6 13
REMARK SMILES IDX 4 15 1 16 2 17 3 18 90 19 89 20 85 21 86 22 87 23 88 24
REMARK SMILES IDX 17 25 18 26 19 27 20 28 21 30 22 31 23 32 84 33 24 34 83 35
REMARK SMILES IDX 25 36 26 37 27 38 77 39 28 40 82 41 76 42 78 43 29 44 81 45
REMARK SMILES IDX 75 46 74 47 30 49 62 50 42 51 61 52 43 53 46 54 60 55 79 56
REMARK SMILES IDX 44 57 45 58 59 60 80 61 47 62 31 63 32 64 40 65 33 66 35 67
REMARK SMILES IDX 41 68 34 69 36 70 37 71 38 72 39 73 63 74 64 75 72 76 65 77
REMARK SMILES IDX 67 78 73 79 66 80 68 81 69 82 70 83 71 84 48 85 49 86 57 87
REMARK SMILES IDX 50 88 52 89 58 90 51 91 53 92 54 93 55 94 56 95
REMARK H PARENT 12 8 7 14 19 29 78 48 46 59
REMARK Flexibility Score: inf
ROOT
ATOM      1  C   UNL A   1      30.958  28.536  23.936  1.00  0.00     0.002 C 
ENDROOT
BRANCH   1   2
ATOM      2  C   UNL A   1      30.180  27.288  23.512  1.00  0.00     0.002 C 
BRANCH   2   3
ATOM      3  C   UNL A   1      29.956  26.253  24.622  1.00  0.00     0.021 C 
BRANCH   3   4
ATOM      4  C   UNL A   1      30.613  24.902  24.351  1.00  0.00     0.116 C 
BRANCH   4   5
ATOM      5  N   UNL A   1      30.762  24.152  25.587  1.00  0.00    -0.354 N 
ATOM      6  C   UNL A   1      31.867  23.605  26.169  1.00  0.00     0.254 C 
ATOM      7  O   UNL A   1      31.673  22.977  27.213  1.00  0.00    -0.272 OA
ATOM      8  H   UNL A   1      29.925  24.017  26.089  1.00  0.00     0.163 HD
BRANCH   6   9
ATOM      9  C   UNL A   1      33.245  23.673  25.495  1.00  0.00     0.212 C 
ATOM     10  C   UNL A   1      34.223  22.879  26.402  1.00  0.00     0.056 C 
BRANCH   9  11
ATOM     11  N   UNL A   1      33.300  23.082  24.114  1.00  0.00    -0.329 N 
ATOM     12  C   UNL A   1      32.700  21.938  23.614  1.00  0.00     0.274 C 
ATOM     13  O   UNL A   1      32.204  22.019  22.491  1.00  0.00    -0.267 OA
ATOM     14  H   UNL A   1      33.847  23.585  23.465  1.00  0.00     0.165 HD
BRANCH  12  15
ATOM     15  C   UNL A   1      32.860  20.663  24.311  1.00  0.00     0.171 A 
ATOM     16  C   UNL A   1      33.813  17.188  24.932  1.00  0.00     0.091 C 
ATOM     17  C   UNL A   1      33.388  18.596  24.866  1.00  0.00     0.134 A 
ATOM     18  C   UNL A   1      33.939  19.745  24.350  1.00  0.00     0.082 A 
ATOM     19  O   UNL A   1      32.150  18.876  25.340  1.00  0.00    -0.361 OA
ATOM     20  N   UNL A   1      31.818  20.172  25.008  1.00  0.00    -0.074 NA
ENDBRANCH  12  15
ENDBRANCH   9  11
BRANCH   9  21
ATOM     21  C   UNL A   1      33.703  25.150  25.484  1.00  0.00     0.420 C 
ATOM     22  F   UNL A   1      33.438  25.790  24.326  1.00  0.00    -0.168 F 
ATOM     23  F   UNL A   1      33.045  25.837  26.457  1.00  0.00    -0.168 F 
ATOM     24  F   UNL A   1      35.022  25.279  25.748  1.00  0.00    -0.168 F 
ENDBRANCH   9  21
ENDBRANCH   6   9
ENDBRANCH   4   5
ENDBRANCH   3   4
ENDBRANCH   2   3
ENDBRANCH   1   2
BRANCH   1  25
ATOM     25  C   UNL A   1      31.468  28.539  25.376  1.00  0.00     0.021 C 
BRANCH  25  26
ATOM     26  C   UNL A   1      32.621  29.496  25.640  1.00  0.00     0.116 C 
BRANCH  26  27
ATOM     27  N   UNL A   1      32.176  30.823  26.034  1.00  0.00    -0.352 N 
ATOM     28  C   UNL A   1      32.757  31.678  26.939  1.00  0.00     0.251 C 
ATOM     29  H   UNL A   1      31.356  31.150  25.598  1.00  0.00     0.163 HD
ATOM     30  O   UNL A   1      32.197  32.723  27.259  1.00  0.00    -0.269 OA
BRANCH  28  31
ATOM     31  C   UNL A   1      34.051  31.302  27.543  1.00  0.00     0.039 A 
ATOM     32  C   UNL A   1      35.025  32.286  27.723  1.00  0.00     0.014 A 
ATOM     33  C   UNL A   1      34.272  29.994  27.982  1.00  0.00     0.014 A 
ATOM     34  C   UNL A   1      36.204  31.968  28.400  1.00  0.00     0.010 A 
ATOM     35  C   UNL A   1      35.410  29.702  28.725  1.00  0.00     0.010 A 
ATOM     36  C   UNL A   1      36.391  30.682  28.934  1.00  0.00    -0.014 A 
BRANCH  36  37
ATOM     37  C   UNL A   1      37.608  30.339  29.713  1.00  0.00     0.031 A 
ATOM     38  C   UNL A   1      38.632  29.401  29.132  1.00  0.00     0.074 A 
ATOM     39  C   UNL A   1      37.750  30.803  30.971  1.00  0.00     0.049 A 
ATOM     40  N   UNL A   1      39.724  28.932  29.676  1.00  0.00    -0.248 NA
ATOM     41  C   UNL A   1      38.381  28.900  27.768  1.00  0.00     0.031 C 
ATOM     42  C   UNL A   1      36.788  31.654  31.674  1.00  0.00     0.029 A 
ATOM     43  N   UNL A   1      38.749  30.603  31.891  1.00  0.00    -0.354 N 
ATOM     44  C   UNL A   1      40.270  28.060  28.743  1.00  0.00     0.074 A 
ATOM     45  C   UNL A   1      39.369  28.031  27.613  1.00  0.00     0.031 C 
ATOM     46  C   UNL A   1      37.248  31.910  32.910  1.00  0.00     0.029 A 
ATOM     47  C   UNL A   1      38.519  31.220  33.099  1.00  0.00     0.049 A 
ATOM     48  H   UNL A   1      39.554  30.068  31.704  1.00  0.00     0.167 HD
ATOM     49  C   UNL A   1      41.435  27.373  28.803  1.00  0.00     0.034 A 
ATOM     50  C   UNL A   1      39.251  31.226  34.230  1.00  0.00     0.034 A 
ATOM     51  C   UNL A   1      42.352  27.444  29.906  1.00  0.00     0.049 A 
ATOM     52  C   UNL A   1      40.562  30.486  34.254  1.00  0.00     0.074 A 
ATOM     53  C   UNL A   1      43.596  26.849  30.030  1.00  0.00     0.029 A 
ATOM     54  N   UNL A   1      42.129  28.153  31.076  1.00  0.00    -0.354 N 
ATOM     55  N   UNL A   1      41.134  29.789  33.302  1.00  0.00    -0.248 NA
ATOM     56  C   UNL A   1      41.346  30.563  35.495  1.00  0.00     0.031 C 
ATOM     57  C   UNL A   1      44.117  27.187  31.284  1.00  0.00     0.029 A 
ATOM     58  C   UNL A   1      43.208  28.010  31.930  1.00  0.00     0.049 A 
ATOM     59  H   UNL A   1      41.320  28.680  31.271  1.00  0.00     0.167 HD
ATOM     60  C   UNL A   1      42.361  29.380  33.813  1.00  0.00     0.074 A 
ATOM     61  C   UNL A   1      42.457  29.924  35.152  1.00  0.00     0.031 C 
ATOM     62  C   UNL A   1      43.314  28.610  33.234  1.00  0.00     0.034 A 
BRANCH  49  63
ATOM     63  C   UNL A   1      41.815  26.535  27.610  1.00  0.00     0.023 A 
ATOM     64  C   UNL A   1      42.426  27.150  26.498  1.00  0.00     0.012 A 
ATOM     65  C   UNL A   1      41.628  25.139  27.610  1.00  0.00     0.148 A 
ATOM     66  C   UNL A   1      42.814  26.397  25.391  1.00  0.00     0.002 A 
ATOM     67  C   UNL A   1      42.059  24.388  26.522  1.00  0.00     0.091 A 
ATOM     68  F   UNL A   1      41.028  24.574  28.668  1.00  0.00    -0.205 F 
ATOM     69  C   UNL A   1      42.641  25.016  25.409  1.00  0.00     0.022 A 
BRANCH  67  70
ATOM     70  S   UNL A   1      41.953  22.595  26.478  1.00  0.00     0.127 S 
ATOM     71  O   UNL A   1      42.687  22.226  27.687  1.00  0.00    -0.237 OA
ATOM     72  O   UNL A   1      40.508  22.372  26.551  1.00  0.00    -0.237 OA
ATOM     73  O   UNL A   1      42.568  22.185  25.224  1.00  0.00    -0.744 OA
ENDBRANCH  67  70
ENDBRANCH  49  63
BRANCH  50  74
ATOM     74  C   UNL A   1      38.801  32.015  35.412  1.00  0.00     0.023 A 
ATOM     75  C   UNL A   1      38.961  33.415  35.408  1.00  0.00     0.012 A 
ATOM     76  C   UNL A   1      38.213  31.395  36.530  1.00  0.00     0.148 A 
ATOM     77  C   UNL A   1      38.579  34.179  36.512  1.00  0.00     0.002 A 
ATOM     78  C   UNL A   1      37.785  32.168  37.605  1.00  0.00     0.091 A 
ATOM     79  F   UNL A   1      38.081  30.062  36.522  1.00  0.00    -0.205 F 
ATOM     80  C   UNL A   1      37.983  33.557  37.606  1.00  0.00     0.022 A 
BRANCH  78  81
ATOM     81  S   UNL A   1      36.897  31.464  38.999  1.00  0.00     0.127 S 
ATOM     82  O   UNL A   1      37.864  31.624  40.080  1.00  0.00    -0.237 OA
ATOM     83  O   UNL A   1      35.725  32.337  39.085  1.00  0.00    -0.237 OA
ATOM     84  O   UNL A   1      36.594  30.092  38.614  1.00  0.00    -0.744 OA
ENDBRANCH  78  81
ENDBRANCH  50  74
BRANCH  62  85
ATOM     85  C   UNL A   1      44.569  28.341  34.022  1.00  0.00     0.023 A 
ATOM     86  C   UNL A   1      45.638  29.258  33.975  1.00  0.00     0.012 A 
ATOM     87  C   UNL A   1      44.656  27.218  34.869  1.00  0.00     0.148 A 
ATOM     88  C   UNL A   1      46.786  29.044  34.735  1.00  0.00     0.002 A 
ATOM     89  C   UNL A   1      45.783  27.038  35.661  1.00  0.00     0.091 A 
ATOM     90  F   UNL A   1      43.635  26.348  34.885  1.00  0.00    -0.205 F 
ATOM     91  C   UNL A   1      46.854  27.943  35.585  1.00  0.00     0.022 A 
BRANCH  89  92
ATOM     92  S   UNL A   1      45.916  25.705  36.857  1.00  0.00     0.127 S 
ATOM     93  O   UNL A   1      44.765  25.964  37.720  1.00  0.00    -0.237 OA
ATOM     94  O   UNL A   1      45.791  24.516  36.012  1.00  0.00    -0.237 OA
ATOM     95  O   UNL A   1      47.219  25.862  37.488  1.00  0.00    -0.744 OA
ENDBRANCH  89  92
ENDBRANCH  62  85
ENDBRANCH  36  37
ENDBRANCH  28  31
ENDBRANCH  26  27
ENDBRANCH  25  26
ENDBRANCH   1  25
TORSDOF 19
ENDMDL
MODEL 3
REMARK VINA RESULT:     -11.0      5.305     10.616
REMARK SMILES Cc1cc(C(=O)N[C@](C)(C(=O)NCCCCCCNC(=O)c2ccc(-c3c4nc(c(-c5cccc(S(=O)(=O)[O-])c5F)c5ccc([nH]5)c(-c5cccc(S(=O)(=O)[O-])c5F)c5nc(c(-c6cccc(S(=O)(=O)[O-])c6F)c6ccc3[nH]6)C=C5)C=C4)cc2)C(F)(F)F)no1
REMARK SMILES IDX 16 1 15 2 14 3 13 4 12 5 10 6 11 7 8 9 9 10 7 11 5 12 6 13
REMARK SMILES IDX 4 15 1 16 2 17 3 18 90 19 89 20 85 21 86 22 87 23 88 24
REMARK SMILES IDX 17 25 18 26 19 27 20 28 21 30 22 31 23 32 84 33 24 34 83 35
REMARK SMILES IDX 25 36 26 37 27 38 77 39 28 40 82 41 76 42 78 43 29 44 81 45
REMARK SMILES IDX 75 46 74 47 30 49 62 50 42 51 61 52 43 53 46 54 60 55 79 56
REMARK SMILES IDX 44 57 45 58 59 60 80 61 47 62 31 63 32 64 40 65 33 66 35 67
REMARK SMILES IDX 41 68 34 69 36 70 37 71 38 72 39 73 63 74 64 75 72 76 65 77
REMARK SMILES IDX 67 78 73 79 66 80 68 81 69 82 70 83 71 84 48 85 49 86 57 87
REMARK SMILES IDX 50 88 52 89 58 90 51 91 53 92 54 93 55 94 56 95
REMARK H PARENT 12 8 7 14 19 29 78 48 46 59
REMARK Flexibility Score: inf
ROOT
ATOM      1  C   UNL A   1      34.664  22.258  25.525  1.00  0.00     0.002 C 
ENDROOT
BRANCH   1   2
ATOM      2  C   UNL A   1      34.656  23.665  24.922  1.00  0.00     0.002 C 
BRANCH   2   3
ATOM      3  C   UNL A   1      33.636  24.631  25.538  1.00  0.00     0.021 C 
BRANCH   3   4
ATOM      4  C   UNL A   1      32.783  25.369  24.510  1.00  0.00     0.116 C 
BRANCH   4   5
ATOM      5  N   UNL A   1      33.460  26.576  24.061  1.00  0.00    -0.354 N 
ATOM      6  C   UNL A   1      33.251  27.885  24.381  1.00  0.00     0.254 C 
ATOM      7  O   UNL A   1      33.965  28.704  23.798  1.00  0.00    -0.272 OA
ATOM      8  H   UNL A   1      34.191  26.422  23.420  1.00  0.00     0.163 HD
BRANCH   6   9
ATOM      9  C   UNL A   1      32.115  28.308  25.324  1.00  0.00     0.212 C 
ATOM     10  C   UNL A   1      31.984  29.850  25.197  1.00  0.00     0.056 C 
BRANCH   9  11
ATOM     11  N   UNL A   1      30.777  27.696  25.013  1.00  0.00    -0.329 N 
ATOM     12  C   UNL A   1      30.078  27.654  23.818  1.00  0.00     0.274 C 
ATOM     13  O   UNL A   1      29.526  26.591  23.538  1.00  0.00    -0.267 OA
ATOM     14  H   UNL A   1      30.330  27.259  25.775  1.00  0.00     0.165 HD
BRANCH  12  15
ATOM     15  C   UNL A   1      29.839  28.884  23.065  1.00  0.00     0.171 A 
ATOM     16  C   UNL A   1      28.148  31.888  21.846  1.00  0.00     0.091 C 
ATOM     17  C   UNL A   1      28.982  30.744  22.248  1.00  0.00     0.134 A 
ATOM     18  C   UNL A   1      29.241  30.113  23.442  1.00  0.00     0.082 A 
ATOM     19  O   UNL A   1      29.606  30.071  21.251  1.00  0.00    -0.361 OA
ATOM     20  N   UNL A   1      30.156  28.913  21.758  1.00  0.00    -0.074 NA
ENDBRANCH  12  15
ENDBRANCH   9  11
BRANCH   9  21
ATOM     21  C   UNL A   1      32.547  27.988  26.773  1.00  0.00     0.420 C 
ATOM     22  F   UNL A   1      32.266  28.973  27.653  1.00  0.00    -0.168 F 
ATOM     23  F   UNL A   1      31.883  26.885  27.214  1.00  0.00    -0.168 F 
ATOM     24  F   UNL A   1      33.866  27.704  26.863  1.00  0.00    -0.168 F 
ENDBRANCH   9  21
ENDBRANCH   6   9
ENDBRANCH   4   5
ENDBRANCH   3   4
ENDBRANCH   2   3
ENDBRANCH   1   2
BRANCH   1  25
ATOM     25  C   UNL A   1      35.751  21.321  25.002  1.00  0.00     0.021 C 
BRANCH  25  26
ATOM     26  C   UNL A   1      37.173  21.832  25.184  1.00  0.00     0.116 C 
BRANCH  26  27
ATOM     27  N   UNL A   1      38.112  20.778  25.534  1.00  0.00    -0.352 N 
ATOM     28  C   UNL A   1      39.343  20.904  26.131  1.00  0.00     0.251 C 
ATOM     29  H   UNL A   1      37.830  19.860  25.318  1.00  0.00     0.163 HD
ATOM     30  O   UNL A   1      40.079  19.928  26.255  1.00  0.00    -0.269 OA
BRANCH  28  31
ATOM     31  C   UNL A   1      39.779  22.238  26.589  1.00  0.00     0.039 A 
ATOM     32  C   UNL A   1      40.795  22.328  27.542  1.00  0.00     0.014 A 
ATOM     33  C   UNL A   1      39.222  23.393  26.031  1.00  0.00     0.014 A 
ATOM     34  C   UNL A   1      41.295  23.582  27.895  1.00  0.00     0.010 A 
ATOM     35  C   UNL A   1      39.778  24.633  26.324  1.00  0.00     0.010 A 
ATOM     36  C   UNL A   1      40.813  24.742  27.264  1.00  0.00    -0.014 A 
BRANCH  36  37
ATOM     37  C   UNL A   1      41.375  26.081  27.576  1.00  0.00     0.031 A 
ATOM     38  C   UNL A   1      42.780  26.422  27.156  1.00  0.00     0.074 A 
ATOM     39  C   UNL A   1      40.654  26.955  28.307  1.00  0.00     0.049 A 
ATOM     40  N   UNL A   1      43.469  27.508  27.389  1.00  0.00    -0.248 NA
ATOM     41  C   UNL A   1      43.519  25.395  26.401  1.00  0.00     0.031 C 
ATOM     42  C   UNL A   1      39.313  26.711  28.840  1.00  0.00     0.029 A 
ATOM     43  N   UNL A   1      40.961  28.218  28.748  1.00  0.00    -0.354 N 
ATOM     44  C   UNL A   1      44.727  27.284  26.842  1.00  0.00     0.074 A 
ATOM     45  C   UNL A   1      44.721  25.943  26.302  1.00  0.00     0.031 C 
ATOM     46  C   UNL A   1      38.909  27.792  29.529  1.00  0.00     0.029 A 
ATOM     47  C   UNL A   1      39.970  28.792  29.511  1.00  0.00     0.049 A 
ATOM     48  H   UNL A   1      41.810  28.671  28.539  1.00  0.00     0.167 HD
ATOM     49  C   UNL A   1      45.780  28.130  26.762  1.00  0.00     0.034 A 
ATOM     50  C   UNL A   1      39.925  29.990  30.127  1.00  0.00     0.034 A 
ATOM     51  C   UNL A   1      45.765  29.480  27.254  1.00  0.00     0.049 A 
ATOM     52  C   UNL A   1      41.096  30.925  29.987  1.00  0.00     0.074 A 
ATOM     53  C   UNL A   1      46.752  30.444  27.151  1.00  0.00     0.029 A 
ATOM     54  N   UNL A   1      44.709  30.059  27.941  1.00  0.00    -0.354 N 
ATOM     55  N   UNL A   1      42.219  30.752  29.334  1.00  0.00    -0.248 NA
ATOM     56  C   UNL A   1      40.979  32.239  30.638  1.00  0.00     0.031 C 
ATOM     57  C   UNL A   1      46.298  31.602  27.792  1.00  0.00     0.029 A 
ATOM     58  C   UNL A   1      45.020  31.366  28.272  1.00  0.00     0.049 A 
ATOM     59  H   UNL A   1      43.863  29.606  28.162  1.00  0.00     0.167 HD
ATOM     60  C   UNL A   1      42.922  31.944  29.460  1.00  0.00     0.074 A 
ATOM     61  C   UNL A   1      42.090  32.840  30.235  1.00  0.00     0.031 C 
ATOM     62  C   UNL A   1      44.154  32.264  28.990  1.00  0.00     0.034 A 
BRANCH  49  63
ATOM     63  C   UNL A   1      47.018  27.641  26.056  1.00  0.00     0.023 A 
ATOM     64  C   UNL A   1      47.982  26.907  26.776  1.00  0.00     0.012 A 
ATOM     65  C   UNL A   1      47.200  27.850  24.674  1.00  0.00     0.148 A 
ATOM     66  C   UNL A   1      49.124  26.419  26.144  1.00  0.00     0.002 A 
ATOM     67  C   UNL A   1      48.319  27.320  24.041  1.00  0.00     0.091 A 
ATOM     68  F   UNL A   1      46.282  28.568  24.010  1.00  0.00    -0.205 F 
ATOM     69  C   UNL A   1      49.286  26.615  24.776  1.00  0.00     0.022 A 
BRANCH  67  70
ATOM     70  S   UNL A   1      48.583  27.451  22.269  1.00  0.00     0.127 S 
ATOM     71  O   UNL A   1      49.767  28.308  22.210  1.00  0.00    -0.237 OA
ATOM     72  O   UNL A   1      48.821  26.058  21.890  1.00  0.00    -0.237 OA
ATOM     73  O   UNL A   1      47.366  28.031  21.721  1.00  0.00    -0.744 OA
ENDBRANCH  67  70
ENDBRANCH  49  63
BRANCH  50  74
ATOM     74  C   UNL A   1      38.704  30.405  30.875  1.00  0.00     0.023 A 
ATOM     75  C   UNL A   1      38.565  30.036  32.228  1.00  0.00     0.012 A 
ATOM     76  C   UNL A   1      37.689  31.164  30.264  1.00  0.00     0.148 A 
ATOM     77  C   UNL A   1      37.420  30.381  32.947  1.00  0.00     0.002 A 
ATOM     78  C   UNL A   1      36.575  31.552  31.001  1.00  0.00     0.091 A 
ATOM     79  F   UNL A   1      37.832  31.495  28.973  1.00  0.00    -0.205 F 
ATOM     80  C   UNL A   1      36.429  31.146  32.337  1.00  0.00     0.022 A 
BRANCH  78  81
ATOM     81  S   UNL A   1      35.312  32.640  30.331  1.00  0.00     0.127 S 
ATOM     82  O   UNL A   1      34.383  32.744  31.451  1.00  0.00    -0.237 OA
ATOM     83  O   UNL A   1      36.078  33.856  30.049  1.00  0.00    -0.237 OA
ATOM     84  O   UNL A   1      34.806  31.964  29.144  1.00  0.00    -0.744 OA
ENDBRANCH  78  81
ENDBRANCH  50  74
BRANCH  62  85
ATOM     85  C   UNL A   1      44.665  33.654  29.261  1.00  0.00     0.023 A 
ATOM     86  C   UNL A   1      45.406  33.914  30.430  1.00  0.00     0.012 A 
ATOM     87  C   UNL A   1      44.475  34.683  28.317  1.00  0.00     0.148 A 
ATOM     88  C   UNL A   1      45.924  35.185  30.671  1.00  0.00     0.002 A 
ATOM     89  C   UNL A   1      45.036  35.934  28.541  1.00  0.00     0.091 A 
ATOM     90  F   UNL A   1      43.750  34.420  27.220  1.00  0.00    -0.205 F 
ATOM     91  C   UNL A   1      45.750  36.190  29.722  1.00  0.00     0.022 A 
BRANCH  89  92
ATOM     92  S   UNL A   1      44.948  37.258  27.331  1.00  0.00     0.127 S 
ATOM     93  O   UNL A   1      45.869  36.782  26.300  1.00  0.00    -0.237 OA
ATOM     94  O   UNL A   1      43.536  37.234  26.946  1.00  0.00    -0.237 OA
ATOM     95  O   UNL A   1      45.362  38.468  28.029  1.00  0.00    -0.744 OA
ENDBRANCH  89  92
ENDBRANCH  62  85
ENDBRANCH  36  37
ENDBRANCH  28  31
ENDBRANCH  26  27
ENDBRANCH  25  26
ENDBRANCH   1  25
TORSDOF 19
ENDMDL
