MODEL 1
REMARK VINA RESULT:      -9.8      0.000      0.000
REMARK SMILES Cn1cc(SCC[C@@H]2CCC[C@@]2([NH3+])C(=O)NCCCCCCNC(=O)c2ccc(-c3c4nc(c(-c5cccc(S(=O)(=O)[O-])c5F)c5ccc([nH]5)c(-c5cccc(S(=O)(=O)[O-])c5F)c5nc(c(-c6cccc(S(=O)(=O)[O-])c6F)c6ccc3[nH]6)C=C5)C=C4)cc2)cn1
REMARK SMILES IDX 19 1 18 2 17 3 16 4 14 5 15 6 12 8 8 9 9 10 10 11 11 12 7 13
REMARK SMILES IDX 6 14 5 15 4 16 1 17 2 18 3 19 90 20 89 21 13 22 20 26 21 27
REMARK SMILES IDX 22 28 23 29 24 30 25 32 26 33 27 34 88 35 28 36 87 37 29 38
REMARK SMILES IDX 30 39 31 40 81 41 32 42 86 43 80 44 82 45 33 46 85 47 79 48
REMARK SMILES IDX 78 49 34 51 66 52 46 53 65 54 47 55 50 56 64 57 83 58 48 59
REMARK SMILES IDX 49 60 63 62 84 63 51 64 35 65 36 66 44 67 37 68 39 69 45 70
REMARK SMILES IDX 38 71 40 72 41 73 42 74 43 75 67 76 68 77 76 78 69 79 71 80
REMARK SMILES IDX 77 81 70 82 72 83 73 84 74 85 75 86 52 87 53 88 61 89 54 90
REMARK SMILES IDX 56 91 62 92 55 93 57 94 58 95 59 96 60 97
REMARK H PARENT 16 7 13 23 13 24 13 25 23 31 82 50 50 61
REMARK Flexibility Score: inf
ROOT
ATOM      1  C   UNL A   1      39.234  23.927  26.219  1.00  0.00     0.002 C 
ENDROOT
BRANCH   1   2
ATOM      2  C   UNL A   1      37.745  24.178  26.488  1.00  0.00     0.021 C 
BRANCH   2   3
ATOM      3  C   UNL A   1      36.801  23.292  25.677  1.00  0.00     0.116 C 
BRANCH   3   4
ATOM      4  N   UNL A   1      35.973  22.485  26.535  1.00  0.00    -0.351 N 
ATOM      5  C   UNL A   1      34.640  22.367  26.695  1.00  0.00     0.281 C 
ATOM      6  O   UNL A   1      34.311  21.703  27.695  1.00  0.00    -0.268 OA
ATOM      7  H   UNL A   1      36.489  21.895  27.129  1.00  0.00     0.163 HD
BRANCH   5   8
ATOM      8  C   UNL A   1      33.516  22.976  25.784  1.00  0.00     0.176 C 
ATOM      9  C   UNL A   1      32.060  22.440  25.698  1.00  0.00     0.061 C 
ATOM     10  C   UNL A   1      31.263  23.707  25.302  1.00  0.00     0.011 C 
ATOM     11  C   UNL A   1      31.890  24.857  26.057  1.00  0.00     0.008 C 
ATOM     12  C   UNL A   1      33.249  24.348  26.494  1.00  0.00     0.079 C 
BRANCH   9  13
ATOM     13  C   UNL A   1      31.713  21.319  24.686  1.00  0.00     0.022 C 
BRANCH  13  14
ATOM     14  C   UNL A   1      32.530  20.017  24.868  1.00  0.00     0.075 C 
BRANCH  14  15
ATOM     15  S   UNL A   1      32.458  18.795  23.520  1.00  0.00    -0.123 SA
BRANCH  15  16
ATOM     16  C   UNL A   1      33.476  17.489  24.051  1.00  0.00     0.045 A 
ATOM     17  C   UNL A   1      36.184  15.917  25.770  1.00  0.00     0.173 C 
ATOM     18  N   UNL A   1      35.035  16.275  24.974  1.00  0.00    -0.275 N 
ATOM     19  C   UNL A   1      34.814  17.475  24.358  1.00  0.00     0.123 A 
ATOM     20  N   UNL A   1      33.978  15.442  24.923  1.00  0.00    -0.181 NA
ATOM     21  C   UNL A   1      33.031  16.182  24.335  1.00  0.00     0.150 A 
ENDBRANCH  15  16
ENDBRANCH  14  15
ENDBRANCH  13  14
ENDBRANCH   9  13
BRANCH   8  22
ATOM     22  N   UNL A   1      34.094  23.191  24.440  1.00  0.00    -0.345 N 
ATOM     23  H   UNL A   1      33.360  23.111  23.737  1.00  0.00     0.345 HD
ATOM     24  H   UNL A   1      34.813  22.489  24.262  1.00  0.00     0.345 HD
ATOM     25  H   UNL A   1      34.510  24.121  24.393  1.00  0.00     0.345 HD
ENDBRANCH   8  22
ENDBRANCH   5   8
ENDBRANCH   3   4
ENDBRANCH   2   3
ENDBRANCH   1   2
BRANCH   1  26
ATOM     26  C   UNL A   1      39.843  22.758  27.001  1.00  0.00     0.002 C 
BRANCH  26  27
ATOM     27  C   UNL A   1      39.718  21.393  26.321  1.00  0.00     0.021 C 
BRANCH  27  28
ATOM     28  C   UNL A   1      40.339  20.239  27.101  1.00  0.00     0.116 C 
BRANCH  28  29
ATOM     29  N   UNL A   1      41.284  19.478  26.294  1.00  0.00    -0.352 N 
ATOM     30  C   UNL A   1      42.457  19.896  25.718  1.00  0.00     0.251 C 
ATOM     31  H   UNL A   1      41.048  18.535  26.142  1.00  0.00     0.163 HD
ATOM     32  O   UNL A   1      43.034  19.180  24.902  1.00  0.00    -0.269 OA
BRANCH  30  33
ATOM     33  C   UNL A   1      43.011  21.219  26.071  1.00  0.00     0.039 A 
ATOM     34  C   UNL A   1      43.083  22.212  25.092  1.00  0.00     0.014 A 
ATOM     35  C   UNL A   1      43.442  21.480  27.374  1.00  0.00     0.014 A 
ATOM     36  C   UNL A   1      43.531  23.490  25.437  1.00  0.00     0.010 A 
ATOM     37  C   UNL A   1      43.815  22.770  27.732  1.00  0.00     0.010 A 
ATOM     38  C   UNL A   1      43.867  23.789  26.767  1.00  0.00    -0.014 A 
BRANCH  38  39
ATOM     39  C   UNL A   1      44.264  25.158  27.183  1.00  0.00     0.031 A 
ATOM     40  C   UNL A   1      43.231  26.107  27.727  1.00  0.00     0.074 A 
ATOM     41  C   UNL A   1      45.527  25.581  26.971  1.00  0.00     0.049 A 
ATOM     42  N   UNL A   1      43.355  27.372  28.035  1.00  0.00    -0.248 NA
ATOM     43  C   UNL A   1      41.873  25.574  27.924  1.00  0.00     0.031 C 
ATOM     44  C   UNL A   1      46.603  24.775  26.390  1.00  0.00     0.029 A 
ATOM     45  N   UNL A   1      46.110  26.805  27.186  1.00  0.00    -0.354 N 
ATOM     46  C   UNL A   1      42.089  27.796  28.418  1.00  0.00     0.074 A 
ATOM     47  C   UNL A   1      41.203  26.660  28.279  1.00  0.00     0.031 C 
ATOM     48  C   UNL A   1      47.710  25.528  26.288  1.00  0.00     0.029 A 
ATOM     49  C   UNL A   1      47.414  26.878  26.755  1.00  0.00     0.049 A 
ATOM     50  H   UNL A   1      45.639  27.560  27.609  1.00  0.00     0.167 HD
ATOM     51  C   UNL A   1      41.701  29.013  28.865  1.00  0.00     0.034 A 
ATOM     52  C   UNL A   1      48.269  27.920  26.715  1.00  0.00     0.034 A 
ATOM     53  C   UNL A   1      42.593  30.127  29.036  1.00  0.00     0.049 A 
ATOM     54  C   UNL A   1      47.819  29.256  27.238  1.00  0.00     0.074 A 
ATOM     55  C   UNL A   1      42.316  31.374  29.568  1.00  0.00     0.029 A 
ATOM     56  N   UNL A   1      43.929  30.137  28.669  1.00  0.00    -0.354 N 
ATOM     57  N   UNL A   1      46.655  29.597  27.735  1.00  0.00    -0.248 NA
ATOM     58  C   UNL A   1      48.807  30.346  27.227  1.00  0.00     0.031 C 
ATOM     59  C   UNL A   1      43.475  32.151  29.486  1.00  0.00     0.029 A 
ATOM     60  C   UNL A   1      44.486  31.372  28.947  1.00  0.00     0.049 A 
ATOM     61  H   UNL A   1      44.410  29.376  28.269  1.00  0.00     0.167 HD
ATOM     62  C   UNL A   1      46.784  30.923  28.135  1.00  0.00     0.074 A 
ATOM     63  C   UNL A   1      48.142  31.321  27.832  1.00  0.00     0.031 C 
ATOM     64  C   UNL A   1      45.857  31.737  28.696  1.00  0.00     0.034 A 
BRANCH  51  65
ATOM     65  C   UNL A   1      40.253  29.201  29.235  1.00  0.00     0.023 A 
ATOM     66  C   UNL A   1      39.283  29.343  28.221  1.00  0.00     0.012 A 
ATOM     67  C   UNL A   1      39.843  29.165  30.582  1.00  0.00     0.148 A 
ATOM     68  C   UNL A   1      37.934  29.483  28.543  1.00  0.00     0.002 A 
ATOM     69  C   UNL A   1      38.492  29.254  30.894  1.00  0.00     0.091 A 
ATOM     70  F   UNL A   1      40.781  29.046  31.533  1.00  0.00    -0.205 F 
ATOM     71  C   UNL A   1      37.538  29.425  29.877  1.00  0.00     0.022 A 
BRANCH  69  72
ATOM     72  S   UNL A   1      37.872  29.106  32.573  1.00  0.00     0.127 S 
ATOM     73  O   UNL A   1      38.764  30.012  33.296  1.00  0.00    -0.237 OA
ATOM     74  O   UNL A   1      36.497  29.587  32.435  1.00  0.00    -0.237 OA
ATOM     75  O   UNL A   1      37.994  27.699  32.925  1.00  0.00    -0.744 OA
ENDBRANCH  69  72
ENDBRANCH  51  65
BRANCH  52  76
ATOM     76  C   UNL A   1      49.654  27.730  26.197  1.00  0.00     0.023 A 
ATOM     77  C   UNL A   1      49.905  27.864  24.818  1.00  0.00     0.012 A 
ATOM     78  C   UNL A   1      50.724  27.435  27.064  1.00  0.00     0.148 A 
ATOM     79  C   UNL A   1      51.189  27.673  24.306  1.00  0.00     0.002 A 
ATOM     80  C   UNL A   1      52.011  27.304  26.556  1.00  0.00     0.091 A 
ATOM     81  F   UNL A   1      50.464  27.303  28.372  1.00  0.00    -0.205 F 
ATOM     82  C   UNL A   1      52.243  27.403  25.175  1.00  0.00     0.022 A 
BRANCH  80  83
ATOM     83  S   UNL A   1      53.447  27.090  27.613  1.00  0.00     0.127 S 
ATOM     84  O   UNL A   1      53.762  28.470  27.970  1.00  0.00    -0.237 OA
ATOM     85  O   UNL A   1      52.900  26.279  28.702  1.00  0.00    -0.237 OA
ATOM     86  O   UNL A   1      54.438  26.405  26.795  1.00  0.00    -0.744 OA
ENDBRANCH  80  83
ENDBRANCH  52  76
BRANCH  64  87
ATOM     87  C   UNL A   1      46.281  33.129  29.087  1.00  0.00     0.023 A 
ATOM     88  C   UNL A   1      46.870  33.364  30.345  1.00  0.00     0.012 A 
ATOM     89  C   UNL A   1      46.191  34.182  28.155  1.00  0.00     0.148 A 
ATOM     90  C   UNL A   1      47.340  34.633  30.677  1.00  0.00     0.002 A 
ATOM     91  C   UNL A   1      46.709  35.430  28.473  1.00  0.00     0.091 A 
ATOM     92  F   UNL A   1      45.612  33.939  26.971  1.00  0.00    -0.205 F 
ATOM     93  C   UNL A   1      47.274  35.661  29.739  1.00  0.00     0.022 A 
BRANCH  91  94
ATOM     94  S   UNL A   1      46.761  36.784  27.294  1.00  0.00     0.127 S 
ATOM     95  O   UNL A   1      47.654  37.728  27.964  1.00  0.00    -0.237 OA
ATOM     96  O   UNL A   1      47.330  36.140  26.111  1.00  0.00    -0.237 OA
ATOM     97  O   UNL A   1      45.385  37.236  27.137  1.00  0.00    -0.744 OA
ENDBRANCH  91  94
ENDBRANCH  64  87
ENDBRANCH  38  39
ENDBRANCH  30  33
ENDBRANCH  28  29
ENDBRANCH  27  28
ENDBRANCH  26  27
ENDBRANCH   1  26
TORSDOF 21
ENDMDL
MODEL 2
REMARK VINA RESULT:      -9.7      5.614     10.129
REMARK SMILES Cn1cc(SCC[C@@H]2CCC[C@@]2([NH3+])C(=O)NCCCCCCNC(=O)c2ccc(-c3c4nc(c(-c5cccc(S(=O)(=O)[O-])c5F)c5ccc([nH]5)c(-c5cccc(S(=O)(=O)[O-])c5F)c5nc(c(-c6cccc(S(=O)(=O)[O-])c6F)c6ccc3[nH]6)C=C5)C=C4)cc2)cn1
REMARK SMILES IDX 19 1 18 2 17 3 16 4 14 5 15 6 12 8 8 9 9 10 10 11 11 12 7 13
REMARK SMILES IDX 6 14 5 15 4 16 1 17 2 18 3 19 90 20 89 21 13 22 20 26 21 27
REMARK SMILES IDX 22 28 23 29 24 30 25 32 26 33 27 34 88 35 28 36 87 37 29 38
REMARK SMILES IDX 30 39 31 40 81 41 32 42 86 43 80 44 82 45 33 46 85 47 79 48
REMARK SMILES IDX 78 49 34 51 66 52 46 53 65 54 47 55 50 56 64 57 83 58 48 59
REMARK SMILES IDX 49 60 63 62 84 63 51 64 35 65 36 66 44 67 37 68 39 69 45 70
REMARK SMILES IDX 38 71 40 72 41 73 42 74 43 75 67 76 68 77 76 78 69 79 71 80
REMARK SMILES IDX 77 81 70 82 72 83 73 84 74 85 75 86 52 87 53 88 61 89 54 90
REMARK SMILES IDX 56 91 62 92 55 93 57 94 58 95 59 96 60 97
REMARK H PARENT 16 7 13 23 13 24 13 25 23 31 82 50 50 61
REMARK Flexibility Score: inf
ROOT
ATOM      1  C   UNL A   1      40.325  21.946  27.032  1.00  0.00     0.002 C 
ENDROOT
BRANCH   1   2
ATOM      2  C   UNL A   1      39.151  21.578  26.116  1.00  0.00     0.021 C 
BRANCH   2   3
ATOM      3  C   UNL A   1      38.061  22.645  26.029  1.00  0.00     0.116 C 
BRANCH   3   4
ATOM      4  N   UNL A   1      37.710  22.925  24.661  1.00  0.00    -0.351 N 
ATOM      5  C   UNL A   1      36.574  22.787  23.948  1.00  0.00     0.281 C 
ATOM      6  O   UNL A   1      36.728  22.948  22.724  1.00  0.00    -0.268 OA
ATOM      7  H   UNL A   1      38.456  23.294  24.136  1.00  0.00     0.163 HD
BRANCH   5   8
ATOM      8  C   UNL A   1      35.144  22.444  24.496  1.00  0.00     0.176 C 
ATOM      9  C   UNL A   1      33.880  22.251  23.611  1.00  0.00     0.061 C 
ATOM     10  C   UNL A   1      33.021  21.287  24.466  1.00  0.00     0.011 C 
ATOM     11  C   UNL A   1      33.984  20.314  25.106  1.00  0.00     0.008 C 
ATOM     12  C   UNL A   1      35.344  20.970  24.991  1.00  0.00     0.079 C 
BRANCH   9  13
ATOM     13  C   UNL A   1      33.007  23.477  23.243  1.00  0.00     0.022 C 
BRANCH  13  14
ATOM     14  C   UNL A   1      31.575  23.442  23.831  1.00  0.00     0.075 C 
BRANCH  14  15
ATOM     15  S   UNL A   1      30.471  24.828  23.412  1.00  0.00    -0.123 SA
BRANCH  15  16
ATOM     16  C   UNL A   1      31.026  26.150  24.395  1.00  0.00     0.045 A 
ATOM     17  C   UNL A   1      31.816  27.910  27.401  1.00  0.00     0.173 C 
ATOM     18  N   UNL A   1      31.579  27.454  26.052  1.00  0.00    -0.275 N 
ATOM     19  C   UNL A   1      30.644  26.540  25.655  1.00  0.00     0.123 A 
ATOM     20  N   UNL A   1      32.429  27.815  25.072  1.00  0.00    -0.181 NA
ATOM     21  C   UNL A   1      32.071  27.030  24.050  1.00  0.00     0.150 A 
ENDBRANCH  15  16
ENDBRANCH  14  15
ENDBRANCH  13  14
ENDBRANCH   9  13
BRANCH   8  22
ATOM     22  N   UNL A   1      34.873  23.343  25.638  1.00  0.00    -0.345 N 
ATOM     23  H   UNL A   1      34.007  23.059  26.096  1.00  0.00     0.345 HD
ATOM     24  H   UNL A   1      34.782  24.302  25.303  1.00  0.00     0.345 HD
ATOM     25  H   UNL A   1      35.643  23.288  26.305  1.00  0.00     0.345 HD
ENDBRANCH   8  22
ENDBRANCH   5   8
ENDBRANCH   3   4
ENDBRANCH   2   3
ENDBRANCH   1   2
BRANCH   1  26
ATOM     26  C   UNL A   1      41.463  20.921  27.067  1.00  0.00     0.002 C 
BRANCH  26  27
ATOM     27  C   UNL A   1      42.655  21.252  26.166  1.00  0.00     0.021 C 
BRANCH  27  28
ATOM     28  C   UNL A   1      42.480  22.511  25.324  1.00  0.00     0.116 C 
BRANCH  28  29
ATOM     29  N   UNL A   1      43.758  23.081  24.918  1.00  0.00    -0.352 N 
ATOM     30  C   UNL A   1      44.287  24.312  25.215  1.00  0.00     0.251 C 
ATOM     31  H   UNL A   1      44.320  22.502  24.353  1.00  0.00     0.163 HD
ATOM     32  O   UNL A   1      45.289  24.712  24.627  1.00  0.00    -0.269 OA
BRANCH  30  33
ATOM     33  C   UNL A   1      43.633  25.159  26.233  1.00  0.00     0.039 A 
ATOM     34  C   UNL A   1      42.859  24.556  27.227  1.00  0.00     0.014 A 
ATOM     35  C   UNL A   1      43.800  26.545  26.212  1.00  0.00     0.014 A 
ATOM     36  C   UNL A   1      42.303  25.341  28.240  1.00  0.00     0.010 A 
ATOM     37  C   UNL A   1      43.310  27.315  27.262  1.00  0.00     0.010 A 
ATOM     38  C   UNL A   1      42.553  26.722  28.285  1.00  0.00    -0.014 A 
BRANCH  38  39
ATOM     39  C   UNL A   1      42.048  27.572  29.394  1.00  0.00     0.031 A 
ATOM     40  C   UNL A   1      42.750  27.565  30.725  1.00  0.00     0.074 A 
ATOM     41  C   UNL A   1      40.901  28.262  29.237  1.00  0.00     0.049 A 
ATOM     42  N   UNL A   1      42.400  28.143  31.844  1.00  0.00    -0.248 NA
ATOM     43  C   UNL A   1      43.993  26.782  30.819  1.00  0.00     0.031 C 
ATOM     44  C   UNL A   1      40.093  28.296  28.016  1.00  0.00     0.029 A 
ATOM     45  N   UNL A   1      40.194  29.038  30.123  1.00  0.00    -0.354 N 
ATOM     46  C   UNL A   1      43.350  27.761  32.783  1.00  0.00     0.074 A 
ATOM     47  C   UNL A   1      44.278  26.879  32.109  1.00  0.00     0.031 C 
ATOM     48  C   UNL A   1      39.000  29.046  28.232  1.00  0.00     0.029 A 
ATOM     49  C   UNL A   1      39.006  29.511  29.615  1.00  0.00     0.049 A 
ATOM     50  H   UNL A   1      40.507  29.238  31.035  1.00  0.00     0.167 HD
ATOM     51  C   UNL A   1      43.454  28.127  34.082  1.00  0.00     0.034 A 
ATOM     52  C   UNL A   1      38.019  30.218  30.202  1.00  0.00     0.034 A 
ATOM     53  C   UNL A   1      42.550  29.034  34.735  1.00  0.00     0.049 A 
ATOM     54  C   UNL A   1      38.170  30.630  31.641  1.00  0.00     0.074 A 
ATOM     55  C   UNL A   1      42.622  29.538  36.022  1.00  0.00     0.029 A 
ATOM     56  N   UNL A   1      41.404  29.562  34.162  1.00  0.00    -0.354 N 
ATOM     57  N   UNL A   1      39.154  30.379  32.471  1.00  0.00    -0.248 NA
ATOM     58  C   UNL A   1      37.094  31.449  32.218  1.00  0.00     0.031 C 
ATOM     59  C   UNL A   1      41.498  30.340  36.239  1.00  0.00     0.029 A 
ATOM     60  C   UNL A   1      40.752  30.373  35.072  1.00  0.00     0.049 A 
ATOM     61  H   UNL A   1      41.100  29.385  33.242  1.00  0.00     0.167 HD
ATOM     62  C   UNL A   1      38.837  31.044  33.650  1.00  0.00     0.074 A 
ATOM     63  C   UNL A   1      37.576  31.718  33.425  1.00  0.00     0.031 C 
ATOM     64  C   UNL A   1      39.527  31.087  34.816  1.00  0.00     0.034 A 
BRANCH  51  65
ATOM     65  C   UNL A   1      44.605  27.575  34.881  1.00  0.00     0.023 A 
ATOM     66  C   UNL A   1      45.790  28.327  35.014  1.00  0.00     0.012 A 
ATOM     67  C   UNL A   1      44.488  26.345  35.558  1.00  0.00     0.148 A 
ATOM     68  C   UNL A   1      46.853  27.848  35.779  1.00  0.00     0.002 A 
ATOM     69  C   UNL A   1      45.531  25.897  36.358  1.00  0.00     0.091 A 
ATOM     70  F   UNL A   1      43.360  25.636  35.405  1.00  0.00    -0.205 F 
ATOM     71  C   UNL A   1      46.719  26.640  36.460  1.00  0.00     0.022 A 
BRANCH  69  72
ATOM     72  S   UNL A   1      45.425  24.399  37.343  1.00  0.00     0.127 S 
ATOM     73  O   UNL A   1      44.480  24.799  38.385  1.00  0.00    -0.237 OA
ATOM     74  O   UNL A   1      44.896  23.435  36.378  1.00  0.00    -0.237 OA
ATOM     75  O   UNL A   1      46.779  24.122  37.802  1.00  0.00    -0.744 OA
ENDBRANCH  69  72
ENDBRANCH  51  65
BRANCH  52  76
ATOM     76  C   UNL A   1      36.817  30.617  29.416  1.00  0.00     0.023 A 
ATOM     77  C   UNL A   1      36.052  29.630  28.767  1.00  0.00     0.012 A 
ATOM     78  C   UNL A   1      36.420  31.965  29.324  1.00  0.00     0.148 A 
ATOM     79  C   UNL A   1      34.933  29.981  28.010  1.00  0.00     0.002 A 
ATOM     80  C   UNL A   1      35.271  32.302  28.618  1.00  0.00     0.091 A 
ATOM     81  F   UNL A   1      37.166  32.891  29.943  1.00  0.00    -0.205 F 
ATOM     82  C   UNL A   1      34.537  31.314  27.944  1.00  0.00     0.022 A 
BRANCH  80  83
ATOM     83  S   UNL A   1      34.612  33.973  28.591  1.00  0.00     0.127 S 
ATOM     84  O   UNL A   1      34.830  34.356  27.199  1.00  0.00    -0.237 OA
ATOM     85  O   UNL A   1      33.213  33.749  28.959  1.00  0.00    -0.237 OA
ATOM     86  O   UNL A   1      35.381  34.715  29.580  1.00  0.00    -0.744 OA
ENDBRANCH  80  83
ENDBRANCH  52  76
BRANCH  64  87
ATOM     87  C   UNL A   1      38.979  31.937  35.932  1.00  0.00     0.023 A 
ATOM     88  C   UNL A   1      39.112  33.339  35.886  1.00  0.00     0.012 A 
ATOM     89  C   UNL A   1      38.238  31.344  36.973  1.00  0.00     0.148 A 
ATOM     90  C   UNL A   1      38.534  34.135  36.873  1.00  0.00     0.002 A 
ATOM     91  C   UNL A   1      37.620  32.146  37.923  1.00  0.00     0.091 A 
ATOM     92  F   UNL A   1      38.139  30.008  37.005  1.00  0.00    -0.205 F 
ATOM     93  C   UNL A   1      37.777  33.542  37.882  1.00  0.00     0.022 A 
BRANCH  91  94
ATOM     94  S   UNL A   1      36.543  31.481  39.197  1.00  0.00     0.127 S 
ATOM     95  O   UNL A   1      37.429  31.470  40.360  1.00  0.00    -0.237 OA
ATOM     96  O   UNL A   1      35.477  32.481  39.251  1.00  0.00    -0.237 OA
ATOM     97  O   UNL A   1      36.122  30.169  38.726  1.00  0.00    -0.744 OA
ENDBRANCH  91  94
ENDBRANCH  64  87
ENDBRANCH  38  39
ENDBRANCH  30  33
ENDBRANCH  28  29
ENDBRANCH  27  28
ENDBRANCH  26  27
ENDBRANCH   1  26
TORSDOF 21
ENDMDL
MODEL 3
REMARK VINA RESULT:      -9.6      1.912      2.241
REMARK SMILES Cn1cc(SCC[C@@H]2CCC[C@@]2([NH3+])C(=O)NCCCCCCNC(=O)c2ccc(-c3c4nc(c(-c5cccc(S(=O)(=O)[O-])c5F)c5ccc([nH]5)c(-c5cccc(S(=O)(=O)[O-])c5F)c5nc(c(-c6cccc(S(=O)(=O)[O-])c6F)c6ccc3[nH]6)C=C5)C=C4)cc2)cn1
REMARK SMILES IDX 19 1 18 2 17 3 16 4 14 5 15 6 12 8 8 9 9 10 10 11 11 12 7 13
REMARK SMILES IDX 6 14 5 15 4 16 1 17 2 18 3 19 90 20 89 21 13 22 20 26 21 27
REMARK SMILES IDX 22 28 23 29 24 30 25 32 26 33 27 34 88 35 28 36 87 37 29 38
REMARK SMILES IDX 30 39 31 40 81 41 32 42 86 43 80 44 82 45 33 46 85 47 79 48
REMARK SMILES IDX 78 49 34 51 66 52 46 53 65 54 47 55 50 56 64 57 83 58 48 59
REMARK SMILES IDX 49 60 63 62 84 63 51 64 35 65 36 66 44 67 37 68 39 69 45 70
REMARK SMILES IDX 38 71 40 72 41 73 42 74 43 75 67 76 68 77 76 78 69 79 71 80
REMARK SMILES IDX 77 81 70 82 72 83 73 84 74 85 75 86 52 87 53 88 61 89 54 90
REMARK SMILES IDX 56 91 62 92 55 93 57 94 58 95 59 96 60 97
REMARK H PARENT 16 7 13 23 13 24 13 25 23 31 82 50 50 61
REMARK Flexibility Score: inf
ROOT
ATOM      1  C   UNL A   1      39.472  23.842  26.249  1.00  0.00     0.002 C 
ENDROOT
BRANCH   1   2
ATOM      2  C   UNL A   1      38.039  24.300  26.548  1.00  0.00     0.021 C 
BRANCH   2   3
ATOM      3  C   UNL A   1      36.960  23.526  25.792  1.00  0.00     0.116 C 
BRANCH   3   4
ATOM      4  N   UNL A   1      36.101  22.806  26.697  1.00  0.00    -0.351 N 
ATOM      5  C   UNL A   1      34.862  22.288  26.585  1.00  0.00     0.281 C 
ATOM      6  O   UNL A   1      34.375  21.914  27.667  1.00  0.00    -0.268 OA
ATOM      7  H   UNL A   1      36.505  22.661  27.582  1.00  0.00     0.163 HD
BRANCH   5   8
ATOM      8  C   UNL A   1      34.011  22.134  25.275  1.00  0.00     0.176 C 
ATOM      9  C   UNL A   1      32.682  21.334  25.172  1.00  0.00     0.061 C 
ATOM     10  C   UNL A   1      31.949  22.057  24.016  1.00  0.00     0.011 C 
ATOM     11  C   UNL A   1      32.251  23.529  24.175  1.00  0.00     0.008 C 
ATOM     12  C   UNL A   1      33.456  23.589  25.091  1.00  0.00     0.079 C 
BRANCH   9  13
ATOM     13  C   UNL A   1      32.721  19.820  24.846  1.00  0.00     0.022 C 
BRANCH  13  14
ATOM     14  C   UNL A   1      32.605  19.487  23.339  1.00  0.00     0.075 C 
BRANCH  14  15
ATOM     15  S   UNL A   1      32.216  17.764  22.896  1.00  0.00    -0.123 SA
BRANCH  15  16
ATOM     16  C   UNL A   1      33.321  16.805  23.834  1.00  0.00     0.045 A 
ATOM     17  C   UNL A   1      36.203  16.111  25.827  1.00  0.00     0.173 C 
ATOM     18  N   UNL A   1      34.989  16.096  25.047  1.00  0.00    -0.275 N 
ATOM     19  C   UNL A   1      34.676  16.934  24.013  1.00  0.00     0.123 A 
ATOM     20  N   UNL A   1      33.968  15.304  25.425  1.00  0.00    -0.181 NA
ATOM     21  C   UNL A   1      32.953  15.725  24.662  1.00  0.00     0.150 A 
ENDBRANCH  15  16
ENDBRANCH  14  15
ENDBRANCH  13  14
ENDBRANCH   9  13
BRANCH   8  22
ATOM     22  N   UNL A   1      34.937  21.788  24.176  1.00  0.00    -0.345 N 
ATOM     23  H   UNL A   1      35.768  22.377  24.233  1.00  0.00     0.345 HD
ATOM     24  H   UNL A   1      34.474  21.941  23.279  1.00  0.00     0.345 HD
ATOM     25  H   UNL A   1      35.208  20.808  24.255  1.00  0.00     0.345 HD
ENDBRANCH   8  22
ENDBRANCH   5   8
ENDBRANCH   3   4
ENDBRANCH   2   3
ENDBRANCH   1   2
BRANCH   1  26
ATOM     26  C   UNL A   1      39.967  22.672  27.106  1.00  0.00     0.002 C 
BRANCH  26  27
ATOM     27  C   UNL A   1      39.843  21.295  26.450  1.00  0.00     0.021 C 
BRANCH  27  28
ATOM     28  C   UNL A   1      40.611  20.185  27.160  1.00  0.00     0.116 C 
BRANCH  28  29
ATOM     29  N   UNL A   1      41.504  19.472  26.257  1.00  0.00    -0.352 N 
ATOM     30  C   UNL A   1      42.619  19.935  25.604  1.00  0.00     0.251 C 
ATOM     31  H   UNL A   1      41.277  18.529  26.093  1.00  0.00     0.163 HD
ATOM     32  O   UNL A   1      43.144  19.259  24.722  1.00  0.00    -0.269 OA
BRANCH  30  33
ATOM     33  C   UNL A   1      43.172  21.259  25.956  1.00  0.00     0.039 A 
ATOM     34  C   UNL A   1      43.135  22.287  25.011  1.00  0.00     0.014 A 
ATOM     35  C   UNL A   1      43.710  21.485  27.225  1.00  0.00     0.014 A 
ATOM     36  C   UNL A   1      43.583  23.563  25.363  1.00  0.00     0.010 A 
ATOM     37  C   UNL A   1      44.083  22.772  27.597  1.00  0.00     0.010 A 
ATOM     38  C   UNL A   1      44.027  23.824  26.669  1.00  0.00    -0.014 A 
BRANCH  38  39
ATOM     39  C   UNL A   1      44.429  25.188  27.099  1.00  0.00     0.031 A 
ATOM     40  C   UNL A   1      43.404  26.124  27.680  1.00  0.00     0.074 A 
ATOM     41  C   UNL A   1      45.685  25.619  26.867  1.00  0.00     0.049 A 
ATOM     42  N   UNL A   1      43.530  27.384  28.006  1.00  0.00    -0.248 NA
ATOM     43  C   UNL A   1      42.052  25.583  27.897  1.00  0.00     0.031 C 
ATOM     44  C   UNL A   1      46.751  24.826  26.249  1.00  0.00     0.029 A 
ATOM     45  N   UNL A   1      46.268  26.842  27.089  1.00  0.00    -0.354 N 
ATOM     46  C   UNL A   1      42.271  27.797  28.422  1.00  0.00     0.074 A 
ATOM     47  C   UNL A   1      41.387  26.660  28.284  1.00  0.00     0.031 C 
ATOM     48  C   UNL A   1      47.853  25.585  26.136  1.00  0.00     0.029 A 
ATOM     49  C   UNL A   1      47.563  26.927  26.631  1.00  0.00     0.049 A 
ATOM     50  H   UNL A   1      45.804  27.588  27.534  1.00  0.00     0.167 HD
ATOM     51  C   UNL A   1      41.889  29.006  28.897  1.00  0.00     0.034 A 
ATOM     52  C   UNL A   1      48.413  27.972  26.591  1.00  0.00     0.034 A 
ATOM     53  C   UNL A   1      42.781  30.120  29.068  1.00  0.00     0.049 A 
ATOM     54  C   UNL A   1      47.970  29.298  27.145  1.00  0.00     0.074 A 
ATOM     55  C   UNL A   1      42.511  31.357  29.626  1.00  0.00     0.029 A 
ATOM     56  N   UNL A   1      44.109  30.140  28.673  1.00  0.00    -0.354 N 
ATOM     57  N   UNL A   1      46.815  29.627  27.672  1.00  0.00    -0.248 NA
ATOM     58  C   UNL A   1      48.954  30.391  27.130  1.00  0.00     0.031 C 
ATOM     59  C   UNL A   1      43.665  32.139  29.531  1.00  0.00     0.029 A 
ATOM     60  C   UNL A   1      44.667  31.373  28.958  1.00  0.00     0.049 A 
ATOM     61  H   UNL A   1      44.584  29.388  28.250  1.00  0.00     0.167 HD
ATOM     62  C   UNL A   1      46.948  30.946  28.091  1.00  0.00     0.074 A 
ATOM     63  C   UNL A   1      48.298  31.354  27.766  1.00  0.00     0.031 C 
ATOM     64  C   UNL A   1      46.031  31.747  28.685  1.00  0.00     0.034 A 
BRANCH  51  65
ATOM     65  C   UNL A   1      40.448  29.182  29.301  1.00  0.00     0.023 A 
ATOM     66  C   UNL A   1      39.475  29.460  28.321  1.00  0.00     0.012 A 
ATOM     67  C   UNL A   1      40.048  29.000  30.640  1.00  0.00     0.148 A 
ATOM     68  C   UNL A   1      38.131  29.592  28.670  1.00  0.00     0.002 A 
ATOM     69  C   UNL A   1      38.702  29.083  30.973  1.00  0.00     0.091 A 
ATOM     70  F   UNL A   1      40.991  28.754  31.561  1.00  0.00    -0.205 F 
ATOM     71  C   UNL A   1      37.744  29.391  29.993  1.00  0.00     0.022 A 
BRANCH  69  72
ATOM     72  S   UNL A   1      38.092  28.758  32.631  1.00  0.00     0.127 S 
ATOM     73  O   UNL A   1      36.703  29.204  32.525  1.00  0.00    -0.237 OA
ATOM     74  O   UNL A   1      38.259  27.309  32.740  1.00  0.00    -0.237 OA
ATOM     75  O   UNL A   1      38.930  29.539  33.529  1.00  0.00    -0.744 OA
ENDBRANCH  69  72
ENDBRANCH  51  65
BRANCH  52  76
ATOM     76  C   UNL A   1      49.787  27.796  26.039  1.00  0.00     0.023 A 
ATOM     77  C   UNL A   1      50.868  27.593  26.917  1.00  0.00     0.012 A 
ATOM     78  C   UNL A   1      50.023  27.810  24.651  1.00  0.00     0.148 A 
ATOM     79  C   UNL A   1      52.166  27.443  26.426  1.00  0.00     0.002 A 
ATOM     80  C   UNL A   1      51.308  27.602  24.165  1.00  0.00     0.091 A 
ATOM     81  F   UNL A   1      48.982  28.013  23.832  1.00  0.00    -0.205 F 
ATOM     82  C   UNL A   1      52.384  27.438  25.051  1.00  0.00     0.022 A 
BRANCH  80  83
ATOM     83  S   UNL A   1      51.662  27.446  22.411  1.00  0.00     0.127 S 
ATOM     84  O   UNL A   1      50.456  26.782  21.922  1.00  0.00    -0.237 OA
ATOM     85  O   UNL A   1      51.804  28.846  22.007  1.00  0.00    -0.237 OA
ATOM     86  O   UNL A   1      52.891  26.670  22.326  1.00  0.00    -0.744 OA
ENDBRANCH  80  83
ENDBRANCH  52  76
BRANCH  64  87
ATOM     87  C   UNL A   1      46.459  33.134  29.089  1.00  0.00     0.023 A 
ATOM     88  C   UNL A   1      46.326  34.208  28.187  1.00  0.00     0.012 A 
ATOM     89  C   UNL A   1      46.893  33.383  30.406  1.00  0.00     0.148 A 
ATOM     90  C   UNL A   1      46.643  35.506  28.584  1.00  0.00     0.002 A 
ATOM     91  C   UNL A   1      47.156  34.685  30.810  1.00  0.00     0.091 A 
ATOM     92  F   UNL A   1      47.027  32.344  31.241  1.00  0.00    -0.205 F 
ATOM     93  C   UNL A   1      47.043  35.747  29.897  1.00  0.00     0.022 A 
BRANCH  91  94
ATOM     94  S   UNL A   1      47.576  35.105  32.505  1.00  0.00     0.127 S 
ATOM     95  O   UNL A   1      46.472  34.496  33.245  1.00  0.00    -0.237 OA
ATOM     96  O   UNL A   1      48.867  34.439  32.676  1.00  0.00    -0.237 OA
ATOM     97  O   UNL A   1      47.632  36.559  32.560  1.00  0.00    -0.744 OA
ENDBRANCH  91  94
ENDBRANCH  64  87
ENDBRANCH  38  39
ENDBRANCH  30  33
ENDBRANCH  28  29
ENDBRANCH  27  28
ENDBRANCH  26  27
ENDBRANCH   1  26
TORSDOF 21
ENDMDL
