MODEL 1
REMARK VINA RESULT:     -12.7      0.000      0.000
REMARK SMILES Cc1ccnc(C(=O)c2[nH]c3ccc(OC(F)(F)F)cc3c2CC(=O)NCCCCCCNC(=O)c2ccc(-c3c4nc(c(-c5cccc(S(=O)(=O)[O-])c5F)c5ccc([nH]5)c(-c5cccc(S(=O)(=O)[O-])c5F)c5nc(c(-c6cccc(S(=O)(=O)[O-])c6F)c6ccc3[nH]6)C=C5)C=C4)cc2)c1
REMARK SMILES IDX 29 1 28 2 27 3 26 4 24 5 25 6 23 8 22 9 9 10 10 11 11 12
REMARK SMILES IDX 21 14 12 15 20 16 13 17 14 18 7 19 8 20 6 21 1 22 2 23 3 24
REMARK SMILES IDX 99 25 4 26 5 27 15 28 16 29 17 30 18 31 19 32 30 33 31 34
REMARK SMILES IDX 32 35 33 36 34 37 35 39 36 40 37 41 98 42 38 43 97 44 39 45
REMARK SMILES IDX 40 46 41 47 91 48 42 49 96 50 90 51 92 52 43 53 95 54 89 55
REMARK SMILES IDX 88 56 44 58 76 59 56 60 75 61 57 62 60 63 74 64 93 65 58 66
REMARK SMILES IDX 59 67 73 69 94 70 61 71 45 72 46 73 54 74 47 75 49 76 55 77
REMARK SMILES IDX 48 78 50 79 51 80 52 81 53 82 77 83 78 84 86 85 79 86 81 87
REMARK SMILES IDX 87 88 80 89 82 90 83 91 84 92 85 93 62 94 63 95 71 96 64 97
REMARK SMILES IDX 66 98 72 99 65 100 67 101 68 102 69 103 70 104
REMARK H PARENT 26 7 10 13 33 38 92 57 60 68
REMARK Flexibility Score: inf
ROOT
ATOM      1  C   UNL A   1      32.001  29.340  26.837  1.00  0.00     0.002 C 
ENDROOT
BRANCH   1   2
ATOM      2  C   UNL A   1      31.281  28.027  26.503  1.00  0.00     0.021 C 
BRANCH   2   3
ATOM      3  C   UNL A   1      32.180  26.790  26.502  1.00  0.00     0.116 C 
BRANCH   3   4
ATOM      4  N   UNL A   1      31.477  25.600  26.936  1.00  0.00    -0.356 N 
ATOM      5  C   UNL A   1      31.761  24.286  26.695  1.00  0.00     0.224 C 
ATOM      6  O   UNL A   1      31.071  23.430  27.258  1.00  0.00    -0.275 OA
ATOM      7  H   UNL A   1      30.676  25.761  27.486  1.00  0.00     0.163 HD
BRANCH   5   8
ATOM      8  C   UNL A   1      32.973  23.883  25.869  1.00  0.00     0.138 C 
BRANCH   8   9
ATOM      9  C   UNL A   1      32.677  23.340  24.500  1.00  0.00    -0.002 A 
ATOM     10  C   UNL A   1      32.498  24.056  23.320  1.00  0.00     0.093 A 
ATOM     11  N   UNL A   1      32.346  23.140  22.304  1.00  0.00    -0.352 N 
ATOM     12  C   UNL A   1      32.272  21.865  22.806  1.00  0.00     0.046 A 
ATOM     13  H   UNL A   1      32.299  23.367  21.348  1.00  0.00     0.167 HD
ATOM     14  C   UNL A   1      32.462  21.956  24.180  1.00  0.00     0.008 A 
ATOM     15  C   UNL A   1      32.071  20.646  22.151  1.00  0.00     0.030 A 
ATOM     16  C   UNL A   1      32.435  20.765  24.936  1.00  0.00     0.057 A 
ATOM     17  C   UNL A   1      32.057  19.478  22.927  1.00  0.00     0.049 A 
ATOM     18  C   UNL A   1      32.237  19.528  24.308  1.00  0.00     0.130 A 
BRANCH  10  19
ATOM     19  C   UNL A   1      32.540  25.492  23.098  1.00  0.00     0.227 C 
ATOM     20  O   UNL A   1      33.592  26.059  22.826  1.00  0.00    -0.285 OA
BRANCH  19  21
ATOM     21  C   UNL A   1      31.246  26.273  23.182  1.00  0.00     0.113 A 
ATOM     22  C   UNL A   1      29.785  29.715  22.523  1.00  0.00     0.044 C 
ATOM     23  C   UNL A   1      29.929  28.274  22.913  1.00  0.00    -0.047 A 
ATOM     24  C   UNL A   1      28.841  27.577  23.439  1.00  0.00     0.023 A 
ATOM     25  C   UNL A   1      31.148  27.601  22.765  1.00  0.00     0.036 A 
ATOM     26  C   UNL A   1      29.017  26.256  23.809  1.00  0.00     0.112 A 
ATOM     27  N   UNL A   1      30.189  25.598  23.706  1.00  0.00    -0.253 NA
ENDBRANCH  19  21
ENDBRANCH  10  19
BRANCH  18  28
ATOM     28  O   UNL A   1      32.247  18.464  25.165  1.00  0.00    -0.406 OA
BRANCH  28  29
ATOM     29  C   UNL A   1      33.178  17.421  24.923  1.00  0.00     0.573 C 
ATOM     30  F   UNL A   1      33.336  16.659  26.027  1.00  0.00    -0.132 F 
ATOM     31  F   UNL A   1      32.781  16.647  23.893  1.00  0.00    -0.132 F 
ATOM     32  F   UNL A   1      34.372  17.972  24.620  1.00  0.00    -0.132 F 
ENDBRANCH  28  29
ENDBRANCH  18  28
ENDBRANCH   8   9
ENDBRANCH   5   8
ENDBRANCH   3   4
ENDBRANCH   2   3
ENDBRANCH   1   2
BRANCH   1  33
ATOM     33  C   UNL A   1      31.718  30.515  25.893  1.00  0.00     0.002 C 
BRANCH  33  34
ATOM     34  C   UNL A   1      31.494  31.872  26.568  1.00  0.00     0.021 C 
BRANCH  34  35
ATOM     35  C   UNL A   1      32.712  32.461  27.276  1.00  0.00     0.116 C 
BRANCH  35  36
ATOM     36  N   UNL A   1      32.529  33.862  27.621  1.00  0.00    -0.352 N 
ATOM     37  C   UNL A   1      33.166  34.618  28.575  1.00  0.00     0.251 C 
ATOM     38  H   UNL A   1      31.848  34.338  27.094  1.00  0.00     0.163 HD
ATOM     39  O   UNL A   1      32.756  35.748  28.830  1.00  0.00    -0.269 OA
BRANCH  37  40
ATOM     40  C   UNL A   1      34.331  34.076  29.312  1.00  0.00     0.039 A 
ATOM     41  C   UNL A   1      34.107  33.164  30.349  1.00  0.00     0.014 A 
ATOM     42  C   UNL A   1      35.633  34.488  29.014  1.00  0.00     0.014 A 
ATOM     43  C   UNL A   1      35.190  32.625  31.051  1.00  0.00     0.010 A 
ATOM     44  C   UNL A   1      36.714  33.916  29.684  1.00  0.00     0.010 A 
ATOM     45  C   UNL A   1      36.504  32.981  30.710  1.00  0.00    -0.014 A 
BRANCH  45  46
ATOM     46  C   UNL A   1      37.672  32.381  31.404  1.00  0.00     0.031 A 
ATOM     47  C   UNL A   1      38.412  31.228  30.785  1.00  0.00     0.074 A 
ATOM     48  C   UNL A   1      38.010  32.817  32.633  1.00  0.00     0.049 A 
ATOM     49  N   UNL A   1      39.399  30.524  31.277  1.00  0.00    -0.248 NA
ATOM     50  C   UNL A   1      37.973  30.795  29.448  1.00  0.00     0.031 C 
ATOM     51  C   UNL A   1      37.326  33.882  33.370  1.00  0.00     0.029 A 
ATOM     52  N   UNL A   1      38.994  32.398  33.493  1.00  0.00    -0.354 N 
ATOM     53  C   UNL A   1      39.676  29.546  30.331  1.00  0.00     0.074 A 
ATOM     54  C   UNL A   1      38.743  29.736  29.240  1.00  0.00     0.031 C 
ATOM     55  C   UNL A   1      37.905  34.025  34.574  1.00  0.00     0.029 A 
ATOM     56  C   UNL A   1      38.989  33.055  34.701  1.00  0.00     0.049 A 
ATOM     57  H   UNL A   1      39.643  31.692  33.266  1.00  0.00     0.167 HD
ATOM     58  C   UNL A   1      40.638  28.594  30.352  1.00  0.00     0.034 A 
ATOM     59  C   UNL A   1      39.769  32.894  35.788  1.00  0.00     0.034 A 
ATOM     60  C   UNL A   1      41.606  28.441  31.406  1.00  0.00     0.049 A 
ATOM     61  C   UNL A   1      40.876  31.876  35.755  1.00  0.00     0.074 A 
ATOM     62  C   UNL A   1      42.659  27.547  31.485  1.00  0.00     0.029 A 
ATOM     63  N   UNL A   1      41.644  29.208  32.559  1.00  0.00    -0.354 N 
ATOM     64  N   UNL A   1      41.213  31.056  34.789  1.00  0.00    -0.248 NA
ATOM     65  C   UNL A   1      41.737  31.787  36.944  1.00  0.00     0.031 C 
ATOM     66  C   UNL A   1      43.343  27.782  32.683  1.00  0.00     0.029 A 
ATOM     67  C   UNL A   1      42.709  28.817  33.352  1.00  0.00     0.049 A 
ATOM     68  H   UNL A   1      41.008  29.926  32.782  1.00  0.00     0.167 HD
ATOM     69  C   UNL A   1      42.337  30.377  35.240  1.00  0.00     0.074 A 
ATOM     70  C   UNL A   1      42.640  30.894  36.558  1.00  0.00     0.031 C 
ATOM     71  C   UNL A   1      43.041  29.394  34.628  1.00  0.00     0.034 A 
BRANCH  58  72
ATOM     72  C   UNL A   1      40.749  27.688  29.157  1.00  0.00     0.023 A 
ATOM     73  C   UNL A   1      39.942  26.535  29.099  1.00  0.00     0.012 A 
ATOM     74  C   UNL A   1      41.592  28.000  28.073  1.00  0.00     0.148 A 
ATOM     75  C   UNL A   1      39.983  25.694  27.989  1.00  0.00     0.002 A 
ATOM     76  C   UNL A   1      41.605  27.172  26.955  1.00  0.00     0.091 A 
ATOM     77  F   UNL A   1      42.372  29.087  28.159  1.00  0.00    -0.205 F 
ATOM     78  C   UNL A   1      40.806  26.017  26.913  1.00  0.00     0.022 A 
BRANCH  76  79
ATOM     79  S   UNL A   1      42.592  27.541  25.498  1.00  0.00     0.127 S 
ATOM     80  O   UNL A   1      43.929  27.671  26.073  1.00  0.00    -0.237 OA
ATOM     81  O   UNL A   1      42.396  26.344  24.676  1.00  0.00    -0.237 OA
ATOM     82  O   UNL A   1      42.025  28.757  24.934  1.00  0.00    -0.744 OA
ENDBRANCH  76  79
ENDBRANCH  58  72
BRANCH  59  83
ATOM     83  C   UNL A   1      39.585  33.783  36.968  1.00  0.00     0.023 A 
ATOM     84  C   UNL A   1      39.927  35.145  36.859  1.00  0.00     0.012 A 
ATOM     85  C   UNL A   1      39.040  33.308  38.175  1.00  0.00     0.148 A 
ATOM     86  C   UNL A   1      39.754  36.011  37.939  1.00  0.00     0.002 A 
ATOM     87  C   UNL A   1      38.824  34.188  39.232  1.00  0.00     0.091 A 
ATOM     88  F   UNL A   1      38.737  32.005  38.273  1.00  0.00    -0.205 F 
ATOM     89  C   UNL A   1      39.192  35.536  39.122  1.00  0.00     0.022 A 
BRANCH  87  90
ATOM     90  S   UNL A   1      37.981  33.649  40.724  1.00  0.00     0.127 S 
ATOM     91  O   UNL A   1      38.259  34.746  41.644  1.00  0.00    -0.237 OA
ATOM     92  O   UNL A   1      36.587  33.551  40.288  1.00  0.00    -0.237 OA
ATOM     93  O   UNL A   1      38.591  32.364  41.042  1.00  0.00    -0.744 OA
ENDBRANCH  87  90
ENDBRANCH  59  83
BRANCH  71  94
ATOM     94  C   UNL A   1      44.224  28.822  35.360  1.00  0.00     0.023 A 
ATOM     95  C   UNL A   1      45.498  29.387  35.158  1.00  0.00     0.012 A 
ATOM     96  C   UNL A   1      44.065  27.790  36.305  1.00  0.00     0.148 A 
ATOM     97  C   UNL A   1      46.600  28.921  35.872  1.00  0.00     0.002 A 
ATOM     98  C   UNL A   1      45.162  27.353  37.039  1.00  0.00     0.091 A 
ATOM     99  F   UNL A   1      42.848  27.246  36.464  1.00  0.00    -0.205 F 
ATOM    100  C   UNL A   1      46.431  27.914  36.820  1.00  0.00     0.022 A 
BRANCH  98 101
ATOM    101  S   UNL A   1      45.002  26.115  38.331  1.00  0.00     0.127 S 
ATOM    102  O   UNL A   1      44.069  26.761  39.251  1.00  0.00    -0.237 OA
ATOM    103  O   UNL A   1      44.449  24.968  37.609  1.00  0.00    -0.237 OA
ATOM    104  O   UNL A   1      46.353  25.907  38.836  1.00  0.00    -0.744 OA
ENDBRANCH  98 101
ENDBRANCH  71  94
ENDBRANCH  45  46
ENDBRANCH  37  40
ENDBRANCH  35  36
ENDBRANCH  34  35
ENDBRANCH  33  34
ENDBRANCH   1  33
TORSDOF 21
ENDMDL
MODEL 2
REMARK VINA RESULT:     -12.1      5.995      9.851
REMARK SMILES Cc1ccnc(C(=O)c2[nH]c3ccc(OC(F)(F)F)cc3c2CC(=O)NCCCCCCNC(=O)c2ccc(-c3c4nc(c(-c5cccc(S(=O)(=O)[O-])c5F)c5ccc([nH]5)c(-c5cccc(S(=O)(=O)[O-])c5F)c5nc(c(-c6cccc(S(=O)(=O)[O-])c6F)c6ccc3[nH]6)C=C5)C=C4)cc2)c1
REMARK SMILES IDX 29 1 28 2 27 3 26 4 24 5 25 6 23 8 22 9 9 10 10 11 11 12
REMARK SMILES IDX 21 14 12 15 20 16 13 17 14 18 7 19 8 20 6 21 1 22 2 23 3 24
REMARK SMILES IDX 99 25 4 26 5 27 15 28 16 29 17 30 18 31 19 32 30 33 31 34
REMARK SMILES IDX 32 35 33 36 34 37 35 39 36 40 37 41 98 42 38 43 97 44 39 45
REMARK SMILES IDX 40 46 41 47 91 48 42 49 96 50 90 51 92 52 43 53 95 54 89 55
REMARK SMILES IDX 88 56 44 58 76 59 56 60 75 61 57 62 60 63 74 64 93 65 58 66
REMARK SMILES IDX 59 67 73 69 94 70 61 71 45 72 46 73 54 74 47 75 49 76 55 77
REMARK SMILES IDX 48 78 50 79 51 80 52 81 53 82 77 83 78 84 86 85 79 86 81 87
REMARK SMILES IDX 87 88 80 89 82 90 83 91 84 92 85 93 62 94 63 95 71 96 64 97
REMARK SMILES IDX 66 98 72 99 65 100 67 101 68 102 69 103 70 104
REMARK H PARENT 26 7 10 13 33 38 92 57 60 68
REMARK Flexibility Score: inf
ROOT
ATOM      1  C   UNL A   1      40.075  22.731  26.337  1.00  0.00     0.002 C 
ENDROOT
BRANCH   1   2
ATOM      2  C   UNL A   1      39.259  23.868  26.967  1.00  0.00     0.021 C 
BRANCH   2   3
ATOM      3  C   UNL A   1      37.845  24.023  26.407  1.00  0.00     0.116 C 
BRANCH   3   4
ATOM      4  N   UNL A   1      37.753  23.602  25.024  1.00  0.00    -0.356 N 
ATOM      5  C   UNL A   1      36.647  23.406  24.247  1.00  0.00     0.224 C 
ATOM      6  O   UNL A   1      36.817  23.142  23.052  1.00  0.00    -0.275 OA
ATOM      7  H   UNL A   1      38.614  23.432  24.577  1.00  0.00     0.163 HD
BRANCH   5   8
ATOM      8  C   UNL A   1      35.249  23.640  24.797  1.00  0.00     0.138 C 
BRANCH   8   9
ATOM      9  C   UNL A   1      34.118  23.195  23.912  1.00  0.00    -0.002 A 
ATOM     10  C   UNL A   1      33.346  23.977  23.059  1.00  0.00     0.093 A 
ATOM     11  N   UNL A   1      32.499  23.130  22.380  1.00  0.00    -0.352 N 
ATOM     12  C   UNL A   1      32.594  21.852  22.872  1.00  0.00     0.046 A 
ATOM     13  H   UNL A   1      31.907  23.402  21.643  1.00  0.00     0.167 HD
ATOM     14  C   UNL A   1      33.590  21.861  23.841  1.00  0.00     0.008 A 
ATOM     15  C   UNL A   1      31.892  20.694  22.521  1.00  0.00     0.030 A 
ATOM     16  C   UNL A   1      33.886  20.650  24.502  1.00  0.00     0.057 A 
ATOM     17  C   UNL A   1      32.214  19.504  23.188  1.00  0.00     0.049 A 
ATOM     18  C   UNL A   1      33.201  19.473  24.172  1.00  0.00     0.130 A 
BRANCH  10  19
ATOM     19  C   UNL A   1      33.415  25.406  22.803  1.00  0.00     0.227 C 
ATOM     20  O   UNL A   1      33.838  25.838  21.736  1.00  0.00    -0.285 OA
BRANCH  19  21
ATOM     21  C   UNL A   1      32.925  26.355  23.875  1.00  0.00     0.113 A 
ATOM     22  C   UNL A   1      34.169  28.628  26.650  1.00  0.00     0.044 C 
ATOM     23  C   UNL A   1      33.273  27.887  25.704  1.00  0.00    -0.047 A 
ATOM     24  C   UNL A   1      31.888  28.008  25.810  1.00  0.00     0.023 A 
ATOM     25  C   UNL A   1      33.799  27.060  24.705  1.00  0.00     0.036 A 
ATOM     26  C   UNL A   1      31.091  27.290  24.936  1.00  0.00     0.112 A 
ATOM     27  N   UNL A   1      31.575  26.463  23.988  1.00  0.00    -0.253 NA
ENDBRANCH  19  21
ENDBRANCH  10  19
BRANCH  18  28
ATOM     28  O   UNL A   1      33.604  18.379  24.885  1.00  0.00    -0.406 OA
BRANCH  28  29
ATOM     29  C   UNL A   1      34.535  17.495  24.281  1.00  0.00     0.573 C 
ATOM     30  F   UNL A   1      34.441  16.262  24.825  1.00  0.00    -0.132 F 
ATOM     31  F   UNL A   1      34.337  17.419  22.950  1.00  0.00    -0.132 F 
ATOM     32  F   UNL A   1      35.781  17.959  24.512  1.00  0.00    -0.132 F 
ENDBRANCH  28  29
ENDBRANCH  18  28
ENDBRANCH   8   9
ENDBRANCH   5   8
ENDBRANCH   3   4
ENDBRANCH   2   3
ENDBRANCH   1   2
BRANCH   1  33
ATOM     33  C   UNL A   1      40.446  21.576  27.275  1.00  0.00     0.002 C 
BRANCH  33  34
ATOM     34  C   UNL A   1      40.793  20.250  26.594  1.00  0.00     0.021 C 
BRANCH  34  35
ATOM     35  C   UNL A   1      42.119  19.621  27.021  1.00  0.00     0.116 C 
BRANCH  35  36
ATOM     36  N   UNL A   1      42.946  19.247  25.884  1.00  0.00    -0.352 N 
ATOM     37  C   UNL A   1      43.759  20.030  25.101  1.00  0.00     0.251 C 
ATOM     38  H   UNL A   1      42.919  18.295  25.640  1.00  0.00     0.163 HD
ATOM     39  O   UNL A   1      44.254  19.561  24.078  1.00  0.00    -0.269 OA
BRANCH  37  40
ATOM     40  C   UNL A   1      44.030  21.440  25.468  1.00  0.00     0.039 A 
ATOM     41  C   UNL A   1      43.600  22.455  24.607  1.00  0.00     0.014 A 
ATOM     42  C   UNL A   1      44.736  21.763  26.631  1.00  0.00     0.014 A 
ATOM     43  C   UNL A   1      43.828  23.794  24.937  1.00  0.00     0.010 A 
ATOM     44  C   UNL A   1      44.924  23.100  26.980  1.00  0.00     0.010 A 
ATOM     45  C   UNL A   1      44.474  24.128  26.137  1.00  0.00    -0.014 A 
BRANCH  45  46
ATOM     46  C   UNL A   1      44.681  25.544  26.536  1.00  0.00     0.031 A 
ATOM     47  C   UNL A   1      46.049  26.163  26.451  1.00  0.00     0.074 A 
ATOM     48  C   UNL A   1      43.655  26.244  27.059  1.00  0.00     0.049 A 
ATOM     49  N   UNL A   1      46.438  27.353  26.830  1.00  0.00    -0.248 NA
ATOM     50  C   UNL A   1      47.123  25.330  25.886  1.00  0.00     0.031 C 
ATOM     51  C   UNL A   1      42.297  25.733  27.258  1.00  0.00     0.029 A 
ATOM     52  N   UNL A   1      43.603  27.526  27.547  1.00  0.00    -0.354 N 
ATOM     53  C   UNL A   1      47.804  27.401  26.585  1.00  0.00     0.074 A 
ATOM     54  C   UNL A   1      48.181  26.115  26.038  1.00  0.00     0.031 C 
ATOM     55  C   UNL A   1      41.549  26.688  27.836  1.00  0.00     0.029 A 
ATOM     56  C   UNL A   1      42.375  27.871  28.061  1.00  0.00     0.049 A 
ATOM     57  H   UNL A   1      44.372  28.140  27.531  1.00  0.00     0.167 HD
ATOM     58  C   UNL A   1      48.664  28.431  26.769  1.00  0.00     0.034 A 
ATOM     59  C   UNL A   1      41.961  29.011  28.648  1.00  0.00     0.034 A 
ATOM     60  C   UNL A   1      48.282  29.729  27.256  1.00  0.00     0.049 A 
ATOM     61  C   UNL A   1      42.919  30.164  28.774  1.00  0.00     0.074 A 
ATOM     62  C   UNL A   1      49.070  30.856  27.415  1.00  0.00     0.029 A 
ATOM     63  N   UNL A   1      47.000  30.078  27.651  1.00  0.00    -0.354 N 
ATOM     64  N   UNL A   1      44.175  30.236  28.402  1.00  0.00    -0.248 NA
ATOM     65  C   UNL A   1      42.397  31.405  29.364  1.00  0.00     0.031 C 
ATOM     66  C   UNL A   1      48.260  31.891  27.896  1.00  0.00     0.029 A 
ATOM     67  C   UNL A   1      46.971  31.405  28.043  1.00  0.00     0.049 A 
ATOM     68  H   UNL A   1      46.224  29.472  27.651  1.00  0.00     0.167 HD
ATOM     69  C   UNL A   1      44.582  31.533  28.685  1.00  0.00     0.074 A 
ATOM     70  C   UNL A   1      43.436  32.222  29.240  1.00  0.00     0.031 C 
ATOM     71  C   UNL A   1      45.804  32.097  28.523  1.00  0.00     0.034 A 
BRANCH  58  72
ATOM     72  C   UNL A   1      50.097  28.224  26.365  1.00  0.00     0.023 A 
ATOM     73  C   UNL A   1      50.453  28.381  25.011  1.00  0.00     0.012 A 
ATOM     74  C   UNL A   1      51.096  27.939  27.316  1.00  0.00     0.148 A 
ATOM     75  C   UNL A   1      51.778  28.241  24.605  1.00  0.00     0.002 A 
ATOM     76  C   UNL A   1      52.421  27.830  26.907  1.00  0.00     0.091 A 
ATOM     77  F   UNL A   1      50.733  27.766  28.596  1.00  0.00    -0.205 F 
ATOM     78  C   UNL A   1      52.763  27.976  25.552  1.00  0.00     0.022 A 
BRANCH  76  79
ATOM     79  S   UNL A   1      53.765  27.548  28.067  1.00  0.00     0.127 S 
ATOM     80  O   UNL A   1      53.647  28.712  28.944  1.00  0.00    -0.237 OA
ATOM     81  O   UNL A   1      53.381  26.277  28.687  1.00  0.00    -0.237 OA
ATOM     82  O   UNL A   1      54.976  27.483  27.263  1.00  0.00    -0.744 OA
ENDBRANCH  76  79
ENDBRANCH  58  72
BRANCH  59  83
ATOM     83  C   UNL A   1      40.542  29.147  29.079  1.00  0.00     0.023 A 
ATOM     84  C   UNL A   1      39.549  29.368  28.105  1.00  0.00     0.012 A 
ATOM     85  C   UNL A   1      40.163  29.023  30.427  1.00  0.00     0.148 A 
ATOM     86  C   UNL A   1      38.207  29.485  28.470  1.00  0.00     0.002 A 
ATOM     87  C   UNL A   1      38.818  29.091  30.779  1.00  0.00     0.091 A 
ATOM     88  F   UNL A   1      41.120  28.833  31.349  1.00  0.00    -0.205 F 
ATOM     89  C   UNL A   1      37.840  29.336  29.805  1.00  0.00     0.022 A 
BRANCH  87  90
ATOM     90  S   UNL A   1      38.287  28.773  32.466  1.00  0.00     0.127 S 
ATOM     91  O   UNL A   1      39.011  29.797  33.211  1.00  0.00    -0.237 OA
ATOM     92  O   UNL A   1      36.840  28.976  32.390  1.00  0.00    -0.237 OA
ATOM     93  O   UNL A   1      38.677  27.390  32.715  1.00  0.00    -0.744 OA
ENDBRANCH  87  90
ENDBRANCH  59  83
BRANCH  71  94
ATOM     94  C   UNL A   1      45.968  33.536  28.928  1.00  0.00     0.023 A 
ATOM     95  C   UNL A   1      46.429  33.837  30.224  1.00  0.00     0.012 A 
ATOM     96  C   UNL A   1      45.752  34.580  28.008  1.00  0.00     0.148 A 
ATOM     97  C   UNL A   1      46.654  35.159  30.606  1.00  0.00     0.002 A 
ATOM     98  C   UNL A   1      46.011  35.893  28.385  1.00  0.00     0.091 A 
ATOM     99  F   UNL A   1      45.288  34.275  26.787  1.00  0.00    -0.205 F 
ATOM    100  C   UNL A   1      46.457  36.185  29.684  1.00  0.00     0.022 A 
BRANCH  98 101
ATOM    101  S   UNL A   1      45.855  37.256  27.224  1.00  0.00     0.127 S 
ATOM    102  O   UNL A   1      44.420  37.255  26.951  1.00  0.00    -0.237 OA
ATOM    103  O   UNL A   1      46.324  38.399  28.008  1.00  0.00    -0.237 OA
ATOM    104  O   UNL A   1      46.717  36.908  26.102  1.00  0.00    -0.744 OA
ENDBRANCH  98 101
ENDBRANCH  71  94
ENDBRANCH  45  46
ENDBRANCH  37  40
ENDBRANCH  35  36
ENDBRANCH  34  35
ENDBRANCH  33  34
ENDBRANCH   1  33
TORSDOF 21
ENDMDL
MODEL 3
REMARK VINA RESULT:     -12.1      3.102      8.644
REMARK SMILES Cc1ccnc(C(=O)c2[nH]c3ccc(OC(F)(F)F)cc3c2CC(=O)NCCCCCCNC(=O)c2ccc(-c3c4nc(c(-c5cccc(S(=O)(=O)[O-])c5F)c5ccc([nH]5)c(-c5cccc(S(=O)(=O)[O-])c5F)c5nc(c(-c6cccc(S(=O)(=O)[O-])c6F)c6ccc3[nH]6)C=C5)C=C4)cc2)c1
REMARK SMILES IDX 29 1 28 2 27 3 26 4 24 5 25 6 23 8 22 9 9 10 10 11 11 12
REMARK SMILES IDX 21 14 12 15 20 16 13 17 14 18 7 19 8 20 6 21 1 22 2 23 3 24
REMARK SMILES IDX 99 25 4 26 5 27 15 28 16 29 17 30 18 31 19 32 30 33 31 34
REMARK SMILES IDX 32 35 33 36 34 37 35 39 36 40 37 41 98 42 38 43 97 44 39 45
REMARK SMILES IDX 40 46 41 47 91 48 42 49 96 50 90 51 92 52 43 53 95 54 89 55
REMARK SMILES IDX 88 56 44 58 76 59 56 60 75 61 57 62 60 63 74 64 93 65 58 66
REMARK SMILES IDX 59 67 73 69 94 70 61 71 45 72 46 73 54 74 47 75 49 76 55 77
REMARK SMILES IDX 48 78 50 79 51 80 52 81 53 82 77 83 78 84 86 85 79 86 81 87
REMARK SMILES IDX 87 88 80 89 82 90 83 91 84 92 85 93 62 94 63 95 71 96 64 97
REMARK SMILES IDX 66 98 72 99 65 100 67 101 68 102 69 103 70 104
REMARK H PARENT 26 7 10 13 33 38 92 57 60 68
REMARK Flexibility Score: inf
ROOT
ATOM      1  C   UNL A   1      32.257  29.402  26.866  1.00  0.00     0.002 C 
ENDROOT
BRANCH   1   2
ATOM      2  C   UNL A   1      32.116  27.905  26.564  1.00  0.00     0.021 C 
BRANCH   2   3
ATOM      3  C   UNL A   1      33.170  27.346  25.607  1.00  0.00     0.116 C 
BRANCH   3   4
ATOM      4  N   UNL A   1      33.636  28.341  24.661  1.00  0.00    -0.356 N 
ATOM      5  C   UNL A   1      33.568  28.342  23.298  1.00  0.00     0.224 C 
ATOM      6  O   UNL A   1      33.943  29.356  22.699  1.00  0.00    -0.275 OA
ATOM      7  H   UNL A   1      34.063  29.133  25.060  1.00  0.00     0.163 HD
BRANCH   5   8
ATOM      8  C   UNL A   1      32.925  27.190  22.541  1.00  0.00     0.138 C 
BRANCH   8   9
ATOM      9  C   UNL A   1      31.517  26.852  22.945  1.00  0.00    -0.002 A 
ATOM     10  C   UNL A   1      31.029  25.627  23.389  1.00  0.00     0.093 A 
ATOM     11  N   UNL A   1      29.709  25.812  23.735  1.00  0.00    -0.352 N 
ATOM     12  C   UNL A   1      29.290  27.072  23.389  1.00  0.00     0.046 A 
ATOM     13  H   UNL A   1      29.144  25.135  24.170  1.00  0.00     0.167 HD
ATOM     14  C   UNL A   1      30.394  27.745  22.879  1.00  0.00     0.008 A 
ATOM     15  C   UNL A   1      28.029  27.669  23.505  1.00  0.00     0.030 A 
ATOM     16  C   UNL A   1      30.222  29.079  22.452  1.00  0.00     0.057 A 
ATOM     17  C   UNL A   1      27.890  28.997  23.080  1.00  0.00     0.049 A 
ATOM     18  C   UNL A   1      28.972  29.704  22.557  1.00  0.00     0.130 A 
BRANCH  10  19
ATOM     19  C   UNL A   1      31.731  24.367  23.573  1.00  0.00     0.227 C 
ATOM     20  O   UNL A   1      32.209  23.764  22.618  1.00  0.00    -0.285 OA
BRANCH  19  21
ATOM     21  C   UNL A   1      31.885  23.826  24.978  1.00  0.00     0.113 A 
ATOM     22  C   UNL A   1      34.512  22.677  27.466  1.00  0.00     0.044 C 
ATOM     23  C   UNL A   1      33.198  23.021  26.832  1.00  0.00    -0.047 A 
ATOM     24  C   UNL A   1      32.007  22.799  27.524  1.00  0.00     0.023 A 
ATOM     25  C   UNL A   1      33.133  23.562  25.543  1.00  0.00     0.036 A 
ATOM     26  C   UNL A   1      30.811  23.106  26.899  1.00  0.00     0.112 A 
ATOM     27  N   UNL A   1      30.724  23.597  25.647  1.00  0.00    -0.253 NA
ENDBRANCH  19  21
ENDBRANCH  10  19
BRANCH  18  28
ATOM     28  O   UNL A   1      28.961  30.997  22.115  1.00  0.00    -0.406 OA
BRANCH  28  29
ATOM     29  C   UNL A   1      28.550  32.008  23.022  1.00  0.00     0.573 C 
ATOM     30  F   UNL A   1      27.204  32.031  23.130  1.00  0.00    -0.132 F 
ATOM     31  F   UNL A   1      29.098  31.819  24.239  1.00  0.00    -0.132 F 
ATOM     32  F   UNL A   1      28.952  33.204  22.543  1.00  0.00    -0.132 F 
ENDBRANCH  28  29
ENDBRANCH  18  28
ENDBRANCH   8   9
ENDBRANCH   5   8
ENDBRANCH   3   4
ENDBRANCH   2   3
ENDBRANCH   1   2
BRANCH   1  33
ATOM     33  C   UNL A   1      31.405  30.341  26.003  1.00  0.00     0.002 C 
BRANCH  33  34
ATOM     34  C   UNL A   1      31.369  31.805  26.449  1.00  0.00     0.021 C 
BRANCH  34  35
ATOM     35  C   UNL A   1      32.693  32.365  26.969  1.00  0.00     0.116 C 
BRANCH  35  36
ATOM     36  N   UNL A   1      32.565  33.733  27.448  1.00  0.00    -0.352 N 
ATOM     37  C   UNL A   1      33.246  34.372  28.455  1.00  0.00     0.251 C 
ATOM     38  H   UNL A   1      31.893  34.279  26.982  1.00  0.00     0.163 HD
ATOM     39  O   UNL A   1      32.881  35.487  28.823  1.00  0.00    -0.269 OA
BRANCH  37  40
ATOM     40  C   UNL A   1      34.404  33.724  29.113  1.00  0.00     0.039 A 
ATOM     41  C   UNL A   1      34.166  32.711  30.049  1.00  0.00     0.014 A 
ATOM     42  C   UNL A   1      35.713  34.132  28.845  1.00  0.00     0.014 A 
ATOM     43  C   UNL A   1      35.241  32.071  30.674  1.00  0.00     0.010 A 
ATOM     44  C   UNL A   1      36.785  33.463  29.435  1.00  0.00     0.010 A 
ATOM     45  C   UNL A   1      36.560  32.427  30.356  1.00  0.00    -0.014 A 
BRANCH  45  46
ATOM     46  C   UNL A   1      37.719  31.726  30.966  1.00  0.00     0.031 A 
ATOM     47  C   UNL A   1      38.121  32.020  32.384  1.00  0.00     0.074 A 
ATOM     48  C   UNL A   1      38.463  30.893  30.213  1.00  0.00     0.049 A 
ATOM     49  N   UNL A   1      39.149  31.571  33.058  1.00  0.00    -0.248 NA
ATOM     50  C   UNL A   1      37.270  32.955  33.139  1.00  0.00     0.031 C 
ATOM     51  C   UNL A   1      38.217  30.580  28.803  1.00  0.00     0.029 A 
ATOM     52  N   UNL A   1      39.596  30.181  30.518  1.00  0.00    -0.354 N 
ATOM     53  C   UNL A   1      39.091  32.193  34.299  1.00  0.00     0.074 A 
ATOM     54  C   UNL A   1      37.934  33.064  34.281  1.00  0.00     0.031 C 
ATOM     55  C   UNL A   1      39.176  29.747  28.365  1.00  0.00     0.029 A 
ATOM     56  C   UNL A   1      40.110  29.479  29.454  1.00  0.00     0.049 A 
ATOM     57  H   UNL A   1      40.002  30.173  31.416  1.00  0.00     0.167 HD
ATOM     58  C   UNL A   1      39.906  32.033  35.367  1.00  0.00     0.034 A 
ATOM     59  C   UNL A   1      41.211  28.707  29.364  1.00  0.00     0.034 A 
ATOM     60  C   UNL A   1      41.020  31.123  35.409  1.00  0.00     0.049 A 
ATOM     61  C   UNL A   1      42.060  28.491  30.588  1.00  0.00     0.074 A 
ATOM     62  C   UNL A   1      41.865  30.844  36.468  1.00  0.00     0.029 A 
ATOM     63  N   UNL A   1      41.436  30.336  34.346  1.00  0.00    -0.354 N 
ATOM     64  N   UNL A   1      41.903  28.978  31.796  1.00  0.00    -0.248 NA
ATOM     65  C   UNL A   1      43.213  27.589  30.450  1.00  0.00     0.031 C 
ATOM     66  C   UNL A   1      42.787  29.878  36.050  1.00  0.00     0.029 A 
ATOM     67  C   UNL A   1      42.519  29.563  34.727  1.00  0.00     0.049 A 
ATOM     68  H   UNL A   1      41.022  30.328  33.453  1.00  0.00     0.167 HD
ATOM     69  C   UNL A   1      42.916  28.421  32.565  1.00  0.00     0.074 A 
ATOM     70  C   UNL A   1      43.670  27.542  31.696  1.00  0.00     0.031 C 
ATOM     71  C   UNL A   1      43.212  28.637  33.870  1.00  0.00     0.034 A 
BRANCH  58  72
ATOM     72  C   UNL A   1      39.577  32.801  36.617  1.00  0.00     0.023 A 
ATOM     73  C   UNL A   1      40.191  34.051  36.830  1.00  0.00     0.012 A 
ATOM     74  C   UNL A   1      38.627  32.329  37.542  1.00  0.00     0.148 A 
ATOM     75  C   UNL A   1      39.878  34.813  37.954  1.00  0.00     0.002 A 
ATOM     76  C   UNL A   1      38.298  33.109  38.646  1.00  0.00     0.091 A 
ATOM     77  F   UNL A   1      38.074  31.125  37.336  1.00  0.00    -0.205 F 
ATOM     78  C   UNL A   1      38.926  34.348  38.856  1.00  0.00     0.022 A 
BRANCH  76  79
ATOM     79  S   UNL A   1      37.039  32.615  39.831  1.00  0.00     0.127 S 
ATOM     80  O   UNL A   1      35.844  32.572  38.990  1.00  0.00    -0.237 OA
ATOM     81  O   UNL A   1      37.521  31.304  40.272  1.00  0.00    -0.237 OA
ATOM     82  O   UNL A   1      37.046  33.638  40.866  1.00  0.00    -0.744 OA
ENDBRANCH  76  79
ENDBRANCH  58  72
BRANCH  59  83
ATOM     83  C   UNL A   1      41.522  28.009  28.087  1.00  0.00     0.023 A 
ATOM     84  C   UNL A   1      42.040  28.752  27.009  1.00  0.00     0.012 A 
ATOM     85  C   UNL A   1      41.351  26.620  27.942  1.00  0.00     0.148 A 
ATOM     86  C   UNL A   1      42.358  28.129  25.801  1.00  0.00     0.002 A 
ATOM     87  C   UNL A   1      41.716  25.997  26.752  1.00  0.00     0.091 A 
ATOM     88  F   UNL A   1      40.838  25.925  28.968  1.00  0.00    -0.205 F 
ATOM     89  C   UNL A   1      42.207  26.750  25.676  1.00  0.00     0.022 A 
BRANCH  87  90
ATOM     90  S   UNL A   1      41.664  24.208  26.592  1.00  0.00     0.127 S 
ATOM     91  O   UNL A   1      42.425  23.989  25.366  1.00  0.00    -0.237 OA
ATOM     92  O   UNL A   1      42.327  23.757  27.816  1.00  0.00    -0.237 OA
ATOM     93  O   UNL A   1      40.242  23.889  26.540  1.00  0.00    -0.744 OA
ENDBRANCH  87  90
ENDBRANCH  59  83
BRANCH  71  94
ATOM     94  C   UNL A   1      44.386  27.899  34.452  1.00  0.00     0.023 A 
ATOM     95  C   UNL A   1      45.664  28.487  34.395  1.00  0.00     0.012 A 
ATOM     96  C   UNL A   1      44.214  26.674  35.125  1.00  0.00     0.148 A 
ATOM     97  C   UNL A   1      46.759  27.856  34.985  1.00  0.00     0.002 A 
ATOM     98  C   UNL A   1      45.304  26.068  35.740  1.00  0.00     0.091 A 
ATOM     99  F   UNL A   1      42.993  26.118  35.146  1.00  0.00    -0.205 F 
ATOM    100  C   UNL A   1      46.578  26.655  35.667  1.00  0.00     0.022 A 
BRANCH  98 101
ATOM    101  S   UNL A   1      45.127  24.561  36.702  1.00  0.00     0.127 S 
ATOM    102  O   UNL A   1      44.608  23.628  35.706  1.00  0.00    -0.237 OA
ATOM    103  O   UNL A   1      46.501  24.292  37.130  1.00  0.00    -0.237 OA
ATOM    104  O   UNL A   1      44.219  24.901  37.790  1.00  0.00    -0.744 OA
ENDBRANCH  98 101
ENDBRANCH  71  94
ENDBRANCH  45  46
ENDBRANCH  37  40
ENDBRANCH  35  36
ENDBRANCH  34  35
ENDBRANCH  33  34
ENDBRANCH   1  33
TORSDOF 21
ENDMDL
