MODEL 1
REMARK VINA RESULT:     -11.2      0.000      0.000
REMARK SMILES CC(C)CN(C)c1cc2c(cc1Cl)C=C(C(=O)NCCCCCCNC(=O)c1ccc(-c3c4nc(c(-c5cccc(S(=O)(=O)[O-])c5F)c5ccc([nH]5)c(-c5cccc(S(=O)(=O)[O-])c5F)c5nc(c(-c6cccc(S(=O)(=O)[O-])c6F)c6ccc3[nH]6)C=C5)C=C4)cc1)[C@@H](C(F)(F)F)O2
REMARK SMILES IDX 21 1 20 2 19 3 18 4 16 5 17 6 15 8 7 9 8 10 12 11 9 12 11 13
REMARK SMILES IDX 13 14 10 15 96 16 14 17 91 18 5 19 6 20 4 21 2 22 1 23 3 24
REMARK SMILES IDX 92 25 93 26 94 27 95 28 22 29 23 30 24 31 25 32 26 33 27 35
REMARK SMILES IDX 28 36 29 37 90 38 30 39 89 40 31 41 32 42 33 43 83 44 34 45
REMARK SMILES IDX 88 46 82 47 84 48 35 49 87 50 81 51 80 52 36 54 68 55 48 56
REMARK SMILES IDX 67 57 49 58 52 59 66 60 85 61 50 62 51 63 65 65 86 66 53 67
REMARK SMILES IDX 37 68 38 69 46 70 39 71 41 72 47 73 40 74 42 75 43 76 44 77
REMARK SMILES IDX 45 78 69 79 70 80 78 81 71 82 73 83 79 84 72 85 74 86 75 87
REMARK SMILES IDX 76 88 77 89 54 90 55 91 63 92 56 93 58 94 64 95 57 96 59 97
REMARK SMILES IDX 60 98 61 99 62 100
REMARK H PARENT 18 7 25 34 84 53 52 64
REMARK Flexibility Score: inf
ROOT
ATOM      1  C   UNL A   1      32.921  28.861  26.810  1.00  0.00     0.002 C 
ENDROOT
BRANCH   1   2
ATOM      2  C   UNL A   1      31.596  29.162  26.104  1.00  0.00     0.021 C 
BRANCH   2   3
ATOM      3  C   UNL A   1      31.573  28.744  24.637  1.00  0.00     0.116 C 
BRANCH   3   4
ATOM      4  N   UNL A   1      30.293  28.160  24.279  1.00  0.00    -0.352 N 
ATOM      5  C   UNL A   1      29.810  26.927  24.011  1.00  0.00     0.251 C 
ATOM      6  O   UNL A   1      28.601  26.880  23.761  1.00  0.00    -0.270 OA
ATOM      7  H   UNL A   1      29.589  28.845  24.215  1.00  0.00     0.163 HD
BRANCH   5   8
ATOM      8  C   UNL A   1      30.613  25.673  23.997  1.00  0.00     0.067 C 
ATOM      9  C   UNL A   1      32.939  21.376  25.272  1.00  0.00     0.059 A 
ATOM     10  C   UNL A   1      32.391  21.885  24.084  1.00  0.00     0.074 A 
ATOM     11  C   UNL A   1      32.879  22.197  26.422  1.00  0.00     0.065 A 
ATOM     12  C   UNL A   1      31.773  23.132  24.065  1.00  0.00     0.130 A 
ATOM     13  C   UNL A   1      32.167  23.403  26.418  1.00  0.00     0.034 A 
ATOM     14  Cl  UNL A   1      33.697  21.786  27.892  1.00  0.00    -0.082 Cl
ATOM     15  C   UNL A   1      31.595  23.863  25.238  1.00  0.00     0.019 A 
ATOM     16  O   UNL A   1      31.335  23.597  22.855  1.00  0.00    -0.475 OA
ATOM     17  C   UNL A   1      30.802  25.086  25.194  1.00  0.00     0.025 C 
ATOM     18  C   UNL A   1      31.234  25.050  22.777  1.00  0.00     0.314 C 
BRANCH   9  19
ATOM     19  N   UNL A   1      33.482  20.080  25.302  1.00  0.00    -0.373 N 
ATOM     20  C   UNL A   1      34.888  19.989  24.906  1.00  0.00     0.143 C 
BRANCH  19  21
ATOM     21  C   UNL A   1      32.598  18.999  24.811  1.00  0.00     0.119 C 
BRANCH  21  22
ATOM     22  C   UNL A   1      33.197  18.239  23.609  1.00  0.00     0.002 C 
ATOM     23  C   UNL A   1      33.405  16.750  23.903  1.00  0.00     0.009 C 
ATOM     24  C   UNL A   1      32.311  18.377  22.367  1.00  0.00     0.009 C 
ENDBRANCH  21  22
ENDBRANCH  19  21
ENDBRANCH   9  19
BRANCH  18  25
ATOM     25  C   UNL A   1      32.604  25.686  22.450  1.00  0.00     0.429 C 
ATOM     26  F   UNL A   1      33.397  24.807  21.792  1.00  0.00    -0.167 F 
ATOM     27  F   UNL A   1      32.484  26.772  21.650  1.00  0.00    -0.167 F 
ATOM     28  F   UNL A   1      33.274  26.091  23.553  1.00  0.00    -0.167 F 
ENDBRANCH  18  25
ENDBRANCH   5   8
ENDBRANCH   3   4
ENDBRANCH   2   3
ENDBRANCH   1   2
BRANCH   1  29
ATOM     29  C   UNL A   1      33.772  30.091  27.156  1.00  0.00     0.002 C 
BRANCH  29  30
ATOM     30  C   UNL A   1      32.983  31.359  27.488  1.00  0.00     0.021 C 
BRANCH  30  31
ATOM     31  C   UNL A   1      33.663  32.656  27.071  1.00  0.00     0.116 C 
BRANCH  31  32
ATOM     32  N   UNL A   1      33.023  33.827  27.648  1.00  0.00    -0.352 N 
ATOM     33  C   UNL A   1      33.269  34.436  28.855  1.00  0.00     0.251 C 
ATOM     34  H   UNL A   1      32.317  34.239  27.099  1.00  0.00     0.163 HD
ATOM     35  O   UNL A   1      32.519  35.316  29.267  1.00  0.00    -0.269 OA
BRANCH  33  36
ATOM     36  C   UNL A   1      34.428  33.994  29.660  1.00  0.00     0.039 A 
ATOM     37  C   UNL A   1      35.709  34.459  29.358  1.00  0.00     0.014 A 
ATOM     38  C   UNL A   1      34.235  33.072  30.691  1.00  0.00     0.014 A 
ATOM     39  C   UNL A   1      36.812  33.876  29.971  1.00  0.00     0.010 A 
ATOM     40  C   UNL A   1      35.342  32.553  31.368  1.00  0.00     0.010 A 
ATOM     41  C   UNL A   1      36.642  32.914  30.981  1.00  0.00    -0.014 A 
BRANCH  41  42
ATOM     42  C   UNL A   1      37.843  32.318  31.623  1.00  0.00     0.031 A 
ATOM     43  C   UNL A   1      38.288  32.753  32.993  1.00  0.00     0.074 A 
ATOM     44  C   UNL A   1      38.508  31.342  30.975  1.00  0.00     0.049 A 
ATOM     45  N   UNL A   1      39.294  32.310  33.705  1.00  0.00    -0.248 NA
ATOM     46  C   UNL A   1      37.518  33.820  33.654  1.00  0.00     0.031 C 
ATOM     47  C   UNL A   1      38.184  30.849  29.634  1.00  0.00     0.029 A 
ATOM     48  N   UNL A   1      39.582  30.578  31.357  1.00  0.00    -0.354 N 
ATOM     49  C   UNL A   1      39.302  33.066  34.870  1.00  0.00     0.074 A 
ATOM     50  C   UNL A   1      38.203  34.000  34.776  1.00  0.00     0.031 C 
ATOM     51  C   UNL A   1      39.008  29.837  29.326  1.00  0.00     0.029 A 
ATOM     52  C   UNL A   1      39.954  29.646  30.418  1.00  0.00     0.049 A 
ATOM     53  H   UNL A   1      40.042  30.688  32.221  1.00  0.00     0.167 HD
ATOM     54  C   UNL A   1      40.138  32.975  35.931  1.00  0.00     0.034 A 
ATOM     55  C   UNL A   1      40.951  28.740  30.427  1.00  0.00     0.034 A 
ATOM     56  C   UNL A   1      41.195  32.008  36.049  1.00  0.00     0.049 A 
ATOM     57  C   UNL A   1      41.852  28.652  31.621  1.00  0.00     0.074 A 
ATOM     58  C   UNL A   1      42.060  31.811  37.111  1.00  0.00     0.029 A 
ATOM     59  N   UNL A   1      41.532  31.078  35.079  1.00  0.00    -0.354 N 
ATOM     60  N   UNL A   1      41.793  29.327  32.743  1.00  0.00    -0.248 NA
ATOM     61  C   UNL A   1      42.948  27.674  31.560  1.00  0.00     0.031 C 
ATOM     62  C   UNL A   1      42.924  30.765  36.782  1.00  0.00     0.029 A 
ATOM     63  C   UNL A   1      42.591  30.304  35.518  1.00  0.00     0.049 A 
ATOM     64  H   UNL A   1      41.083  30.981  34.208  1.00  0.00     0.167 HD
ATOM     65  C   UNL A   1      42.833  28.848  33.528  1.00  0.00     0.074 A 
ATOM     66  C   UNL A   1      43.496  27.813  32.762  1.00  0.00     0.031 C 
ATOM     67  C   UNL A   1      43.210  29.245  34.766  1.00  0.00     0.034 A 
BRANCH  54  68
ATOM     68  C   UNL A   1      39.924  33.907  37.091  1.00  0.00     0.023 A 
ATOM     69  C   UNL A   1      40.275  35.265  36.956  1.00  0.00     0.012 A 
ATOM     70  C   UNL A   1      39.264  33.472  38.257  1.00  0.00     0.148 A 
ATOM     71  C   UNL A   1      39.977  36.177  37.968  1.00  0.00     0.002 A 
ATOM     72  C   UNL A   1      38.944  34.391  39.249  1.00  0.00     0.091 A 
ATOM     73  F   UNL A   1      38.949  32.173  38.364  1.00  0.00    -0.205 F 
ATOM     74  C   UNL A   1      39.302  35.743  39.107  1.00  0.00     0.022 A 
BRANCH  72  75
ATOM     75  S   UNL A   1      38.026  33.951  40.729  1.00  0.00     0.127 S 
ATOM     76  O   UNL A   1      38.915  32.964  41.342  1.00  0.00    -0.237 OA
ATOM     77  O   UNL A   1      37.953  35.229  41.435  1.00  0.00    -0.237 OA
ATOM     78  O   UNL A   1      36.747  33.428  40.271  1.00  0.00    -0.744 OA
ENDBRANCH  72  75
ENDBRANCH  54  68
BRANCH  55  79
ATOM     79  C   UNL A   1      41.100  27.819  29.269  1.00  0.00     0.023 A 
ATOM     80  C   UNL A   1      40.367  26.619  29.245  1.00  0.00     0.012 A 
ATOM     81  C   UNL A   1      41.890  28.172  28.157  1.00  0.00     0.148 A 
ATOM     82  C   UNL A   1      40.420  25.780  28.131  1.00  0.00     0.002 A 
ATOM     83  C   UNL A   1      41.902  27.355  27.034  1.00  0.00     0.091 A 
ATOM     84  F   UNL A   1      42.579  29.319  28.210  1.00  0.00    -0.205 F 
ATOM     85  C   UNL A   1      41.176  26.154  27.021  1.00  0.00     0.022 A 
BRANCH  83  86
ATOM     86  S   UNL A   1      42.749  27.809  25.517  1.00  0.00     0.127 S 
ATOM     87  O   UNL A   1      42.650  26.576  24.739  1.00  0.00    -0.237 OA
ATOM     88  O   UNL A   1      41.920  28.913  25.031  1.00  0.00    -0.237 OA
ATOM     89  O   UNL A   1      44.097  28.193  25.914  1.00  0.00    -0.744 OA
ENDBRANCH  83  86
ENDBRANCH  55  79
BRANCH  67  90
ATOM     90  C   UNL A   1      44.389  28.562  35.399  1.00  0.00     0.023 A 
ATOM     91  C   UNL A   1      45.683  29.066  35.168  1.00  0.00     0.012 A 
ATOM     92  C   UNL A   1      44.200  27.516  36.321  1.00  0.00     0.148 A 
ATOM     93  C   UNL A   1      46.777  28.534  35.849  1.00  0.00     0.002 A 
ATOM     94  C   UNL A   1      45.291  27.013  37.020  1.00  0.00     0.091 A 
ATOM     95  F   UNL A   1      42.957  27.052  36.514  1.00  0.00    -0.205 F 
ATOM     96  C   UNL A   1      46.580  27.519  36.781  1.00  0.00     0.022 A 
BRANCH  94  97
ATOM     97  S   UNL A   1      45.130  25.760  38.296  1.00  0.00     0.127 S 
ATOM     98  O   UNL A   1      46.477  25.739  38.864  1.00  0.00    -0.237 OA
ATOM     99  O   UNL A   1      44.107  26.338  39.168  1.00  0.00    -0.237 OA
ATOM    100  O   UNL A   1      44.730  24.536  37.615  1.00  0.00    -0.744 OA
ENDBRANCH  94  97
ENDBRANCH  67  90
ENDBRANCH  41  42
ENDBRANCH  33  36
ENDBRANCH  31  32
ENDBRANCH  30  31
ENDBRANCH  29  30
ENDBRANCH   1  29
TORSDOF 20
ENDMDL
MODEL 2
REMARK VINA RESULT:     -10.8      3.196      8.206
REMARK SMILES CC(C)CN(C)c1cc2c(cc1Cl)C=C(C(=O)NCCCCCCNC(=O)c1ccc(-c3c4nc(c(-c5cccc(S(=O)(=O)[O-])c5F)c5ccc([nH]5)c(-c5cccc(S(=O)(=O)[O-])c5F)c5nc(c(-c6cccc(S(=O)(=O)[O-])c6F)c6ccc3[nH]6)C=C5)C=C4)cc1)[C@@H](C(F)(F)F)O2
REMARK SMILES IDX 21 1 20 2 19 3 18 4 16 5 17 6 15 8 7 9 8 10 12 11 9 12 11 13
REMARK SMILES IDX 13 14 10 15 96 16 14 17 91 18 5 19 6 20 4 21 2 22 1 23 3 24
REMARK SMILES IDX 92 25 93 26 94 27 95 28 22 29 23 30 24 31 25 32 26 33 27 35
REMARK SMILES IDX 28 36 29 37 90 38 30 39 89 40 31 41 32 42 33 43 83 44 34 45
REMARK SMILES IDX 88 46 82 47 84 48 35 49 87 50 81 51 80 52 36 54 68 55 48 56
REMARK SMILES IDX 67 57 49 58 52 59 66 60 85 61 50 62 51 63 65 65 86 66 53 67
REMARK SMILES IDX 37 68 38 69 46 70 39 71 41 72 47 73 40 74 42 75 43 76 44 77
REMARK SMILES IDX 45 78 69 79 70 80 78 81 71 82 73 83 79 84 72 85 74 86 75 87
REMARK SMILES IDX 76 88 77 89 54 90 55 91 63 92 56 93 58 94 64 95 57 96 59 97
REMARK SMILES IDX 60 98 61 99 62 100
REMARK H PARENT 18 7 25 34 84 53 52 64
REMARK Flexibility Score: inf
ROOT
ATOM      1  C   UNL A   1      32.992  28.127  26.630  1.00  0.00     0.002 C 
ENDROOT
BRANCH   1   2
ATOM      2  C   UNL A   1      31.817  29.030  26.244  1.00  0.00     0.021 C 
BRANCH   2   3
ATOM      3  C   UNL A   1      31.756  29.357  24.755  1.00  0.00     0.116 C 
BRANCH   3   4
ATOM      4  N   UNL A   1      30.550  28.821  24.151  1.00  0.00    -0.352 N 
ATOM      5  C   UNL A   1      30.100  27.613  23.746  1.00  0.00     0.251 C 
ATOM      6  O   UNL A   1      28.954  27.606  23.285  1.00  0.00    -0.270 OA
ATOM      7  H   UNL A   1      29.881  29.526  23.994  1.00  0.00     0.163 HD
BRANCH   5   8
ATOM      8  C   UNL A   1      30.870  26.340  23.819  1.00  0.00     0.067 C 
ATOM      9  C   UNL A   1      32.848  21.931  25.287  1.00  0.00     0.059 A 
ATOM     10  C   UNL A   1      32.537  22.508  24.045  1.00  0.00     0.074 A 
ATOM     11  C   UNL A   1      32.590  22.702  26.446  1.00  0.00     0.065 A 
ATOM     12  C   UNL A   1      31.955  23.770  23.974  1.00  0.00     0.130 A 
ATOM     13  C   UNL A   1      31.911  23.924  26.370  1.00  0.00     0.034 A 
ATOM     14  Cl  UNL A   1      33.115  22.204  28.019  1.00  0.00    -0.082 Cl
ATOM     15  C   UNL A   1      31.575  24.451  25.129  1.00  0.00     0.019 A 
ATOM     16  O   UNL A   1      31.756  24.300  22.729  1.00  0.00    -0.475 OA
ATOM     17  C   UNL A   1      30.825  25.695  25.000  1.00  0.00     0.025 C 
ATOM     18  C   UNL A   1      31.695  25.757  22.704  1.00  0.00     0.314 C 
BRANCH   9  19
ATOM     19  N   UNL A   1      33.354  20.622  25.352  1.00  0.00    -0.373 N 
ATOM     20  C   UNL A   1      34.767  20.486  24.998  1.00  0.00     0.143 C 
BRANCH  19  21
ATOM     21  C   UNL A   1      32.454  19.557  24.854  1.00  0.00     0.119 C 
BRANCH  21  22
ATOM     22  C   UNL A   1      33.202  18.470  24.055  1.00  0.00     0.002 C 
ATOM     23  C   UNL A   1      33.335  17.158  24.835  1.00  0.00     0.009 C 
ATOM     24  C   UNL A   1      32.506  18.182  22.722  1.00  0.00     0.009 C 
ENDBRANCH  21  22
ENDBRANCH  19  21
ENDBRANCH   9  19
BRANCH  18  25
ATOM     25  C   UNL A   1      33.113  26.371  22.667  1.00  0.00     0.429 C 
ATOM     26  F   UNL A   1      33.587  26.563  23.921  1.00  0.00    -0.167 F 
ATOM     27  F   UNL A   1      34.001  25.563  22.038  1.00  0.00    -0.167 F 
ATOM     28  F   UNL A   1      33.156  27.563  22.029  1.00  0.00    -0.167 F 
ENDBRANCH  18  25
ENDBRANCH   5   8
ENDBRANCH   3   4
ENDBRANCH   2   3
ENDBRANCH   1   2
BRANCH   1  29
ATOM     29  C   UNL A   1      34.381  28.762  26.484  1.00  0.00     0.002 C 
BRANCH  29  30
ATOM     30  C   UNL A   1      34.968  29.353  27.767  1.00  0.00     0.021 C 
BRANCH  30  31
ATOM     31  C   UNL A   1      35.377  30.816  27.662  1.00  0.00     0.116 C 
BRANCH  31  32
ATOM     32  N   UNL A   1      34.772  31.636  28.699  1.00  0.00    -0.352 N 
ATOM     33  C   UNL A   1      35.213  31.865  29.981  1.00  0.00     0.251 C 
ATOM     34  H   UNL A   1      33.934  32.088  28.450  1.00  0.00     0.163 HD
ATOM     35  O   UNL A   1      34.492  32.447  30.787  1.00  0.00    -0.269 OA
BRANCH  33  36
ATOM     36  C   UNL A   1      36.548  31.374  30.380  1.00  0.00     0.039 A 
ATOM     37  C   UNL A   1      37.697  32.046  29.958  1.00  0.00     0.014 A 
ATOM     38  C   UNL A   1      36.651  30.207  31.141  1.00  0.00     0.014 A 
ATOM     39  C   UNL A   1      38.943  31.461  30.150  1.00  0.00     0.010 A 
ATOM     40  C   UNL A   1      37.913  29.668  31.411  1.00  0.00     0.010 A 
ATOM     41  C   UNL A   1      39.065  30.264  30.876  1.00  0.00    -0.014 A 
BRANCH  41  42
ATOM     42  C   UNL A   1      40.414  29.670  31.072  1.00  0.00     0.031 A 
ATOM     43  C   UNL A   1      40.927  28.588  30.160  1.00  0.00     0.074 A 
ATOM     44  C   UNL A   1      41.197  30.147  32.060  1.00  0.00     0.049 A 
ATOM     45  N   UNL A   1      42.090  27.988  30.177  1.00  0.00    -0.248 NA
ATOM     46  C   UNL A   1      40.027  28.111  29.096  1.00  0.00     0.031 C 
ATOM     47  C   UNL A   1      40.803  31.180  33.021  1.00  0.00     0.029 A 
ATOM     48  N   UNL A   1      42.487  29.842  32.412  1.00  0.00    -0.354 N 
ATOM     49  C   UNL A   1      42.048  27.042  29.161  1.00  0.00     0.074 A 
ATOM     50  C   UNL A   1      40.745  27.141  28.543  1.00  0.00     0.031 C 
ATOM     51  C   UNL A   1      41.843  31.457  33.821  1.00  0.00     0.029 A 
ATOM     52  C   UNL A   1      42.956  30.583  33.471  1.00  0.00     0.049 A 
ATOM     53  H   UNL A   1      43.025  29.158  31.951  1.00  0.00     0.167 HD
ATOM     54  C   UNL A   1      43.017  26.182  28.766  1.00  0.00     0.034 A 
ATOM     55  C   UNL A   1      44.148  30.561  34.099  1.00  0.00     0.034 A 
ATOM     56  C   UNL A   1      44.332  26.123  29.343  1.00  0.00     0.049 A 
ATOM     57  C   UNL A   1      45.206  29.610  33.630  1.00  0.00     0.074 A 
ATOM     58  C   UNL A   1      45.394  25.317  28.972  1.00  0.00     0.029 A 
ATOM     59  N   UNL A   1      44.768  26.897  30.406  1.00  0.00    -0.354 N 
ATOM     60  N   UNL A   1      45.170  28.777  32.619  1.00  0.00    -0.248 NA
ATOM     61  C   UNL A   1      46.472  29.598  34.377  1.00  0.00     0.031 C 
ATOM     62  C   UNL A   1      46.471  25.598  29.814  1.00  0.00     0.029 A 
ATOM     63  C   UNL A   1      46.083  26.587  30.704  1.00  0.00     0.049 A 
ATOM     64  H   UNL A   1      44.223  27.567  30.879  1.00  0.00     0.167 HD
ATOM     65  C   UNL A   1      46.409  28.152  32.597  1.00  0.00     0.074 A 
ATOM     66  C   UNL A   1      47.182  28.714  33.685  1.00  0.00     0.031 C 
ATOM     67  C   UNL A   1      46.856  27.188  31.759  1.00  0.00     0.034 A 
BRANCH  54  68
ATOM     68  C   UNL A   1      42.727  25.260  27.614  1.00  0.00     0.023 A 
ATOM     69  C   UNL A   1      43.086  25.654  26.310  1.00  0.00     0.012 A 
ATOM     70  C   UNL A   1      42.222  23.964  27.836  1.00  0.00     0.148 A 
ATOM     71  C   UNL A   1      42.942  24.772  25.240  1.00  0.00     0.002 A 
ATOM     72  C   UNL A   1      42.107  23.081  26.769  1.00  0.00     0.091 A 
ATOM     73  F   UNL A   1      41.879  23.618  29.085  1.00  0.00    -0.205 F 
ATOM     74  C   UNL A   1      42.464  23.484  25.470  1.00  0.00     0.022 A 
BRANCH  72  75
ATOM     75  S   UNL A   1      41.559  21.381  26.963  1.00  0.00     0.127 S 
ATOM     76  O   UNL A   1      42.420  20.918  28.052  1.00  0.00    -0.237 OA
ATOM     77  O   UNL A   1      40.154  21.553  27.328  1.00  0.00    -0.237 OA
ATOM     78  O   UNL A   1      41.786  20.733  25.680  1.00  0.00    -0.744 OA
ENDBRANCH  72  75
ENDBRANCH  54  68
BRANCH  55  79
ATOM     79  C   UNL A   1      44.396  31.516  35.211  1.00  0.00     0.023 A 
ATOM     80  C   UNL A   1      44.961  32.773  34.926  1.00  0.00     0.012 A 
ATOM     81  C   UNL A   1      43.990  31.221  36.527  1.00  0.00     0.148 A 
ATOM     82  C   UNL A   1      45.122  33.722  35.937  1.00  0.00     0.002 A 
ATOM     83  C   UNL A   1      44.111  32.186  37.518  1.00  0.00     0.091 A 
ATOM     84  F   UNL A   1      43.459  30.015  36.769  1.00  0.00    -0.205 F 
ATOM     85  C   UNL A   1      44.686  33.434  37.229  1.00  0.00     0.022 A 
BRANCH  83  86
ATOM     86  S   UNL A   1      43.473  31.951  39.180  1.00  0.00     0.127 S 
ATOM     87  O   UNL A   1      42.057  31.699  38.923  1.00  0.00    -0.237 OA
ATOM     88  O   UNL A   1      44.235  30.786  39.630  1.00  0.00    -0.237 OA
ATOM     89  O   UNL A   1      43.770  33.183  39.899  1.00  0.00    -0.744 OA
ENDBRANCH  83  86
ENDBRANCH  55  79
BRANCH  67  90
ATOM     90  C   UNL A   1      48.252  26.670  31.957  1.00  0.00     0.023 A 
ATOM     91  C   UNL A   1      49.331  27.351  31.361  1.00  0.00     0.012 A 
ATOM     92  C   UNL A   1      48.501  25.601  32.837  1.00  0.00     0.148 A 
ATOM     93  C   UNL A   1      50.643  26.971  31.638  1.00  0.00     0.002 A 
ATOM     94  C   UNL A   1      49.812  25.249  33.135  1.00  0.00     0.091 A 
ATOM     95  F   UNL A   1      47.454  24.967  33.384  1.00  0.00    -0.205 F 
ATOM     96  C   UNL A   1      50.883  25.931  32.532  1.00  0.00     0.022 A 
BRANCH  94  97
ATOM     97  S   UNL A   1      50.226  23.976  34.331  1.00  0.00     0.127 S 
ATOM     98  O   UNL A   1      49.770  22.766  33.647  1.00  0.00    -0.237 OA
ATOM     99  O   UNL A   1      51.679  24.109  34.434  1.00  0.00    -0.237 OA
ATOM    100  O   UNL A   1      49.496  24.308  35.547  1.00  0.00    -0.744 OA
ENDBRANCH  94  97
ENDBRANCH  67  90
ENDBRANCH  41  42
ENDBRANCH  33  36
ENDBRANCH  31  32
ENDBRANCH  30  31
ENDBRANCH  29  30
ENDBRANCH   1  29
TORSDOF 20
ENDMDL
MODEL 3
REMARK VINA RESULT:     -10.6      5.397     10.173
REMARK SMILES CC(C)CN(C)c1cc2c(cc1Cl)C=C(C(=O)NCCCCCCNC(=O)c1ccc(-c3c4nc(c(-c5cccc(S(=O)(=O)[O-])c5F)c5ccc([nH]5)c(-c5cccc(S(=O)(=O)[O-])c5F)c5nc(c(-c6cccc(S(=O)(=O)[O-])c6F)c6ccc3[nH]6)C=C5)C=C4)cc1)[C@@H](C(F)(F)F)O2
REMARK SMILES IDX 21 1 20 2 19 3 18 4 16 5 17 6 15 8 7 9 8 10 12 11 9 12 11 13
REMARK SMILES IDX 13 14 10 15 96 16 14 17 91 18 5 19 6 20 4 21 2 22 1 23 3 24
REMARK SMILES IDX 92 25 93 26 94 27 95 28 22 29 23 30 24 31 25 32 26 33 27 35
REMARK SMILES IDX 28 36 29 37 90 38 30 39 89 40 31 41 32 42 33 43 83 44 34 45
REMARK SMILES IDX 88 46 82 47 84 48 35 49 87 50 81 51 80 52 36 54 68 55 48 56
REMARK SMILES IDX 67 57 49 58 52 59 66 60 85 61 50 62 51 63 65 65 86 66 53 67
REMARK SMILES IDX 37 68 38 69 46 70 39 71 41 72 47 73 40 74 42 75 43 76 44 77
REMARK SMILES IDX 45 78 69 79 70 80 78 81 71 82 73 83 79 84 72 85 74 86 75 87
REMARK SMILES IDX 76 88 77 89 54 90 55 91 63 92 56 93 58 94 64 95 57 96 59 97
REMARK SMILES IDX 60 98 61 99 62 100
REMARK H PARENT 18 7 25 34 84 53 52 64
REMARK Flexibility Score: inf
ROOT
ATOM      1  C   UNL A   1      36.231  22.426  23.867  1.00  0.00     0.002 C 
ENDROOT
BRANCH   1   2
ATOM      2  C   UNL A   1      35.122  22.641  24.901  1.00  0.00     0.021 C 
BRANCH   2   3
ATOM      3  C   UNL A   1      34.177  21.452  25.045  1.00  0.00     0.116 C 
BRANCH   3   4
ATOM      4  N   UNL A   1      33.426  21.231  23.823  1.00  0.00    -0.352 N 
ATOM      5  C   UNL A   1      32.540  21.919  23.069  1.00  0.00     0.251 C 
ATOM      6  O   UNL A   1      32.149  21.334  22.053  1.00  0.00    -0.270 OA
ATOM      7  H   UNL A   1      33.611  20.343  23.441  1.00  0.00     0.163 HD
BRANCH   5   8
ATOM      8  C   UNL A   1      32.027  23.283  23.375  1.00  0.00     0.067 C 
ATOM      9  C   UNL A   1      31.241  28.270  23.485  1.00  0.00     0.059 A 
ATOM     10  C   UNL A   1      30.435  27.140  23.698  1.00  0.00     0.074 A 
ATOM     11  C   UNL A   1      32.604  28.050  23.176  1.00  0.00     0.065 A 
ATOM     12  C   UNL A   1      30.960  25.858  23.560  1.00  0.00     0.130 A 
ATOM     13  C   UNL A   1      33.097  26.761  22.940  1.00  0.00     0.034 A 
ATOM     14  Cl  UNL A   1      33.752  29.344  23.098  1.00  0.00    -0.082 Cl
ATOM     15  C   UNL A   1      32.265  25.661  23.114  1.00  0.00     0.019 A 
ATOM     16  O   UNL A   1      30.137  24.808  23.862  1.00  0.00    -0.475 OA
ATOM     17  C   UNL A   1      32.717  24.304  22.832  1.00  0.00     0.025 C 
ATOM     18  C   UNL A   1      30.842  23.591  24.249  1.00  0.00     0.314 C 
BRANCH   9  19
ATOM     19  N   UNL A   1      30.682  29.558  23.540  1.00  0.00    -0.373 N 
ATOM     20  C   UNL A   1      30.926  30.286  24.786  1.00  0.00     0.143 C 
BRANCH  19  21
ATOM     21  C   UNL A   1      29.326  29.698  22.961  1.00  0.00     0.119 C 
BRANCH  21  22
ATOM     22  C   UNL A   1      28.774  31.134  23.077  1.00  0.00     0.002 C 
ATOM     23  C   UNL A   1      28.696  31.842  21.720  1.00  0.00     0.009 C 
ATOM     24  C   UNL A   1      27.384  31.145  23.719  1.00  0.00     0.009 C 
ENDBRANCH  21  22
ENDBRANCH  19  21
ENDBRANCH   9  19
BRANCH  18  25
ATOM     25  C   UNL A   1      31.234  23.629  25.744  1.00  0.00     0.429 C 
ATOM     26  F   UNL A   1      32.456  24.189  25.907  1.00  0.00    -0.167 F 
ATOM     27  F   UNL A   1      30.369  24.369  26.478  1.00  0.00    -0.167 F 
ATOM     28  F   UNL A   1      31.269  22.401  26.311  1.00  0.00    -0.167 F 
ENDBRANCH  18  25
ENDBRANCH   5   8
ENDBRANCH   3   4
ENDBRANCH   2   3
ENDBRANCH   1   2
BRANCH   1  29
ATOM     29  C   UNL A   1      37.320  21.425  24.273  1.00  0.00     0.002 C 
BRANCH  29  30
ATOM     30  C   UNL A   1      37.718  21.455  25.750  1.00  0.00     0.021 C 
BRANCH  30  31
ATOM     31  C   UNL A   1      38.824  22.446  26.088  1.00  0.00     0.116 C 
BRANCH  31  32
ATOM     32  N   UNL A   1      40.151  21.875  25.914  1.00  0.00    -0.352 N 
ATOM     33  C   UNL A   1      41.375  22.469  26.110  1.00  0.00     0.251 C 
ATOM     34  H   UNL A   1      40.175  20.938  25.615  1.00  0.00     0.163 HD
ATOM     35  O   UNL A   1      42.402  21.899  25.752  1.00  0.00    -0.269 OA
BRANCH  33  36
ATOM     36  C   UNL A   1      41.433  23.810  26.727  1.00  0.00     0.039 A 
ATOM     37  C   UNL A   1      41.295  24.952  25.937  1.00  0.00     0.014 A 
ATOM     38  C   UNL A   1      41.676  23.925  28.098  1.00  0.00     0.014 A 
ATOM     39  C   UNL A   1      41.567  26.201  26.482  1.00  0.00     0.010 A 
ATOM     40  C   UNL A   1      41.861  25.191  28.663  1.00  0.00     0.010 A 
ATOM     41  C   UNL A   1      41.856  26.335  27.850  1.00  0.00    -0.014 A 
BRANCH  41  42
ATOM     42  C   UNL A   1      42.133  27.687  28.404  1.00  0.00     0.031 A 
ATOM     43  C   UNL A   1      43.524  28.262  28.391  1.00  0.00     0.074 A 
ATOM     44  C   UNL A   1      41.106  28.416  28.882  1.00  0.00     0.049 A 
ATOM     45  N   UNL A   1      43.927  29.436  28.806  1.00  0.00    -0.248 NA
ATOM     46  C   UNL A   1      44.605  27.420  27.851  1.00  0.00     0.031 C 
ATOM     47  C   UNL A   1      39.716  27.958  28.965  1.00  0.00     0.029 A 
ATOM     48  N   UNL A   1      41.062  29.696  29.372  1.00  0.00    -0.354 N 
ATOM     49  C   UNL A   1      45.302  29.459  28.617  1.00  0.00     0.074 A 
ATOM     50  C   UNL A   1      45.673  28.181  28.050  1.00  0.00     0.031 C 
ATOM     51  C   UNL A   1      38.951  28.957  29.430  1.00  0.00     0.029 A 
ATOM     52  C   UNL A   1      39.800  30.104  29.733  1.00  0.00     0.049 A 
ATOM     53  H   UNL A   1      41.859  30.268  29.458  1.00  0.00     0.167 HD
ATOM     54  C   UNL A   1      46.175  30.463  28.872  1.00  0.00     0.034 A 
ATOM     55  C   UNL A   1      39.368  31.267  30.256  1.00  0.00     0.034 A 
ATOM     56  C   UNL A   1      45.798  31.752  29.382  1.00  0.00     0.049 A 
ATOM     57  C   UNL A   1      40.354  32.365  30.515  1.00  0.00     0.074 A 
ATOM     58  C   UNL A   1      46.610  32.846  29.625  1.00  0.00     0.029 A 
ATOM     59  N   UNL A   1      44.509  32.125  29.725  1.00  0.00    -0.354 N 
ATOM     60  N   UNL A   1      41.638  32.390  30.258  1.00  0.00    -0.248 NA
ATOM     61  C   UNL A   1      39.835  33.598  31.125  1.00  0.00     0.031 C 
ATOM     62  C   UNL A   1      45.813  33.880  30.120  1.00  0.00     0.029 A 
ATOM     63  C   UNL A   1      44.502  33.433  30.177  1.00  0.00     0.049 A 
ATOM     64  H   UNL A   1      43.715  31.546  29.657  1.00  0.00     0.167 HD
ATOM     65  C   UNL A   1      42.081  33.643  30.660  1.00  0.00     0.074 A 
ATOM     66  C   UNL A   1      40.925  34.356  31.162  1.00  0.00     0.031 C 
ATOM     67  C   UNL A   1      43.337  34.146  30.628  1.00  0.00     0.034 A 
BRANCH  54  68
ATOM     68  C   UNL A   1      47.629  30.242  28.558  1.00  0.00     0.023 A 
ATOM     69  C   UNL A   1      48.149  30.724  27.341  1.00  0.00     0.012 A 
ATOM     70  C   UNL A   1      48.497  29.680  29.513  1.00  0.00     0.148 A 
ATOM     71  C   UNL A   1      49.516  30.643  27.075  1.00  0.00     0.002 A 
ATOM     72  C   UNL A   1      49.862  29.628  29.254  1.00  0.00     0.091 A 
ATOM     73  F   UNL A   1      47.974  29.221  30.659  1.00  0.00    -0.205 F 
ATOM     74  C   UNL A   1      50.372  30.107  28.035  1.00  0.00     0.022 A 
BRANCH  72  75
ATOM     75  S   UNL A   1      51.059  29.012  30.443  1.00  0.00     0.127 S 
ATOM     76  O   UNL A   1      51.139  30.129  31.384  1.00  0.00    -0.237 OA
ATOM     77  O   UNL A   1      50.388  27.822  30.964  1.00  0.00    -0.237 OA
ATOM     78  O   UNL A   1      52.278  28.750  29.692  1.00  0.00    -0.744 OA
ENDBRANCH  72  75
ENDBRANCH  54  68
BRANCH  55  79
ATOM     79  C   UNL A   1      37.915  31.446  30.518  1.00  0.00     0.023 A 
ATOM     80  C   UNL A   1      37.429  31.293  31.829  1.00  0.00     0.012 A 
ATOM     81  C   UNL A   1      37.037  31.857  29.496  1.00  0.00     0.148 A 
ATOM     82  C   UNL A   1      36.087  31.543  32.120  1.00  0.00     0.002 A 
ATOM     83  C   UNL A   1      35.714  32.147  29.801  1.00  0.00     0.091 A 
ATOM     84  F   UNL A   1      37.528  31.990  28.257  1.00  0.00    -0.205 F 
ATOM     85  C   UNL A   1      35.233  31.982  31.109  1.00  0.00     0.022 A 
BRANCH  83  86
ATOM     86  S   UNL A   1      34.571  32.829  28.595  1.00  0.00     0.127 S 
ATOM     87  O   UNL A   1      35.482  33.474  27.652  1.00  0.00    -0.237 OA
ATOM     88  O   UNL A   1      33.914  31.622  28.091  1.00  0.00    -0.237 OA
ATOM     89  O   UNL A   1      33.698  33.728  29.338  1.00  0.00    -0.744 OA
ENDBRANCH  83  86
ENDBRANCH  55  79
BRANCH  67  90
ATOM     90  C   UNL A   1      43.552  35.544  31.136  1.00  0.00     0.023 A 
ATOM     91  C   UNL A   1      43.901  35.741  32.486  1.00  0.00     0.012 A 
ATOM     92  C   UNL A   1      43.540  36.638  30.251  1.00  0.00     0.148 A 
ATOM     93  C   UNL A   1      44.236  37.012  32.949  1.00  0.00     0.002 A 
ATOM     94  C   UNL A   1      43.907  37.897  30.711  1.00  0.00     0.091 A 
ATOM     95  F   UNL A   1      43.197  36.421  28.973  1.00  0.00    -0.205 F 
ATOM     96  C   UNL A   1      44.251  38.085  32.061  1.00  0.00     0.022 A 
BRANCH  94  97
ATOM     97  S   UNL A   1      44.032  39.325  29.631  1.00  0.00     0.127 S 
ATOM     98  O   UNL A   1      44.435  40.372  30.568  1.00  0.00    -0.237 OA
ATOM     99  O   UNL A   1      45.074  38.911  28.692  1.00  0.00    -0.237 OA
ATOM    100  O   UNL A   1      42.713  39.502  29.038  1.00  0.00    -0.744 OA
ENDBRANCH  94  97
ENDBRANCH  67  90
ENDBRANCH  41  42
ENDBRANCH  33  36
ENDBRANCH  31  32
ENDBRANCH  30  31
ENDBRANCH  29  30
ENDBRANCH   1  29
TORSDOF 20
ENDMDL
