MODEL 1
REMARK VINA RESULT:     -12.7      0.000      0.000
REMARK SMILES O=C(NCCCCCCNC(=O)c1ccc(-c2c3nc(c(-c4cccc(S(=O)(=O)[O-])c4F)c4ccc([nH]4)c(-c4cccc(S(=O)(=O)[O-])c4F)c4nc(c(-c5cccc(S(=O)(=O)[O-])c5F)c5ccc2[nH]5)C=C4)C=C3)cc1)C1=Cc2cc(S(F)(F)(F)(F)F)ccc2O[C@H]1C(F)(F)F
REMARK SMILES IDX 7 1 6 2 5 3 4 4 3 5 1 6 2 7 76 9 77 10 91 11 78 12 90 13
REMARK SMILES IDX 79 14 89 15 80 16 88 17 87 18 92 19 93 20 94 21 95 22 81 23
REMARK SMILES IDX 82 24 83 25 84 26 85 27 86 28 8 29 9 30 10 31 11 32 12 34
REMARK SMILES IDX 13 35 14 36 75 37 15 38 74 39 16 40 17 41 18 42 68 43 19 44
REMARK SMILES IDX 73 45 67 46 69 47 20 48 72 49 66 50 65 51 21 53 53 54 33 55
REMARK SMILES IDX 52 56 34 57 37 58 51 59 70 60 35 61 36 62 50 64 71 65 38 66
REMARK SMILES IDX 22 67 23 68 31 69 24 70 26 71 32 72 25 73 27 74 28 75 29 76
REMARK SMILES IDX 30 77 54 78 55 79 63 80 56 81 58 82 64 83 57 84 59 85 60 86
REMARK SMILES IDX 61 87 62 88 39 89 40 90 48 91 41 92 43 93 49 94 42 95 44 96
REMARK SMILES IDX 45 97 46 98 47 99
REMARK H PARENT 3 8 10 33 69 52 37 63
REMARK Flexibility Score: inf
ROOT
ATOM      1  C   UNL A   1      37.405  21.145  24.571  1.00  0.00     0.002 C 
ENDROOT
BRANCH   1   2
ATOM      2  C   UNL A   1      37.386  22.104  25.749  1.00  0.00     0.002 C 
BRANCH   2   3
ATOM      3  C   UNL A   1      37.105  23.513  25.253  1.00  0.00     0.021 C 
BRANCH   3   4
ATOM      4  C   UNL A   1      35.605  23.709  25.107  1.00  0.00     0.116 C 
BRANCH   4   5
ATOM      5  N   UNL A   1      35.242  23.670  23.683  1.00  0.00    -0.352 N 
ATOM      6  O   UNL A   1      33.519  23.512  22.055  1.00  0.00    -0.270 OA
ATOM      7  C   UNL A   1      33.832  23.546  23.287  1.00  0.00     0.251 C 
ATOM      8  H   UNL A   1      35.943  23.726  22.994  1.00  0.00     0.163 HD
BRANCH   7   9
ATOM      9  C   UNL A   1      32.749  23.458  24.350  1.00  0.00     0.067 C 
ATOM     10  C   UNL A   1      32.355  24.578  25.014  1.00  0.00     0.025 C 
ATOM     11  C   UNL A   1      32.105  22.119  24.670  1.00  0.00     0.314 C 
ATOM     12  C   UNL A   1      33.000  25.917  24.693  1.00  0.00     0.019 A 
ATOM     13  O   UNL A   1      32.931  25.370  22.381  1.00  0.00    -0.475 OA
ATOM     14  C   UNL A   1      33.386  26.728  25.747  1.00  0.00     0.036 A 
ATOM     15  C   UNL A   1      33.189  26.289  23.433  1.00  0.00     0.128 A 
ATOM     16  C   UNL A   1      33.704  28.053  25.365  1.00  0.00     0.107 A 
ATOM     17  C   UNL A   1      33.632  27.556  23.137  1.00  0.00     0.048 A 
ATOM     18  C   UNL A   1      33.975  28.431  24.129  1.00  0.00     0.028 A 
BRANCH  11  19
ATOM     19  C   UNL A   1      32.719  21.039  23.794  1.00  0.00     0.429 C 
ATOM     20  F   UNL A   1      32.389  21.236  22.520  1.00  0.00    -0.167 F 
ATOM     21  F   UNL A   1      34.044  21.019  23.911  1.00  0.00    -0.167 F 
ATOM     22  F   UNL A   1      32.220  19.877  24.206  1.00  0.00    -0.167 F 
ENDBRANCH  11  19
BRANCH  16  23
ATOM     23  S   UNL A   1      33.742  29.318  26.660  1.00  0.00     0.310 S 
ATOM     24  F   UNL A   1      33.179  28.307  27.745  1.00  0.00    -0.094 F 
ATOM     25  F   UNL A   1      32.246  29.674  26.316  1.00  0.00    -0.094 F 
ATOM     26  F   UNL A   1      33.773  30.400  27.775  1.00  0.00    -0.094 F 
ATOM     27  F   UNL A   1      35.190  28.851  27.083  1.00  0.00    -0.094 F 
ATOM     28  F   UNL A   1      33.685  28.139  25.608  1.00  0.00    -0.094 F 
ENDBRANCH  16  23
ENDBRANCH   7   9
ENDBRANCH   4   5
ENDBRANCH   3   4
ENDBRANCH   2   3
ENDBRANCH   1   2
BRANCH   1  29
ATOM     29  C   UNL A   1      38.012  19.821  25.005  1.00  0.00     0.021 C 
BRANCH  29  30
ATOM     30  C   UNL A   1      39.186  20.082  25.933  1.00  0.00     0.116 C 
BRANCH  30  31
ATOM     31  N   UNL A   1      40.139  18.967  25.844  1.00  0.00    -0.352 N 
ATOM     32  C   UNL A   1      41.573  19.206  26.061  1.00  0.00     0.251 C 
ATOM     33  H   UNL A   1      39.818  18.059  25.638  1.00  0.00     0.163 HD
ATOM     34  O   UNL A   1      42.398  18.242  25.983  1.00  0.00    -0.269 OA
BRANCH  32  35
ATOM     35  C   UNL A   1      42.071  20.607  26.378  1.00  0.00     0.039 A 
ATOM     36  C   UNL A   1      42.147  21.018  27.699  1.00  0.00     0.014 A 
ATOM     37  C   UNL A   1      42.423  21.415  25.385  1.00  0.00     0.014 A 
ATOM     38  C   UNL A   1      42.336  22.410  27.856  1.00  0.00     0.010 A 
ATOM     39  C   UNL A   1      42.726  22.732  25.628  1.00  0.00     0.010 A 
ATOM     40  C   UNL A   1      42.764  23.220  26.905  1.00  0.00    -0.014 A 
BRANCH  40  41
ATOM     41  C   UNL A   1      43.269  24.620  27.212  1.00  0.00     0.031 A 
ATOM     42  C   UNL A   1      44.631  24.877  27.042  1.00  0.00     0.074 A 
ATOM     43  C   UNL A   1      42.351  25.563  27.642  1.00  0.00     0.049 A 
ATOM     44  N   UNL A   1      45.269  26.036  27.220  1.00  0.00    -0.248 NA
ATOM     45  C   UNL A   1      45.614  23.869  26.618  1.00  0.00     0.031 C 
ATOM     46  C   UNL A   1      40.975  25.314  27.808  1.00  0.00     0.029 A 
ATOM     47  N   UNL A   1      42.586  26.877  27.983  1.00  0.00    -0.354 N 
ATOM     48  C   UNL A   1      46.566  25.895  26.941  1.00  0.00     0.074 A 
ATOM     49  C   UNL A   1      46.808  24.498  26.556  1.00  0.00     0.031 C 
ATOM     50  C   UNL A   1      40.390  26.457  28.252  1.00  0.00     0.029 A 
ATOM     51  C   UNL A   1      41.390  27.441  28.371  1.00  0.00     0.049 A 
ATOM     52  H   UNL A   1      43.457  27.335  27.952  1.00  0.00     0.167 HD
ATOM     53  C   UNL A   1      47.557  26.877  26.992  1.00  0.00     0.034 A 
ATOM     54  C   UNL A   1      41.165  28.736  28.810  1.00  0.00     0.034 A 
ATOM     55  C   UNL A   1      47.324  28.184  27.389  1.00  0.00     0.049 A 
ATOM     56  C   UNL A   1      42.168  29.703  28.916  1.00  0.00     0.074 A 
ATOM     57  C   UNL A   1      48.310  29.188  27.438  1.00  0.00     0.029 A 
ATOM     58  N   UNL A   1      46.133  28.741  27.802  1.00  0.00    -0.354 N 
ATOM     59  N   UNL A   1      43.457  29.573  28.599  1.00  0.00    -0.248 NA
ATOM     60  C   UNL A   1      41.947  31.069  29.410  1.00  0.00     0.031 C 
ATOM     61  C   UNL A   1      47.724  30.333  27.882  1.00  0.00     0.029 A 
ATOM     62  C   UNL A   1      46.363  30.061  28.120  1.00  0.00     0.049 A 
ATOM     63  H   UNL A   1      45.268  28.275  27.859  1.00  0.00     0.167 HD
ATOM     64  C   UNL A   1      44.102  30.720  28.818  1.00  0.00     0.074 A 
ATOM     65  C   UNL A   1      43.142  31.697  29.350  1.00  0.00     0.031 C 
ATOM     66  C   UNL A   1      45.452  30.993  28.592  1.00  0.00     0.034 A 
BRANCH  53  67
ATOM     67  C   UNL A   1      48.971  26.491  26.589  1.00  0.00     0.023 A 
ATOM     68  C   UNL A   1      49.807  25.823  27.468  1.00  0.00     0.012 A 
ATOM     69  C   UNL A   1      49.393  26.865  25.386  1.00  0.00     0.148 A 
ATOM     70  C   UNL A   1      51.171  25.851  27.095  1.00  0.00     0.002 A 
ATOM     71  C   UNL A   1      50.716  26.737  25.039  1.00  0.00     0.091 A 
ATOM     72  F   UNL A   1      48.527  27.367  24.510  1.00  0.00    -0.205 F 
ATOM     73  C   UNL A   1      51.610  26.140  25.884  1.00  0.00     0.022 A 
BRANCH  71  74
ATOM     74  S   UNL A   1      51.284  27.368  23.440  1.00  0.00     0.127 S 
ATOM     75  O   UNL A   1      51.238  28.896  23.449  1.00  0.00    -0.237 OA
ATOM     76  O   UNL A   1      52.720  26.902  23.190  1.00  0.00    -0.237 OA
ATOM     77  O   UNL A   1      50.267  26.774  22.200  1.00  0.00    -0.744 OA
ENDBRANCH  71  74
ENDBRANCH  53  67
BRANCH  54  78
ATOM     78  C   UNL A   1      39.749  29.126  29.197  1.00  0.00     0.023 A 
ATOM     79  C   UNL A   1      38.877  29.461  28.174  1.00  0.00     0.012 A 
ATOM     80  C   UNL A   1      39.348  29.100  30.463  1.00  0.00     0.148 A 
ATOM     81  C   UNL A   1      37.664  30.039  28.621  1.00  0.00     0.002 A 
ATOM     82  C   UNL A   1      38.099  29.553  30.810  1.00  0.00     0.091 A 
ATOM     83  F   UNL A   1      40.164  28.629  31.402  1.00  0.00    -0.205 F 
ATOM     84  C   UNL A   1      37.206  29.956  29.857  1.00  0.00     0.022 A 
BRANCH  82  85
ATOM     85  S   UNL A   1      37.628  29.617  32.557  1.00  0.00     0.127 S 
ATOM     86  O   UNL A   1      36.305  30.375  32.701  1.00  0.00    -0.237 OA
ATOM     87  O   UNL A   1      37.462  28.194  33.094  1.00  0.00    -0.237 OA
ATOM     88  O   UNL A   1      38.846  30.424  33.447  1.00  0.00    -0.744 OA
ENDBRANCH  82  85
ENDBRANCH  54  78
BRANCH  66  89
ATOM     89  C   UNL A   1      45.955  32.398  28.883  1.00  0.00     0.023 A 
ATOM     90  C   UNL A   1      46.511  32.677  30.120  1.00  0.00     0.012 A 
ATOM     91  C   UNL A   1      45.853  33.334  27.946  1.00  0.00     0.148 A 
ATOM     92  C   UNL A   1      46.669  34.059  30.378  1.00  0.00     0.002 A 
ATOM     93  C   UNL A   1      46.155  34.644  28.231  1.00  0.00     0.091 A 
ATOM     94  F   UNL A   1      45.455  33.001  26.722  1.00  0.00    -0.205 F 
ATOM     95  C   UNL A   1      46.653  35.002  29.453  1.00  0.00     0.022 A 
BRANCH  93  96
ATOM     96  S   UNL A   1      45.889  35.915  26.970  1.00  0.00     0.127 S 
ATOM     97  O   UNL A   1      46.778  35.625  25.758  1.00  0.00    -0.237 OA
ATOM     98  O   UNL A   1      44.421  35.904  26.538  1.00  0.00    -0.237 OA
ATOM     99  O   UNL A   1      46.283  37.449  27.612  1.00  0.00    -0.744 OA
ENDBRANCH  93  96
ENDBRANCH  66  89
ENDBRANCH  40  41
ENDBRANCH  32  35
ENDBRANCH  30  31
ENDBRANCH  29  30
ENDBRANCH   1  29
TORSDOF 18
ENDMDL
MODEL 2
REMARK VINA RESULT:     -12.6      5.629     11.146
REMARK SMILES O=C(NCCCCCCNC(=O)c1ccc(-c2c3nc(c(-c4cccc(S(=O)(=O)[O-])c4F)c4ccc([nH]4)c(-c4cccc(S(=O)(=O)[O-])c4F)c4nc(c(-c5cccc(S(=O)(=O)[O-])c5F)c5ccc2[nH]5)C=C4)C=C3)cc1)C1=Cc2cc(S(F)(F)(F)(F)F)ccc2O[C@H]1C(F)(F)F
REMARK SMILES IDX 7 1 6 2 5 3 4 4 3 5 1 6 2 7 76 9 77 10 91 11 78 12 90 13
REMARK SMILES IDX 79 14 89 15 80 16 88 17 87 18 92 19 93 20 94 21 95 22 81 23
REMARK SMILES IDX 82 24 83 25 84 26 85 27 86 28 8 29 9 30 10 31 11 32 12 34
REMARK SMILES IDX 13 35 14 36 75 37 15 38 74 39 16 40 17 41 18 42 68 43 19 44
REMARK SMILES IDX 73 45 67 46 69 47 20 48 72 49 66 50 65 51 21 53 53 54 33 55
REMARK SMILES IDX 52 56 34 57 37 58 51 59 70 60 35 61 36 62 50 64 71 65 38 66
REMARK SMILES IDX 22 67 23 68 31 69 24 70 26 71 32 72 25 73 27 74 28 75 29 76
REMARK SMILES IDX 30 77 54 78 55 79 63 80 56 81 58 82 64 83 57 84 59 85 60 86
REMARK SMILES IDX 61 87 62 88 39 89 40 90 48 91 41 92 43 93 49 94 42 95 44 96
REMARK SMILES IDX 45 97 46 98 47 99
REMARK H PARENT 3 8 10 33 69 52 37 63
REMARK Flexibility Score: inf
ROOT
ATOM      1  C   UNL A   1      31.683  30.816  25.704  1.00  0.00     0.002 C 
ENDROOT
BRANCH   1   2
ATOM      2  C   UNL A   1      32.471  29.606  26.176  1.00  0.00     0.002 C 
BRANCH   2   3
ATOM      3  C   UNL A   1      31.759  28.964  27.355  1.00  0.00     0.021 C 
BRANCH   3   4
ATOM      4  C   UNL A   1      31.499  27.497  27.053  1.00  0.00     0.116 C 
BRANCH   4   5
ATOM      5  N   UNL A   1      32.607  26.959  26.250  1.00  0.00    -0.352 N 
ATOM      6  O   UNL A   1      33.323  25.389  24.617  1.00  0.00    -0.270 OA
ATOM      7  C   UNL A   1      32.365  25.855  25.312  1.00  0.00     0.251 C 
ATOM      8  H   UNL A   1      33.510  27.338  26.341  1.00  0.00     0.163 HD
BRANCH   7   9
ATOM      9  C   UNL A   1      30.969  25.268  25.170  1.00  0.00     0.067 C 
ATOM     10  C   UNL A   1      30.027  25.923  24.439  1.00  0.00     0.025 C 
ATOM     11  C   UNL A   1      30.626  23.951  25.847  1.00  0.00     0.314 C 
ATOM     12  C   UNL A   1      30.371  27.240  23.763  1.00  0.00     0.019 A 
ATOM     13  O   UNL A   1      32.483  26.344  23.143  1.00  0.00    -0.475 OA
ATOM     14  C   UNL A   1      29.469  28.286  23.868  1.00  0.00     0.036 A 
ATOM     15  C   UNL A   1      31.510  27.379  23.096  1.00  0.00     0.128 A 
ATOM     16  C   UNL A   1      29.729  29.359  22.984  1.00  0.00     0.107 A 
ATOM     17  C   UNL A   1      31.757  28.513  22.361  1.00  0.00     0.048 A 
ATOM     18  C   UNL A   1      30.881  29.562  22.371  1.00  0.00     0.028 A 
BRANCH  11  19
ATOM     19  C   UNL A   1      31.845  23.432  26.594  1.00  0.00     0.429 C 
ATOM     20  F   UNL A   1      31.497  22.439  27.408  1.00  0.00    -0.167 F 
ATOM     21  F   UNL A   1      32.781  23.006  25.749  1.00  0.00    -0.167 F 
ATOM     22  F   UNL A   1      32.322  24.446  27.309  1.00  0.00    -0.167 F 
ENDBRANCH  11  19
BRANCH  16  23
ATOM     23  S   UNL A   1      28.389  30.535  22.669  1.00  0.00     0.310 S 
ATOM     24  F   UNL A   1      27.354  29.668  23.500  1.00  0.00    -0.094 F 
ATOM     25  F   UNL A   1      27.980  29.688  21.405  1.00  0.00    -0.094 F 
ATOM     26  F   UNL A   1      27.236  31.543  22.402  1.00  0.00    -0.094 F 
ATOM     27  F   UNL A   1      28.726  31.290  24.015  1.00  0.00    -0.094 F 
ATOM     28  F   UNL A   1      29.491  29.456  23.015  1.00  0.00    -0.094 F 
ENDBRANCH  16  23
ENDBRANCH   7   9
ENDBRANCH   4   5
ENDBRANCH   3   4
ENDBRANCH   2   3
ENDBRANCH   1   2
BRANCH   1  29
ATOM     29  C   UNL A   1      31.421  31.740  26.883  1.00  0.00     0.021 C 
BRANCH  29  30
ATOM     30  C   UNL A   1      32.642  32.613  27.124  1.00  0.00     0.116 C 
BRANCH  30  31
ATOM     31  N   UNL A   1      32.212  33.983  27.433  1.00  0.00    -0.352 N 
ATOM     32  C   UNL A   1      32.941  34.775  28.434  1.00  0.00     0.251 C 
ATOM     33  H   UNL A   1      31.435  34.372  26.970  1.00  0.00     0.163 HD
ATOM     34  O   UNL A   1      32.569  35.960  28.703  1.00  0.00    -0.269 OA
BRANCH  32  35
ATOM     35  C   UNL A   1      34.141  34.175  29.150  1.00  0.00     0.039 A 
ATOM     36  C   UNL A   1      35.417  34.456  28.690  1.00  0.00     0.014 A 
ATOM     37  C   UNL A   1      33.946  33.390  30.204  1.00  0.00     0.014 A 
ATOM     38  C   UNL A   1      36.420  33.624  29.239  1.00  0.00     0.010 A 
ATOM     39  C   UNL A   1      34.996  32.712  30.774  1.00  0.00     0.010 A 
ATOM     40  C   UNL A   1      36.276  32.898  30.332  1.00  0.00    -0.014 A 
BRANCH  40  41
ATOM     41  C   UNL A   1      37.469  32.299  31.059  1.00  0.00     0.031 A 
ATOM     42  C   UNL A   1      37.836  32.857  32.285  1.00  0.00     0.074 A 
ATOM     43  C   UNL A   1      38.124  31.234  30.466  1.00  0.00     0.049 A 
ATOM     44  N   UNL A   1      38.821  32.463  33.095  1.00  0.00    -0.248 NA
ATOM     45  C   UNL A   1      37.163  34.010  32.901  1.00  0.00     0.031 C 
ATOM     46  C   UNL A   1      37.755  30.661  29.234  1.00  0.00     0.029 A 
ATOM     47  N   UNL A   1      39.223  30.550  30.936  1.00  0.00    -0.354 N 
ATOM     48  C   UNL A   1      38.852  33.230  34.188  1.00  0.00     0.074 A 
ATOM     49  C   UNL A   1      37.791  34.239  34.076  1.00  0.00     0.031 C 
ATOM     50  C   UNL A   1      38.624  29.653  28.960  1.00  0.00     0.029 A 
ATOM     51  C   UNL A   1      39.552  29.578  30.017  1.00  0.00     0.049 A 
ATOM     52  H   UNL A   1      39.692  30.723  31.785  1.00  0.00     0.167 HD
ATOM     53  C   UNL A   1      39.724  33.126  35.272  1.00  0.00     0.034 A 
ATOM     54  C   UNL A   1      40.598  28.672  30.076  1.00  0.00     0.034 A 
ATOM     55  C   UNL A   1      40.744  32.191  35.353  1.00  0.00     0.049 A 
ATOM     56  C   UNL A   1      41.507  28.605  31.135  1.00  0.00     0.074 A 
ATOM     57  C   UNL A   1      41.626  32.068  36.443  1.00  0.00     0.029 A 
ATOM     58  N   UNL A   1      41.088  31.236  34.421  1.00  0.00    -0.354 N 
ATOM     59  N   UNL A   1      41.513  29.345  32.245  1.00  0.00    -0.248 NA
ATOM     60  C   UNL A   1      42.638  27.671  31.194  1.00  0.00     0.031 C 
ATOM     61  C   UNL A   1      42.496  31.059  36.170  1.00  0.00     0.029 A 
ATOM     62  C   UNL A   1      42.172  30.536  34.903  1.00  0.00     0.049 A 
ATOM     63  H   UNL A   1      40.636  31.081  33.560  1.00  0.00     0.167 HD
ATOM     64  C   UNL A   1      42.525  28.980  33.035  1.00  0.00     0.074 A 
ATOM     65  C   UNL A   1      43.267  27.902  32.367  1.00  0.00     0.031 C 
ATOM     66  C   UNL A   1      42.855  29.498  34.288  1.00  0.00     0.034 A 
BRANCH  53  67
ATOM     67  C   UNL A   1      39.545  34.093  36.432  1.00  0.00     0.023 A 
ATOM     68  C   UNL A   1      39.998  35.399  36.349  1.00  0.00     0.012 A 
ATOM     69  C   UNL A   1      38.989  33.626  37.544  1.00  0.00     0.148 A 
ATOM     70  C   UNL A   1      40.085  36.056  37.599  1.00  0.00     0.002 A 
ATOM     71  C   UNL A   1      38.988  34.378  38.694  1.00  0.00     0.091 A 
ATOM     72  F   UNL A   1      38.428  32.420  37.545  1.00  0.00    -0.205 F 
ATOM     73  C   UNL A   1      39.475  35.656  38.699  1.00  0.00     0.022 A 
BRANCH  71  74
ATOM     74  S   UNL A   1      38.333  33.666  40.225  1.00  0.00     0.127 S 
ATOM     75  O   UNL A   1      38.346  34.727  41.326  1.00  0.00    -0.237 OA
ATOM     76  O   UNL A   1      36.898  33.190  39.992  1.00  0.00    -0.237 OA
ATOM     77  O   UNL A   1      39.305  32.341  40.697  1.00  0.00    -0.744 OA
ENDBRANCH  71  74
ENDBRANCH  53  67
BRANCH  54  78
ATOM     78  C   UNL A   1      40.767  27.694  28.925  1.00  0.00     0.023 A 
ATOM     79  C   UNL A   1      39.990  26.547  28.942  1.00  0.00     0.012 A 
ATOM     80  C   UNL A   1      41.591  27.953  27.917  1.00  0.00     0.148 A 
ATOM     81  C   UNL A   1      40.371  25.583  27.978  1.00  0.00     0.002 A 
ATOM     82  C   UNL A   1      41.812  27.017  26.936  1.00  0.00     0.091 A 
ATOM     83  F   UNL A   1      42.208  29.129  27.855  1.00  0.00    -0.205 F 
ATOM     84  C   UNL A   1      41.124  25.836  26.923  1.00  0.00     0.022 A 
BRANCH  82  85
ATOM     85  S   UNL A   1      43.033  27.351  25.642  1.00  0.00     0.127 S 
ATOM     86  O   UNL A   1      42.408  28.247  24.570  1.00  0.00    -0.237 OA
ATOM     87  O   UNL A   1      44.245  28.056  26.254  1.00  0.00    -0.237 OA
ATOM     88  O   UNL A   1      43.530  25.875  24.932  1.00  0.00    -0.744 OA
ENDBRANCH  82  85
ENDBRANCH  54  78
BRANCH  66  89
ATOM     89  C   UNL A   1      44.038  28.889  35.023  1.00  0.00     0.023 A 
ATOM     90  C   UNL A   1      45.314  29.358  34.763  1.00  0.00     0.012 A 
ATOM     91  C   UNL A   1      43.828  27.916  35.904  1.00  0.00     0.148 A 
ATOM     92  C   UNL A   1      46.344  28.533  35.274  1.00  0.00     0.002 A 
ATOM     93  C   UNL A   1      44.884  27.243  36.468  1.00  0.00     0.091 A 
ATOM     94  F   UNL A   1      42.583  27.592  36.242  1.00  0.00    -0.205 F 
ATOM     95  C   UNL A   1      46.174  27.615  36.208  1.00  0.00     0.022 A 
BRANCH  93  96
ATOM     96  S   UNL A   1      44.564  25.843  37.569  1.00  0.00     0.127 S 
ATOM     97  O   UNL A   1      43.741  24.788  36.826  1.00  0.00    -0.237 OA
ATOM     98  O   UNL A   1      45.893  25.231  38.016  1.00  0.00    -0.237 OA
ATOM     99  O   UNL A   1      43.696  26.382  38.940  1.00  0.00    -0.744 OA
ENDBRANCH  93  96
ENDBRANCH  66  89
ENDBRANCH  40  41
ENDBRANCH  32  35
ENDBRANCH  30  31
ENDBRANCH  29  30
ENDBRANCH   1  29
TORSDOF 18
ENDMDL
MODEL 3
REMARK VINA RESULT:     -12.5      5.625     11.249
REMARK SMILES O=C(NCCCCCCNC(=O)c1ccc(-c2c3nc(c(-c4cccc(S(=O)(=O)[O-])c4F)c4ccc([nH]4)c(-c4cccc(S(=O)(=O)[O-])c4F)c4nc(c(-c5cccc(S(=O)(=O)[O-])c5F)c5ccc2[nH]5)C=C4)C=C3)cc1)C1=Cc2cc(S(F)(F)(F)(F)F)ccc2O[C@H]1C(F)(F)F
REMARK SMILES IDX 7 1 6 2 5 3 4 4 3 5 1 6 2 7 76 9 77 10 91 11 78 12 90 13
REMARK SMILES IDX 79 14 89 15 80 16 88 17 87 18 92 19 93 20 94 21 95 22 81 23
REMARK SMILES IDX 82 24 83 25 84 26 85 27 86 28 8 29 9 30 10 31 11 32 12 34
REMARK SMILES IDX 13 35 14 36 75 37 15 38 74 39 16 40 17 41 18 42 68 43 19 44
REMARK SMILES IDX 73 45 67 46 69 47 20 48 72 49 66 50 65 51 21 53 53 54 33 55
REMARK SMILES IDX 52 56 34 57 37 58 51 59 70 60 35 61 36 62 50 64 71 65 38 66
REMARK SMILES IDX 22 67 23 68 31 69 24 70 26 71 32 72 25 73 27 74 28 75 29 76
REMARK SMILES IDX 30 77 54 78 55 79 63 80 56 81 58 82 64 83 57 84 59 85 60 86
REMARK SMILES IDX 61 87 62 88 39 89 40 90 48 91 41 92 43 93 49 94 42 95 44 96
REMARK SMILES IDX 45 97 46 98 47 99
REMARK H PARENT 3 8 10 33 69 52 37 63
REMARK Flexibility Score: inf
ROOT
ATOM      1  C   UNL A   1      31.649  30.651  26.546  1.00  0.00     0.002 C 
ENDROOT
BRANCH   1   2
ATOM      2  C   UNL A   1      33.136  30.344  26.599  1.00  0.00     0.002 C 
BRANCH   2   3
ATOM      3  C   UNL A   1      33.339  28.873  26.918  1.00  0.00     0.021 C 
BRANCH   3   4
ATOM      4  C   UNL A   1      32.889  28.031  25.736  1.00  0.00     0.116 C 
BRANCH   4   5
ATOM      5  N   UNL A   1      31.640  27.334  26.078  1.00  0.00    -0.352 N 
ATOM      6  O   UNL A   1      29.845  25.960  25.348  1.00  0.00    -0.270 OA
ATOM      7  C   UNL A   1      30.924  26.562  25.052  1.00  0.00     0.251 C 
ATOM      8  H   UNL A   1      31.283  27.384  26.994  1.00  0.00     0.163 HD
BRANCH   7   9
ATOM      9  C   UNL A   1      31.475  26.485  23.637  1.00  0.00     0.067 C 
ATOM     10  C   UNL A   1      32.530  25.672  23.362  1.00  0.00     0.025 C 
ATOM     11  C   UNL A   1      30.846  27.315  22.530  1.00  0.00     0.314 C 
ATOM     12  C   UNL A   1      33.159  24.841  24.469  1.00  0.00     0.019 A 
ATOM     13  O   UNL A   1      30.987  24.351  25.302  1.00  0.00    -0.475 OA
ATOM     14  C   UNL A   1      34.540  24.811  24.562  1.00  0.00     0.036 A 
ATOM     15  C   UNL A   1      32.396  24.171  25.324  1.00  0.00     0.128 A 
ATOM     16  C   UNL A   1      35.035  23.803  25.423  1.00  0.00     0.107 A 
ATOM     17  C   UNL A   1      32.957  23.303  26.230  1.00  0.00     0.048 A 
ATOM     18  C   UNL A   1      34.314  23.178  26.337  1.00  0.00     0.028 A 
BRANCH  11  19
ATOM     19  C   UNL A   1      29.694  28.129  23.098  1.00  0.00     0.429 C 
ATOM     20  F   UNL A   1      28.708  27.324  23.483  1.00  0.00    -0.167 F 
ATOM     21  F   UNL A   1      30.091  28.869  24.130  1.00  0.00    -0.167 F 
ATOM     22  F   UNL A   1      29.263  28.923  22.123  1.00  0.00    -0.167 F 
ENDBRANCH  11  19
BRANCH  16  23
ATOM     23  S   UNL A   1      36.777  23.336  25.261  1.00  0.00     0.310 S 
ATOM     24  F   UNL A   1      36.586  22.071  26.197  1.00  0.00    -0.094 F 
ATOM     25  F   UNL A   1      37.091  24.166  26.562  1.00  0.00    -0.094 F 
ATOM     26  F   UNL A   1      38.271  22.932  25.123  1.00  0.00    -0.094 F 
ATOM     27  F   UNL A   1      36.418  22.398  24.041  1.00  0.00    -0.094 F 
ATOM     28  F   UNL A   1      35.239  23.647  25.455  1.00  0.00    -0.094 F 
ENDBRANCH  16  23
ENDBRANCH   7   9
ENDBRANCH   4   5
ENDBRANCH   3   4
ENDBRANCH   2   3
ENDBRANCH   1   2
BRANCH   1  29
ATOM     29  C   UNL A   1      31.444  32.157  26.511  1.00  0.00     0.021 C 
BRANCH  29  30
ATOM     30  C   UNL A   1      32.585  32.841  27.246  1.00  0.00     0.116 C 
BRANCH  30  31
ATOM     31  N   UNL A   1      32.191  34.214  27.593  1.00  0.00    -0.352 N 
ATOM     32  C   UNL A   1      32.958  34.968  28.595  1.00  0.00     0.251 C 
ATOM     33  H   UNL A   1      31.413  34.630  27.155  1.00  0.00     0.163 HD
ATOM     34  O   UNL A   1      32.617  36.154  28.897  1.00  0.00    -0.269 OA
BRANCH  32  35
ATOM     35  C   UNL A   1      34.159  34.327  29.273  1.00  0.00     0.039 A 
ATOM     36  C   UNL A   1      35.427  34.555  28.765  1.00  0.00     0.014 A 
ATOM     37  C   UNL A   1      33.972  33.558  30.340  1.00  0.00     0.014 A 
ATOM     38  C   UNL A   1      36.416  33.688  29.284  1.00  0.00     0.010 A 
ATOM     39  C   UNL A   1      35.014  32.843  30.878  1.00  0.00     0.010 A 
ATOM     40  C   UNL A   1      36.284  32.976  30.388  1.00  0.00    -0.014 A 
BRANCH  40  41
ATOM     41  C   UNL A   1      37.479  32.336  31.077  1.00  0.00     0.031 A 
ATOM     42  C   UNL A   1      37.909  32.887  32.286  1.00  0.00     0.074 A 
ATOM     43  C   UNL A   1      38.071  31.244  30.469  1.00  0.00     0.049 A 
ATOM     44  N   UNL A   1      38.907  32.461  33.064  1.00  0.00    -0.248 NA
ATOM     45  C   UNL A   1      37.303  34.068  32.917  1.00  0.00     0.031 C 
ATOM     46  C   UNL A   1      37.637  30.677  29.255  1.00  0.00     0.029 A 
ATOM     47  N   UNL A   1      39.160  30.520  30.906  1.00  0.00    -0.354 N 
ATOM     48  C   UNL A   1      39.006  33.233  34.149  1.00  0.00     0.074 A 
ATOM     49  C   UNL A   1      37.980  34.280  34.067  1.00  0.00     0.031 C 
ATOM     50  C   UNL A   1      38.457  29.636  28.958  1.00  0.00     0.029 A 
ATOM     51  C   UNL A   1      39.418  29.532  29.982  1.00  0.00     0.049 A 
ATOM     52  H   UNL A   1      39.664  30.681  31.736  1.00  0.00     0.167 HD
ATOM     53  C   UNL A   1      39.911  33.102  35.203  1.00  0.00     0.034 A 
ATOM     54  C   UNL A   1      40.431  28.587  30.011  1.00  0.00     0.034 A 
ATOM     55  C   UNL A   1      40.897  32.129  35.254  1.00  0.00     0.049 A 
ATOM     56  C   UNL A   1      41.373  28.491  31.038  1.00  0.00     0.074 A 
ATOM     57  C   UNL A   1      41.812  31.979  36.313  1.00  0.00     0.029 A 
ATOM     58  N   UNL A   1      41.171  31.156  34.318  1.00  0.00    -0.354 N 
ATOM     59  N   UNL A   1      41.447  29.237  32.142  1.00  0.00    -0.248 NA
ATOM     60  C   UNL A   1      42.470  27.515  31.064  1.00  0.00     0.031 C 
ATOM     61  C   UNL A   1      42.633  30.935  36.017  1.00  0.00     0.029 A 
ATOM     62  C   UNL A   1      42.245  30.418  34.766  1.00  0.00     0.049 A 
ATOM     63  H   UNL A   1      40.684  31.013  33.474  1.00  0.00     0.167 HD
ATOM     64  C   UNL A   1      42.471  28.838  32.898  1.00  0.00     0.074 A 
ATOM     65  C   UNL A   1      43.148  27.729  32.213  1.00  0.00     0.031 C 
ATOM     66  C   UNL A   1      42.865  29.351  34.135  1.00  0.00     0.034 A 
BRANCH  53  67
ATOM     67  C   UNL A   1      39.810  34.082  36.361  1.00  0.00     0.023 A 
ATOM     68  C   UNL A   1      40.344  35.356  36.266  1.00  0.00     0.012 A 
ATOM     69  C   UNL A   1      39.241  33.654  37.483  1.00  0.00     0.148 A 
ATOM     70  C   UNL A   1      40.489  36.010  37.513  1.00  0.00     0.002 A 
ATOM     71  C   UNL A   1      39.304  34.408  38.629  1.00  0.00     0.091 A 
ATOM     72  F   UNL A   1      38.605  32.486  37.496  1.00  0.00    -0.205 F 
ATOM     73  C   UNL A   1      39.871  35.653  38.622  1.00  0.00     0.022 A 
BRANCH  71  74
ATOM     74  S   UNL A   1      38.627  33.744  40.172  1.00  0.00     0.127 S 
ATOM     75  O   UNL A   1      38.733  34.802  41.271  1.00  0.00    -0.237 OA
ATOM     76  O   UNL A   1      37.158  33.370  39.963  1.00  0.00    -0.237 OA
ATOM     77  O   UNL A   1      39.511  32.354  40.629  1.00  0.00    -0.744 OA
ENDBRANCH  71  74
ENDBRANCH  53  67
BRANCH  54  78
ATOM     78  C   UNL A   1      40.521  27.597  28.862  1.00  0.00     0.023 A 
ATOM     79  C   UNL A   1      39.668  26.505  28.890  1.00  0.00     0.012 A 
ATOM     80  C   UNL A   1      41.352  27.796  27.845  1.00  0.00     0.148 A 
ATOM     81  C   UNL A   1      39.973  25.514  27.927  1.00  0.00     0.002 A 
ATOM     82  C   UNL A   1      41.499  26.843  26.866  1.00  0.00     0.091 A 
ATOM     83  F   UNL A   1      42.047  28.927  27.774  1.00  0.00    -0.205 F 
ATOM     84  C   UNL A   1      40.731  25.712  26.863  1.00  0.00     0.022 A 
BRANCH  82  85
ATOM     85  S   UNL A   1      42.727  27.090  25.559  1.00  0.00     0.127 S 
ATOM     86  O   UNL A   1      42.827  25.822  24.707  1.00  0.00    -0.237 OA
ATOM     87  O   UNL A   1      42.304  28.266  24.677  1.00  0.00    -0.237 OA
ATOM     88  O   UNL A   1      44.250  27.424  26.264  1.00  0.00    -0.744 OA
ENDBRANCH  82  85
ENDBRANCH  54  78
BRANCH  66  89
ATOM     89  C   UNL A   1      44.049  28.702  34.833  1.00  0.00     0.023 A 
ATOM     90  C   UNL A   1      45.335  29.070  34.474  1.00  0.00     0.012 A 
ATOM     91  C   UNL A   1      43.832  27.791  35.776  1.00  0.00     0.148 A 
ATOM     92  C   UNL A   1      46.339  28.205  34.969  1.00  0.00     0.002 A 
ATOM     93  C   UNL A   1      44.876  27.077  36.313  1.00  0.00     0.091 A 
ATOM     94  F   UNL A   1      42.593  27.569  36.203  1.00  0.00    -0.205 F 
ATOM     95  C   UNL A   1      46.169  27.348  35.959  1.00  0.00     0.022 A 
BRANCH  93  96
ATOM     96  S   UNL A   1      44.534  25.760  37.506  1.00  0.00     0.127 S 
ATOM     97  O   UNL A   1      43.596  24.729  36.872  1.00  0.00    -0.237 OA
ATOM     98  O   UNL A   1      45.846  25.078  37.902  1.00  0.00    -0.237 OA
ATOM     99  O   UNL A   1      43.795  26.425  38.896  1.00  0.00    -0.744 OA
ENDBRANCH  93  96
ENDBRANCH  66  89
ENDBRANCH  40  41
ENDBRANCH  32  35
ENDBRANCH  30  31
ENDBRANCH  29  30
ENDBRANCH   1  29
TORSDOF 18
ENDMDL
