MODEL 1
REMARK VINA RESULT:     -12.1      0.000      0.000
REMARK SMILES CCN1C(=O)[C@H](CC(=O)Nc2ccc(C(=O)NCCCCCCNC(=O)c3ccc(-c4c5nc(c(-c6cccc(S(=O)(=O)[O-])c6F)c6ccc([nH]6)c(-c6cccc(S(=O)(=O)[O-])c6F)c6nc(c(-c7cccc(S(=O)(=O)[O-])c7F)c7ccc4[nH]7)C=C6)C=C5)cc3)cc2)S/C1=[NH+]\c1ccc(Cl)cc1
REMARK SMILES IDX 20 1 19 2 18 3 17 4 15 5 16 6 14 8 11 9 12 10 91 11 13 12
REMARK SMILES IDX 90 13 10 14 8 15 9 16 7 18 6 19 3 20 4 21 93 22 5 23 92 24
REMARK SMILES IDX 94 25 2 27 1 28 95 29 96 30 101 31 97 32 100 33 98 34 99 35
REMARK SMILES IDX 21 36 22 37 23 38 24 39 25 40 26 42 27 43 28 44 89 45 29 46
REMARK SMILES IDX 88 47 30 48 31 49 32 50 82 51 33 52 87 53 81 54 83 55 34 56
REMARK SMILES IDX 86 57 80 58 79 59 35 61 67 62 47 63 66 64 48 65 51 66 65 67
REMARK SMILES IDX 84 68 49 69 50 70 64 72 85 73 52 74 36 75 37 76 45 77 38 78
REMARK SMILES IDX 40 79 46 80 39 81 41 82 42 83 43 84 44 85 68 86 69 87 77 88
REMARK SMILES IDX 70 89 72 90 78 91 71 92 73 93 74 94 75 95 76 96 53 97 54 98
REMARK SMILES IDX 62 99 55 100 57 101 63 102 56 103 58 104 59 105 60 106
REMARK SMILES IDX 61 107
REMARK H PARENT 17 7 10 17 94 26 24 41 83 60 51 71
REMARK Flexibility Score: inf
ROOT
ATOM      1  C   UNL A   1      34.193  28.178  25.505  1.00  0.00     0.002 C 
ENDROOT
BRANCH   1   2
ATOM      2  C   UNL A   1      33.865  29.218  24.430  1.00  0.00     0.021 C 
BRANCH   2   3
ATOM      3  C   UNL A   1      33.674  28.653  23.013  1.00  0.00     0.116 C 
BRANCH   3   4
ATOM      4  N   UNL A   1      32.409  29.050  22.409  1.00  0.00    -0.352 N 
ATOM      5  C   UNL A   1      31.090  28.795  22.701  1.00  0.00     0.251 C 
ATOM      6  O   UNL A   1      30.238  29.288  21.958  1.00  0.00    -0.269 OA
ATOM      7  H   UNL A   1      32.524  29.627  21.619  1.00  0.00     0.163 HD
BRANCH   5   8
ATOM      8  C   UNL A   1      30.630  27.900  23.800  1.00  0.00     0.039 A 
ATOM      9  C   UNL A   1      29.863  25.920  25.685  1.00  0.00     0.041 A 
ATOM     10  C   UNL A   1      29.311  25.941  24.398  1.00  0.00     0.027 A 
ATOM     11  C   UNL A   1      30.652  27.003  26.066  1.00  0.00     0.027 A 
ATOM     12  C   UNL A   1      29.698  26.909  23.464  1.00  0.00     0.016 A 
ATOM     13  C   UNL A   1      31.024  27.993  25.133  1.00  0.00     0.016 A 
BRANCH   9  14
ATOM     14  N   UNL A   1      29.608  24.757  26.434  1.00  0.00    -0.326 N 
ATOM     15  C   UNL A   1      30.317  23.659  26.814  1.00  0.00     0.226 C 
ATOM     16  O   UNL A   1      29.697  22.776  27.419  1.00  0.00    -0.275 OA
ATOM     17  H   UNL A   1      28.682  24.732  26.770  1.00  0.00     0.169 HD
BRANCH  15  18
ATOM     18  C   UNL A   1      31.783  23.463  26.531  1.00  0.00     0.128 C 
BRANCH  18  19
ATOM     19  C   UNL A   1      32.121  22.990  25.120  1.00  0.00     0.183 C 
ATOM     20  N   UNL A   1      34.367  22.417  24.498  1.00  0.00    -0.190 N 
ATOM     21  C   UNL A   1      33.452  23.446  24.566  1.00  0.00     0.324 C 
ATOM     22  C   UNL A   1      33.880  21.141  24.697  1.00  0.00     0.319 C 
ATOM     23  O   UNL A   1      33.655  24.606  24.225  1.00  0.00    -0.245 OA
ATOM     24  S   UNL A   1      32.181  21.179  25.078  1.00  0.00    -0.022 SA
ATOM     25  N   UNL A   1      34.637  20.093  24.614  1.00  0.00    -0.235 N 
ATOM     26  H   UNL A   1      35.605  20.206  24.474  1.00  0.00     0.313 HD
BRANCH  20  27
ATOM     27  C   UNL A   1      35.755  22.610  24.100  1.00  0.00     0.243 C 
ATOM     28  C   UNL A   1      36.794  22.916  25.166  1.00  0.00     0.054 C 
ENDBRANCH  20  27
BRANCH  25  29
ATOM     29  C   UNL A   1      34.103  18.794  24.718  1.00  0.00     0.125 A 
ATOM     30  C   UNL A   1      33.001  18.546  25.543  1.00  0.00     0.053 A 
ATOM     31  C   UNL A   1      34.730  17.708  24.090  1.00  0.00     0.053 A 
ATOM     32  C   UNL A   1      32.526  17.239  25.723  1.00  0.00     0.025 A 
ATOM     33  C   UNL A   1      34.247  16.405  24.250  1.00  0.00     0.025 A 
ATOM     34  C   UNL A   1      33.153  16.174  25.077  1.00  0.00     0.041 A 
ATOM     35  Cl  UNL A   1      32.599  14.568  25.349  1.00  0.00    -0.084 Cl
ENDBRANCH  25  29
ENDBRANCH  18  19
ENDBRANCH  15  18
ENDBRANCH   9  14
ENDBRANCH   5   8
ENDBRANCH   3   4
ENDBRANCH   2   3
ENDBRANCH   1   2
BRANCH   1  36
ATOM     36  C   UNL A   1      34.292  28.727  26.935  1.00  0.00     0.002 C 
BRANCH  36  37
ATOM     37  C   UNL A   1      33.631  30.089  27.179  1.00  0.00     0.021 C 
BRANCH  37  38
ATOM     38  C   UNL A   1      34.591  31.274  27.283  1.00  0.00     0.116 C 
BRANCH  38  39
ATOM     39  N   UNL A   1      34.288  32.122  28.428  1.00  0.00    -0.352 N 
ATOM     40  C   UNL A   1      34.853  32.155  29.679  1.00  0.00     0.251 C 
ATOM     41  H   UNL A   1      33.565  32.774  28.282  1.00  0.00     0.163 HD
ATOM     42  O   UNL A   1      34.300  32.775  30.583  1.00  0.00    -0.269 OA
BRANCH  40  43
ATOM     43  C   UNL A   1      36.127  31.449  29.943  1.00  0.00     0.039 A 
ATOM     44  C   UNL A   1      37.332  32.058  29.581  1.00  0.00     0.014 A 
ATOM     45  C   UNL A   1      36.130  30.172  30.511  1.00  0.00     0.014 A 
ATOM     46  C   UNL A   1      38.544  31.415  29.848  1.00  0.00     0.010 A 
ATOM     47  C   UNL A   1      37.340  29.562  30.837  1.00  0.00     0.010 A 
ATOM     48  C   UNL A   1      38.558  30.175  30.509  1.00  0.00    -0.014 A 
BRANCH  48  49
ATOM     49  C   UNL A   1      39.832  29.514  30.894  1.00  0.00     0.031 A 
ATOM     50  C   UNL A   1      40.592  29.976  32.108  1.00  0.00     0.074 A 
ATOM     51  C   UNL A   1      40.357  28.570  30.088  1.00  0.00     0.049 A 
ATOM     52  N   UNL A   1      41.763  29.589  32.545  1.00  0.00    -0.248 NA
ATOM     53  C   UNL A   1      39.967  31.030  32.925  1.00  0.00     0.031 C 
ATOM     54  C   UNL A   1      39.753  28.088  28.845  1.00  0.00     0.029 A 
ATOM     55  N   UNL A   1      41.536  27.872  30.176  1.00  0.00    -0.354 N 
ATOM     56  C   UNL A   1      42.032  30.375  33.659  1.00  0.00     0.074 A 
ATOM     57  C   UNL A   1      40.915  31.281  33.816  1.00  0.00     0.031 C 
ATOM     58  C   UNL A   1      40.565  27.178  28.285  1.00  0.00     0.029 A 
ATOM     59  C   UNL A   1      41.762  27.036  29.107  1.00  0.00     0.049 A 
ATOM     60  H   UNL A   1      42.161  27.961  30.933  1.00  0.00     0.167 HD
ATOM     61  C   UNL A   1      43.102  30.332  34.491  1.00  0.00     0.034 A 
ATOM     62  C   UNL A   1      42.821  26.255  28.813  1.00  0.00     0.034 A 
ATOM     63  C   UNL A   1      44.191  29.403  34.354  1.00  0.00     0.049 A 
ATOM     64  C   UNL A   1      43.982  26.205  29.769  1.00  0.00     0.074 A 
ATOM     65  C   UNL A   1      45.274  29.218  35.195  1.00  0.00     0.029 A 
ATOM     66  N   UNL A   1      44.344  28.510  33.304  1.00  0.00    -0.354 N 
ATOM     67  N   UNL A   1      44.147  26.844  30.901  1.00  0.00    -0.248 NA
ATOM     68  C   UNL A   1      45.089  25.302  29.423  1.00  0.00     0.031 C 
ATOM     69  C   UNL A   1      46.097  28.233  34.639  1.00  0.00     0.029 A 
ATOM     70  C   UNL A   1      45.510  27.782  33.468  1.00  0.00     0.049 A 
ATOM     71  H   UNL A   1      43.716  28.409  32.553  1.00  0.00     0.167 HD
ATOM     72  C   UNL A   1      45.356  26.396  31.420  1.00  0.00     0.074 A 
ATOM     73  C   UNL A   1      45.874  25.416  30.486  1.00  0.00     0.031 C 
ATOM     74  C   UNL A   1      45.990  26.773  32.558  1.00  0.00     0.034 A 
BRANCH  61  75
ATOM     75  C   UNL A   1      43.126  31.288  35.655  1.00  0.00     0.023 A 
ATOM     76  C   UNL A   1      42.604  30.882  36.901  1.00  0.00     0.012 A 
ATOM     77  C   UNL A   1      43.720  32.560  35.538  1.00  0.00     0.148 A 
ATOM     78  C   UNL A   1      42.640  31.737  38.001  1.00  0.00     0.002 A 
ATOM     79  C   UNL A   1      43.792  33.390  36.651  1.00  0.00     0.091 A 
ATOM     80  F   UNL A   1      44.193  32.937  34.343  1.00  0.00    -0.205 F 
ATOM     81  C   UNL A   1      43.242  32.986  37.879  1.00  0.00     0.022 A 
BRANCH  79  82
ATOM     82  S   UNL A   1      44.618  34.985  36.620  1.00  0.00     0.127 S 
ATOM     83  O   UNL A   1      44.805  35.249  38.045  1.00  0.00    -0.237 OA
ATOM     84  O   UNL A   1      45.849  34.681  35.889  1.00  0.00    -0.237 OA
ATOM     85  O   UNL A   1      43.712  35.894  35.930  1.00  0.00    -0.744 OA
ENDBRANCH  79  82
ENDBRANCH  61  75
BRANCH  62  86
ATOM     86  C   UNL A   1      42.807  25.422  27.578  1.00  0.00     0.023 A 
ATOM     87  C   UNL A   1      43.344  25.941  26.386  1.00  0.00     0.012 A 
ATOM     88  C   UNL A   1      42.292  24.111  27.588  1.00  0.00     0.148 A 
ATOM     89  C   UNL A   1      43.342  25.181  25.215  1.00  0.00     0.002 A 
ATOM     90  C   UNL A   1      42.343  23.339  26.433  1.00  0.00     0.091 A 
ATOM     91  F   UNL A   1      41.770  23.640  28.729  1.00  0.00    -0.205 F 
ATOM     92  C   UNL A   1      42.853  23.877  25.240  1.00  0.00     0.022 A 
BRANCH  90  93
ATOM     93  S   UNL A   1      41.849  21.612  26.422  1.00  0.00     0.127 S 
ATOM     94  O   UNL A   1      40.426  21.710  26.115  1.00  0.00    -0.237 OA
ATOM     95  O   UNL A   1      42.675  21.062  25.346  1.00  0.00    -0.237 OA
ATOM     96  O   UNL A   1      42.182  21.109  27.750  1.00  0.00    -0.744 OA
ENDBRANCH  90  93
ENDBRANCH  62  86
BRANCH  74  97
ATOM     97  C   UNL A   1      47.299  26.104  32.888  1.00  0.00     0.023 A 
ATOM     98  C   UNL A   1      48.509  26.681  32.457  1.00  0.00     0.012 A 
ATOM     99  C   UNL A   1      47.331  24.952  33.698  1.00  0.00     0.148 A 
ATOM    100  C   UNL A   1      49.732  26.106  32.803  1.00  0.00     0.002 A 
ATOM    101  C   UNL A   1      48.553  24.413  34.081  1.00  0.00     0.091 A 
ATOM    102  F   UNL A   1      46.168  24.408  34.084  1.00  0.00    -0.205 F 
ATOM    103  C   UNL A   1      49.754  24.981  33.624  1.00  0.00     0.022 A 
BRANCH 101 104
ATOM    104  S   UNL A   1      48.685  23.027  35.215  1.00  0.00     0.127 S 
ATOM    105  O   UNL A   1      49.989  23.267  35.831  1.00  0.00    -0.237 OA
ATOM    106  O   UNL A   1      47.541  23.242  36.102  1.00  0.00    -0.237 OA
ATOM    107  O   UNL A   1      48.596  21.825  34.394  1.00  0.00    -0.744 OA
ENDBRANCH 101 104
ENDBRANCH  74  97
ENDBRANCH  48  49
ENDBRANCH  40  43
ENDBRANCH  38  39
ENDBRANCH  37  38
ENDBRANCH  36  37
ENDBRANCH   1  36
TORSDOF 21
ENDMDL
MODEL 2
REMARK VINA RESULT:     -11.8      1.419      7.237
REMARK SMILES CCN1C(=O)[C@H](CC(=O)Nc2ccc(C(=O)NCCCCCCNC(=O)c3ccc(-c4c5nc(c(-c6cccc(S(=O)(=O)[O-])c6F)c6ccc([nH]6)c(-c6cccc(S(=O)(=O)[O-])c6F)c6nc(c(-c7cccc(S(=O)(=O)[O-])c7F)c7ccc4[nH]7)C=C6)C=C5)cc3)cc2)S/C1=[NH+]\c1ccc(Cl)cc1
REMARK SMILES IDX 20 1 19 2 18 3 17 4 15 5 16 6 14 8 11 9 12 10 91 11 13 12
REMARK SMILES IDX 90 13 10 14 8 15 9 16 7 18 6 19 3 20 4 21 93 22 5 23 92 24
REMARK SMILES IDX 94 25 2 27 1 28 95 29 96 30 101 31 97 32 100 33 98 34 99 35
REMARK SMILES IDX 21 36 22 37 23 38 24 39 25 40 26 42 27 43 28 44 89 45 29 46
REMARK SMILES IDX 88 47 30 48 31 49 32 50 82 51 33 52 87 53 81 54 83 55 34 56
REMARK SMILES IDX 86 57 80 58 79 59 35 61 67 62 47 63 66 64 48 65 51 66 65 67
REMARK SMILES IDX 84 68 49 69 50 70 64 72 85 73 52 74 36 75 37 76 45 77 38 78
REMARK SMILES IDX 40 79 46 80 39 81 41 82 42 83 43 84 44 85 68 86 69 87 77 88
REMARK SMILES IDX 70 89 72 90 78 91 71 92 73 93 74 94 75 95 76 96 53 97 54 98
REMARK SMILES IDX 62 99 55 100 57 101 63 102 56 103 58 104 59 105 60 106
REMARK SMILES IDX 61 107
REMARK H PARENT 17 7 10 17 94 26 24 41 83 60 51 71
REMARK Flexibility Score: inf
ROOT
ATOM      1  C   UNL A   1      34.056  27.744  25.128  1.00  0.00     0.002 C 
ENDROOT
BRANCH   1   2
ATOM      2  C   UNL A   1      34.009  28.892  24.115  1.00  0.00     0.021 C 
BRANCH   2   3
ATOM      3  C   UNL A   1      33.554  28.494  22.702  1.00  0.00     0.116 C 
BRANCH   3   4
ATOM      4  N   UNL A   1      32.281  29.095  22.325  1.00  0.00    -0.352 N 
ATOM      5  C   UNL A   1      30.988  28.949  22.767  1.00  0.00     0.251 C 
ATOM      6  O   UNL A   1      30.117  29.619  22.207  1.00  0.00    -0.269 OA
ATOM      7  H   UNL A   1      32.367  29.750  21.594  1.00  0.00     0.163 HD
BRANCH   5   8
ATOM      8  C   UNL A   1      30.562  27.980  23.816  1.00  0.00     0.039 A 
ATOM      9  C   UNL A   1      29.905  25.877  25.607  1.00  0.00     0.041 A 
ATOM     10  C   UNL A   1      29.440  25.869  24.285  1.00  0.00     0.027 A 
ATOM     11  C   UNL A   1      30.537  27.032  26.060  1.00  0.00     0.027 A 
ATOM     12  C   UNL A   1      29.774  26.899  23.398  1.00  0.00     0.016 A 
ATOM     13  C   UNL A   1      30.855  28.082  25.174  1.00  0.00     0.016 A 
BRANCH   9  14
ATOM     14  N   UNL A   1      29.736  24.674  26.315  1.00  0.00    -0.326 N 
ATOM     15  C   UNL A   1      30.534  23.639  26.697  1.00  0.00     0.226 C 
ATOM     16  O   UNL A   1      29.980  22.683  27.254  1.00  0.00    -0.275 OA
ATOM     17  H   UNL A   1      28.805  24.549  26.611  1.00  0.00     0.169 HD
BRANCH  15  18
ATOM     18  C   UNL A   1      32.023  23.596  26.473  1.00  0.00     0.128 C 
BRANCH  18  19
ATOM     19  C   UNL A   1      32.463  23.103  25.097  1.00  0.00     0.183 C 
ATOM     20  N   UNL A   1      34.721  22.399  24.686  1.00  0.00    -0.190 N 
ATOM     21  C   UNL A   1      33.865  23.480  24.672  1.00  0.00     0.324 C 
ATOM     22  C   UNL A   1      34.144  21.154  24.833  1.00  0.00     0.319 C 
ATOM     23  O   UNL A   1      34.166  24.626  24.357  1.00  0.00    -0.245 OA
ATOM     24  S   UNL A   1      32.422  21.291  25.052  1.00  0.00    -0.022 SA
ATOM     25  N   UNL A   1      34.844  20.063  24.816  1.00  0.00    -0.235 N 
ATOM     26  H   UNL A   1      35.825  20.120  24.768  1.00  0.00     0.313 HD
BRANCH  20  27
ATOM     27  C   UNL A   1      36.149  22.511  24.420  1.00  0.00     0.243 C 
ATOM     28  C   UNL A   1      36.615  22.826  23.007  1.00  0.00     0.054 C 
ENDBRANCH  20  27
BRANCH  25  29
ATOM     29  C   UNL A   1      34.228  18.798  24.863  1.00  0.00     0.125 A 
ATOM     30  C   UNL A   1      33.032  18.619  25.566  1.00  0.00     0.053 A 
ATOM     31  C   UNL A   1      34.854  17.674  24.306  1.00  0.00     0.053 A 
ATOM     32  C   UNL A   1      32.466  17.343  25.696  1.00  0.00     0.025 A 
ATOM     33  C   UNL A   1      34.282  16.401  24.415  1.00  0.00     0.025 A 
ATOM     34  C   UNL A   1      33.095  16.239  25.121  1.00  0.00     0.041 A 
ATOM     35  Cl  UNL A   1      32.424  14.669  25.334  1.00  0.00    -0.084 Cl
ENDBRANCH  25  29
ENDBRANCH  18  19
ENDBRANCH  15  18
ENDBRANCH   9  14
ENDBRANCH   5   8
ENDBRANCH   3   4
ENDBRANCH   2   3
ENDBRANCH   1   2
BRANCH   1  36
ATOM     36  C   UNL A   1      34.057  28.176  26.602  1.00  0.00     0.002 C 
BRANCH  36  37
ATOM     37  C   UNL A   1      34.059  29.688  26.860  1.00  0.00     0.021 C 
BRANCH  37  38
ATOM     38  C   UNL A   1      35.265  30.217  27.635  1.00  0.00     0.116 C 
BRANCH  38  39
ATOM     39  N   UNL A   1      34.874  31.162  28.674  1.00  0.00    -0.352 N 
ATOM     40  C   UNL A   1      35.490  31.479  29.859  1.00  0.00     0.251 C 
ATOM     41  H   UNL A   1      34.036  31.648  28.498  1.00  0.00     0.163 HD
ATOM     42  O   UNL A   1      34.882  32.120  30.710  1.00  0.00    -0.269 OA
BRANCH  40  43
ATOM     43  C   UNL A   1      36.884  31.053  30.114  1.00  0.00     0.039 A 
ATOM     44  C   UNL A   1      37.118  29.903  30.874  1.00  0.00     0.014 A 
ATOM     45  C   UNL A   1      37.959  31.808  29.637  1.00  0.00     0.014 A 
ATOM     46  C   UNL A   1      38.429  29.474  31.100  1.00  0.00     0.010 A 
ATOM     47  C   UNL A   1      39.261  31.343  29.806  1.00  0.00     0.010 A 
ATOM     48  C   UNL A   1      39.511  30.173  30.539  1.00  0.00    -0.014 A 
BRANCH  48  49
ATOM     49  C   UNL A   1      40.908  29.687  30.680  1.00  0.00     0.031 A 
ATOM     50  C   UNL A   1      41.410  28.556  29.823  1.00  0.00     0.074 A 
ATOM     51  C   UNL A   1      41.690  30.193  31.654  1.00  0.00     0.049 A 
ATOM     52  N   UNL A   1      42.559  27.935  29.868  1.00  0.00    -0.248 NA
ATOM     53  C   UNL A   1      40.489  28.037  28.798  1.00  0.00     0.031 C 
ATOM     54  C   UNL A   1      41.294  31.241  32.597  1.00  0.00     0.029 A 
ATOM     55  N   UNL A   1      42.968  29.870  32.036  1.00  0.00    -0.354 N 
ATOM     56  C   UNL A   1      42.487  26.930  28.910  1.00  0.00     0.074 A 
ATOM     57  C   UNL A   1      41.170  27.007  28.317  1.00  0.00     0.031 C 
ATOM     58  C   UNL A   1      42.305  31.471  33.449  1.00  0.00     0.029 A 
ATOM     59  C   UNL A   1      43.406  30.566  33.138  1.00  0.00     0.049 A 
ATOM     60  H   UNL A   1      43.520  29.203  31.565  1.00  0.00     0.167 HD
ATOM     61  C   UNL A   1      43.439  26.039  28.540  1.00  0.00     0.034 A 
ATOM     62  C   UNL A   1      44.558  30.474  33.832  1.00  0.00     0.034 A 
ATOM     63  C   UNL A   1      44.761  25.992  29.104  1.00  0.00     0.049 A 
ATOM     64  C   UNL A   1      45.609  29.496  33.382  1.00  0.00     0.074 A 
ATOM     65  C   UNL A   1      45.826  25.188  28.735  1.00  0.00     0.029 A 
ATOM     66  N   UNL A   1      45.199  26.772  30.164  1.00  0.00    -0.354 N 
ATOM     67  N   UNL A   1      45.580  28.660  32.373  1.00  0.00    -0.248 NA
ATOM     68  C   UNL A   1      46.865  29.470  34.146  1.00  0.00     0.031 C 
ATOM     69  C   UNL A   1      46.898  25.462  29.590  1.00  0.00     0.029 A 
ATOM     70  C   UNL A   1      46.511  26.459  30.472  1.00  0.00     0.049 A 
ATOM     71  H   UNL A   1      44.655  27.449  30.629  1.00  0.00     0.167 HD
ATOM     72  C   UNL A   1      46.821  28.035  32.358  1.00  0.00     0.074 A 
ATOM     73  C   UNL A   1      47.588  28.602  33.450  1.00  0.00     0.031 C 
ATOM     74  C   UNL A   1      47.281  27.067  31.528  1.00  0.00     0.034 A 
BRANCH  61  75
ATOM     75  C   UNL A   1      43.102  25.068  27.438  1.00  0.00     0.023 A 
ATOM     76  C   UNL A   1      43.550  25.322  26.125  1.00  0.00     0.012 A 
ATOM     77  C   UNL A   1      42.402  23.876  27.709  1.00  0.00     0.148 A 
ATOM     78  C   UNL A   1      43.275  24.425  25.094  1.00  0.00     0.002 A 
ATOM     79  C   UNL A   1      42.171  22.965  26.684  1.00  0.00     0.091 A 
ATOM     80  F   UNL A   1      41.967  23.660  28.958  1.00  0.00    -0.205 F 
ATOM     81  C   UNL A   1      42.596  23.244  25.374  1.00  0.00     0.022 A 
BRANCH  79  82
ATOM     82  S   UNL A   1      41.375  21.378  26.957  1.00  0.00     0.127 S 
ATOM     83  O   UNL A   1      41.447  20.779  25.626  1.00  0.00    -0.237 OA
ATOM     84  O   UNL A   1      42.252  20.760  27.952  1.00  0.00    -0.237 OA
ATOM     85  O   UNL A   1      40.032  21.679  27.435  1.00  0.00    -0.744 OA
ENDBRANCH  79  82
ENDBRANCH  61  75
BRANCH  62  86
ATOM     86  C   UNL A   1      44.794  31.369  34.999  1.00  0.00     0.023 A 
ATOM     87  C   UNL A   1      45.384  32.631  34.797  1.00  0.00     0.012 A 
ATOM     88  C   UNL A   1      44.412  30.990  36.300  1.00  0.00     0.148 A 
ATOM     89  C   UNL A   1      45.617  33.489  35.873  1.00  0.00     0.002 A 
ATOM     90  C   UNL A   1      44.595  31.871  37.360  1.00  0.00     0.091 A 
ATOM     91  F   UNL A   1      43.866  29.779  36.476  1.00  0.00    -0.205 F 
ATOM     92  C   UNL A   1      45.212  33.115  37.152  1.00  0.00     0.022 A 
BRANCH  90  93
ATOM     93  S   UNL A   1      43.986  31.511  39.011  1.00  0.00     0.127 S 
ATOM     94  O   UNL A   1      44.460  32.668  39.764  1.00  0.00    -0.237 OA
ATOM     95  O   UNL A   1      42.538  31.462  38.801  1.00  0.00    -0.237 OA
ATOM     96  O   UNL A   1      44.582  30.229  39.370  1.00  0.00    -0.744 OA
ENDBRANCH  90  93
ENDBRANCH  62  86
BRANCH  74  97
ATOM     97  C   UNL A   1      48.690  26.575  31.732  1.00  0.00     0.023 A 
ATOM     98  C   UNL A   1      49.764  27.250  31.119  1.00  0.00     0.012 A 
ATOM     99  C   UNL A   1      48.955  25.498  32.600  1.00  0.00     0.148 A 
ATOM    100  C   UNL A   1      51.079  26.842  31.344  1.00  0.00     0.002 A 
ATOM    101  C   UNL A   1      50.270  25.129  32.859  1.00  0.00     0.091 A 
ATOM    102  F   UNL A   1      47.919  24.857  33.160  1.00  0.00    -0.205 F 
ATOM    103  C   UNL A   1      51.332  25.792  32.223  1.00  0.00     0.022 A 
BRANCH 101 104
ATOM    104  S   UNL A   1      50.698  23.854  34.050  1.00  0.00     0.127 S 
ATOM    105  O   UNL A   1      52.122  23.658  33.777  1.00  0.00    -0.237 OA
ATOM    106  O   UNL A   1      50.405  24.510  35.325  1.00  0.00    -0.237 OA
ATOM    107  O   UNL A   1      49.843  22.714  33.745  1.00  0.00    -0.744 OA
ENDBRANCH 101 104
ENDBRANCH  74  97
ENDBRANCH  48  49
ENDBRANCH  40  43
ENDBRANCH  38  39
ENDBRANCH  37  38
ENDBRANCH  36  37
ENDBRANCH   1  36
TORSDOF 21
ENDMDL
MODEL 3
REMARK VINA RESULT:     -11.5      4.775      9.844
REMARK SMILES CCN1C(=O)[C@H](CC(=O)Nc2ccc(C(=O)NCCCCCCNC(=O)c3ccc(-c4c5nc(c(-c6cccc(S(=O)(=O)[O-])c6F)c6ccc([nH]6)c(-c6cccc(S(=O)(=O)[O-])c6F)c6nc(c(-c7cccc(S(=O)(=O)[O-])c7F)c7ccc4[nH]7)C=C6)C=C5)cc3)cc2)S/C1=[NH+]\c1ccc(Cl)cc1
REMARK SMILES IDX 20 1 19 2 18 3 17 4 15 5 16 6 14 8 11 9 12 10 91 11 13 12
REMARK SMILES IDX 90 13 10 14 8 15 9 16 7 18 6 19 3 20 4 21 93 22 5 23 92 24
REMARK SMILES IDX 94 25 2 27 1 28 95 29 96 30 101 31 97 32 100 33 98 34 99 35
REMARK SMILES IDX 21 36 22 37 23 38 24 39 25 40 26 42 27 43 28 44 89 45 29 46
REMARK SMILES IDX 88 47 30 48 31 49 32 50 82 51 33 52 87 53 81 54 83 55 34 56
REMARK SMILES IDX 86 57 80 58 79 59 35 61 67 62 47 63 66 64 48 65 51 66 65 67
REMARK SMILES IDX 84 68 49 69 50 70 64 72 85 73 52 74 36 75 37 76 45 77 38 78
REMARK SMILES IDX 40 79 46 80 39 81 41 82 42 83 43 84 44 85 68 86 69 87 77 88
REMARK SMILES IDX 70 89 72 90 78 91 71 92 73 93 74 94 75 95 76 96 53 97 54 98
REMARK SMILES IDX 62 99 55 100 57 101 63 102 56 103 58 104 59 105 60 106
REMARK SMILES IDX 61 107
REMARK H PARENT 17 7 10 17 94 26 24 41 83 60 51 71
REMARK Flexibility Score: inf
ROOT
ATOM      1  C   UNL A   1      34.547  23.442  26.680  1.00  0.00     0.002 C 
ENDROOT
BRANCH   1   2
ATOM      2  C   UNL A   1      34.792  22.013  27.174  1.00  0.00     0.021 C 
BRANCH   2   3
ATOM      3  C   UNL A   1      33.527  21.234  27.568  1.00  0.00     0.116 C 
BRANCH   3   4
ATOM      4  N   UNL A   1      33.243  20.122  26.670  1.00  0.00    -0.352 N 
ATOM      5  C   UNL A   1      32.993  20.022  25.322  1.00  0.00     0.251 C 
ATOM      6  O   UNL A   1      32.772  18.898  24.867  1.00  0.00    -0.269 OA
ATOM      7  H   UNL A   1      33.228  19.251  27.130  1.00  0.00     0.163 HD
BRANCH   5   8
ATOM      8  C   UNL A   1      32.892  21.187  24.398  1.00  0.00     0.039 A 
ATOM      9  C   UNL A   1      32.844  23.188  22.384  1.00  0.00     0.041 A 
ATOM     10  C   UNL A   1      34.050  22.599  22.785  1.00  0.00     0.027 A 
ATOM     11  C   UNL A   1      31.705  22.897  23.131  1.00  0.00     0.027 A 
ATOM     12  C   UNL A   1      34.073  21.602  23.769  1.00  0.00     0.016 A 
ATOM     13  C   UNL A   1      31.730  21.910  24.139  1.00  0.00     0.016 A 
BRANCH   9  14
ATOM     14  N   UNL A   1      32.910  23.968  21.216  1.00  0.00    -0.326 N 
ATOM     15  C   UNL A   1      32.900  25.297  20.920  1.00  0.00     0.226 C 
ATOM     16  O   UNL A   1      32.887  25.602  19.721  1.00  0.00    -0.275 OA
ATOM     17  H   UNL A   1      32.984  23.412  20.406  1.00  0.00     0.169 HD
BRANCH  15  18
ATOM     18  C   UNL A   1      32.894  26.390  21.955  1.00  0.00     0.128 C 
BRANCH  18  19
ATOM     19  C   UNL A   1      31.651  26.448  22.839  1.00  0.00     0.183 C 
ATOM     20  N   UNL A   1      31.568  27.845  24.789  1.00  0.00    -0.190 N 
ATOM     21  C   UNL A   1      31.897  26.589  24.325  1.00  0.00     0.324 C 
ATOM     22  C   UNL A   1      30.865  28.661  23.925  1.00  0.00     0.319 C 
ATOM     23  O   UNL A   1      32.337  25.669  25.004  1.00  0.00    -0.245 OA
ATOM     24  S   UNL A   1      30.640  27.882  22.384  1.00  0.00    -0.022 SA
ATOM     25  N   UNL A   1      30.463  29.845  24.267  1.00  0.00    -0.235 N 
ATOM     26  H   UNL A   1      30.725  30.209  25.144  1.00  0.00     0.313 HD
BRANCH  20  27
ATOM     27  C   UNL A   1      31.807  28.275  26.160  1.00  0.00     0.243 C 
ATOM     28  C   UNL A   1      33.206  28.149  26.741  1.00  0.00     0.054 C 
ENDBRANCH  20  27
BRANCH  25  29
ATOM     29  C   UNL A   1      29.659  30.620  23.411  1.00  0.00     0.125 A 
ATOM     30  C   UNL A   1      29.298  30.137  22.148  1.00  0.00     0.053 A 
ATOM     31  C   UNL A   1      29.299  31.931  23.755  1.00  0.00     0.053 A 
ATOM     32  C   UNL A   1      28.578  30.943  21.256  1.00  0.00     0.025 A 
ATOM     33  C   UNL A   1      28.562  32.732  22.876  1.00  0.00     0.025 A 
ATOM     34  C   UNL A   1      28.216  32.238  21.623  1.00  0.00     0.041 A 
ATOM     35  Cl  UNL A   1      27.382  33.240  20.500  1.00  0.00    -0.084 Cl
ENDBRANCH  25  29
ENDBRANCH  18  19
ENDBRANCH  15  18
ENDBRANCH   9  14
ENDBRANCH   5   8
ENDBRANCH   3   4
ENDBRANCH   2   3
ENDBRANCH   1   2
BRANCH   1  36
ATOM     36  C   UNL A   1      35.630  24.003  25.747  1.00  0.00     0.002 C 
BRANCH  36  37
ATOM     37  C   UNL A   1      36.908  23.165  25.620  1.00  0.00     0.021 C 
BRANCH  37  38
ATOM     38  C   UNL A   1      38.110  23.680  26.411  1.00  0.00     0.116 C 
BRANCH  38  39
ATOM     39  N   UNL A   1      39.267  22.804  26.278  1.00  0.00    -0.352 N 
ATOM     40  C   UNL A   1      40.606  23.086  26.379  1.00  0.00     0.251 C 
ATOM     41  H   UNL A   1      39.054  21.862  26.085  1.00  0.00     0.163 HD
ATOM     42  O   UNL A   1      41.434  22.265  25.996  1.00  0.00    -0.269 OA
BRANCH  40  43
ATOM     43  C   UNL A   1      41.058  24.375  26.949  1.00  0.00     0.039 A 
ATOM     44  C   UNL A   1      41.012  25.525  26.155  1.00  0.00     0.014 A 
ATOM     45  C   UNL A   1      41.561  24.442  28.251  1.00  0.00     0.014 A 
ATOM     46  C   UNL A   1      41.409  26.754  26.689  1.00  0.00     0.010 A 
ATOM     47  C   UNL A   1      41.894  25.678  28.802  1.00  0.00     0.010 A 
ATOM     48  C   UNL A   1      41.823  26.846  28.029  1.00  0.00    -0.014 A 
BRANCH  48  49
ATOM     49  C   UNL A   1      42.158  28.152  28.652  1.00  0.00     0.031 A 
ATOM     50  C   UNL A   1      41.066  29.051  29.167  1.00  0.00     0.074 A 
ATOM     51  C   UNL A   1      43.437  28.575  28.655  1.00  0.00     0.049 A 
ATOM     52  N   UNL A   1      41.156  30.263  29.652  1.00  0.00    -0.248 NA
ATOM     53  C   UNL A   1      39.690  28.531  29.106  1.00  0.00     0.031 C 
ATOM     54  C   UNL A   1      44.576  27.828  28.118  1.00  0.00     0.029 A 
ATOM     55  N   UNL A   1      43.991  29.753  29.093  1.00  0.00    -0.354 N 
ATOM     56  C   UNL A   1      39.851  30.665  29.916  1.00  0.00     0.074 A 
ATOM     57  C   UNL A   1      38.986  29.578  29.512  1.00  0.00     0.031 C 
ATOM     58  C   UNL A   1      45.690  28.564  28.255  1.00  0.00     0.029 A 
ATOM     59  C   UNL A   1      45.342  29.848  28.855  1.00  0.00     0.049 A 
ATOM     60  H   UNL A   1      43.470  30.462  29.536  1.00  0.00     0.167 HD
ATOM     61  C   UNL A   1      39.414  31.824  30.466  1.00  0.00     0.034 A 
ATOM     62  C   UNL A   1      46.202  30.862  29.079  1.00  0.00     0.034 A 
ATOM     63  C   UNL A   1      40.281  32.885  30.902  1.00  0.00     0.049 A 
ATOM     64  C   UNL A   1      45.695  32.126  29.717  1.00  0.00     0.074 A 
ATOM     65  C   UNL A   1      39.943  34.058  31.555  1.00  0.00     0.029 A 
ATOM     66  N   UNL A   1      41.655  32.910  30.723  1.00  0.00    -0.354 N 
ATOM     67  N   UNL A   1      44.479  32.426  30.103  1.00  0.00    -0.248 NA
ATOM     68  C   UNL A   1      46.685  33.182  29.981  1.00  0.00     0.031 C 
ATOM     69  C   UNL A   1      41.110  34.805  31.744  1.00  0.00     0.029 A 
ATOM     70  C   UNL A   1      42.179  34.083  31.238  1.00  0.00     0.049 A 
ATOM     71  H   UNL A   1      42.182  32.198  30.293  1.00  0.00     0.167 HD
ATOM     72  C   UNL A   1      44.561  33.685  30.685  1.00  0.00     0.074 A 
ATOM     73  C   UNL A   1      45.952  34.086  30.619  1.00  0.00     0.031 C 
ATOM     74  C   UNL A   1      43.573  34.449  31.212  1.00  0.00     0.034 A 
BRANCH  61  75
ATOM     75  C   UNL A   1      37.931  31.988  30.672  1.00  0.00     0.023 A 
ATOM     76  C   UNL A   1      37.349  31.592  31.895  1.00  0.00     0.012 A 
ATOM     77  C   UNL A   1      37.123  32.591  29.688  1.00  0.00     0.148 A 
ATOM     78  C   UNL A   1      35.984  31.759  32.121  1.00  0.00     0.002 A 
ATOM     79  C   UNL A   1      35.771  32.795  29.938  1.00  0.00     0.091 A 
ATOM     80  F   UNL A   1      37.688  32.944  28.525  1.00  0.00    -0.205 F 
ATOM     81  C   UNL A   1      35.197  32.370  31.149  1.00  0.00     0.022 A 
BRANCH  79  82
ATOM     82  S   UNL A   1      34.687  33.644  28.784  1.00  0.00     0.127 S 
ATOM     83  O   UNL A   1      35.407  34.898  28.571  1.00  0.00    -0.237 OA
ATOM     84  O   UNL A   1      34.689  32.738  27.636  1.00  0.00    -0.237 OA
ATOM     85  O   UNL A   1      33.401  33.769  29.457  1.00  0.00    -0.744 OA
ENDBRANCH  79  82
ENDBRANCH  61  75
BRANCH  62  86
ATOM     86  C   UNL A   1      47.644  30.700  28.737  1.00  0.00     0.023 A 
ATOM     87  C   UNL A   1      48.108  31.116  27.476  1.00  0.00     0.012 A 
ATOM     88  C   UNL A   1      48.558  30.164  29.664  1.00  0.00     0.148 A 
ATOM     89  C   UNL A   1      49.453  30.974  27.131  1.00  0.00     0.002 A 
ATOM     90  C   UNL A   1      49.906  30.077  29.335  1.00  0.00     0.091 A 
ATOM     91  F   UNL A   1      48.094  29.759  30.855  1.00  0.00    -0.205 F 
ATOM     92  C   UNL A   1      50.354  30.466  28.063  1.00  0.00     0.022 A 
BRANCH  90  93
ATOM     93  S   UNL A   1      51.143  29.552  30.528  1.00  0.00     0.127 S 
ATOM     94  O   UNL A   1      50.818  30.386  31.682  1.00  0.00    -0.237 OA
ATOM     95  O   UNL A   1      50.833  28.131  30.689  1.00  0.00    -0.237 OA
ATOM     96  O   UNL A   1      52.428  29.817  29.892  1.00  0.00    -0.744 OA
ENDBRANCH  90  93
ENDBRANCH  62  86
BRANCH  74  97
ATOM     97  C   UNL A   1      43.952  35.784  31.797  1.00  0.00     0.023 A 
ATOM     98  C   UNL A   1      44.403  35.863  33.130  1.00  0.00     0.012 A 
ATOM     99  C   UNL A   1      43.943  36.945  31.000  1.00  0.00     0.148 A 
ATOM    100  C   UNL A   1      44.812  37.083  33.669  1.00  0.00     0.002 A 
ATOM    101  C   UNL A   1      44.399  38.147  31.528  1.00  0.00     0.091 A 
ATOM    102  F   UNL A   1      43.494  36.852  29.740  1.00  0.00    -0.205 F 
ATOM    103  C   UNL A   1      44.822  38.220  32.865  1.00  0.00     0.022 A 
BRANCH 101 104
ATOM    104  S   UNL A   1      44.542  39.642  30.543  1.00  0.00     0.127 S 
ATOM    105  O   UNL A   1      43.214  40.232  30.702  1.00  0.00    -0.237 OA
ATOM    106  O   UNL A   1      45.617  40.362  31.226  1.00  0.00    -0.237 OA
ATOM    107  O   UNL A   1      44.870  39.205  29.191  1.00  0.00    -0.744 OA
ENDBRANCH 101 104
ENDBRANCH  74  97
ENDBRANCH  48  49
ENDBRANCH  40  43
ENDBRANCH  38  39
ENDBRANCH  37  38
ENDBRANCH  36  37
ENDBRANCH   1  36
TORSDOF 21
ENDMDL
