MODEL 1
REMARK VINA RESULT:     -11.8      0.000      0.000
REMARK SMILES COc1ccc2cc([C@@H](O)[C@H](F)C(=O)NCCCCCCNC(=O)c3ccc(-c4c5nc(c(-c6cccc(S(=O)(=O)[O-])c6F)c6ccc([nH]6)c(-c6cccc(S(=O)(=O)[O-])c6F)c6nc(c(-c7cccc(S(=O)(=O)[O-])c7F)c7ccc4[nH]7)C=C6)C=C5)cc3)ccc2c1
REMARK SMILES IDX 18 1 17 2 16 3 15 4 13 5 14 6 11 8 12 9 9 10 8 11 3 12 4 13
REMARK SMILES IDX 91 14 5 15 90 16 6 17 89 18 7 19 88 20 2 21 1 22 10 23 19 25
REMARK SMILES IDX 20 26 21 27 22 28 23 29 24 31 25 32 26 33 87 34 27 35 86 36
REMARK SMILES IDX 28 37 29 38 30 39 80 40 31 41 85 42 79 43 81 44 32 45 84 46
REMARK SMILES IDX 78 47 77 48 33 50 65 51 45 52 64 53 46 54 49 55 63 56 82 57
REMARK SMILES IDX 47 58 48 59 62 61 83 62 50 63 34 64 35 65 43 66 36 67 38 68
REMARK SMILES IDX 44 69 37 70 39 71 40 72 41 73 42 74 66 75 67 76 75 77 68 78
REMARK SMILES IDX 70 79 76 80 69 81 71 82 72 83 73 84 74 85 51 86 52 87 60 88
REMARK SMILES IDX 53 89 55 90 61 91 54 92 56 93 57 94 58 95 59 96
REMARK H PARENT 15 7 10 24 22 30 81 49 49 60
REMARK Flexibility Score: inf
ROOT
ATOM      1  C   UNL A   1      32.063  29.377  25.819  1.00  0.00     0.002 C 
ENDROOT
BRANCH   1   2
ATOM      2  C   UNL A   1      31.318  28.158  26.367  1.00  0.00     0.021 C 
BRANCH   2   3
ATOM      3  C   UNL A   1      32.169  26.900  26.476  1.00  0.00     0.116 C 
BRANCH   3   4
ATOM      4  N   UNL A   1      31.437  25.768  27.022  1.00  0.00    -0.353 N 
ATOM      5  C   UNL A   1      31.293  24.524  26.464  1.00  0.00     0.257 C 
ATOM      6  O   UNL A   1      30.787  23.623  27.140  1.00  0.00    -0.272 OA
ATOM      7  H   UNL A   1      30.996  25.911  27.891  1.00  0.00     0.163 HD
BRANCH   5   8
ATOM      8  C   UNL A   1      31.747  24.281  25.031  1.00  0.00     0.288 C 
ATOM      9  F   UNL A   1      32.422  23.095  24.931  1.00  0.00    -0.234 F 
BRANCH   8  10
ATOM     10  C   UNL A   1      30.580  24.381  24.013  1.00  0.00     0.188 C 
BRANCH  10  11
ATOM     11  C   UNL A   1      30.283  25.791  23.539  1.00  0.00    -0.015 A 
ATOM     12  C   UNL A   1      28.146  30.273  22.459  1.00  0.00     0.119 A 
ATOM     13  C   UNL A   1      27.156  29.514  23.079  1.00  0.00     0.047 A 
ATOM     14  C   UNL A   1      29.420  29.733  22.269  1.00  0.00     0.055 A 
ATOM     15  C   UNL A   1      27.447  28.224  23.524  1.00  0.00     0.012 A 
ATOM     16  C   UNL A   1      29.728  28.436  22.709  1.00  0.00    -0.015 A 
ATOM     17  C   UNL A   1      28.725  27.674  23.340  1.00  0.00    -0.018 A 
ATOM     18  C   UNL A   1      31.006  27.878  22.537  1.00  0.00     0.009 A 
ATOM     19  C   UNL A   1      29.022  26.372  23.762  1.00  0.00     0.015 A 
ATOM     20  C   UNL A   1      31.280  26.570  22.945  1.00  0.00     0.007 A 
BRANCH  12  21
ATOM     21  O   UNL A   1      27.953  31.528  21.947  1.00  0.00    -0.497 OA
ATOM     22  C   UNL A   1      28.130  31.625  20.537  1.00  0.00     0.278 C 
ENDBRANCH  12  21
ENDBRANCH  10  11
BRANCH  10  23
ATOM     23  O   UNL A   1      30.744  23.565  22.849  1.00  0.00    -0.385 OA
ATOM     24  H   UNL A   1      30.824  24.132  22.065  1.00  0.00     0.211 HD
ENDBRANCH  10  23
ENDBRANCH   8  10
ENDBRANCH   5   8
ENDBRANCH   3   4
ENDBRANCH   2   3
ENDBRANCH   1   2
BRANCH   1  25
ATOM     25  C   UNL A   1      31.174  30.557  25.411  1.00  0.00     0.002 C 
BRANCH  25  26
ATOM     26  C   UNL A   1      31.216  31.764  26.351  1.00  0.00     0.021 C 
BRANCH  26  27
ATOM     27  C   UNL A   1      32.606  32.141  26.850  1.00  0.00     0.116 C 
BRANCH  27  28
ATOM     28  N   UNL A   1      32.668  33.517  27.321  1.00  0.00    -0.352 N 
ATOM     29  C   UNL A   1      33.508  34.079  28.248  1.00  0.00     0.251 C 
ATOM     30  H   UNL A   1      32.015  34.132  26.917  1.00  0.00     0.163 HD
ATOM     31  O   UNL A   1      33.301  35.222  28.654  1.00  0.00    -0.269 OA
BRANCH  29  32
ATOM     32  C   UNL A   1      34.651  33.303  28.773  1.00  0.00     0.039 A 
ATOM     33  C   UNL A   1      35.949  33.706  28.450  1.00  0.00     0.014 A 
ATOM     34  C   UNL A   1      34.442  32.184  29.584  1.00  0.00     0.014 A 
ATOM     35  C   UNL A   1      37.039  33.019  28.988  1.00  0.00     0.010 A 
ATOM     36  C   UNL A   1      35.528  31.553  30.183  1.00  0.00     0.010 A 
ATOM     37  C   UNL A   1      36.838  31.956  29.885  1.00  0.00    -0.014 A 
BRANCH  37  38
ATOM     38  C   UNL A   1      37.983  31.263  30.527  1.00  0.00     0.031 A 
ATOM     39  C   UNL A   1      38.366  31.581  31.946  1.00  0.00     0.074 A 
ATOM     40  C   UNL A   1      38.730  30.405  29.805  1.00  0.00     0.049 A 
ATOM     41  N   UNL A   1      39.353  31.106  32.661  1.00  0.00    -0.248 NA
ATOM     42  C   UNL A   1      37.550  32.586  32.646  1.00  0.00     0.031 C 
ATOM     43  C   UNL A   1      38.505  30.068  28.398  1.00  0.00     0.029 A 
ATOM     44  N   UNL A   1      39.842  29.677  30.149  1.00  0.00    -0.354 N 
ATOM     45  C   UNL A   1      39.300  31.777  33.877  1.00  0.00     0.074 A 
ATOM     46  C   UNL A   1      38.208  32.723  33.787  1.00  0.00     0.031 C 
ATOM     47  C   UNL A   1      39.438  29.185  28.004  1.00  0.00     0.029 A 
ATOM     48  C   UNL A   1      40.347  28.924  29.115  1.00  0.00     0.049 A 
ATOM     49  H   UNL A   1      40.239  29.692  31.049  1.00  0.00     0.167 HD
ATOM     50  C   UNL A   1      40.069  31.604  34.978  1.00  0.00     0.034 A 
ATOM     51  C   UNL A   1      41.423  28.115  29.067  1.00  0.00     0.034 A 
ATOM     52  C   UNL A   1      41.137  30.645  35.070  1.00  0.00     0.049 A 
ATOM     53  C   UNL A   1      42.254  27.927  30.305  1.00  0.00     0.074 A 
ATOM     54  C   UNL A   1      41.921  30.330  36.167  1.00  0.00     0.029 A 
ATOM     55  N   UNL A   1      41.586  29.858  34.021  1.00  0.00    -0.354 N 
ATOM     56  N   UNL A   1      42.095  28.455  31.495  1.00  0.00    -0.248 NA
ATOM     57  C   UNL A   1      43.396  27.006  30.204  1.00  0.00     0.031 C 
ATOM     58  C   UNL A   1      42.869  29.383  35.768  1.00  0.00     0.029 A 
ATOM     59  C   UNL A   1      42.649  29.073  34.435  1.00  0.00     0.049 A 
ATOM     60  H   UNL A   1      41.205  29.857  33.113  1.00  0.00     0.167 HD
ATOM     61  C   UNL A   1      43.089  27.902  32.294  1.00  0.00     0.074 A 
ATOM     62  C   UNL A   1      43.837  26.987  31.455  1.00  0.00     0.031 C 
ATOM     63  C   UNL A   1      43.363  28.138  33.602  1.00  0.00     0.034 A 
BRANCH  50  64
ATOM     64  C   UNL A   1      39.757  32.459  36.182  1.00  0.00     0.023 A 
ATOM     65  C   UNL A   1      40.454  33.671  36.381  1.00  0.00     0.012 A 
ATOM     66  C   UNL A   1      38.766  32.077  37.106  1.00  0.00     0.148 A 
ATOM     67  C   UNL A   1      40.210  34.457  37.506  1.00  0.00     0.002 A 
ATOM     68  C   UNL A   1      38.490  32.893  38.198  1.00  0.00     0.091 A 
ATOM     69  F   UNL A   1      38.126  30.914  36.916  1.00  0.00    -0.205 F 
ATOM     70  C   UNL A   1      39.222  34.073  38.409  1.00  0.00     0.022 A 
BRANCH  68  71
ATOM     71  S   UNL A   1      37.181  32.526  39.371  1.00  0.00     0.127 S 
ATOM     72  O   UNL A   1      37.512  31.157  39.764  1.00  0.00    -0.237 OA
ATOM     73  O   UNL A   1      37.409  33.530  40.412  1.00  0.00    -0.237 OA
ATOM     74  O   UNL A   1      35.933  32.686  38.639  1.00  0.00    -0.744 OA
ENDBRANCH  68  71
ENDBRANCH  50  64
BRANCH  51  75
ATOM     75  C   UNL A   1      41.725  27.364  27.816  1.00  0.00     0.023 A 
ATOM     76  C   UNL A   1      42.258  28.057  26.710  1.00  0.00     0.012 A 
ATOM     77  C   UNL A   1      41.535  25.972  27.729  1.00  0.00     0.148 A 
ATOM     78  C   UNL A   1      42.574  27.380  25.532  1.00  0.00     0.002 A 
ATOM     79  C   UNL A   1      41.902  25.295  26.572  1.00  0.00     0.091 A 
ATOM     80  F   UNL A   1      41.024  25.336  28.792  1.00  0.00    -0.205 F 
ATOM     81  C   UNL A   1      42.406  25.999  25.466  1.00  0.00     0.022 A 
BRANCH  79  82
ATOM     82  S   UNL A   1      41.842  23.505  26.437  1.00  0.00     0.127 S 
ATOM     83  O   UNL A   1      42.505  23.279  25.155  1.00  0.00    -0.237 OA
ATOM     84  O   UNL A   1      42.610  23.091  27.611  1.00  0.00    -0.237 OA
ATOM     85  O   UNL A   1      40.429  23.151  26.481  1.00  0.00    -0.744 OA
ENDBRANCH  79  82
ENDBRANCH  51  75
BRANCH  63  86
ATOM     86  C   UNL A   1      44.498  27.368  34.228  1.00  0.00     0.023 A 
ATOM     87  C   UNL A   1      45.811  27.878  34.177  1.00  0.00     0.012 A 
ATOM     88  C   UNL A   1      44.249  26.171  34.930  1.00  0.00     0.148 A 
ATOM     89  C   UNL A   1      46.862  27.190  34.783  1.00  0.00     0.002 A 
ATOM     90  C   UNL A   1      45.292  25.521  35.577  1.00  0.00     0.091 A 
ATOM     91  F   UNL A   1      42.997  25.693  34.953  1.00  0.00    -0.205 F 
ATOM     92  C   UNL A   1      46.601  26.020  35.493  1.00  0.00     0.022 A 
BRANCH  90  93
ATOM     93  S   UNL A   1      45.036  24.064  36.597  1.00  0.00     0.127 S 
ATOM     94  O   UNL A   1      44.334  24.626  37.749  1.00  0.00    -0.237 OA
ATOM     95  O   UNL A   1      44.211  23.221  35.731  1.00  0.00    -0.237 OA
ATOM     96  O   UNL A   1      46.363  23.529  36.876  1.00  0.00    -0.744 OA
ENDBRANCH  90  93
ENDBRANCH  63  86
ENDBRANCH  37  38
ENDBRANCH  29  32
ENDBRANCH  27  28
ENDBRANCH  26  27
ENDBRANCH  25  26
ENDBRANCH   1  25
TORSDOF 20
ENDMDL
MODEL 2
REMARK VINA RESULT:     -11.4      6.069      9.918
REMARK SMILES COc1ccc2cc([C@@H](O)[C@H](F)C(=O)NCCCCCCNC(=O)c3ccc(-c4c5nc(c(-c6cccc(S(=O)(=O)[O-])c6F)c6ccc([nH]6)c(-c6cccc(S(=O)(=O)[O-])c6F)c6nc(c(-c7cccc(S(=O)(=O)[O-])c7F)c7ccc4[nH]7)C=C6)C=C5)cc3)ccc2c1
REMARK SMILES IDX 18 1 17 2 16 3 15 4 13 5 14 6 11 8 12 9 9 10 8 11 3 12 4 13
REMARK SMILES IDX 91 14 5 15 90 16 6 17 89 18 7 19 88 20 2 21 1 22 10 23 19 25
REMARK SMILES IDX 20 26 21 27 22 28 23 29 24 31 25 32 26 33 87 34 27 35 86 36
REMARK SMILES IDX 28 37 29 38 30 39 80 40 31 41 85 42 79 43 81 44 32 45 84 46
REMARK SMILES IDX 78 47 77 48 33 50 65 51 45 52 64 53 46 54 49 55 63 56 82 57
REMARK SMILES IDX 47 58 48 59 62 61 83 62 50 63 34 64 35 65 43 66 36 67 38 68
REMARK SMILES IDX 44 69 37 70 39 71 40 72 41 73 42 74 66 75 67 76 75 77 68 78
REMARK SMILES IDX 70 79 76 80 69 81 71 82 72 83 73 84 74 85 51 86 52 87 60 88
REMARK SMILES IDX 53 89 55 90 61 91 54 92 56 93 57 94 58 95 59 96
REMARK H PARENT 15 7 10 24 22 30 81 49 49 60
REMARK Flexibility Score: inf
ROOT
ATOM      1  C   UNL A   1      36.962  22.052  24.200  1.00  0.00     0.002 C 
ENDROOT
BRANCH   1   2
ATOM      2  C   UNL A   1      35.702  22.796  23.752  1.00  0.00     0.021 C 
BRANCH   2   3
ATOM      3  C   UNL A   1      35.412  24.068  24.538  1.00  0.00     0.116 C 
BRANCH   3   4
ATOM      4  N   UNL A   1      34.424  24.917  23.893  1.00  0.00    -0.353 N 
ATOM      5  C   UNL A   1      33.359  25.549  24.483  1.00  0.00     0.257 C 
ATOM      6  O   UNL A   1      32.718  26.374  23.825  1.00  0.00    -0.272 OA
ATOM      7  H   UNL A   1      34.531  25.054  22.924  1.00  0.00     0.163 HD
BRANCH   5   8
ATOM      8  C   UNL A   1      32.986  25.218  25.922  1.00  0.00     0.288 C 
ATOM      9  F   UNL A   1      32.702  26.358  26.623  1.00  0.00    -0.234 F 
BRANCH   8  10
ATOM     10  C   UNL A   1      31.845  24.171  26.014  1.00  0.00     0.188 C 
BRANCH  10  11
ATOM     11  C   UNL A   1      32.277  22.746  25.726  1.00  0.00    -0.015 A 
ATOM     12  C   UNL A   1      33.156  18.194  23.647  1.00  0.00     0.119 A 
ATOM     13  C   UNL A   1      32.417  18.909  22.708  1.00  0.00     0.047 A 
ATOM     14  C   UNL A   1      33.499  18.789  24.863  1.00  0.00     0.055 A 
ATOM     15  C   UNL A   1      32.037  20.224  22.980  1.00  0.00     0.012 A 
ATOM     16  C   UNL A   1      33.123  20.110  25.153  1.00  0.00    -0.015 A 
ATOM     17  C   UNL A   1      32.380  20.832  24.198  1.00  0.00    -0.018 A 
ATOM     18  C   UNL A   1      33.466  20.731  26.365  1.00  0.00     0.009 A 
ATOM     19  C   UNL A   1      31.985  22.144  24.490  1.00  0.00     0.015 A 
ATOM     20  C   UNL A   1      33.047  22.033  26.650  1.00  0.00     0.007 A 
BRANCH  12  21
ATOM     21  O   UNL A   1      33.538  16.887  23.499  1.00  0.00    -0.497 OA
ATOM     22  C   UNL A   1      33.885  16.232  24.716  1.00  0.00     0.278 C 
ENDBRANCH  12  21
ENDBRANCH  10  11
BRANCH  10  23
ATOM     23  O   UNL A   1      31.154  24.163  27.267  1.00  0.00    -0.385 OA
ATOM     24  H   UNL A   1      30.876  25.066  27.489  1.00  0.00     0.211 HD
ENDBRANCH  10  23
ENDBRANCH   8  10
ENDBRANCH   5   8
ENDBRANCH   3   4
ENDBRANCH   2   3
ENDBRANCH   1   2
BRANCH   1  25
ATOM     25  C   UNL A   1      36.717  20.706  24.890  1.00  0.00     0.002 C 
BRANCH  25  26
ATOM     26  C   UNL A   1      37.925  19.769  24.947  1.00  0.00     0.021 C 
BRANCH  26  27
ATOM     27  C   UNL A   1      39.100  20.285  25.771  1.00  0.00     0.116 C 
BRANCH  27  28
ATOM     28  N   UNL A   1      40.128  19.272  25.959  1.00  0.00    -0.352 N 
ATOM     29  C   UNL A   1      41.471  19.432  26.190  1.00  0.00     0.251 C 
ATOM     30  H   UNL A   1      39.816  18.339  25.916  1.00  0.00     0.163 HD
ATOM     31  O   UNL A   1      42.223  18.460  26.147  1.00  0.00    -0.269 OA
BRANCH  29  32
ATOM     32  C   UNL A   1      42.014  20.778  26.470  1.00  0.00     0.039 A 
ATOM     33  C   UNL A   1      42.289  21.633  25.400  1.00  0.00     0.014 A 
ATOM     34  C   UNL A   1      42.246  21.195  27.783  1.00  0.00     0.014 A 
ATOM     35  C   UNL A   1      42.745  22.929  25.652  1.00  0.00     0.010 A 
ATOM     36  C   UNL A   1      42.622  22.511  28.033  1.00  0.00     0.010 A 
ATOM     37  C   UNL A   1      42.885  23.390  26.971  1.00  0.00    -0.014 A 
BRANCH  37  38
ATOM     38  C   UNL A   1      43.293  24.787  27.260  1.00  0.00     0.031 A 
ATOM     39  C   UNL A   1      42.329  25.745  27.903  1.00  0.00     0.074 A 
ATOM     40  C   UNL A   1      44.508  25.219  26.867  1.00  0.00     0.049 A 
ATOM     41  N   UNL A   1      42.494  27.008  28.199  1.00  0.00    -0.248 NA
ATOM     42  C   UNL A   1      40.993  25.222  28.234  1.00  0.00     0.031 C 
ATOM     43  C   UNL A   1      45.507  24.408  26.168  1.00  0.00     0.029 A 
ATOM     44  N   UNL A   1      45.101  26.452  26.981  1.00  0.00    -0.354 N 
ATOM     45  C   UNL A   1      41.278  27.440  28.714  1.00  0.00     0.074 A 
ATOM     46  C   UNL A   1      40.372  26.314  28.651  1.00  0.00     0.031 C 
ATOM     47  C   UNL A   1      46.595  25.158  25.932  1.00  0.00     0.029 A 
ATOM     48  C   UNL A   1      46.358  26.510  26.427  1.00  0.00     0.049 A 
ATOM     49  H   UNL A   1      44.668  27.220  27.418  1.00  0.00     0.167 HD
ATOM     50  C   UNL A   1      40.950  28.654  29.219  1.00  0.00     0.034 A 
ATOM     51  C   UNL A   1      47.222  27.539  26.326  1.00  0.00     0.034 A 
ATOM     52  C   UNL A   1      41.863  29.763  29.302  1.00  0.00     0.049 A 
ATOM     53  C   UNL A   1      46.844  28.873  26.906  1.00  0.00     0.074 A 
ATOM     54  C   UNL A   1      41.658  31.007  29.873  1.00  0.00     0.029 A 
ATOM     55  N   UNL A   1      43.148  29.771  28.780  1.00  0.00    -0.354 N 
ATOM     56  N   UNL A   1      45.744  29.221  27.530  1.00  0.00    -0.248 NA
ATOM     57  C   UNL A   1      47.839  29.949  26.798  1.00  0.00     0.031 C 
ATOM     58  C   UNL A   1      42.805  31.779  29.661  1.00  0.00     0.029 A 
ATOM     59  C   UNL A   1      43.742  31.002  28.997  1.00  0.00     0.049 A 
ATOM     60  H   UNL A   1      43.576  29.011  28.324  1.00  0.00     0.167 HD
ATOM     61  C   UNL A   1      45.929  30.542  27.922  1.00  0.00     0.074 A 
ATOM     62  C   UNL A   1      47.254  30.926  27.478  1.00  0.00     0.031 C 
ATOM     63  C   UNL A   1      45.076  31.363  28.584  1.00  0.00     0.034 A 
BRANCH  50  64
ATOM     64  C   UNL A   1      39.548  28.829  29.748  1.00  0.00     0.023 A 
ATOM     65  C   UNL A   1      39.229  28.391  31.051  1.00  0.00     0.012 A 
ATOM     66  C   UNL A   1      38.550  29.443  28.967  1.00  0.00     0.148 A 
ATOM     67  C   UNL A   1      37.931  28.508  31.546  1.00  0.00     0.002 A 
ATOM     68  C   UNL A   1      37.270  29.605  29.487  1.00  0.00     0.091 A 
ATOM     69  F   UNL A   1      38.860  29.837  27.724  1.00  0.00    -0.205 F 
ATOM     70  C   UNL A   1      36.955  29.122  30.767  1.00  0.00     0.022 A 
BRANCH  68  71
ATOM     71  S   UNL A   1      35.966  30.458  28.594  1.00  0.00     0.127 S 
ATOM     72  O   UNL A   1      35.127  29.342  28.160  1.00  0.00    -0.237 OA
ATOM     73  O   UNL A   1      35.374  31.295  29.638  1.00  0.00    -0.237 OA
ATOM     74  O   UNL A   1      36.629  31.197  27.529  1.00  0.00    -0.744 OA
ENDBRANCH  68  71
ENDBRANCH  50  64
BRANCH  51  75
ATOM     75  C   UNL A   1      48.562  27.318  25.712  1.00  0.00     0.023 A 
ATOM     76  C   UNL A   1      49.613  26.828  26.512  1.00  0.00     0.012 A 
ATOM     77  C   UNL A   1      48.789  27.544  24.341  1.00  0.00     0.148 A 
ATOM     78  C   UNL A   1      50.873  26.589  25.964  1.00  0.00     0.002 A 
ATOM     79  C   UNL A   1      50.030  27.251  23.789  1.00  0.00     0.091 A 
ATOM     80  F   UNL A   1      47.776  28.013  23.601  1.00  0.00    -0.205 F 
ATOM     81  C   UNL A   1      51.079  26.790  24.601  1.00  0.00     0.022 A 
BRANCH  79  82
ATOM     82  S   UNL A   1      50.355  27.358  22.026  1.00  0.00     0.127 S 
ATOM     83  O   UNL A   1      51.720  26.844  21.941  1.00  0.00    -0.237 OA
ATOM     84  O   UNL A   1      49.327  26.473  21.479  1.00  0.00    -0.237 OA
ATOM     85  O   UNL A   1      50.193  28.763  21.676  1.00  0.00    -0.744 OA
ENDBRANCH  79  82
ENDBRANCH  51  75
BRANCH  63  86
ATOM     86  C   UNL A   1      45.555  32.755  28.907  1.00  0.00     0.023 A 
ATOM     87  C   UNL A   1      46.278  32.997  30.093  1.00  0.00     0.012 A 
ATOM     88  C   UNL A   1      45.348  33.812  27.997  1.00  0.00     0.148 A 
ATOM     89  C   UNL A   1      46.756  34.275  30.384  1.00  0.00     0.002 A 
ATOM     90  C   UNL A   1      45.874  35.069  28.269  1.00  0.00     0.091 A 
ATOM     91  F   UNL A   1      44.644  33.567  26.884  1.00  0.00    -0.205 F 
ATOM     92  C   UNL A   1      46.565  35.306  29.467  1.00  0.00     0.022 A 
BRANCH  90  93
ATOM     93  S   UNL A   1      45.766  36.432  27.104  1.00  0.00     0.127 S 
ATOM     94  O   UNL A   1      44.323  36.654  27.038  1.00  0.00    -0.237 OA
ATOM     95  O   UNL A   1      46.515  37.485  27.789  1.00  0.00    -0.237 OA
ATOM     96  O   UNL A   1      46.380  35.958  25.870  1.00  0.00    -0.744 OA
ENDBRANCH  90  93
ENDBRANCH  63  86
ENDBRANCH  37  38
ENDBRANCH  29  32
ENDBRANCH  27  28
ENDBRANCH  26  27
ENDBRANCH  25  26
ENDBRANCH   1  25
TORSDOF 20
ENDMDL
MODEL 3
REMARK VINA RESULT:     -11.2      1.949      7.778
REMARK SMILES COc1ccc2cc([C@@H](O)[C@H](F)C(=O)NCCCCCCNC(=O)c3ccc(-c4c5nc(c(-c6cccc(S(=O)(=O)[O-])c6F)c6ccc([nH]6)c(-c6cccc(S(=O)(=O)[O-])c6F)c6nc(c(-c7cccc(S(=O)(=O)[O-])c7F)c7ccc4[nH]7)C=C6)C=C5)cc3)ccc2c1
REMARK SMILES IDX 18 1 17 2 16 3 15 4 13 5 14 6 11 8 12 9 9 10 8 11 3 12 4 13
REMARK SMILES IDX 91 14 5 15 90 16 6 17 89 18 7 19 88 20 2 21 1 22 10 23 19 25
REMARK SMILES IDX 20 26 21 27 22 28 23 29 24 31 25 32 26 33 87 34 27 35 86 36
REMARK SMILES IDX 28 37 29 38 30 39 80 40 31 41 85 42 79 43 81 44 32 45 84 46
REMARK SMILES IDX 78 47 77 48 33 50 65 51 45 52 64 53 46 54 49 55 63 56 82 57
REMARK SMILES IDX 47 58 48 59 62 61 83 62 50 63 34 64 35 65 43 66 36 67 38 68
REMARK SMILES IDX 44 69 37 70 39 71 40 72 41 73 42 74 66 75 67 76 75 77 68 78
REMARK SMILES IDX 70 79 76 80 69 81 71 82 72 83 73 84 74 85 51 86 52 87 60 88
REMARK SMILES IDX 53 89 55 90 61 91 54 92 56 93 57 94 58 95 59 96
REMARK H PARENT 15 7 10 24 22 30 81 49 49 60
REMARK Flexibility Score: inf
ROOT
ATOM      1  C   UNL A   1      31.722  25.569  26.498  1.00  0.00     0.002 C 
ENDROOT
BRANCH   1   2
ATOM      2  C   UNL A   1      32.369  24.187  26.610  1.00  0.00     0.021 C 
BRANCH   2   3
ATOM      3  C   UNL A   1      31.587  23.072  25.929  1.00  0.00     0.116 C 
BRANCH   3   4
ATOM      4  N   UNL A   1      32.420  21.935  25.571  1.00  0.00    -0.353 N 
ATOM      5  C   UNL A   1      33.466  21.917  24.685  1.00  0.00     0.257 C 
ATOM      6  O   UNL A   1      34.180  20.912  24.627  1.00  0.00    -0.272 OA
ATOM      7  H   UNL A   1      32.209  21.081  26.015  1.00  0.00     0.163 HD
BRANCH   5   8
ATOM      8  C   UNL A   1      33.721  23.124  23.792  1.00  0.00     0.288 C 
ATOM      9  F   UNL A   1      34.951  23.036  23.198  1.00  0.00    -0.234 F 
BRANCH   8  10
ATOM     10  C   UNL A   1      32.584  23.349  22.760  1.00  0.00     0.188 C 
BRANCH  10  11
ATOM     11  C   UNL A   1      32.094  24.781  22.671  1.00  0.00    -0.015 A 
ATOM     12  C   UNL A   1      29.411  29.090  22.919  1.00  0.00     0.119 A 
ATOM     13  C   UNL A   1      28.584  28.093  23.430  1.00  0.00     0.047 A 
ATOM     14  C   UNL A   1      30.698  28.771  22.481  1.00  0.00     0.055 A 
ATOM     15  C   UNL A   1      29.053  26.781  23.520  1.00  0.00     0.012 A 
ATOM     16  C   UNL A   1      31.184  27.456  22.562  1.00  0.00    -0.015 A 
ATOM     17  C   UNL A   1      30.346  26.451  23.085  1.00  0.00    -0.018 A 
ATOM     18  C   UNL A   1      32.479  27.116  22.137  1.00  0.00     0.009 A 
ATOM     19  C   UNL A   1      30.819  25.134  23.150  1.00  0.00     0.015 A 
ATOM     20  C   UNL A   1      32.928  25.793  22.189  1.00  0.00     0.007 A 
BRANCH  12  21
ATOM     21  O   UNL A   1      29.034  30.395  22.746  1.00  0.00    -0.497 OA
ATOM     22  C   UNL A   1      28.278  30.640  21.563  1.00  0.00     0.278 C 
ENDBRANCH  12  21
ENDBRANCH  10  11
BRANCH  10  23
ATOM     23  O   UNL A   1      32.904  22.924  21.431  1.00  0.00    -0.385 OA
ATOM     24  H   UNL A   1      32.215  23.230  20.820  1.00  0.00     0.211 HD
ENDBRANCH  10  23
ENDBRANCH   8  10
ENDBRANCH   5   8
ENDBRANCH   3   4
ENDBRANCH   2   3
ENDBRANCH   1   2
BRANCH   1  25
ATOM     25  C   UNL A   1      32.658  26.694  26.043  1.00  0.00     0.002 C 
BRANCH  25  26
ATOM     26  C   UNL A   1      32.015  28.080  25.940  1.00  0.00     0.021 C 
BRANCH  26  27
ATOM     27  C   UNL A   1      32.953  29.190  25.479  1.00  0.00     0.116 C 
BRANCH  27  28
ATOM     28  N   UNL A   1      32.507  30.505  25.915  1.00  0.00    -0.352 N 
ATOM     29  C   UNL A   1      33.022  31.313  26.897  1.00  0.00     0.251 C 
ATOM     30  H   UNL A   1      31.727  30.867  25.438  1.00  0.00     0.163 HD
ATOM     31  O   UNL A   1      32.407  32.319  27.250  1.00  0.00    -0.269 OA
BRANCH  29  32
ATOM     32  C   UNL A   1      34.305  30.964  27.542  1.00  0.00     0.039 A 
ATOM     33  C   UNL A   1      35.275  31.956  27.701  1.00  0.00     0.014 A 
ATOM     34  C   UNL A   1      34.546  29.663  27.992  1.00  0.00     0.014 A 
ATOM     35  C   UNL A   1      36.467  31.656  28.363  1.00  0.00     0.010 A 
ATOM     36  C   UNL A   1      35.699  29.388  28.722  1.00  0.00     0.010 A 
ATOM     37  C   UNL A   1      36.676  30.377  28.908  1.00  0.00    -0.014 A 
BRANCH  37  38
ATOM     38  C   UNL A   1      37.902  30.060  29.682  1.00  0.00     0.031 A 
ATOM     39  C   UNL A   1      38.928  29.112  29.127  1.00  0.00     0.074 A 
ATOM     40  C   UNL A   1      38.052  30.563  30.923  1.00  0.00     0.049 A 
ATOM     41  N   UNL A   1      40.040  28.688  29.671  1.00  0.00    -0.248 NA
ATOM     42  C   UNL A   1      38.657  28.541  27.798  1.00  0.00     0.031 C 
ATOM     43  C   UNL A   1      37.094  31.437  31.602  1.00  0.00     0.029 A 
ATOM     44  N   UNL A   1      39.059  30.396  31.841  1.00  0.00    -0.354 N 
ATOM     45  C   UNL A   1      40.581  27.778  28.771  1.00  0.00     0.074 A 
ATOM     46  C   UNL A   1      39.654  27.680  27.665  1.00  0.00     0.031 C 
ATOM     47  C   UNL A   1      37.566  31.743  32.822  1.00  0.00     0.029 A 
ATOM     48  C   UNL A   1      38.839  31.060  33.025  1.00  0.00     0.049 A 
ATOM     49  H   UNL A   1      39.861  29.853  31.669  1.00  0.00     0.167 HD
ATOM     50  C   UNL A   1      41.755  27.106  28.842  1.00  0.00     0.034 A 
ATOM     51  C   UNL A   1      39.579  31.111  34.150  1.00  0.00     0.034 A 
ATOM     52  C   UNL A   1      42.685  27.227  29.933  1.00  0.00     0.049 A 
ATOM     53  C   UNL A   1      40.885  30.368  34.202  1.00  0.00     0.074 A 
ATOM     54  C   UNL A   1      43.940  26.657  30.063  1.00  0.00     0.029 A 
ATOM     55  N   UNL A   1      42.456  27.952  31.092  1.00  0.00    -0.354 N 
ATOM     56  N   UNL A   1      41.455  29.634  33.278  1.00  0.00    -0.248 NA
ATOM     57  C   UNL A   1      41.666  30.488  35.442  1.00  0.00     0.031 C 
ATOM     58  C   UNL A   1      44.450  27.006  31.318  1.00  0.00     0.029 A 
ATOM     59  C   UNL A   1      43.533  27.830  31.952  1.00  0.00     0.049 A 
ATOM     60  H   UNL A   1      41.644  28.479  31.277  1.00  0.00     0.167 HD
ATOM     61  C   UNL A   1      42.678  29.237  33.806  1.00  0.00     0.074 A 
ATOM     62  C   UNL A   1      42.770  29.824  35.127  1.00  0.00     0.031 C 
ATOM     63  C   UNL A   1      43.633  28.449  33.250  1.00  0.00     0.034 A 
BRANCH  50  64
ATOM     64  C   UNL A   1      42.107  26.200  27.688  1.00  0.00     0.023 A 
ATOM     65  C   UNL A   1      42.824  26.714  26.586  1.00  0.00     0.012 A 
ATOM     66  C   UNL A   1      41.747  24.840  27.698  1.00  0.00     0.148 A 
ATOM     67  C   UNL A   1      43.126  25.905  25.491  1.00  0.00     0.002 A 
ATOM     68  C   UNL A   1      42.097  24.025  26.626  1.00  0.00     0.091 A 
ATOM     69  F   UNL A   1      41.048  24.369  28.741  1.00  0.00    -0.205 F 
ATOM     70  C   UNL A   1      42.770  24.560  25.516  1.00  0.00     0.022 A 
BRANCH  68  71
ATOM     71  S   UNL A   1      41.758  22.261  26.602  1.00  0.00     0.127 S 
ATOM     72  O   UNL A   1      42.430  21.850  25.370  1.00  0.00    -0.237 OA
ATOM     73  O   UNL A   1      42.407  21.806  27.831  1.00  0.00    -0.237 OA
ATOM     74  O   UNL A   1      40.308  22.134  26.599  1.00  0.00    -0.744 OA
ENDBRANCH  68  71
ENDBRANCH  50  64
BRANCH  51  75
ATOM     75  C   UNL A   1      39.129  31.959  35.290  1.00  0.00     0.023 A 
ATOM     76  C   UNL A   1      38.214  31.430  36.222  1.00  0.00     0.012 A 
ATOM     77  C   UNL A   1      39.634  33.259  35.483  1.00  0.00     0.148 A 
ATOM     78  C   UNL A   1      37.791  32.190  37.313  1.00  0.00     0.002 A 
ATOM     79  C   UNL A   1      39.250  33.991  36.601  1.00  0.00     0.091 A 
ATOM     80  F   UNL A   1      40.499  33.742  34.582  1.00  0.00    -0.205 F 
ATOM     81  C   UNL A   1      38.316  33.464  37.508  1.00  0.00     0.022 A 
BRANCH  79  82
ATOM     82  S   UNL A   1      39.965  35.587  37.006  1.00  0.00     0.127 S 
ATOM     83  O   UNL A   1      41.378  35.252  37.164  1.00  0.00    -0.237 OA
ATOM     84  O   UNL A   1      39.645  36.369  35.811  1.00  0.00    -0.237 OA
ATOM     85  O   UNL A   1      39.288  36.030  38.218  1.00  0.00    -0.744 OA
ENDBRANCH  79  82
ENDBRANCH  51  75
BRANCH  63  86
ATOM     86  C   UNL A   1      44.887  28.202  34.049  1.00  0.00     0.023 A 
ATOM     87  C   UNL A   1      45.992  29.067  33.919  1.00  0.00     0.012 A 
ATOM     88  C   UNL A   1      44.942  27.148  34.984  1.00  0.00     0.148 A 
ATOM     89  C   UNL A   1      47.143  28.867  34.679  1.00  0.00     0.002 A 
ATOM     90  C   UNL A   1      46.072  26.988  35.777  1.00  0.00     0.091 A 
ATOM     91  F   UNL A   1      43.889  26.325  35.083  1.00  0.00    -0.205 F 
ATOM     92  C   UNL A   1      47.179  27.836  35.615  1.00  0.00     0.022 A 
BRANCH  90  93
ATOM     93  S   UNL A   1      46.171  25.753  37.078  1.00  0.00     0.127 S 
ATOM     94  O   UNL A   1      47.484  26.032  37.656  1.00  0.00    -0.237 OA
ATOM     95  O   UNL A   1      45.039  26.113  37.932  1.00  0.00    -0.237 OA
ATOM     96  O   UNL A   1      46.043  24.461  36.417  1.00  0.00    -0.744 OA
ENDBRANCH  90  93
ENDBRANCH  63  86
ENDBRANCH  37  38
ENDBRANCH  29  32
ENDBRANCH  27  28
ENDBRANCH  26  27
ENDBRANCH  25  26
ENDBRANCH   1  25
TORSDOF 20
ENDMDL
