MODEL 1
REMARK VINA RESULT:     -10.7      0.000      0.000
REMARK SMILES COc1ccc([C@H](C)NC(=O)c2cnn(C)c2C(=O)NCCCCCCNC(=O)c2ccc(-c3c4nc(c(-c5cccc(S(=O)(=O)[O-])c5F)c5ccc([nH]5)c(-c5cccc(S(=O)(=O)[O-])c5F)c5nc(c(-c6cccc(S(=O)(=O)[O-])c6F)c6ccc3[nH]6)C=C5)C=C4)cc2)cc1
REMARK SMILES IDX 23 1 22 2 21 3 20 4 18 5 19 6 17 8 12 9 13 10 14 11 15 12
REMARK SMILES IDX 16 13 10 14 9 15 11 17 7 18 8 19 6 20 3 21 4 22 94 23 5 24
REMARK SMILES IDX 93 25 2 26 1 27 24 28 25 29 26 30 27 31 28 32 29 34 30 35
REMARK SMILES IDX 31 36 92 37 32 38 91 39 33 40 34 41 35 42 85 43 36 44 90 45
REMARK SMILES IDX 84 46 86 47 37 48 89 49 83 50 82 51 38 53 70 54 50 55 69 56
REMARK SMILES IDX 51 57 54 58 68 59 87 60 52 61 53 62 67 64 88 65 55 66 39 67
REMARK SMILES IDX 40 68 48 69 41 70 43 71 49 72 42 73 44 74 45 75 46 76 47 77
REMARK SMILES IDX 71 78 72 79 80 80 73 81 75 82 81 83 74 84 76 85 77 86 78 87
REMARK SMILES IDX 79 88 56 89 57 90 65 91 58 92 60 93 66 94 59 95 61 96 62 97
REMARK SMILES IDX 63 98 64 99
REMARK H PARENT 20 7 9 16 27 33 86 52 54 63
REMARK Flexibility Score: inf
ROOT
ATOM      1  C   UNL A   1      38.525  22.539  25.723  1.00  0.00     0.002 C 
ENDROOT
BRANCH   1   2
ATOM      2  C   UNL A   1      37.627  23.711  26.141  1.00  0.00     0.021 C 
BRANCH   2   3
ATOM      3  C   UNL A   1      36.129  23.423  26.041  1.00  0.00     0.116 C 
BRANCH   3   4
ATOM      4  N   UNL A   1      35.426  24.442  25.306  1.00  0.00    -0.351 N 
ATOM      5  C   UNL A   1      34.205  24.559  24.712  1.00  0.00     0.270 C 
ATOM      6  O   UNL A   1      33.938  25.737  24.446  1.00  0.00    -0.268 OA
ATOM      7  H   UNL A   1      35.963  25.261  25.206  1.00  0.00     0.163 HD
BRANCH   5   8
ATOM      8  C   UNL A   1      33.261  23.504  24.375  1.00  0.00     0.138 A 
ATOM      9  C   UNL A   1      32.357  22.962  25.308  1.00  0.00     0.090 A 
ATOM     10  C   UNL A   1      31.915  21.755  24.741  1.00  0.00     0.149 A 
ATOM     11  N   UNL A   1      32.321  21.616  23.489  1.00  0.00    -0.180 NA
ATOM     12  N   UNL A   1      33.010  22.750  23.242  1.00  0.00    -0.262 N 
ATOM     13  C   UNL A   1      33.246  22.996  21.842  1.00  0.00     0.174 C 
BRANCH   9  14
ATOM     14  C   UNL A   1      32.007  23.368  26.656  1.00  0.00     0.255 C 
ATOM     15  N   UNL A   1      30.990  24.249  26.894  1.00  0.00    -0.345 N 
ATOM     16  H   UNL A   1      30.769  24.341  27.849  1.00  0.00     0.164 HD
ATOM     17  O   UNL A   1      32.508  22.813  27.634  1.00  0.00    -0.269 OA
BRANCH  15  18
ATOM     18  C   UNL A   1      30.164  25.084  26.025  1.00  0.00     0.109 C 
ATOM     19  C   UNL A   1      28.753  25.212  26.596  1.00  0.00     0.036 C 
BRANCH  18  20
ATOM     20  C   UNL A   1      30.797  26.460  25.849  1.00  0.00    -0.026 A 
ATOM     21  C   UNL A   1      31.821  29.077  25.619  1.00  0.00     0.118 A 
ATOM     22  C   UNL A   1      32.028  28.343  26.785  1.00  0.00     0.047 A 
ATOM     23  C   UNL A   1      31.173  28.485  24.538  1.00  0.00     0.047 A 
ATOM     24  C   UNL A   1      31.514  27.047  26.904  1.00  0.00     0.009 A 
ATOM     25  C   UNL A   1      30.674  27.185  24.650  1.00  0.00     0.009 A 
BRANCH  21  26
ATOM     26  O   UNL A   1      32.326  30.350  25.592  1.00  0.00    -0.497 OA
ATOM     27  C   UNL A   1      31.853  31.167  26.663  1.00  0.00     0.278 C 
ENDBRANCH  21  26
ENDBRANCH  18  20
ENDBRANCH  15  18
ENDBRANCH   9  14
ENDBRANCH   5   8
ENDBRANCH   3   4
ENDBRANCH   2   3
ENDBRANCH   1   2
BRANCH   1  28
ATOM     28  C   UNL A   1      37.851  21.469  24.855  1.00  0.00     0.002 C 
BRANCH  28  29
ATOM     29  C   UNL A   1      38.372  20.041  25.051  1.00  0.00     0.021 C 
BRANCH  29  30
ATOM     30  C   UNL A   1      39.141  19.822  26.350  1.00  0.00     0.116 C 
BRANCH  30  31
ATOM     31  N   UNL A   1      40.352  19.046  26.133  1.00  0.00    -0.352 N 
ATOM     32  C   UNL A   1      41.644  19.481  25.979  1.00  0.00     0.251 C 
ATOM     33  H   UNL A   1      40.226  18.071  26.087  1.00  0.00     0.163 HD
ATOM     34  O   UNL A   1      42.503  18.712  25.557  1.00  0.00    -0.269 OA
BRANCH  32  35
ATOM     35  C   UNL A   1      41.999  20.875  26.320  1.00  0.00     0.039 A 
ATOM     36  C   UNL A   1      42.283  21.199  27.650  1.00  0.00     0.014 A 
ATOM     37  C   UNL A   1      42.027  21.865  25.334  1.00  0.00     0.014 A 
ATOM     38  C   UNL A   1      42.639  22.510  27.982  1.00  0.00     0.010 A 
ATOM     39  C   UNL A   1      42.450  23.150  25.654  1.00  0.00     0.010 A 
ATOM     40  C   UNL A   1      42.747  23.490  26.983  1.00  0.00    -0.014 A 
BRANCH  40  41
ATOM     41  C   UNL A   1      43.167  24.877  27.303  1.00  0.00     0.031 A 
ATOM     42  C   UNL A   1      42.198  25.833  27.944  1.00  0.00     0.074 A 
ATOM     43  C   UNL A   1      44.388  25.306  26.928  1.00  0.00     0.049 A 
ATOM     44  N   UNL A   1      42.357  27.098  28.234  1.00  0.00    -0.248 NA
ATOM     45  C   UNL A   1      40.864  25.306  28.276  1.00  0.00     0.031 C 
ATOM     46  C   UNL A   1      45.388  24.498  26.226  1.00  0.00     0.029 A 
ATOM     47  N   UNL A   1      44.985  26.534  27.058  1.00  0.00    -0.354 N 
ATOM     48  C   UNL A   1      41.137  27.528  28.742  1.00  0.00     0.074 A 
ATOM     49  C   UNL A   1      40.236  26.397  28.690  1.00  0.00     0.031 C 
ATOM     50  C   UNL A   1      46.471  25.253  25.985  1.00  0.00     0.029 A 
ATOM     51  C   UNL A   1      46.236  26.602  26.489  1.00  0.00     0.049 A 
ATOM     52  H   UNL A   1      44.559  27.296  27.514  1.00  0.00     0.167 HD
ATOM     53  C   UNL A   1      40.803  28.744  29.237  1.00  0.00     0.034 A 
ATOM     54  C   UNL A   1      47.094  27.635  26.379  1.00  0.00     0.034 A 
ATOM     55  C   UNL A   1      41.716  29.852  29.329  1.00  0.00     0.049 A 
ATOM     56  C   UNL A   1      46.720  28.963  26.980  1.00  0.00     0.074 A 
ATOM     57  C   UNL A   1      41.507  31.093  29.902  1.00  0.00     0.029 A 
ATOM     58  N   UNL A   1      43.010  29.854  28.831  1.00  0.00    -0.354 N 
ATOM     59  N   UNL A   1      45.618  29.304  27.605  1.00  0.00    -0.248 NA
ATOM     60  C   UNL A   1      47.719  30.037  26.896  1.00  0.00     0.031 C 
ATOM     61  C   UNL A   1      42.667  31.856  29.728  1.00  0.00     0.029 A 
ATOM     62  C   UNL A   1      43.608  31.079  29.071  1.00  0.00     0.049 A 
ATOM     63  H   UNL A   1      43.439  29.096  28.372  1.00  0.00     0.167 HD
ATOM     64  C   UNL A   1      45.806  30.618  28.019  1.00  0.00     0.074 A 
ATOM     65  C   UNL A   1      47.134  31.005  27.588  1.00  0.00     0.031 C 
ATOM     66  C   UNL A   1      44.950  31.434  28.682  1.00  0.00     0.034 A 
BRANCH  53  67
ATOM     67  C   UNL A   1      39.402  28.922  29.762  1.00  0.00     0.023 A 
ATOM     68  C   UNL A   1      39.090  28.501  31.071  1.00  0.00     0.012 A 
ATOM     69  C   UNL A   1      38.407  29.543  28.982  1.00  0.00     0.148 A 
ATOM     70  C   UNL A   1      37.802  28.654  31.581  1.00  0.00     0.002 A 
ATOM     71  C   UNL A   1      37.136  29.735  29.515  1.00  0.00     0.091 A 
ATOM     72  F   UNL A   1      38.712  29.918  27.733  1.00  0.00    -0.205 F 
ATOM     73  C   UNL A   1      36.828  29.279  30.807  1.00  0.00     0.022 A 
BRANCH  71  74
ATOM     74  S   UNL A   1      35.837  30.600  28.625  1.00  0.00     0.127 S 
ATOM     75  O   UNL A   1      36.604  31.317  27.607  1.00  0.00    -0.237 OA
ATOM     76  O   UNL A   1      35.027  29.495  28.109  1.00  0.00    -0.237 OA
ATOM     77  O   UNL A   1      35.165  31.435  29.610  1.00  0.00    -0.744 OA
ENDBRANCH  71  74
ENDBRANCH  53  67
BRANCH  54  78
ATOM     78  C   UNL A   1      48.419  27.428  25.731  1.00  0.00     0.023 A 
ATOM     79  C   UNL A   1      49.516  27.024  26.518  1.00  0.00     0.012 A 
ATOM     80  C   UNL A   1      48.586  27.576  24.342  1.00  0.00     0.148 A 
ATOM     81  C   UNL A   1      50.763  26.796  25.935  1.00  0.00     0.002 A 
ATOM     82  C   UNL A   1      49.816  27.293  23.759  1.00  0.00     0.091 A 
ATOM     83  F   UNL A   1      47.531  27.968  23.614  1.00  0.00    -0.205 F 
ATOM     84  C   UNL A   1      50.910  26.920  24.555  1.00  0.00     0.022 A 
BRANCH  82  85
ATOM     85  S   UNL A   1      50.062  27.291  21.980  1.00  0.00     0.127 S 
ATOM     86  O   UNL A   1      49.878  28.701  21.651  1.00  0.00    -0.237 OA
ATOM     87  O   UNL A   1      51.438  26.804  21.868  1.00  0.00    -0.237 OA
ATOM     88  O   UNL A   1      49.059  26.380  21.444  1.00  0.00    -0.744 OA
ENDBRANCH  82  85
ENDBRANCH  54  78
BRANCH  66  89
ATOM     89  C   UNL A   1      45.427  32.822  29.020  1.00  0.00     0.023 A 
ATOM     90  C   UNL A   1      46.145  33.047  30.211  1.00  0.00     0.012 A 
ATOM     91  C   UNL A   1      45.234  33.887  28.117  1.00  0.00     0.148 A 
ATOM     92  C   UNL A   1      46.637  34.315  30.513  1.00  0.00     0.002 A 
ATOM     93  C   UNL A   1      45.770  35.136  28.401  1.00  0.00     0.091 A 
ATOM     94  F   UNL A   1      44.532  33.657  26.998  1.00  0.00    -0.205 F 
ATOM     95  C   UNL A   1      46.462  35.356  29.603  1.00  0.00     0.022 A 
BRANCH  93  96
ATOM     96  S   UNL A   1      45.677  36.509  27.245  1.00  0.00     0.127 S 
ATOM     97  O   UNL A   1      46.444  37.539  27.943  1.00  0.00    -0.237 OA
ATOM     98  O   UNL A   1      46.333  35.960  26.058  1.00  0.00    -0.237 OA
ATOM     99  O   UNL A   1      44.259  36.792  27.073  1.00  0.00    -0.744 OA
ENDBRANCH  93  96
ENDBRANCH  66  89
ENDBRANCH  40  41
ENDBRANCH  32  35
ENDBRANCH  30  31
ENDBRANCH  29  30
ENDBRANCH  28  29
ENDBRANCH   1  28
TORSDOF 20
ENDMDL
MODEL 2
REMARK VINA RESULT:     -10.6      6.250     11.335
REMARK SMILES COc1ccc([C@H](C)NC(=O)c2cnn(C)c2C(=O)NCCCCCCNC(=O)c2ccc(-c3c4nc(c(-c5cccc(S(=O)(=O)[O-])c5F)c5ccc([nH]5)c(-c5cccc(S(=O)(=O)[O-])c5F)c5nc(c(-c6cccc(S(=O)(=O)[O-])c6F)c6ccc3[nH]6)C=C5)C=C4)cc2)cc1
REMARK SMILES IDX 23 1 22 2 21 3 20 4 18 5 19 6 17 8 12 9 13 10 14 11 15 12
REMARK SMILES IDX 16 13 10 14 9 15 11 17 7 18 8 19 6 20 3 21 4 22 94 23 5 24
REMARK SMILES IDX 93 25 2 26 1 27 24 28 25 29 26 30 27 31 28 32 29 34 30 35
REMARK SMILES IDX 31 36 92 37 32 38 91 39 33 40 34 41 35 42 85 43 36 44 90 45
REMARK SMILES IDX 84 46 86 47 37 48 89 49 83 50 82 51 38 53 70 54 50 55 69 56
REMARK SMILES IDX 51 57 54 58 68 59 87 60 52 61 53 62 67 64 88 65 55 66 39 67
REMARK SMILES IDX 40 68 48 69 41 70 43 71 49 72 42 73 44 74 45 75 46 76 47 77
REMARK SMILES IDX 71 78 72 79 80 80 73 81 75 82 81 83 74 84 76 85 77 86 78 87
REMARK SMILES IDX 79 88 56 89 57 90 65 91 58 92 60 93 66 94 59 95 61 96 62 97
REMARK SMILES IDX 63 98 64 99
REMARK H PARENT 20 7 9 16 27 33 86 52 54 63
REMARK Flexibility Score: inf
ROOT
ATOM      1  C   UNL A   1      32.353  30.117  25.785  1.00  0.00     0.002 C 
ENDROOT
BRANCH   1   2
ATOM      2  C   UNL A   1      32.746  28.836  26.534  1.00  0.00     0.021 C 
BRANCH   2   3
ATOM      3  C   UNL A   1      31.724  28.377  27.574  1.00  0.00     0.116 C 
BRANCH   3   4
ATOM      4  N   UNL A   1      31.119  27.118  27.225  1.00  0.00    -0.351 N 
ATOM      5  C   UNL A   1      31.115  26.298  26.136  1.00  0.00     0.270 C 
ATOM      6  O   UNL A   1      30.674  25.176  26.411  1.00  0.00    -0.268 OA
ATOM      7  H   UNL A   1      30.567  26.758  27.958  1.00  0.00     0.163 HD
BRANCH   5   8
ATOM      8  C   UNL A   1      31.538  26.601  24.778  1.00  0.00     0.138 A 
ATOM      9  C   UNL A   1      32.726  26.094  24.217  1.00  0.00     0.090 A 
ATOM     10  C   UNL A   1      32.976  26.893  23.089  1.00  0.00     0.149 A 
ATOM     11  N   UNL A   1      31.963  27.700  22.816  1.00  0.00    -0.180 NA
ATOM     12  N   UNL A   1      31.047  27.404  23.763  1.00  0.00    -0.262 N 
ATOM     13  C   UNL A   1      29.724  27.892  23.467  1.00  0.00     0.174 C 
BRANCH   9  14
ATOM     14  C   UNL A   1      33.664  25.096  24.693  1.00  0.00     0.255 C 
ATOM     15  N   UNL A   1      33.691  23.835  24.170  1.00  0.00    -0.345 N 
ATOM     16  H   UNL A   1      34.454  23.297  24.484  1.00  0.00     0.164 HD
ATOM     17  O   UNL A   1      34.570  25.399  25.471  1.00  0.00    -0.269 OA
BRANCH  15  18
ATOM     18  C   UNL A   1      32.821  23.117  23.241  1.00  0.00     0.109 C 
ATOM     19  C   UNL A   1      33.219  23.421  21.797  1.00  0.00     0.036 C 
BRANCH  18  20
ATOM     20  C   UNL A   1      32.879  21.616  23.507  1.00  0.00    -0.026 A 
ATOM     21  C   UNL A   1      32.816  18.857  24.082  1.00  0.00     0.118 A 
ATOM     22  C   UNL A   1      32.150  19.356  22.964  1.00  0.00     0.047 A 
ATOM     23  C   UNL A   1      33.576  19.715  24.872  1.00  0.00     0.047 A 
ATOM     24  C   UNL A   1      32.174  20.726  22.682  1.00  0.00     0.009 A 
ATOM     25  C   UNL A   1      33.614  21.081  24.580  1.00  0.00     0.009 A 
BRANCH  21  26
ATOM     26  O   UNL A   1      32.717  17.510  24.310  1.00  0.00    -0.497 OA
ATOM     27  C   UNL A   1      32.785  17.164  25.693  1.00  0.00     0.278 C 
ENDBRANCH  21  26
ENDBRANCH  18  20
ENDBRANCH  15  18
ENDBRANCH   9  14
ENDBRANCH   5   8
ENDBRANCH   3   4
ENDBRANCH   2   3
ENDBRANCH   1   2
BRANCH   1  28
ATOM     28  C   UNL A   1      31.290  30.984  26.473  1.00  0.00     0.002 C 
BRANCH  28  29
ATOM     29  C   UNL A   1      31.598  32.484  26.519  1.00  0.00     0.021 C 
BRANCH  29  30
ATOM     30  C   UNL A   1      32.824  32.853  27.349  1.00  0.00     0.116 C 
BRANCH  30  31
ATOM     31  N   UNL A   1      32.762  34.230  27.813  1.00  0.00    -0.352 N 
ATOM     32  C   UNL A   1      33.427  34.824  28.857  1.00  0.00     0.251 C 
ATOM     33  H   UNL A   1      32.157  34.820  27.308  1.00  0.00     0.163 HD
ATOM     34  O   UNL A   1      33.071  35.927  29.261  1.00  0.00    -0.269 OA
BRANCH  32  35
ATOM     35  C   UNL A   1      34.569  34.133  29.492  1.00  0.00     0.039 A 
ATOM     36  C   UNL A   1      35.860  34.372  29.015  1.00  0.00     0.014 A 
ATOM     37  C   UNL A   1      34.362  33.233  30.541  1.00  0.00     0.014 A 
ATOM     38  C   UNL A   1      36.950  33.740  29.621  1.00  0.00     0.010 A 
ATOM     39  C   UNL A   1      35.452  32.660  31.188  1.00  0.00     0.010 A 
ATOM     40  C   UNL A   1      36.757  32.897  30.726  1.00  0.00    -0.014 A 
BRANCH  40  41
ATOM     41  C   UNL A   1      37.900  32.250  31.416  1.00  0.00     0.031 A 
ATOM     42  C   UNL A   1      38.631  31.108  30.763  1.00  0.00     0.074 A 
ATOM     43  C   UNL A   1      38.220  32.626  32.670  1.00  0.00     0.049 A 
ATOM     44  N   UNL A   1      39.604  30.374  31.234  1.00  0.00    -0.248 NA
ATOM     45  C   UNL A   1      38.188  30.720  29.413  1.00  0.00     0.031 C 
ATOM     46  C   UNL A   1      37.535  33.664  33.441  1.00  0.00     0.029 A 
ATOM     47  N   UNL A   1      39.184  32.156  33.527  1.00  0.00    -0.354 N 
ATOM     48  C   UNL A   1      39.863  29.415  30.262  1.00  0.00     0.074 A 
ATOM     49  C   UNL A   1      38.921  29.640  29.188  1.00  0.00     0.031 C 
ATOM     50  C   UNL A   1      38.097  33.751  34.657  1.00  0.00     0.029 A 
ATOM     51  C   UNL A   1      39.163  32.760  34.763  1.00  0.00     0.049 A 
ATOM     52  H   UNL A   1      39.829  31.453  33.281  1.00  0.00     0.167 HD
ATOM     53  C   UNL A   1      40.818  28.454  30.249  1.00  0.00     0.034 A 
ATOM     54  C   UNL A   1      39.911  32.536  35.860  1.00  0.00     0.034 A 
ATOM     55  C   UNL A   1      41.781  28.265  31.300  1.00  0.00     0.049 A 
ATOM     56  C   UNL A   1      40.999  31.496  35.804  1.00  0.00     0.074 A 
ATOM     57  C   UNL A   1      42.849  27.386  31.341  1.00  0.00     0.029 A 
ATOM     58  N   UNL A   1      41.791  28.961  32.499  1.00  0.00    -0.354 N 
ATOM     59  N   UNL A   1      41.334  30.708  34.811  1.00  0.00    -0.248 NA
ATOM     60  C   UNL A   1      41.833  31.340  37.004  1.00  0.00     0.031 C 
ATOM     61  C   UNL A   1      43.491  27.534  32.575  1.00  0.00     0.029 A 
ATOM     62  C   UNL A   1      42.839  28.525  33.292  1.00  0.00     0.049 A 
ATOM     63  H   UNL A   1      41.148  29.663  32.750  1.00  0.00     0.167 HD
ATOM     64  C   UNL A   1      42.440  29.990  35.252  1.00  0.00     0.074 A 
ATOM     65  C   UNL A   1      42.726  30.449  36.596  1.00  0.00     0.031 C 
ATOM     66  C   UNL A   1      43.144  29.026  34.608  1.00  0.00     0.034 A 
BRANCH  53  67
ATOM     67  C   UNL A   1      40.896  27.565  29.035  1.00  0.00     0.023 A 
ATOM     68  C   UNL A   1      40.043  26.447  28.933  1.00  0.00     0.012 A 
ATOM     69  C   UNL A   1      41.778  27.858  27.976  1.00  0.00     0.148 A 
ATOM     70  C   UNL A   1      40.096  25.609  27.820  1.00  0.00     0.002 A 
ATOM     71  C   UNL A   1      41.792  27.044  26.848  1.00  0.00     0.091 A 
ATOM     72  F   UNL A   1      42.597  28.911  28.096  1.00  0.00    -0.205 F 
ATOM     73  C   UNL A   1      40.962  25.913  26.774  1.00  0.00     0.022 A 
BRANCH  71  74
ATOM     74  S   UNL A   1      42.816  27.398  25.416  1.00  0.00     0.127 S 
ATOM     75  O   UNL A   1      42.716  26.147  24.664  1.00  0.00    -0.237 OA
ATOM     76  O   UNL A   1      42.117  28.531  24.807  1.00  0.00    -0.237 OA
ATOM     77  O   UNL A   1      44.138  27.713  25.938  1.00  0.00    -0.744 OA
ENDBRANCH  71  74
ENDBRANCH  53  67
BRANCH  54  78
ATOM     78  C   UNL A   1      39.700  33.365  37.079  1.00  0.00     0.023 A 
ATOM     79  C   UNL A   1      38.610  33.081  37.927  1.00  0.00     0.012 A 
ATOM     80  C   UNL A   1      40.594  34.393  37.431  1.00  0.00     0.148 A 
ATOM     81  C   UNL A   1      38.402  33.824  39.089  1.00  0.00     0.002 A 
ATOM     82  C   UNL A   1      40.414  35.091  38.619  1.00  0.00     0.091 A 
ATOM     83  F   UNL A   1      41.620  34.651  36.607  1.00  0.00    -0.205 F 
ATOM     84  C   UNL A   1      39.309  34.820  39.441  1.00  0.00     0.022 A 
BRANCH  82  85
ATOM     85  S   UNL A   1      41.604  36.294  39.221  1.00  0.00     0.127 S 
ATOM     86  O   UNL A   1      41.440  37.383  38.262  1.00  0.00    -0.237 OA
ATOM     87  O   UNL A   1      41.096  36.573  40.565  1.00  0.00    -0.237 OA
ATOM     88  O   UNL A   1      42.894  35.619  39.196  1.00  0.00    -0.744 OA
ENDBRANCH  82  85
ENDBRANCH  54  78
BRANCH  66  89
ATOM     89  C   UNL A   1      44.320  28.420  35.328  1.00  0.00     0.023 A 
ATOM     90  C   UNL A   1      45.622  28.889  35.064  1.00  0.00     0.012 A 
ATOM     91  C   UNL A   1      44.125  27.443  36.324  1.00  0.00     0.148 A 
ATOM     92  C   UNL A   1      46.715  28.374  35.758  1.00  0.00     0.002 A 
ATOM     93  C   UNL A   1      45.213  26.970  37.047  1.00  0.00     0.091 A 
ATOM     94  F   UNL A   1      42.881  26.997  36.547  1.00  0.00    -0.205 F 
ATOM     95  C   UNL A   1      46.510  27.426  36.758  1.00  0.00     0.022 A 
BRANCH  93  96
ATOM     96  S   UNL A   1      45.033  25.821  38.416  1.00  0.00     0.127 S 
ATOM     97  O   UNL A   1      44.603  24.604  37.729  1.00  0.00    -0.237 OA
ATOM     98  O   UNL A   1      46.391  25.768  38.959  1.00  0.00    -0.237 OA
ATOM     99  O   UNL A   1      44.049  26.415  39.311  1.00  0.00    -0.744 OA
ENDBRANCH  93  96
ENDBRANCH  66  89
ENDBRANCH  40  41
ENDBRANCH  32  35
ENDBRANCH  30  31
ENDBRANCH  29  30
ENDBRANCH  28  29
ENDBRANCH   1  28
TORSDOF 20
ENDMDL
MODEL 3
REMARK VINA RESULT:     -10.5      1.654      2.302
REMARK SMILES COc1ccc([C@H](C)NC(=O)c2cnn(C)c2C(=O)NCCCCCCNC(=O)c2ccc(-c3c4nc(c(-c5cccc(S(=O)(=O)[O-])c5F)c5ccc([nH]5)c(-c5cccc(S(=O)(=O)[O-])c5F)c5nc(c(-c6cccc(S(=O)(=O)[O-])c6F)c6ccc3[nH]6)C=C5)C=C4)cc2)cc1
REMARK SMILES IDX 23 1 22 2 21 3 20 4 18 5 19 6 17 8 12 9 13 10 14 11 15 12
REMARK SMILES IDX 16 13 10 14 9 15 11 17 7 18 8 19 6 20 3 21 4 22 94 23 5 24
REMARK SMILES IDX 93 25 2 26 1 27 24 28 25 29 26 30 27 31 28 32 29 34 30 35
REMARK SMILES IDX 31 36 92 37 32 38 91 39 33 40 34 41 35 42 85 43 36 44 90 45
REMARK SMILES IDX 84 46 86 47 37 48 89 49 83 50 82 51 38 53 70 54 50 55 69 56
REMARK SMILES IDX 51 57 54 58 68 59 87 60 52 61 53 62 67 64 88 65 55 66 39 67
REMARK SMILES IDX 40 68 48 69 41 70 43 71 49 72 42 73 44 74 45 75 46 76 47 77
REMARK SMILES IDX 71 78 72 79 80 80 73 81 75 82 81 83 74 84 76 85 77 86 78 87
REMARK SMILES IDX 79 88 56 89 57 90 65 91 58 92 60 93 66 94 59 95 61 96 62 97
REMARK SMILES IDX 63 98 64 99
REMARK H PARENT 20 7 9 16 27 33 86 52 54 63
REMARK Flexibility Score: inf
ROOT
ATOM      1  C   UNL A   1      37.225  21.787  24.510  1.00  0.00     0.002 C 
ENDROOT
BRANCH   1   2
ATOM      2  C   UNL A   1      36.230  22.714  25.221  1.00  0.00     0.021 C 
BRANCH   2   3
ATOM      3  C   UNL A   1      35.572  23.750  24.309  1.00  0.00     0.116 C 
BRANCH   3   4
ATOM      4  N   UNL A   1      34.907  24.787  25.054  1.00  0.00    -0.351 N 
ATOM      5  C   UNL A   1      33.634  25.263  25.153  1.00  0.00     0.270 C 
ATOM      6  O   UNL A   1      33.493  25.986  26.147  1.00  0.00    -0.268 OA
ATOM      7  H   UNL A   1      35.529  25.277  25.639  1.00  0.00     0.163 HD
BRANCH   5   8
ATOM      8  C   UNL A   1      32.511  25.028  24.259  1.00  0.00     0.138 A 
ATOM      9  C   UNL A   1      32.111  25.954  23.276  1.00  0.00     0.090 A 
ATOM     10  C   UNL A   1      30.812  25.567  22.906  1.00  0.00     0.149 A 
ATOM     11  N   UNL A   1      30.472  24.400  23.431  1.00  0.00    -0.180 NA
ATOM     12  N   UNL A   1      31.567  24.025  24.127  1.00  0.00    -0.262 N 
ATOM     13  C   UNL A   1      31.575  22.631  24.494  1.00  0.00     0.174 C 
BRANCH   9  14
ATOM     14  C   UNL A   1      32.732  27.172  22.794  1.00  0.00     0.255 C 
ATOM     15  N   UNL A   1      32.409  28.392  23.318  1.00  0.00    -0.345 N 
ATOM     16  H   UNL A   1      32.991  29.121  22.999  1.00  0.00     0.164 HD
ATOM     17  O   UNL A   1      33.681  27.132  22.011  1.00  0.00    -0.269 OA
BRANCH  15  18
ATOM     18  C   UNL A   1      31.380  28.841  24.251  1.00  0.00     0.109 C 
ATOM     19  C   UNL A   1      32.016  29.562  25.439  1.00  0.00     0.036 C 
BRANCH  18  20
ATOM     20  C   UNL A   1      30.380  29.752  23.546  1.00  0.00    -0.026 A 
ATOM     21  C   UNL A   1      28.394  31.348  22.340  1.00  0.00     0.118 A 
ATOM     22  C   UNL A   1      28.883  31.673  23.604  1.00  0.00     0.047 A 
ATOM     23  C   UNL A   1      28.944  30.277  21.643  1.00  0.00     0.047 A 
ATOM     24  C   UNL A   1      29.863  30.878  24.207  1.00  0.00     0.009 A 
ATOM     25  C   UNL A   1      29.934  29.492  22.238  1.00  0.00     0.009 A 
BRANCH  21  26
ATOM     26  O   UNL A   1      27.412  32.156  21.832  1.00  0.00    -0.497 OA
ATOM     27  C   UNL A   1      27.795  32.824  20.629  1.00  0.00     0.278 C 
ENDBRANCH  21  26
ENDBRANCH  18  20
ENDBRANCH  15  18
ENDBRANCH   9  14
ENDBRANCH   5   8
ENDBRANCH   3   4
ENDBRANCH   2   3
ENDBRANCH   1   2
BRANCH   1  28
ATOM     28  C   UNL A   1      36.922  20.287  24.616  1.00  0.00     0.002 C 
BRANCH  28  29
ATOM     29  C   UNL A   1      38.113  19.402  24.997  1.00  0.00     0.021 C 
BRANCH  29  30
ATOM     30  C   UNL A   1      39.160  20.092  25.865  1.00  0.00     0.116 C 
BRANCH  30  31
ATOM     31  N   UNL A   1      40.299  19.224  26.122  1.00  0.00    -0.352 N 
ATOM     32  C   UNL A   1      41.608  19.560  26.362  1.00  0.00     0.251 C 
ATOM     33  H   UNL A   1      40.103  18.259  26.123  1.00  0.00     0.163 HD
ATOM     34  O   UNL A   1      42.480  18.697  26.312  1.00  0.00    -0.269 OA
BRANCH  32  35
ATOM     35  C   UNL A   1      41.965  20.959  26.679  1.00  0.00     0.039 A 
ATOM     36  C   UNL A   1      42.391  21.277  27.972  1.00  0.00     0.014 A 
ATOM     37  C   UNL A   1      41.854  21.959  25.710  1.00  0.00     0.014 A 
ATOM     38  C   UNL A   1      42.750  22.593  28.278  1.00  0.00     0.010 A 
ATOM     39  C   UNL A   1      42.279  23.252  25.996  1.00  0.00     0.010 A 
ATOM     40  C   UNL A   1      42.718  23.586  27.287  1.00  0.00    -0.014 A 
BRANCH  40  41
ATOM     41  C   UNL A   1      43.137  24.980  27.574  1.00  0.00     0.031 A 
ATOM     42  C   UNL A   1      42.146  25.971  28.122  1.00  0.00     0.074 A 
ATOM     43  C   UNL A   1      44.383  25.380  27.252  1.00  0.00     0.049 A 
ATOM     44  N   UNL A   1      42.304  27.245  28.371  1.00  0.00    -0.248 NA
ATOM     45  C   UNL A   1      40.789  25.471  28.399  1.00  0.00     0.031 C 
ATOM     46  C   UNL A   1      45.410  24.535  26.640  1.00  0.00     0.029 A 
ATOM     47  N   UNL A   1      44.987  26.607  27.367  1.00  0.00    -0.354 N 
ATOM     48  C   UNL A   1      41.063  27.707  28.792  1.00  0.00     0.074 A 
ATOM     49  C   UNL A   1      40.153  26.585  28.733  1.00  0.00     0.031 C 
ATOM     50  C   UNL A   1      46.514  25.268  26.431  1.00  0.00     0.029 A 
ATOM     51  C   UNL A   1      46.268  26.639  26.867  1.00  0.00     0.049 A 
ATOM     52  H   UNL A   1      44.545  27.391  27.768  1.00  0.00     0.167 HD
ATOM     53  C   UNL A   1      40.718  28.946  29.218  1.00  0.00     0.034 A 
ATOM     54  C   UNL A   1      47.143  27.658  26.765  1.00  0.00     0.034 A 
ATOM     55  C   UNL A   1      41.638  30.047  29.318  1.00  0.00     0.049 A 
ATOM     56  C   UNL A   1      46.754  29.013  27.292  1.00  0.00     0.074 A 
ATOM     57  C   UNL A   1      41.413  31.312  29.829  1.00  0.00     0.029 A 
ATOM     58  N   UNL A   1      42.957  30.016  28.893  1.00  0.00    -0.354 N 
ATOM     59  N   UNL A   1      45.623  29.390  27.839  1.00  0.00    -0.248 NA
ATOM     60  C   UNL A   1      47.770  30.072  27.221  1.00  0.00     0.031 C 
ATOM     61  C   UNL A   1      42.591  32.055  29.691  1.00  0.00     0.029 A 
ATOM     62  C   UNL A   1      43.557  31.243  29.119  1.00  0.00     0.049 A 
ATOM     63  H   UNL A   1      43.403  29.236  28.490  1.00  0.00     0.167 HD
ATOM     64  C   UNL A   1      45.804  30.717  28.210  1.00  0.00     0.074 A 
ATOM     65  C   UNL A   1      47.159  31.073  27.841  1.00  0.00     0.031 C 
ATOM     66  C   UNL A   1      44.923  31.569  28.792  1.00  0.00     0.034 A 
BRANCH  53  67
ATOM     67  C   UNL A   1      39.292  29.160  29.657  1.00  0.00     0.023 A 
ATOM     68  C   UNL A   1      38.901  28.790  30.960  1.00  0.00     0.012 A 
ATOM     69  C   UNL A   1      38.351  29.763  28.800  1.00  0.00     0.148 A 
ATOM     70  C   UNL A   1      37.588  28.977  31.389  1.00  0.00     0.002 A 
ATOM     71  C   UNL A   1      37.055  29.990  29.252  1.00  0.00     0.091 A 
ATOM     72  F   UNL A   1      38.732  30.090  27.557  1.00  0.00    -0.205 F 
ATOM     73  C   UNL A   1      36.668  29.585  30.540  1.00  0.00     0.022 A 
BRANCH  71  74
ATOM     74  S   UNL A   1      35.821  30.837  28.259  1.00  0.00     0.127 S 
ATOM     75  O   UNL A   1      36.520  32.073  27.911  1.00  0.00    -0.237 OA
ATOM     76  O   UNL A   1      35.631  29.909  27.143  1.00  0.00    -0.237 OA
ATOM     77  O   UNL A   1      34.656  30.995  29.118  1.00  0.00    -0.744 OA
ENDBRANCH  71  74
ENDBRANCH  53  67
BRANCH  54  78
ATOM     78  C   UNL A   1      48.500  27.411  26.202  1.00  0.00     0.023 A 
ATOM     79  C   UNL A   1      49.516  26.914  27.041  1.00  0.00     0.012 A 
ATOM     80  C   UNL A   1      48.775  27.614  24.836  1.00  0.00     0.148 A 
ATOM     81  C   UNL A   1      50.789  26.648  26.536  1.00  0.00     0.002 A 
ATOM     82  C   UNL A   1      50.027  27.294  24.328  1.00  0.00     0.091 A 
ATOM     83  F   UNL A   1      47.795  28.095  24.057  1.00  0.00    -0.205 F 
ATOM     84  C   UNL A   1      51.042  26.827  25.178  1.00  0.00     0.022 A 
BRANCH  82  85
ATOM     85  S   UNL A   1      50.401  27.361  22.572  1.00  0.00     0.127 S 
ATOM     86  O   UNL A   1      49.360  26.504  22.011  1.00  0.00    -0.237 OA
ATOM     87  O   UNL A   1      50.246  28.788  22.286  1.00  0.00    -0.237 OA
ATOM     88  O   UNL A   1      51.765  26.867  22.440  1.00  0.00    -0.744 OA
ENDBRANCH  82  85
ENDBRANCH  54  78
BRANCH  66  89
ATOM     89  C   UNL A   1      45.398  32.964  29.101  1.00  0.00     0.023 A 
ATOM     90  C   UNL A   1      45.982  33.245  30.352  1.00  0.00     0.012 A 
ATOM     91  C   UNL A   1      45.339  33.975  28.121  1.00  0.00     0.148 A 
ATOM     92  C   UNL A   1      46.473  34.519  30.634  1.00  0.00     0.002 A 
ATOM     93  C   UNL A   1      45.875  35.228  28.392  1.00  0.00     0.091 A 
ATOM     94  F   UNL A   1      44.763  33.692  26.944  1.00  0.00    -0.205 F 
ATOM     95  C   UNL A   1      46.432  35.505  29.651  1.00  0.00     0.022 A 
BRANCH  93  96
ATOM     96  S   UNL A   1      45.953  36.529  27.155  1.00  0.00     0.127 S 
ATOM     97  O   UNL A   1      47.000  37.393  27.698  1.00  0.00    -0.237 OA
ATOM     98  O   UNL A   1      46.335  35.790  25.951  1.00  0.00    -0.237 OA
ATOM     99  O   UNL A   1      44.621  37.115  27.105  1.00  0.00    -0.744 OA
ENDBRANCH  93  96
ENDBRANCH  66  89
ENDBRANCH  40  41
ENDBRANCH  32  35
ENDBRANCH  30  31
ENDBRANCH  29  30
ENDBRANCH  28  29
ENDBRANCH   1  28
TORSDOF 20
ENDMDL
