MODEL 1
REMARK VINA RESULT:     -12.9      0.000      0.000
REMARK SMILES O=C(NCCCCCCNC(=O)c1ccccc1Nc1cccc(S(F)(F)(F)(F)F)c1)c1ccc(-c2c3nc(c(-c4cccc(S(=O)(=O)[O-])c4F)c4ccc([nH]4)c(-c4cccc(S(=O)(=O)[O-])c4F)c4nc(c(-c5cccc(S(=O)(=O)[O-])c5F)c5ccc2[nH]5)C=C4)C=C3)cc1
REMARK SMILES IDX 6 1 5 2 4 3 3 4 1 5 2 6 32 8 33 9 94 10 34 11 93 12 35 13
REMARK SMILES IDX 36 14 37 15 87 16 38 17 92 18 86 19 88 20 39 21 91 22 85 23
REMARK SMILES IDX 84 24 40 26 72 27 52 28 71 29 53 30 56 31 70 32 89 33 54 34
REMARK SMILES IDX 55 35 69 37 90 38 57 39 41 40 42 41 50 42 43 43 45 44 51 45
REMARK SMILES IDX 44 46 46 47 47 48 48 49 49 50 73 51 74 52 82 53 75 54 77 55
REMARK SMILES IDX 83 56 76 57 78 58 79 59 80 60 81 61 58 62 59 63 67 64 60 65
REMARK SMILES IDX 62 66 68 67 61 68 63 69 64 70 65 71 66 72 7 73 8 74 9 75
REMARK SMILES IDX 10 76 11 77 12 79 13 80 14 81 18 82 15 83 17 84 16 85 19 86
REMARK SMILES IDX 20 88 21 89 31 90 22 91 24 92 23 93 25 94 26 95 27 96 28 97
REMARK SMILES IDX 29 98 30 99
REMARK H PARENT 3 7 88 25 56 36 10 78 19 87
REMARK Flexibility Score: inf
ROOT
ATOM      1  C   UNL A   1      31.757  30.604  26.852  1.00  0.00     0.002 C 
ENDROOT
BRANCH   1   2
ATOM      2  C   UNL A   1      31.505  32.095  26.694  1.00  0.00     0.021 C 
BRANCH   2   3
ATOM      3  C   UNL A   1      32.694  32.869  27.239  1.00  0.00     0.116 C 
BRANCH   3   4
ATOM      4  N   UNL A   1      32.264  34.221  27.626  1.00  0.00    -0.352 N 
ATOM      5  O   UNL A   1      32.630  36.125  28.998  1.00  0.00    -0.269 OA
ATOM      6  C   UNL A   1      33.001  34.957  28.664  1.00  0.00     0.251 C 
ATOM      7  H   UNL A   1      31.485  34.633  27.190  1.00  0.00     0.163 HD
BRANCH   6   8
ATOM      8  C   UNL A   1      34.206  34.320  29.337  1.00  0.00     0.039 A 
ATOM      9  C   UNL A   1      35.467  34.559  28.818  1.00  0.00     0.014 A 
ATOM     10  C   UNL A   1      34.035  33.542  30.400  1.00  0.00     0.014 A 
ATOM     11  C   UNL A   1      36.468  33.695  29.321  1.00  0.00     0.010 A 
ATOM     12  C   UNL A   1      35.087  32.830  30.922  1.00  0.00     0.010 A 
ATOM     13  C   UNL A   1      36.351  32.975  30.422  1.00  0.00    -0.014 A 
BRANCH  13  14
ATOM     14  C   UNL A   1      37.556  32.338  31.093  1.00  0.00     0.031 A 
ATOM     15  C   UNL A   1      38.027  32.874  32.294  1.00  0.00     0.074 A 
ATOM     16  C   UNL A   1      38.117  31.240  30.464  1.00  0.00     0.049 A 
ATOM     17  N   UNL A   1      39.036  32.430  33.043  1.00  0.00    -0.248 NA
ATOM     18  C   UNL A   1      37.455  34.061  32.946  1.00  0.00     0.031 C 
ATOM     19  C   UNL A   1      37.643  30.687  29.258  1.00  0.00     0.029 A 
ATOM     20  N   UNL A   1      39.203  30.497  30.870  1.00  0.00    -0.354 N 
ATOM     21  C   UNL A   1      39.175  33.192  34.129  1.00  0.00     0.074 A 
ATOM     22  C   UNL A   1      38.163  34.256  34.080  1.00  0.00     0.031 C 
ATOM     23  C   UNL A   1      38.439  29.635  28.935  1.00  0.00     0.029 A 
ATOM     24  C   UNL A   1      39.424  29.511  29.933  1.00  0.00     0.049 A 
ATOM     25  H   UNL A   1      39.732  30.645  31.687  1.00  0.00     0.167 HD
ATOM     26  C   UNL A   1      40.105  33.041  35.159  1.00  0.00     0.034 A 
ATOM     27  C   UNL A   1      40.421  28.549  29.932  1.00  0.00     0.034 A 
ATOM     28  C   UNL A   1      41.076  32.052  35.181  1.00  0.00     0.049 A 
ATOM     29  C   UNL A   1      41.388  28.434  30.934  1.00  0.00     0.074 A 
ATOM     30  C   UNL A   1      42.015  31.881  36.215  1.00  0.00     0.029 A 
ATOM     31  N   UNL A   1      41.311  31.081  34.232  1.00  0.00    -0.354 N 
ATOM     32  N   UNL A   1      41.501  29.172  32.040  1.00  0.00    -0.248 NA
ATOM     33  C   UNL A   1      42.469  27.439  30.927  1.00  0.00     0.031 C 
ATOM     34  C   UNL A   1      42.812  30.827  35.892  1.00  0.00     0.029 A 
ATOM     35  C   UNL A   1      42.383  30.324  34.649  1.00  0.00     0.049 A 
ATOM     36  H   UNL A   1      40.801  30.951  33.401  1.00  0.00     0.167 HD
ATOM     37  C   UNL A   1      42.538  28.751  32.768  1.00  0.00     0.074 A 
ATOM     38  C   UNL A   1      43.180  27.636  32.060  1.00  0.00     0.031 C 
ATOM     39  C   UNL A   1      42.972  29.252  33.997  1.00  0.00     0.034 A 
BRANCH  26  40
ATOM     40  C   UNL A   1      40.048  34.016  36.325  1.00  0.00     0.023 A 
ATOM     41  C   UNL A   1      40.534  35.302  36.152  1.00  0.00     0.012 A 
ATOM     42  C   UNL A   1      39.511  33.632  37.477  1.00  0.00     0.148 A 
ATOM     43  C   UNL A   1      40.670  36.029  37.358  1.00  0.00     0.002 A 
ATOM     44  C   UNL A   1      39.561  34.450  38.579  1.00  0.00     0.091 A 
ATOM     45  F   UNL A   1      38.920  32.443  37.563  1.00  0.00    -0.205 F 
ATOM     46  C   UNL A   1      40.080  35.711  38.496  1.00  0.00     0.022 A 
BRANCH  44  47
ATOM     47  S   UNL A   1      38.930  33.847  40.165  1.00  0.00     0.127 S 
ATOM     48  O   UNL A   1      39.134  34.919  41.237  1.00  0.00    -0.237 OA
ATOM     49  O   UNL A   1      37.437  33.535  40.034  1.00  0.00    -0.237 OA
ATOM     50  O   UNL A   1      39.771  32.427  40.612  1.00  0.00    -0.744 OA
ENDBRANCH  44  47
ENDBRANCH  26  40
BRANCH  27  51
ATOM     51  C   UNL A   1      40.467  27.564  28.775  1.00  0.00     0.023 A 
ATOM     52  C   UNL A   1      39.641  26.454  28.795  1.00  0.00     0.012 A 
ATOM     53  C   UNL A   1      41.322  27.768  27.779  1.00  0.00     0.148 A 
ATOM     54  C   UNL A   1      39.996  25.457  27.857  1.00  0.00     0.002 A 
ATOM     55  C   UNL A   1      41.521  26.806  26.819  1.00  0.00     0.091 A 
ATOM     56  F   UNL A   1      41.993  28.916  27.711  1.00  0.00    -0.205 F 
ATOM     57  C   UNL A   1      40.780  25.656  26.813  1.00  0.00     0.022 A 
BRANCH  55  58
ATOM     58  S   UNL A   1      42.781  27.062  25.545  1.00  0.00     0.127 S 
ATOM     59  O   UNL A   1      42.353  28.211  24.630  1.00  0.00    -0.237 OA
ATOM     60  O   UNL A   1      44.115  27.408  26.210  1.00  0.00    -0.237 OA
ATOM     61  O   UNL A   1      42.958  25.632  24.623  1.00  0.00    -0.744 OA
ENDBRANCH  55  58
ENDBRANCH  27  51
BRANCH  39  62
ATOM     62  C   UNL A   1      44.163  28.579  34.660  1.00  0.00     0.023 A 
ATOM     63  C   UNL A   1      45.434  29.051  34.380  1.00  0.00     0.012 A 
ATOM     64  C   UNL A   1      43.975  27.553  35.483  1.00  0.00     0.148 A 
ATOM     65  C   UNL A   1      46.472  28.183  34.793  1.00  0.00     0.002 A 
ATOM     66  C   UNL A   1      45.044  26.832  35.958  1.00  0.00     0.091 A 
ATOM     67  F   UNL A   1      42.741  27.220  35.850  1.00  0.00    -0.205 F 
ATOM     68  C   UNL A   1      46.327  27.207  35.671  1.00  0.00     0.022 A 
BRANCH  66  69
ATOM     69  S   UNL A   1      44.749  25.366  36.978  1.00  0.00     0.127 S 
ATOM     70  O   UNL A   1      43.695  24.483  36.307  1.00  0.00    -0.237 OA
ATOM     71  O   UNL A   1      46.053  24.580  37.129  1.00  0.00    -0.237 OA
ATOM     72  O   UNL A   1      44.191  25.848  38.521  1.00  0.00    -0.744 OA
ENDBRANCH  66  69
ENDBRANCH  39  62
ENDBRANCH  13  14
ENDBRANCH   6   8
ENDBRANCH   3   4
ENDBRANCH   2   3
ENDBRANCH   1   2
BRANCH   1  73
ATOM     73  C   UNL A   1      33.216  30.372  27.207  1.00  0.00     0.002 C 
BRANCH  73  74
ATOM     74  C   UNL A   1      33.837  29.416  26.202  1.00  0.00     0.021 C 
BRANCH  74  75
ATOM     75  C   UNL A   1      32.886  29.223  25.032  1.00  0.00     0.116 C 
BRANCH  75  76
ATOM     76  N   UNL A   1      33.623  29.386  23.770  1.00  0.00    -0.352 N 
ATOM     77  C   UNL A   1      33.777  28.246  22.855  1.00  0.00     0.253 C 
ATOM     78  H   UNL A   1      34.014  30.260  23.538  1.00  0.00     0.163 HD
ATOM     79  O   UNL A   1      34.414  28.387  21.765  1.00  0.00    -0.269 OA
BRANCH  77  80
ATOM     80  C   UNL A   1      33.174  26.898  23.214  1.00  0.00     0.063 A 
ATOM     81  C   UNL A   1      33.817  26.089  24.136  1.00  0.00     0.016 A 
ATOM     82  C   UNL A   1      32.040  26.518  22.637  1.00  0.00     0.051 A 
ATOM     83  C   UNL A   1      33.331  24.759  24.170  1.00  0.00     0.001 A 
ATOM     84  C   UNL A   1      31.552  25.247  22.822  1.00  0.00     0.027 A 
ATOM     85  C   UNL A   1      32.170  24.374  23.674  1.00  0.00     0.002 A 
BRANCH  82  86
ATOM     86  N   UNL A   1      31.299  27.467  21.793  1.00  0.00    -0.355 N 
ATOM     87  H   UNL A   1      31.558  27.593  20.851  1.00  0.00     0.167 HD
BRANCH  86  88
ATOM     88  C   UNL A   1      30.173  28.226  22.354  1.00  0.00     0.040 A 
ATOM     89  C   UNL A   1      29.227  27.450  23.004  1.00  0.00     0.026 A 
ATOM     90  C   UNL A   1      30.087  29.550  22.342  1.00  0.00     0.050 A 
ATOM     91  C   UNL A   1      28.058  28.158  23.371  1.00  0.00     0.004 A 
ATOM     92  C   UNL A   1      28.974  30.184  22.842  1.00  0.00     0.109 A 
ATOM     93  C   UNL A   1      27.973  29.475  23.445  1.00  0.00     0.024 A 
BRANCH  92  94
ATOM     94  S   UNL A   1      28.833  31.982  22.700  1.00  0.00     0.310 S 
ATOM     95  F   UNL A   1      27.305  31.854  23.102  1.00  0.00    -0.094 F 
ATOM     96  F   UNL A   1      28.374  31.896  21.195  1.00  0.00    -0.094 F 
ATOM     97  F   UNL A   1      28.640  33.526  22.699  1.00  0.00    -0.094 F 
ATOM     98  F   UNL A   1      29.160  32.032  24.244  1.00  0.00    -0.094 F 
ATOM     99  F   UNL A   1      28.924  30.405  22.746  1.00  0.00    -0.094 F 
ENDBRANCH  92  94
ENDBRANCH  86  88
ENDBRANCH  82  86
ENDBRANCH  77  80
ENDBRANCH  75  76
ENDBRANCH  74  75
ENDBRANCH  73  74
ENDBRANCH   1  73
TORSDOF 19
ENDMDL
MODEL 2
REMARK VINA RESULT:     -12.7      0.197      7.477
REMARK SMILES O=C(NCCCCCCNC(=O)c1ccccc1Nc1cccc(S(F)(F)(F)(F)F)c1)c1ccc(-c2c3nc(c(-c4cccc(S(=O)(=O)[O-])c4F)c4ccc([nH]4)c(-c4cccc(S(=O)(=O)[O-])c4F)c4nc(c(-c5cccc(S(=O)(=O)[O-])c5F)c5ccc2[nH]5)C=C4)C=C3)cc1
REMARK SMILES IDX 6 1 5 2 4 3 3 4 1 5 2 6 32 8 33 9 94 10 34 11 93 12 35 13
REMARK SMILES IDX 36 14 37 15 87 16 38 17 92 18 86 19 88 20 39 21 91 22 85 23
REMARK SMILES IDX 84 24 40 26 72 27 52 28 71 29 53 30 56 31 70 32 89 33 54 34
REMARK SMILES IDX 55 35 69 37 90 38 57 39 41 40 42 41 50 42 43 43 45 44 51 45
REMARK SMILES IDX 44 46 46 47 47 48 48 49 49 50 73 51 74 52 82 53 75 54 77 55
REMARK SMILES IDX 83 56 76 57 78 58 79 59 80 60 81 61 58 62 59 63 67 64 60 65
REMARK SMILES IDX 62 66 68 67 61 68 63 69 64 70 65 71 66 72 7 73 8 74 9 75
REMARK SMILES IDX 10 76 11 77 12 79 13 80 14 81 18 82 15 83 17 84 16 85 19 86
REMARK SMILES IDX 20 88 21 89 31 90 22 91 24 92 23 93 25 94 26 95 27 96 28 97
REMARK SMILES IDX 29 98 30 99
REMARK H PARENT 3 7 88 25 56 36 10 78 19 87
REMARK Flexibility Score: inf
ROOT
ATOM      1  C   UNL A   1      31.661  30.712  26.783  1.00  0.00     0.002 C 
ENDROOT
BRANCH   1   2
ATOM      2  C   UNL A   1      31.405  32.210  26.748  1.00  0.00     0.021 C 
BRANCH   2   3
ATOM      3  C   UNL A   1      32.650  32.946  27.214  1.00  0.00     0.116 C 
BRANCH   3   4
ATOM      4  N   UNL A   1      32.276  34.279  27.708  1.00  0.00    -0.352 N 
ATOM      5  O   UNL A   1      32.726  36.056  29.219  1.00  0.00    -0.269 OA
ATOM      6  C   UNL A   1      33.049  34.905  28.792  1.00  0.00     0.251 C 
ATOM      7  H   UNL A   1      31.510  34.752  27.314  1.00  0.00     0.163 HD
BRANCH   6   8
ATOM      8  C   UNL A   1      34.234  34.172  29.400  1.00  0.00     0.039 A 
ATOM      9  C   UNL A   1      34.012  33.293  30.447  1.00  0.00     0.014 A 
ATOM     10  C   UNL A   1      35.457  34.388  28.930  1.00  0.00     0.014 A 
ATOM     11  C   UNL A   1      35.189  32.902  31.127  1.00  0.00     0.010 A 
ATOM     12  C   UNL A   1      36.555  33.864  29.568  1.00  0.00     0.010 A 
ATOM     13  C   UNL A   1      36.411  33.032  30.644  1.00  0.00    -0.014 A 
BRANCH  13  14
ATOM     14  C   UNL A   1      37.595  32.299  31.254  1.00  0.00     0.031 A 
ATOM     15  C   UNL A   1      38.129  31.196  30.584  1.00  0.00     0.074 A 
ATOM     16  C   UNL A   1      38.083  32.787  32.453  1.00  0.00     0.049 A 
ATOM     17  N   UNL A   1      39.182  30.461  30.940  1.00  0.00    -0.248 NA
ATOM     18  C   UNL A   1      37.591  30.656  29.327  1.00  0.00     0.031 C 
ATOM     19  C   UNL A   1      37.557  33.904  33.131  1.00  0.00     0.029 A 
ATOM     20  N   UNL A   1      39.136  32.302  33.197  1.00  0.00    -0.354 N 
ATOM     21  C   UNL A   1      39.402  29.502  30.038  1.00  0.00     0.074 A 
ATOM     22  C   UNL A   1      38.378  29.611  28.990  1.00  0.00     0.031 C 
ATOM     23  C   UNL A   1      38.272  34.081  34.272  1.00  0.00     0.029 A 
ATOM     24  C   UNL A   1      39.260  33.080  34.327  1.00  0.00     0.049 A 
ATOM     25  H   UNL A   1      39.702  31.531  32.962  1.00  0.00     0.167 HD
ATOM     26  C   UNL A   1      40.417  28.544  30.046  1.00  0.00     0.034 A 
ATOM     27  C   UNL A   1      40.175  32.940  35.358  1.00  0.00     0.034 A 
ATOM     28  C   UNL A   1      41.359  28.431  31.056  1.00  0.00     0.049 A 
ATOM     29  C   UNL A   1      41.154  31.945  35.396  1.00  0.00     0.074 A 
ATOM     30  C   UNL A   1      42.393  27.475  31.076  1.00  0.00     0.029 A 
ATOM     31  N   UNL A   1      41.467  29.194  32.198  1.00  0.00    -0.354 N 
ATOM     32  N   UNL A   1      41.398  31.012  34.473  1.00  0.00    -0.248 NA
ATOM     33  C   UNL A   1      42.108  31.767  36.499  1.00  0.00     0.031 C 
ATOM     34  C   UNL A   1      43.110  27.654  32.218  1.00  0.00     0.029 A 
ATOM     35  C   UNL A   1      42.534  28.723  32.930  1.00  0.00     0.049 A 
ATOM     36  H   UNL A   1      40.884  29.946  32.447  1.00  0.00     0.167 HD
ATOM     37  C   UNL A   1      42.426  30.250  34.851  1.00  0.00     0.074 A 
ATOM     38  C   UNL A   1      42.894  30.719  36.163  1.00  0.00     0.031 C 
ATOM     39  C   UNL A   1      42.996  29.183  34.153  1.00  0.00     0.034 A 
BRANCH  26  40
ATOM     40  C   UNL A   1      40.493  27.569  28.881  1.00  0.00     0.023 A 
ATOM     41  C   UNL A   1      39.686  26.443  28.891  1.00  0.00     0.012 A 
ATOM     42  C   UNL A   1      41.305  27.825  27.864  1.00  0.00     0.148 A 
ATOM     43  C   UNL A   1      40.024  25.488  27.903  1.00  0.00     0.002 A 
ATOM     44  C   UNL A   1      41.484  26.902  26.862  1.00  0.00     0.091 A 
ATOM     45  F   UNL A   1      41.953  28.987  27.814  1.00  0.00    -0.205 F 
ATOM     46  C   UNL A   1      40.764  25.741  26.839  1.00  0.00     0.022 A 
BRANCH  44  47
ATOM     47  S   UNL A   1      42.692  27.230  25.554  1.00  0.00     0.127 S 
ATOM     48  O   UNL A   1      42.204  28.393  24.688  1.00  0.00    -0.237 OA
ATOM     49  O   UNL A   1      44.039  27.593  26.184  1.00  0.00    -0.237 OA
ATOM     50  O   UNL A   1      42.875  25.835  24.583  1.00  0.00    -0.744 OA
ENDBRANCH  44  47
ENDBRANCH  26  40
BRANCH  27  51
ATOM     51  C   UNL A   1      40.109  33.925  36.514  1.00  0.00     0.023 A 
ATOM     52  C   UNL A   1      40.670  35.182  36.369  1.00  0.00     0.012 A 
ATOM     53  C   UNL A   1      39.543  33.552  37.657  1.00  0.00     0.148 A 
ATOM     54  C   UNL A   1      40.842  35.879  37.587  1.00  0.00     0.002 A 
ATOM     55  C   UNL A   1      39.634  34.345  38.775  1.00  0.00     0.091 A 
ATOM     56  F   UNL A   1      38.882  32.399  37.719  1.00  0.00    -0.205 F 
ATOM     57  C   UNL A   1      40.228  35.576  38.717  1.00  0.00     0.022 A 
BRANCH  55  58
ATOM     58  S   UNL A   1      38.959  33.754  40.346  1.00  0.00     0.127 S 
ATOM     59  O   UNL A   1      37.431  33.750  40.275  1.00  0.00    -0.237 OA
ATOM     60  O   UNL A   1      39.461  32.334  40.615  1.00  0.00    -0.237 OA
ATOM     61  O   UNL A   1      39.469  34.787  41.611  1.00  0.00    -0.744 OA
ENDBRANCH  55  58
ENDBRANCH  27  51
BRANCH  39  62
ATOM     62  C   UNL A   1      44.196  28.486  34.772  1.00  0.00     0.023 A 
ATOM     63  C   UNL A   1      45.466  28.919  34.428  1.00  0.00     0.012 A 
ATOM     64  C   UNL A   1      44.018  27.476  35.616  1.00  0.00     0.148 A 
ATOM     65  C   UNL A   1      46.497  28.028  34.807  1.00  0.00     0.002 A 
ATOM     66  C   UNL A   1      45.088  26.732  36.053  1.00  0.00     0.091 A 
ATOM     67  F   UNL A   1      42.793  27.182  36.043  1.00  0.00    -0.205 F 
ATOM     68  C   UNL A   1      46.366  27.067  35.704  1.00  0.00     0.022 A 
BRANCH  66  69
ATOM     69  S   UNL A   1      44.799  25.288  37.105  1.00  0.00     0.127 S 
ATOM     70  O   UNL A   1      44.289  25.748  38.473  1.00  0.00    -0.237 OA
ATOM     71  O   UNL A   1      43.757  24.379  36.450  1.00  0.00    -0.237 OA
ATOM     72  O   UNL A   1      46.263  24.426  37.304  1.00  0.00    -0.744 OA
ENDBRANCH  66  69
ENDBRANCH  39  62
ENDBRANCH  13  14
ENDBRANCH   6   8
ENDBRANCH   3   4
ENDBRANCH   2   3
ENDBRANCH   1   2
BRANCH   1  73
ATOM     73  C   UNL A   1      33.121  30.454  27.115  1.00  0.00     0.002 C 
BRANCH  73  74
ATOM     74  C   UNL A   1      33.690  29.435  26.142  1.00  0.00     0.021 C 
BRANCH  74  75
ATOM     75  C   UNL A   1      32.775  29.321  24.934  1.00  0.00     0.116 C 
BRANCH  75  76
ATOM     76  N   UNL A   1      33.576  29.396  23.703  1.00  0.00    -0.352 N 
ATOM     77  C   UNL A   1      33.762  28.198  22.872  1.00  0.00     0.253 C 
ATOM     78  H   UNL A   1      33.988  30.249  23.436  1.00  0.00     0.163 HD
ATOM     79  O   UNL A   1      34.454  28.263  21.809  1.00  0.00    -0.269 OA
BRANCH  77  80
ATOM     80  C   UNL A   1      33.125  26.881  23.285  1.00  0.00     0.063 A 
ATOM     81  C   UNL A   1      33.750  26.091  24.235  1.00  0.00     0.016 A 
ATOM     82  C   UNL A   1      31.978  26.510  22.728  1.00  0.00     0.051 A 
ATOM     83  C   UNL A   1      33.230  24.778  24.322  1.00  0.00     0.001 A 
ATOM     84  C   UNL A   1      31.457  25.261  22.964  1.00  0.00     0.027 A 
ATOM     85  C   UNL A   1      32.056  24.405  23.846  1.00  0.00     0.002 A 
BRANCH  82  86
ATOM     86  N   UNL A   1      31.258  27.445  21.851  1.00  0.00    -0.355 N 
ATOM     87  H   UNL A   1      31.535  27.551  20.912  1.00  0.00     0.167 HD
BRANCH  86  88
ATOM     88  C   UNL A   1      30.125  28.221  22.375  1.00  0.00     0.040 A 
ATOM     89  C   UNL A   1      29.188  27.470  23.065  1.00  0.00     0.026 A 
ATOM     90  C   UNL A   1      30.027  29.543  22.296  1.00  0.00     0.050 A 
ATOM     91  C   UNL A   1      28.014  28.186  23.399  1.00  0.00     0.004 A 
ATOM     92  C   UNL A   1      28.910  30.190  22.766  1.00  0.00     0.109 A 
ATOM     93  C   UNL A   1      27.916  29.503  23.406  1.00  0.00     0.024 A 
BRANCH  92  94
ATOM     94  S   UNL A   1      28.751  31.978  22.533  1.00  0.00     0.310 S 
ATOM     95  F   UNL A   1      27.295  31.890  23.153  1.00  0.00    -0.094 F 
ATOM     96  F   UNL A   1      28.084  31.803  21.116  1.00  0.00    -0.094 F 
ATOM     97  F   UNL A   1      28.562  33.520  22.463  1.00  0.00    -0.094 F 
ATOM     98  F   UNL A   1      29.293  32.120  24.009  1.00  0.00    -0.094 F 
ATOM     99  F   UNL A   1      28.846  30.405  22.664  1.00  0.00    -0.094 F 
ENDBRANCH  92  94
ENDBRANCH  86  88
ENDBRANCH  82  86
ENDBRANCH  77  80
ENDBRANCH  75  76
ENDBRANCH  74  75
ENDBRANCH  73  74
ENDBRANCH   1  73
TORSDOF 19
ENDMDL
MODEL 3
REMARK VINA RESULT:     -12.7      4.526      5.941
REMARK SMILES O=C(NCCCCCCNC(=O)c1ccccc1Nc1cccc(S(F)(F)(F)(F)F)c1)c1ccc(-c2c3nc(c(-c4cccc(S(=O)(=O)[O-])c4F)c4ccc([nH]4)c(-c4cccc(S(=O)(=O)[O-])c4F)c4nc(c(-c5cccc(S(=O)(=O)[O-])c5F)c5ccc2[nH]5)C=C4)C=C3)cc1
REMARK SMILES IDX 6 1 5 2 4 3 3 4 1 5 2 6 32 8 33 9 94 10 34 11 93 12 35 13
REMARK SMILES IDX 36 14 37 15 87 16 38 17 92 18 86 19 88 20 39 21 91 22 85 23
REMARK SMILES IDX 84 24 40 26 72 27 52 28 71 29 53 30 56 31 70 32 89 33 54 34
REMARK SMILES IDX 55 35 69 37 90 38 57 39 41 40 42 41 50 42 43 43 45 44 51 45
REMARK SMILES IDX 44 46 46 47 47 48 48 49 49 50 73 51 74 52 82 53 75 54 77 55
REMARK SMILES IDX 83 56 76 57 78 58 79 59 80 60 81 61 58 62 59 63 67 64 60 65
REMARK SMILES IDX 62 66 68 67 61 68 63 69 64 70 65 71 66 72 7 73 8 74 9 75
REMARK SMILES IDX 10 76 11 77 12 79 13 80 14 81 18 82 15 83 17 84 16 85 19 86
REMARK SMILES IDX 20 88 21 89 31 90 22 91 24 92 23 93 25 94 26 95 27 96 28 97
REMARK SMILES IDX 29 98 30 99
REMARK H PARENT 3 7 88 25 56 36 10 78 19 87
REMARK Flexibility Score: inf
ROOT
ATOM      1  C   UNL A   1      31.561  27.823  24.293  1.00  0.00     0.002 C 
ENDROOT
BRANCH   1   2
ATOM      2  C   UNL A   1      32.187  28.130  25.644  1.00  0.00     0.021 C 
BRANCH   2   3
ATOM      3  C   UNL A   1      33.120  29.323  25.509  1.00  0.00     0.116 C 
BRANCH   3   4
ATOM      4  N   UNL A   1      32.371  30.562  25.761  1.00  0.00    -0.352 N 
ATOM      5  O   UNL A   1      32.165  32.556  27.036  1.00  0.00    -0.269 OA
ATOM      6  C   UNL A   1      32.812  31.485  26.818  1.00  0.00     0.251 C 
ATOM      7  H   UNL A   1      31.575  30.774  25.223  1.00  0.00     0.163 HD
BRANCH   6   8
ATOM      8  C   UNL A   1      34.041  31.156  27.649  1.00  0.00     0.039 A 
ATOM      9  C   UNL A   1      34.927  32.172  27.966  1.00  0.00     0.014 A 
ATOM     10  C   UNL A   1      34.254  29.908  28.051  1.00  0.00     0.014 A 
ATOM     11  C   UNL A   1      36.167  31.716  28.472  1.00  0.00     0.010 A 
ATOM     12  C   UNL A   1      35.435  29.561  28.660  1.00  0.00     0.010 A 
ATOM     13  C   UNL A   1      36.379  30.505  28.952  1.00  0.00    -0.014 A 
BRANCH  13  14
ATOM     14  C   UNL A   1      37.609  30.178  29.783  1.00  0.00     0.031 A 
ATOM     15  C   UNL A   1      37.750  30.757  31.046  1.00  0.00     0.074 A 
ATOM     16  C   UNL A   1      38.526  29.303  29.226  1.00  0.00     0.049 A 
ATOM     17  N   UNL A   1      38.731  30.558  31.926  1.00  0.00    -0.248 NA
ATOM     18  C   UNL A   1      36.795  31.713  31.624  1.00  0.00     0.031 C 
ATOM     19  C   UNL A   1      38.388  28.707  27.957  1.00  0.00     0.029 A 
ATOM     20  N   UNL A   1      39.707  28.855  29.775  1.00  0.00    -0.354 N 
ATOM     21  C   UNL A   1      38.510  31.273  33.032  1.00  0.00     0.074 A 
ATOM     22  C   UNL A   1      37.264  32.030  32.850  1.00  0.00     0.031 C 
ATOM     23  C   UNL A   1      39.475  27.923  27.739  1.00  0.00     0.029 A 
ATOM     24  C   UNL A   1      40.311  28.012  28.867  1.00  0.00     0.049 A 
ATOM     25  H   UNL A   1      40.060  29.096  30.662  1.00  0.00     0.167 HD
ATOM     26  C   UNL A   1      39.297  31.321  34.183  1.00  0.00     0.034 A 
ATOM     27  C   UNL A   1      41.522  27.352  28.998  1.00  0.00     0.034 A 
ATOM     28  C   UNL A   1      40.487  30.626  34.332  1.00  0.00     0.049 A 
ATOM     29  C   UNL A   1      42.339  27.446  30.127  1.00  0.00     0.074 A 
ATOM     30  C   UNL A   1      41.288  30.658  35.489  1.00  0.00     0.029 A 
ATOM     31  N   UNL A   1      41.103  29.803  33.414  1.00  0.00    -0.354 N 
ATOM     32  N   UNL A   1      42.098  28.129  31.247  1.00  0.00    -0.248 NA
ATOM     33  C   UNL A   1      43.640  26.776  30.263  1.00  0.00     0.031 C 
ATOM     34  C   UNL A   1      42.377  29.872  35.270  1.00  0.00     0.029 A 
ATOM     35  C   UNL A   1      42.272  29.338  33.971  1.00  0.00     0.049 A 
ATOM     36  H   UNL A   1      40.764  29.585  32.516  1.00  0.00     0.167 HD
ATOM     37  C   UNL A   1      43.100  27.962  32.112  1.00  0.00     0.074 A 
ATOM     38  C   UNL A   1      44.110  27.096  31.489  1.00  0.00     0.031 C 
ATOM     39  C   UNL A   1      43.212  28.496  33.397  1.00  0.00     0.034 A 
BRANCH  26  40
ATOM     40  C   UNL A   1      38.821  32.184  35.342  1.00  0.00     0.023 A 
ATOM     41  C   UNL A   1      39.069  33.547  35.312  1.00  0.00     0.012 A 
ATOM     42  C   UNL A   1      38.153  31.627  36.344  1.00  0.00     0.148 A 
ATOM     43  C   UNL A   1      38.819  34.200  36.542  1.00  0.00     0.002 A 
ATOM     44  C   UNL A   1      37.823  32.360  37.458  1.00  0.00     0.091 A 
ATOM     45  F   UNL A   1      37.802  30.346  36.270  1.00  0.00    -0.205 F 
ATOM     46  C   UNL A   1      38.090  33.699  37.523  1.00  0.00     0.022 A 
BRANCH  44  47
ATOM     47  S   UNL A   1      37.022  31.541  38.859  1.00  0.00     0.127 S 
ATOM     48  O   UNL A   1      35.704  32.249  39.180  1.00  0.00    -0.237 OA
ATOM     49  O   UNL A   1      36.742  30.079  38.502  1.00  0.00    -0.237 OA
ATOM     50  O   UNL A   1      38.050  31.607  40.223  1.00  0.00    -0.744 OA
ENDBRANCH  44  47
ENDBRANCH  26  40
BRANCH  27  51
ATOM     51  C   UNL A   1      41.989  26.476  27.846  1.00  0.00     0.023 A 
ATOM     52  C   UNL A   1      42.603  27.063  26.752  1.00  0.00     0.012 A 
ATOM     53  C   UNL A   1      41.773  25.166  27.894  1.00  0.00     0.148 A 
ATOM     54  C   UNL A   1      42.693  26.216  25.622  1.00  0.00     0.002 A 
ATOM     55  C   UNL A   1      42.011  24.377  26.795  1.00  0.00     0.091 A 
ATOM     56  F   UNL A   1      41.322  24.614  29.017  1.00  0.00    -0.205 F 
ATOM     57  C   UNL A   1      42.561  24.902  25.658  1.00  0.00     0.022 A 
BRANCH  55  58
ATOM     58  S   UNL A   1      41.591  22.617  26.852  1.00  0.00     0.127 S 
ATOM     59  O   UNL A   1      42.348  21.950  28.002  1.00  0.00    -0.237 OA
ATOM     60  O   UNL A   1      40.086  22.459  27.071  1.00  0.00    -0.237 OA
ATOM     61  O   UNL A   1      42.032  21.878  25.374  1.00  0.00    -0.744 OA
ENDBRANCH  55  58
ENDBRANCH  27  51
BRANCH  39  62
ATOM     62  C   UNL A   1      44.439  28.130  34.217  1.00  0.00     0.023 A 
ATOM     63  C   UNL A   1      45.543  28.965  34.169  1.00  0.00     0.012 A 
ATOM     64  C   UNL A   1      44.443  27.025  34.952  1.00  0.00     0.148 A 
ATOM     65  C   UNL A   1      46.718  28.391  34.709  1.00  0.00     0.002 A 
ATOM     66  C   UNL A   1      45.596  26.595  35.565  1.00  0.00     0.091 A 
ATOM     67  F   UNL A   1      43.321  26.325  35.098  1.00  0.00    -0.205 F 
ATOM     68  C   UNL A   1      46.741  27.340  35.508  1.00  0.00     0.022 A 
BRANCH  66  69
ATOM     69  S   UNL A   1      45.599  25.021  36.458  1.00  0.00     0.127 S 
ATOM     70  O   UNL A   1      45.259  23.886  35.491  1.00  0.00    -0.237 OA
ATOM     71  O   UNL A   1      46.985  24.781  37.062  1.00  0.00    -0.237 OA
ATOM     72  O   UNL A   1      44.434  25.073  37.709  1.00  0.00    -0.744 OA
ENDBRANCH  66  69
ENDBRANCH  39  62
ENDBRANCH  13  14
ENDBRANCH   6   8
ENDBRANCH   3   4
ENDBRANCH   2   3
ENDBRANCH   1   2
BRANCH   1  73
ATOM     73  C   UNL A   1      30.538  26.710  24.449  1.00  0.00     0.002 C 
BRANCH  73  74
ATOM     74  C   UNL A   1      30.596  25.794  23.238  1.00  0.00     0.021 C 
BRANCH  74  75
ATOM     75  C   UNL A   1      30.950  24.385  23.684  1.00  0.00     0.116 C 
BRANCH  75  76
ATOM     76  N   UNL A   1      30.287  24.096  24.965  1.00  0.00    -0.352 N 
ATOM     77  C   UNL A   1      31.090  23.743  26.145  1.00  0.00     0.253 C 
ATOM     78  H   UNL A   1      29.306  24.138  25.031  1.00  0.00     0.163 HD
ATOM     79  O   UNL A   1      30.517  23.494  27.251  1.00  0.00    -0.269 OA
BRANCH  77  80
ATOM     80  C   UNL A   1      32.604  23.678  26.042  1.00  0.00     0.063 A 
ATOM     81  C   UNL A   1      33.343  24.847  26.122  1.00  0.00     0.016 A 
ATOM     82  C   UNL A   1      33.195  22.501  25.877  1.00  0.00     0.051 A 
ATOM     83  C   UNL A   1      34.694  24.701  25.724  1.00  0.00     0.001 A 
ATOM     84  C   UNL A   1      34.544  22.423  25.627  1.00  0.00     0.027 A 
ATOM     85  C   UNL A   1      35.325  23.546  25.632  1.00  0.00     0.002 A 
BRANCH  82  86
ATOM     86  N   UNL A   1      32.399  21.268  25.964  1.00  0.00    -0.355 N 
ATOM     87  H   UNL A   1      31.725  21.167  26.674  1.00  0.00     0.167 HD
BRANCH  86  88
ATOM     88  C   UNL A   1      32.610  20.187  24.990  1.00  0.00     0.040 A 
ATOM     89  C   UNL A   1      32.152  20.470  23.713  1.00  0.00     0.026 A 
ATOM     90  C   UNL A   1      33.265  19.063  25.254  1.00  0.00     0.050 A 
ATOM     91  C   UNL A   1      32.184  19.361  22.834  1.00  0.00     0.004 A 
ATOM     92  C   UNL A   1      33.374  18.077  24.302  1.00  0.00     0.109 A 
ATOM     93  C   UNL A   1      32.893  18.265  23.036  1.00  0.00     0.024 A 
BRANCH  92  94
ATOM     94  S   UNL A   1      34.166  16.508  24.732  1.00  0.00     0.310 S 
ATOM     95  F   UNL A   1      34.335  16.214  23.183  1.00  0.00    -0.094 F 
ATOM     96  F   UNL A   1      32.803  15.722  24.663  1.00  0.00    -0.094 F 
ATOM     97  F   UNL A   1      34.945  15.189  25.004  1.00  0.00    -0.094 F 
ATOM     98  F   UNL A   1      35.536  17.291  24.658  1.00  0.00    -0.094 F 
ATOM     99  F   UNL A   1      33.402  17.836  24.345  1.00  0.00    -0.094 F 
ENDBRANCH  92  94
ENDBRANCH  86  88
ENDBRANCH  82  86
ENDBRANCH  77  80
ENDBRANCH  75  76
ENDBRANCH  74  75
ENDBRANCH  73  74
ENDBRANCH   1  73
TORSDOF 19
ENDMDL
