MODEL 1
REMARK VINA RESULT:     -10.1      0.000      0.000
REMARK SMILES O=C(NCCCCCCNC(=O)c1ccccc1NC(=O)c1ccc(N2C(=O)[C@H]3CC=CC[C@H]3C2=O)cc1)c1ccc(-c2c3nc(c(-c4cccc(S(=O)(=O)[O-])c4F)c4ccc([nH]4)c(-c4cccc(S(=O)(=O)[O-])c4F)c4nc(c(-c5cccc(S(=O)(=O)[O-])c5F)c5ccc2[nH]5)C=C4)C=C3)cc1
REMARK SMILES IDX 6 1 5 2 4 3 3 4 1 5 2 6 39 8 40 9 101 10 41 11 100 12 42 13
REMARK SMILES IDX 43 14 44 15 94 16 45 17 99 18 93 19 95 20 46 21 98 22 92 23
REMARK SMILES IDX 91 24 47 26 79 27 59 28 78 29 60 30 63 31 77 32 96 33 61 34
REMARK SMILES IDX 62 35 76 37 97 38 64 39 48 40 49 41 57 42 50 43 52 44 58 45
REMARK SMILES IDX 51 46 53 47 54 48 55 49 56 50 80 51 81 52 89 53 82 54 84 55
REMARK SMILES IDX 90 56 83 57 85 58 86 59 87 60 88 61 65 62 66 63 74 64 67 65
REMARK SMILES IDX 69 66 75 67 68 68 70 69 71 70 72 71 73 72 7 73 8 74 9 75
REMARK SMILES IDX 10 76 11 77 12 79 13 80 14 81 18 82 15 83 17 84 16 85 19 86
REMARK SMILES IDX 20 87 21 89 22 90 23 91 38 92 24 93 37 94 25 95 26 96 27 97
REMARK SMILES IDX 35 98 28 99 29 100 34 101 36 102 30 103 33 104 31 105 32 106
REMARK H PARENT 3 7 95 25 63 36 10 78 19 88
REMARK Flexibility Score: inf
ROOT
ATOM      1  C   UNL A   1      38.684  28.270  28.443  1.00  0.00     0.002 C 
ENDROOT
BRANCH   1   2
ATOM      2  C   UNL A   1      37.830  29.531  28.570  1.00  0.00     0.021 C 
BRANCH   2   3
ATOM      3  C   UNL A   1      38.416  30.625  29.451  1.00  0.00     0.116 C 
BRANCH   3   4
ATOM      4  N   UNL A   1      37.650  30.841  30.666  1.00  0.00    -0.352 N 
ATOM      5  O   UNL A   1      37.116  30.594  32.842  1.00  0.00    -0.269 OA
ATOM      6  C   UNL A   1      37.951  30.457  31.952  1.00  0.00     0.251 C 
ATOM      7  H   UNL A   1      36.801  31.327  30.555  1.00  0.00     0.163 HD
BRANCH   6   8
ATOM      8  C   UNL A   1      39.270  29.857  32.246  1.00  0.00     0.039 A 
ATOM      9  C   UNL A   1      40.413  30.658  32.336  1.00  0.00     0.014 A 
ATOM     10  C   UNL A   1      39.368  28.475  32.429  1.00  0.00     0.014 A 
ATOM     11  C   UNL A   1      41.664  30.067  32.474  1.00  0.00     0.010 A 
ATOM     12  C   UNL A   1      40.618  27.891  32.653  1.00  0.00     0.010 A 
ATOM     13  C   UNL A   1      41.780  28.678  32.652  1.00  0.00    -0.014 A 
BRANCH  13  14
ATOM     14  C   UNL A   1      43.115  28.089  32.927  1.00  0.00     0.031 A 
ATOM     15  C   UNL A   1      44.024  27.643  31.814  1.00  0.00     0.074 A 
ATOM     16  C   UNL A   1      43.499  27.950  34.211  1.00  0.00     0.049 A 
ATOM     17  N   UNL A   1      45.223  27.124  31.894  1.00  0.00    -0.248 NA
ATOM     18  C   UNL A   1      43.527  27.788  30.436  1.00  0.00     0.031 C 
ATOM     19  C   UNL A   1      42.679  28.300  35.375  1.00  0.00     0.029 A 
ATOM     20  N   UNL A   1      44.664  27.476  34.759  1.00  0.00    -0.354 N 
ATOM     21  C   UNL A   1      45.609  26.844  30.589  1.00  0.00     0.074 A 
ATOM     22  C   UNL A   1      44.514  27.248  29.732  1.00  0.00     0.031 C 
ATOM     23  C   UNL A   1      43.373  28.048  36.495  1.00  0.00     0.029 A 
ATOM     24  C   UNL A   1      44.662  27.472  36.134  1.00  0.00     0.049 A 
ATOM     25  H   UNL A   1      45.428  27.169  34.218  1.00  0.00     0.167 HD
ATOM     26  C   UNL A   1      46.775  26.313  30.147  1.00  0.00     0.034 A 
ATOM     27  C   UNL A   1      45.585  27.037  37.011  1.00  0.00     0.034 A 
ATOM     28  C   UNL A   1      47.874  25.951  31.004  1.00  0.00     0.049 A 
ATOM     29  C   UNL A   1      46.877  26.481  36.487  1.00  0.00     0.074 A 
ATOM     30  C   UNL A   1      49.124  25.474  30.643  1.00  0.00     0.029 A 
ATOM     31  N   UNL A   1      47.858  26.014  32.388  1.00  0.00    -0.354 N 
ATOM     32  N   UNL A   1      47.277  26.358  35.245  1.00  0.00    -0.248 NA
ATOM     33  C   UNL A   1      47.858  26.030  37.485  1.00  0.00     0.031 C 
ATOM     34  C   UNL A   1      49.853  25.230  31.811  1.00  0.00     0.029 A 
ATOM     35  C   UNL A   1      49.069  25.575  32.899  1.00  0.00     0.049 A 
ATOM     36  H   UNL A   1      47.097  26.326  32.929  1.00  0.00     0.167 HD
ATOM     37  C   UNL A   1      48.564  25.840  35.310  1.00  0.00     0.074 A 
ATOM     38  C   UNL A   1      48.888  25.702  36.715  1.00  0.00     0.031 C 
ATOM     39  C   UNL A   1      49.396  25.492  34.298  1.00  0.00     0.034 A 
BRANCH  26  40
ATOM     40  C   UNL A   1      46.955  26.125  28.662  1.00  0.00     0.023 A 
ATOM     41  C   UNL A   1      46.803  24.840  28.103  1.00  0.00     0.012 A 
ATOM     42  C   UNL A   1      47.170  27.228  27.812  1.00  0.00     0.148 A 
ATOM     43  C   UNL A   1      46.882  24.652  26.723  1.00  0.00     0.002 A 
ATOM     44  C   UNL A   1      47.209  27.038  26.435  1.00  0.00     0.091 A 
ATOM     45  F   UNL A   1      47.327  28.439  28.364  1.00  0.00    -0.205 F 
ATOM     46  C   UNL A   1      47.073  25.751  25.890  1.00  0.00     0.022 A 
BRANCH  44  47
ATOM     47  S   UNL A   1      47.371  28.398  25.270  1.00  0.00     0.127 S 
ATOM     48  O   UNL A   1      46.100  29.096  25.453  1.00  0.00    -0.237 OA
ATOM     49  O   UNL A   1      48.539  29.110  25.789  1.00  0.00    -0.237 OA
ATOM     50  O   UNL A   1      47.564  27.786  23.962  1.00  0.00    -0.744 OA
ENDBRANCH  44  47
ENDBRANCH  26  40
BRANCH  27  51
ATOM     51  C   UNL A   1      45.329  27.151  38.474  1.00  0.00     0.023 A 
ATOM     52  C   UNL A   1      44.761  26.065  39.167  1.00  0.00     0.012 A 
ATOM     53  C   UNL A   1      45.683  28.312  39.188  1.00  0.00     0.148 A 
ATOM     54  C   UNL A   1      44.524  26.144  40.539  1.00  0.00     0.002 A 
ATOM     55  C   UNL A   1      45.501  28.361  40.565  1.00  0.00     0.091 A 
ATOM     56  F   UNL A   1      46.206  29.344  38.510  1.00  0.00    -0.205 F 
ATOM     57  C   UNL A   1      44.906  27.286  41.241  1.00  0.00     0.022 A 
BRANCH  55  58
ATOM     58  S   UNL A   1      46.103  29.735  41.555  1.00  0.00     0.127 S 
ATOM     59  O   UNL A   1      47.530  29.722  41.246  1.00  0.00    -0.237 OA
ATOM     60  O   UNL A   1      45.360  30.865  40.995  1.00  0.00    -0.237 OA
ATOM     61  O   UNL A   1      45.741  29.406  42.927  1.00  0.00    -0.744 OA
ENDBRANCH  55  58
ENDBRANCH  27  51
BRANCH  39  62
ATOM     62  C   UNL A   1      50.749  24.950  34.671  1.00  0.00     0.023 A 
ATOM     63  C   UNL A   1      51.737  25.823  35.169  1.00  0.00     0.012 A 
ATOM     64  C   UNL A   1      51.022  23.571  34.586  1.00  0.00     0.148 A 
ATOM     65  C   UNL A   1      52.988  25.336  35.545  1.00  0.00     0.002 A 
ATOM     66  C   UNL A   1      52.255  23.086  35.007  1.00  0.00     0.091 A 
ATOM     67  F   UNL A   1      50.077  22.760  34.089  1.00  0.00    -0.205 F 
ATOM     68  C   UNL A   1      53.243  23.967  35.475  1.00  0.00     0.022 A 
BRANCH  66  69
ATOM     69  S   UNL A   1      52.636  21.331  35.037  1.00  0.00     0.127 S 
ATOM     70  O   UNL A   1      53.674  21.270  36.065  1.00  0.00    -0.237 OA
ATOM     71  O   UNL A   1      51.357  20.739  35.426  1.00  0.00    -0.237 OA
ATOM     72  O   UNL A   1      53.071  20.993  33.688  1.00  0.00    -0.744 OA
ENDBRANCH  66  69
ENDBRANCH  39  62
ENDBRANCH  13  14
ENDBRANCH   6   8
ENDBRANCH   3   4
ENDBRANCH   2   3
ENDBRANCH   1   2
BRANCH   1  73
ATOM     73  C   UNL A   1      40.196  28.476  28.580  1.00  0.00     0.002 C 
BRANCH  73  74
ATOM     74  C   UNL A   1      41.082  27.541  27.747  1.00  0.00     0.021 C 
BRANCH  74  75
ATOM     75  C   UNL A   1      40.667  26.072  27.748  1.00  0.00     0.116 C 
BRANCH  75  76
ATOM     76  N   UNL A   1      41.436  25.290  28.701  1.00  0.00    -0.352 N 
ATOM     77  C   UNL A   1      42.358  24.304  28.479  1.00  0.00     0.253 C 
ATOM     78  H   UNL A   1      41.268  25.502  29.647  1.00  0.00     0.163 HD
ATOM     79  O   UNL A   1      42.770  23.631  29.421  1.00  0.00    -0.269 OA
BRANCH  77  80
ATOM     80  C   UNL A   1      42.878  24.035  27.122  1.00  0.00     0.063 A 
ATOM     81  C   UNL A   1      43.417  25.142  26.446  1.00  0.00     0.016 A 
ATOM     82  C   UNL A   1      42.761  22.780  26.486  1.00  0.00     0.054 A 
ATOM     83  C   UNL A   1      43.845  25.020  25.128  1.00  0.00     0.001 A 
ATOM     84  C   UNL A   1      43.127  22.707  25.137  1.00  0.00     0.027 A 
ATOM     85  C   UNL A   1      43.683  23.807  24.470  1.00  0.00     0.002 A 
BRANCH  82  86
ATOM     86  N   UNL A   1      42.260  21.675  27.216  1.00  0.00    -0.321 N 
ATOM     87  C   UNL A   1      41.023  21.080  27.319  1.00  0.00     0.255 C 
ATOM     88  H   UNL A   1      42.946  21.238  27.771  1.00  0.00     0.170 HD
ATOM     89  O   UNL A   1      40.866  20.132  28.087  1.00  0.00    -0.269 OA
BRANCH  87  90
ATOM     90  C   UNL A   1      39.872  21.533  26.525  1.00  0.00     0.040 A 
ATOM     91  C   UNL A   1      39.252  20.601  25.698  1.00  0.00     0.016 A 
ATOM     92  C   UNL A   1      39.365  22.828  26.632  1.00  0.00     0.016 A 
ATOM     93  C   UNL A   1      38.034  20.918  25.096  1.00  0.00     0.027 A 
ATOM     94  C   UNL A   1      38.145  23.141  26.016  1.00  0.00     0.027 A 
ATOM     95  C   UNL A   1      37.428  22.171  25.293  1.00  0.00     0.052 A 
BRANCH  95  96
ATOM     96  N   UNL A   1      36.091  22.414  24.857  1.00  0.00    -0.250 N 
ATOM     97  C   UNL A   1      34.983  22.220  25.652  1.00  0.00     0.238 C 
ATOM     98  C   UNL A   1      35.756  22.955  23.640  1.00  0.00     0.238 C 
ATOM     99  O   UNL A   1      34.929  21.777  26.793  1.00  0.00    -0.274 OA
ATOM    100  C   UNL A   1      33.749  22.707  24.930  1.00  0.00     0.096 C 
ATOM    101  C   UNL A   1      34.276  23.245  23.602  1.00  0.00     0.096 C 
ATOM    102  O   UNL A   1      36.486  23.174  22.681  1.00  0.00    -0.274 OA
ATOM    103  C   UNL A   1      33.000  23.716  25.808  1.00  0.00     0.041 C 
ATOM    104  C   UNL A   1      34.061  24.739  23.339  1.00  0.00     0.041 C 
ATOM    105  C   UNL A   1      33.585  25.096  25.737  1.00  0.00    -0.030 C 
ATOM    106  C   UNL A   1      34.083  25.569  24.588  1.00  0.00    -0.030 C 
ENDBRANCH  95  96
ENDBRANCH  87  90
ENDBRANCH  82  86
ENDBRANCH  77  80
ENDBRANCH  75  76
ENDBRANCH  74  75
ENDBRANCH  73  74
ENDBRANCH   1  73
TORSDOF 19
ENDMDL
MODEL 2
REMARK VINA RESULT:      -9.9     10.987     15.767
REMARK SMILES O=C(NCCCCCCNC(=O)c1ccccc1NC(=O)c1ccc(N2C(=O)[C@H]3CC=CC[C@H]3C2=O)cc1)c1ccc(-c2c3nc(c(-c4cccc(S(=O)(=O)[O-])c4F)c4ccc([nH]4)c(-c4cccc(S(=O)(=O)[O-])c4F)c4nc(c(-c5cccc(S(=O)(=O)[O-])c5F)c5ccc2[nH]5)C=C4)C=C3)cc1
REMARK SMILES IDX 6 1 5 2 4 3 3 4 1 5 2 6 39 8 40 9 101 10 41 11 100 12 42 13
REMARK SMILES IDX 43 14 44 15 94 16 45 17 99 18 93 19 95 20 46 21 98 22 92 23
REMARK SMILES IDX 91 24 47 26 79 27 59 28 78 29 60 30 63 31 77 32 96 33 61 34
REMARK SMILES IDX 62 35 76 37 97 38 64 39 48 40 49 41 57 42 50 43 52 44 58 45
REMARK SMILES IDX 51 46 53 47 54 48 55 49 56 50 80 51 81 52 89 53 82 54 84 55
REMARK SMILES IDX 90 56 83 57 85 58 86 59 87 60 88 61 65 62 66 63 74 64 67 65
REMARK SMILES IDX 69 66 75 67 68 68 70 69 71 70 72 71 73 72 7 73 8 74 9 75
REMARK SMILES IDX 10 76 11 77 12 79 13 80 14 81 18 82 15 83 17 84 16 85 19 86
REMARK SMILES IDX 20 87 21 89 22 90 23 91 38 92 24 93 37 94 25 95 26 96 27 97
REMARK SMILES IDX 35 98 28 99 29 100 34 101 36 102 30 103 33 104 31 105 32 106
REMARK H PARENT 3 7 95 25 63 36 10 78 19 88
REMARK Flexibility Score: inf
ROOT
ATOM      1  C   UNL A   1      48.449  38.541  26.538  1.00  0.00     0.002 C 
ENDROOT
BRANCH   1   2
ATOM      2  C   UNL A   1      48.687  37.046  26.745  1.00  0.00     0.021 C 
BRANCH   2   3
ATOM      3  C   UNL A   1      48.904  36.618  28.189  1.00  0.00     0.116 C 
BRANCH   3   4
ATOM      4  N   UNL A   1      48.123  37.398  29.133  1.00  0.00    -0.352 N 
ATOM      5  O   UNL A   1      46.305  37.963  30.340  1.00  0.00    -0.269 OA
ATOM      6  C   UNL A   1      46.888  37.117  29.667  1.00  0.00     0.251 C 
ATOM      7  H   UNL A   1      48.533  38.243  29.430  1.00  0.00     0.163 HD
BRANCH   6   8
ATOM      8  C   UNL A   1      46.259  35.805  29.402  1.00  0.00     0.039 A 
ATOM      9  C   UNL A   1      46.508  34.714  30.240  1.00  0.00     0.014 A 
ATOM     10  C   UNL A   1      45.413  35.662  28.299  1.00  0.00     0.014 A 
ATOM     11  C   UNL A   1      46.023  33.454  29.901  1.00  0.00     0.010 A 
ATOM     12  C   UNL A   1      44.857  34.413  28.008  1.00  0.00     0.010 A 
ATOM     13  C   UNL A   1      45.178  33.293  28.791  1.00  0.00    -0.014 A 
BRANCH  13  14
ATOM     14  C   UNL A   1      44.570  31.963  28.528  1.00  0.00     0.031 A 
ATOM     15  C   UNL A   1      45.247  30.947  27.649  1.00  0.00     0.074 A 
ATOM     16  C   UNL A   1      43.377  31.684  29.091  1.00  0.00     0.049 A 
ATOM     17  N   UNL A   1      44.850  29.740  27.337  1.00  0.00    -0.248 NA
ATOM     18  C   UNL A   1      46.528  31.331  27.035  1.00  0.00     0.031 C 
ATOM     19  C   UNL A   1      42.602  32.612  29.920  1.00  0.00     0.029 A 
ATOM     20  N   UNL A   1      42.604  30.552  29.052  1.00  0.00    -0.354 N 
ATOM     21  C   UNL A   1      45.805  29.234  26.464  1.00  0.00     0.074 A 
ATOM     22  C   UNL A   1      46.803  30.268  26.290  1.00  0.00     0.031 C 
ATOM     23  C   UNL A   1      41.477  32.007  30.326  1.00  0.00     0.029 A 
ATOM     24  C   UNL A   1      41.423  30.670  29.747  1.00  0.00     0.049 A 
ATOM     25  H   UNL A   1      42.869  29.734  28.572  1.00  0.00     0.167 HD
ATOM     26  C   UNL A   1      45.850  28.015  25.873  1.00  0.00     0.034 A 
ATOM     27  C   UNL A   1      40.400  29.808  29.890  1.00  0.00     0.034 A 
ATOM     28  C   UNL A   1      44.872  26.979  26.082  1.00  0.00     0.049 A 
ATOM     29  C   UNL A   1      40.496  28.455  29.246  1.00  0.00     0.074 A 
ATOM     30  C   UNL A   1      44.871  25.686  25.586  1.00  0.00     0.029 A 
ATOM     31  N   UNL A   1      43.719  27.115  26.839  1.00  0.00    -0.354 N 
ATOM     32  N   UNL A   1      41.476  27.947  28.541  1.00  0.00    -0.248 NA
ATOM     33  C   UNL A   1      39.359  27.546  29.442  1.00  0.00     0.031 C 
ATOM     34  C   UNL A   1      43.706  25.048  26.025  1.00  0.00     0.029 A 
ATOM     35  C   UNL A   1      42.992  25.935  26.815  1.00  0.00     0.049 A 
ATOM     36  H   UNL A   1      43.455  27.930  27.322  1.00  0.00     0.167 HD
ATOM     37  C   UNL A   1      41.088  26.651  28.229  1.00  0.00     0.074 A 
ATOM     38  C   UNL A   1      39.796  26.442  28.849  1.00  0.00     0.031 C 
ATOM     39  C   UNL A   1      41.733  25.724  27.479  1.00  0.00     0.034 A 
BRANCH  26  40
ATOM     40  C   UNL A   1      47.016  27.704  24.970  1.00  0.00     0.023 A 
ATOM     41  C   UNL A   1      46.905  27.942  23.585  1.00  0.00     0.012 A 
ATOM     42  C   UNL A   1      48.250  27.276  25.501  1.00  0.00     0.148 A 
ATOM     43  C   UNL A   1      47.996  27.741  22.740  1.00  0.00     0.002 A 
ATOM     44  C   UNL A   1      49.343  27.114  24.657  1.00  0.00     0.091 A 
ATOM     45  F   UNL A   1      48.331  27.039  26.817  1.00  0.00    -0.205 F 
ATOM     46  C   UNL A   1      49.216  27.339  23.277  1.00  0.00     0.022 A 
BRANCH  44  47
ATOM     47  S   UNL A   1      50.979  26.676  25.259  1.00  0.00     0.127 S 
ATOM     48  O   UNL A   1      51.342  27.867  26.024  1.00  0.00    -0.237 OA
ATOM     49  O   UNL A   1      50.702  25.491  26.071  1.00  0.00    -0.237 OA
ATOM     50  O   UNL A   1      51.789  26.425  24.074  1.00  0.00    -0.744 OA
ENDBRANCH  44  47
ENDBRANCH  26  40
BRANCH  27  51
ATOM     51  C   UNL A   1      39.218  30.191  30.713  1.00  0.00     0.023 A 
ATOM     52  C   UNL A   1      39.220  29.925  32.096  1.00  0.00     0.012 A 
ATOM     53  C   UNL A   1      38.115  30.853  30.142  1.00  0.00     0.148 A 
ATOM     54  C   UNL A   1      38.130  30.285  32.888  1.00  0.00     0.002 A 
ATOM     55  C   UNL A   1      37.060  31.265  30.947  1.00  0.00     0.091 A 
ATOM     56  F   UNL A   1      38.123  31.083  28.820  1.00  0.00    -0.205 F 
ATOM     57  C   UNL A   1      37.057  30.966  32.318  1.00  0.00     0.022 A 
BRANCH  55  58
ATOM     58  S   UNL A   1      35.717  32.274  30.312  1.00  0.00     0.127 S 
ATOM     59  O   UNL A   1      34.795  32.289  31.444  1.00  0.00    -0.237 OA
ATOM     60  O   UNL A   1      36.388  33.548  30.046  1.00  0.00    -0.237 OA
ATOM     61  O   UNL A   1      35.251  31.586  29.116  1.00  0.00    -0.744 OA
ENDBRANCH  55  58
ENDBRANCH  27  51
BRANCH  39  62
ATOM     62  C   UNL A   1      41.065  24.387  27.308  1.00  0.00     0.023 A 
ATOM     63  C   UNL A   1      41.612  23.249  27.932  1.00  0.00     0.012 A 
ATOM     64  C   UNL A   1      39.864  24.269  26.580  1.00  0.00     0.148 A 
ATOM     65  C   UNL A   1      40.992  22.006  27.807  1.00  0.00     0.002 A 
ATOM     66  C   UNL A   1      39.228  23.037  26.500  1.00  0.00     0.091 A 
ATOM     67  F   UNL A   1      39.371  25.359  25.975  1.00  0.00    -0.205 F 
ATOM     68  C   UNL A   1      39.795  21.902  27.102  1.00  0.00     0.022 A 
BRANCH  66  69
ATOM     69  S   UNL A   1      37.638  22.829  25.689  1.00  0.00     0.127 S 
ATOM     70  O   UNL A   1      37.444  21.382  25.778  1.00  0.00    -0.237 OA
ATOM     71  O   UNL A   1      36.747  23.617  26.541  1.00  0.00    -0.237 OA
ATOM     72  O   UNL A   1      37.804  23.356  24.341  1.00  0.00    -0.744 OA
ENDBRANCH  66  69
ENDBRANCH  39  62
ENDBRANCH  13  14
ENDBRANCH   6   8
ENDBRANCH   3   4
ENDBRANCH   2   3
ENDBRANCH   1   2
BRANCH   1  73
ATOM     73  C   UNL A   1      47.165  38.912  25.789  1.00  0.00     0.002 C 
BRANCH  73  74
ATOM     74  C   UNL A   1      45.883  38.960  26.630  1.00  0.00     0.021 C 
BRANCH  74  75
ATOM     75  C   UNL A   1      45.294  40.353  26.846  1.00  0.00     0.116 C 
BRANCH  75  76
ATOM     76  N   UNL A   1      44.431  40.754  25.747  1.00  0.00    -0.352 N 
ATOM     77  C   UNL A   1      44.441  41.901  25.003  1.00  0.00     0.253 C 
ATOM     78  H   UNL A   1      43.735  40.102  25.504  1.00  0.00     0.163 HD
ATOM     79  O   UNL A   1      43.513  42.137  24.234  1.00  0.00    -0.269 OA
BRANCH  77  80
ATOM     80  C   UNL A   1      45.557  42.864  25.099  1.00  0.00     0.063 A 
ATOM     81  C   UNL A   1      45.505  43.751  26.188  1.00  0.00     0.016 A 
ATOM     82  C   UNL A   1      46.569  42.973  24.121  1.00  0.00     0.054 A 
ATOM     83  C   UNL A   1      46.453  44.760  26.318  1.00  0.00     0.001 A 
ATOM     84  C   UNL A   1      47.462  44.045  24.237  1.00  0.00     0.027 A 
ATOM     85  C   UNL A   1      47.420  44.916  25.333  1.00  0.00     0.002 A 
BRANCH  82  86
ATOM     86  N   UNL A   1      46.620  42.030  23.066  1.00  0.00    -0.321 N 
ATOM     87  C   UNL A   1      46.497  42.119  21.698  1.00  0.00     0.255 C 
ATOM     88  H   UNL A   1      46.776  41.110  23.380  1.00  0.00     0.170 HD
ATOM     89  O   UNL A   1      46.543  41.097  21.015  1.00  0.00    -0.269 OA
BRANCH  87  90
ATOM     90  C   UNL A   1      46.326  43.409  21.014  1.00  0.00     0.040 A 
ATOM     91  C   UNL A   1      47.322  43.804  20.124  1.00  0.00     0.016 A 
ATOM     92  C   UNL A   1      45.184  44.190  21.186  1.00  0.00     0.016 A 
ATOM     93  C   UNL A   1      47.104  44.904  19.293  1.00  0.00     0.027 A 
ATOM     94  C   UNL A   1      44.978  45.299  20.354  1.00  0.00     0.027 A 
ATOM     95  C   UNL A   1      45.905  45.634  19.349  1.00  0.00     0.052 A 
BRANCH  95  96
ATOM     96  N   UNL A   1      45.598  46.615  18.359  1.00  0.00    -0.250 N 
ATOM     97  C   UNL A   1      44.702  46.409  17.334  1.00  0.00     0.238 C 
ATOM     98  C   UNL A   1      46.080  47.900  18.364  1.00  0.00     0.238 C 
ATOM     99  O   UNL A   1      44.077  45.391  17.058  1.00  0.00    -0.274 OA
ATOM    100  C   UNL A   1      44.511  47.692  16.561  1.00  0.00     0.096 C 
ATOM    101  C   UNL A   1      45.398  48.703  17.283  1.00  0.00     0.096 C 
ATOM    102  O   UNL A   1      46.944  48.384  19.085  1.00  0.00    -0.274 OA
ATOM    103  C   UNL A   1      43.020  48.040  16.495  1.00  0.00     0.041 C 
ATOM    104  C   UNL A   1      44.686  49.902  17.919  1.00  0.00     0.041 C 
ATOM    105  C   UNL A   1      42.526  48.717  17.740  1.00  0.00    -0.030 C 
ATOM    106  C   UNL A   1      43.304  49.580  18.403  1.00  0.00    -0.030 C 
ENDBRANCH  95  96
ENDBRANCH  87  90
ENDBRANCH  82  86
ENDBRANCH  77  80
ENDBRANCH  75  76
ENDBRANCH  74  75
ENDBRANCH  73  74
ENDBRANCH   1  73
TORSDOF 19
ENDMDL
MODEL 3
REMARK VINA RESULT:      -9.8     10.883     16.312
REMARK SMILES O=C(NCCCCCCNC(=O)c1ccccc1NC(=O)c1ccc(N2C(=O)[C@H]3CC=CC[C@H]3C2=O)cc1)c1ccc(-c2c3nc(c(-c4cccc(S(=O)(=O)[O-])c4F)c4ccc([nH]4)c(-c4cccc(S(=O)(=O)[O-])c4F)c4nc(c(-c5cccc(S(=O)(=O)[O-])c5F)c5ccc2[nH]5)C=C4)C=C3)cc1
REMARK SMILES IDX 6 1 5 2 4 3 3 4 1 5 2 6 39 8 40 9 101 10 41 11 100 12 42 13
REMARK SMILES IDX 43 14 44 15 94 16 45 17 99 18 93 19 95 20 46 21 98 22 92 23
REMARK SMILES IDX 91 24 47 26 79 27 59 28 78 29 60 30 63 31 77 32 96 33 61 34
REMARK SMILES IDX 62 35 76 37 97 38 64 39 48 40 49 41 57 42 50 43 52 44 58 45
REMARK SMILES IDX 51 46 53 47 54 48 55 49 56 50 80 51 81 52 89 53 82 54 84 55
REMARK SMILES IDX 90 56 83 57 85 58 86 59 87 60 88 61 65 62 66 63 74 64 67 65
REMARK SMILES IDX 69 66 75 67 68 68 70 69 71 70 72 71 73 72 7 73 8 74 9 75
REMARK SMILES IDX 10 76 11 77 12 79 13 80 14 81 18 82 15 83 17 84 16 85 19 86
REMARK SMILES IDX 20 87 21 89 22 90 23 91 38 92 24 93 37 94 25 95 26 96 27 97
REMARK SMILES IDX 35 98 28 99 29 100 34 101 36 102 30 103 33 104 31 105 32 106
REMARK H PARENT 3 7 95 25 63 36 10 78 19 88
REMARK Flexibility Score: inf
ROOT
ATOM      1  C   UNL A   1      47.841  39.161  26.530  1.00  0.00     0.002 C 
ENDROOT
BRANCH   1   2
ATOM      2  C   UNL A   1      48.247  37.687  26.517  1.00  0.00     0.021 C 
BRANCH   2   3
ATOM      3  C   UNL A   1      48.275  37.010  27.879  1.00  0.00     0.116 C 
BRANCH   3   4
ATOM      4  N   UNL A   1      47.585  37.776  28.903  1.00  0.00    -0.352 N 
ATOM      5  O   UNL A   1      45.893  38.312  30.293  1.00  0.00    -0.269 OA
ATOM      6  C   UNL A   1      46.413  37.478  29.557  1.00  0.00     0.251 C 
ATOM      7  H   UNL A   1      48.015  38.623  29.165  1.00  0.00     0.163 HD
BRANCH   6   8
ATOM      8  C   UNL A   1      45.773  36.161  29.345  1.00  0.00     0.039 A 
ATOM      9  C   UNL A   1      46.021  35.100  30.221  1.00  0.00     0.014 A 
ATOM     10  C   UNL A   1      44.918  35.983  28.255  1.00  0.00     0.014 A 
ATOM     11  C   UNL A   1      45.525  33.833  29.933  1.00  0.00     0.010 A 
ATOM     12  C   UNL A   1      44.351  34.728  28.014  1.00  0.00     0.010 A 
ATOM     13  C   UNL A   1      44.670  33.636  28.836  1.00  0.00    -0.014 A 
BRANCH  13  14
ATOM     14  C   UNL A   1      44.051  32.302  28.627  1.00  0.00     0.031 A 
ATOM     15  C   UNL A   1      42.730  31.940  29.248  1.00  0.00     0.074 A 
ATOM     16  C   UNL A   1      44.711  31.405  27.866  1.00  0.00     0.049 A 
ATOM     17  N   UNL A   1      42.056  30.823  29.146  1.00  0.00    -0.248 NA
ATOM     18  C   UNL A   1      42.083  32.953  30.098  1.00  0.00     0.031 C 
ATOM     19  C   UNL A   1      46.024  31.626  27.255  1.00  0.00     0.029 A 
ATOM     20  N   UNL A   1      44.378  30.131  27.481  1.00  0.00    -0.354 N 
ATOM     21  C   UNL A   1      40.929  30.979  29.945  1.00  0.00     0.074 A 
ATOM     22  C   UNL A   1      41.011  32.300  30.530  1.00  0.00     0.031 C 
ATOM     23  C   UNL A   1      46.375  30.537  26.557  1.00  0.00     0.029 A 
ATOM     24  C   UNL A   1      45.342  29.522  26.713  1.00  0.00     0.049 A 
ATOM     25  H   UNL A   1      43.531  29.696  27.732  1.00  0.00     0.167 HD
ATOM     26  C   UNL A   1      39.915  30.105  30.158  1.00  0.00     0.034 A 
ATOM     27  C   UNL A   1      45.399  28.278  26.203  1.00  0.00     0.034 A 
ATOM     28  C   UNL A   1      39.824  28.807  29.540  1.00  0.00     0.049 A 
ATOM     29  C   UNL A   1      44.245  27.346  26.434  1.00  0.00     0.074 A 
ATOM     30  C   UNL A   1      38.799  27.881  29.637  1.00  0.00     0.029 A 
ATOM     31  N   UNL A   1      40.791  28.246  28.722  1.00  0.00    -0.354 N 
ATOM     32  N   UNL A   1      43.125  27.566  27.075  1.00  0.00    -0.248 NA
ATOM     33  C   UNL A   1      44.351  26.002  25.846  1.00  0.00     0.031 C 
ATOM     34  C   UNL A   1      39.158  26.752  28.893  1.00  0.00     0.029 A 
ATOM     35  C   UNL A   1      40.395  26.983  28.314  1.00  0.00     0.049 A 
ATOM     36  H   UNL A   1      41.636  28.682  28.467  1.00  0.00     0.167 HD
ATOM     37  C   UNL A   1      42.379  26.401  26.948  1.00  0.00     0.074 A 
ATOM     38  C   UNL A   1      43.164  25.489  26.142  1.00  0.00     0.031 C 
ATOM     39  C   UNL A   1      41.163  26.106  27.469  1.00  0.00     0.034 A 
BRANCH  26  40
ATOM     40  C   UNL A   1      38.789  30.528  31.066  1.00  0.00     0.023 A 
ATOM     41  C   UNL A   1      38.892  30.298  32.453  1.00  0.00     0.012 A 
ATOM     42  C   UNL A   1      37.682  31.241  30.564  1.00  0.00     0.148 A 
ATOM     43  C   UNL A   1      37.903  30.753  33.324  1.00  0.00     0.002 A 
ATOM     44  C   UNL A   1      36.719  31.725  31.443  1.00  0.00     0.091 A 
ATOM     45  F   UNL A   1      37.594  31.436  29.241  1.00  0.00    -0.205 F 
ATOM     46  C   UNL A   1      36.824  31.476  32.821  1.00  0.00     0.022 A 
BRANCH  44  47
ATOM     47  S   UNL A   1      35.332  32.735  30.906  1.00  0.00     0.127 S 
ATOM     48  O   UNL A   1      34.928  32.052  29.678  1.00  0.00    -0.237 OA
ATOM     49  O   UNL A   1      34.396  32.590  32.021  1.00  0.00    -0.237 OA
ATOM     50  O   UNL A   1      35.860  34.081  30.728  1.00  0.00    -0.744 OA
ENDBRANCH  44  47
ENDBRANCH  26  40
BRANCH  27  51
ATOM     51  C   UNL A   1      46.577  27.864  25.389  1.00  0.00     0.023 A 
ATOM     52  C   UNL A   1      46.541  28.013  23.990  1.00  0.00     0.012 A 
ATOM     53  C   UNL A   1      47.745  27.365  25.997  1.00  0.00     0.148 A 
ATOM     54  C   UNL A   1      47.636  27.645  23.209  1.00  0.00     0.002 A 
ATOM     55  C   UNL A   1      48.854  27.058  25.219  1.00  0.00     0.091 A 
ATOM     56  F   UNL A   1      47.755  27.213  27.330  1.00  0.00    -0.205 F 
ATOM     57  C   UNL A   1      48.797  27.180  23.823  1.00  0.00     0.022 A 
BRANCH  55  58
ATOM     58  S   UNL A   1      50.430  26.597  25.950  1.00  0.00     0.127 S 
ATOM     59  O   UNL A   1      50.201  25.196  26.290  1.00  0.00    -0.237 OA
ATOM     60  O   UNL A   1      51.359  26.819  24.841  1.00  0.00    -0.237 OA
ATOM     61  O   UNL A   1      50.614  27.507  27.072  1.00  0.00    -0.744 OA
ENDBRANCH  55  58
ENDBRANCH  27  51
BRANCH  39  62
ATOM     62  C   UNL A   1      40.591  24.748  27.163  1.00  0.00     0.023 A 
ATOM     63  C   UNL A   1      39.377  24.646  26.456  1.00  0.00     0.012 A 
ATOM     64  C   UNL A   1      41.285  23.576  27.522  1.00  0.00     0.148 A 
ATOM     65  C   UNL A   1      38.845  23.397  26.140  1.00  0.00     0.002 A 
ATOM     66  C   UNL A   1      40.772  22.336  27.163  1.00  0.00     0.091 A 
ATOM     67  F   UNL A   1      42.428  23.694  28.214  1.00  0.00    -0.205 F 
ATOM     68  C   UNL A   1      39.547  22.243  26.482  1.00  0.00     0.022 A 
BRANCH  66  69
ATOM     69  S   UNL A   1      41.654  20.803  27.482  1.00  0.00     0.127 S 
ATOM     70  O   UNL A   1      40.736  20.115  28.389  1.00  0.00    -0.237 OA
ATOM     71  O   UNL A   1      41.749  20.213  26.147  1.00  0.00    -0.237 OA
ATOM     72  O   UNL A   1      42.933  21.192  28.062  1.00  0.00    -0.744 OA
ENDBRANCH  66  69
ENDBRANCH  39  62
ENDBRANCH  13  14
ENDBRANCH   6   8
ENDBRANCH   3   4
ENDBRANCH   2   3
ENDBRANCH   1   2
BRANCH   1  73
ATOM     73  C   UNL A   1      46.561  39.503  25.760  1.00  0.00     0.002 C 
BRANCH  73  74
ATOM     74  C   UNL A   1      45.248  39.373  26.543  1.00  0.00     0.021 C 
BRANCH  74  75
ATOM     75  C   UNL A   1      44.443  40.662  26.690  1.00  0.00     0.116 C 
BRANCH  75  76
ATOM     76  N   UNL A   1      43.794  41.042  25.446  1.00  0.00    -0.352 N 
ATOM     77  C   UNL A   1      43.982  42.149  24.666  1.00  0.00     0.253 C 
ATOM     78  H   UNL A   1      43.117  40.407  25.117  1.00  0.00     0.163 HD
ATOM     79  O   UNL A   1      43.206  42.384  23.743  1.00  0.00    -0.269 OA
BRANCH  77  80
ATOM     80  C   UNL A   1      45.112  43.070  24.907  1.00  0.00     0.063 A 
ATOM     81  C   UNL A   1      44.923  44.013  25.931  1.00  0.00     0.016 A 
ATOM     82  C   UNL A   1      46.277  43.087  24.109  1.00  0.00     0.054 A 
ATOM     83  C   UNL A   1      45.883  44.987  26.175  1.00  0.00     0.001 A 
ATOM     84  C   UNL A   1      47.189  44.127  24.327  1.00  0.00     0.027 A 
ATOM     85  C   UNL A   1      47.007  45.054  25.361  1.00  0.00     0.002 A 
BRANCH  82  86
ATOM     86  N   UNL A   1      46.456  42.091  23.120  1.00  0.00    -0.321 N 
ATOM     87  C   UNL A   1      46.187  42.023  21.772  1.00  0.00     0.255 C 
ATOM     88  H   UNL A   1      46.862  41.266  23.474  1.00  0.00     0.170 HD
ATOM     89  O   UNL A   1      46.417  40.983  21.157  1.00  0.00    -0.269 OA
BRANCH  87  90
ATOM     90  C   UNL A   1      45.642  43.168  21.028  1.00  0.00     0.040 A 
ATOM     91  C   UNL A   1      46.522  44.189  20.680  1.00  0.00     0.016 A 
ATOM     92  C   UNL A   1      44.310  43.216  20.619  1.00  0.00     0.016 A 
ATOM     93  C   UNL A   1      46.106  45.182  19.793  1.00  0.00     0.027 A 
ATOM     94  C   UNL A   1      43.898  44.223  19.736  1.00  0.00     0.027 A 
ATOM     95  C   UNL A   1      44.807  45.184  19.257  1.00  0.00     0.052 A 
BRANCH  95  96
ATOM     96  N   UNL A   1      44.456  46.068  18.194  1.00  0.00    -0.250 N 
ATOM     97  C   UNL A   1      43.159  46.310  17.801  1.00  0.00     0.238 C 
ATOM     98  C   UNL A   1      45.351  46.850  17.505  1.00  0.00     0.238 C 
ATOM     99  O   UNL A   1      42.125  45.804  18.222  1.00  0.00    -0.274 OA
ATOM    100  C   UNL A   1      43.140  47.397  16.753  1.00  0.00     0.096 C 
ATOM    101  C   UNL A   1      44.606  47.792  16.591  1.00  0.00     0.096 C 
ATOM    102  O   UNL A   1      46.574  46.826  17.555  1.00  0.00    -0.274 OA
ATOM    103  C   UNL A   1      42.190  48.520  17.187  1.00  0.00     0.041 C 
ATOM    104  C   UNL A   1      44.966  49.237  16.955  1.00  0.00     0.041 C 
ATOM    105  C   UNL A   1      42.822  49.470  18.161  1.00  0.00    -0.030 C 
ATOM    106  C   UNL A   1      44.114  49.800  18.054  1.00  0.00    -0.030 C 
ENDBRANCH  95  96
ENDBRANCH  87  90
ENDBRANCH  82  86
ENDBRANCH  77  80
ENDBRANCH  75  76
ENDBRANCH  74  75
ENDBRANCH  73  74
ENDBRANCH   1  73
TORSDOF 19
ENDMDL
