MODEL 1
REMARK VINA RESULT:     -11.8      0.000      0.000
REMARK SMILES CCCc1cc(OC(F)(F)F)cc2c1O[C@@H](C(F)(F)F)C(C(=O)NCCCCCCNC(=O)c1ccc(-c3c4nc(c(-c5cccc(S(=O)(=O)[O-])c5F)c5ccc([nH]5)c(-c5cccc(S(=O)(=O)[O-])c5F)c5nc(c(-c6cccc(S(=O)(=O)[O-])c6F)c6ccc3[nH]6)C=C5)C=C4)cc1)=C2
REMARK SMILES IDX 28 1 27 2 26 3 25 4 24 5 22 6 23 7 21 9 4 10 5 11 14 12 6 13
REMARK SMILES IDX 13 14 15 15 12 16 97 17 16 18 3 19 2 20 1 21 7 22 8 23 9 24
REMARK SMILES IDX 10 25 11 26 17 27 18 28 19 29 20 30 29 31 30 32 31 33 32 34
REMARK SMILES IDX 33 36 34 37 35 38 96 39 36 40 95 41 37 42 38 43 39 44 89 45
REMARK SMILES IDX 40 46 94 47 88 48 90 49 41 50 93 51 87 52 86 53 42 55 74 56
REMARK SMILES IDX 54 57 73 58 55 59 58 60 72 61 91 62 56 63 57 64 71 66 92 67
REMARK SMILES IDX 59 68 43 69 44 70 52 71 45 72 47 73 53 74 46 75 48 76 49 77
REMARK SMILES IDX 50 78 51 79 75 80 76 81 84 82 77 83 79 84 85 85 78 86 80 87
REMARK SMILES IDX 81 88 82 89 83 90 60 91 61 92 69 93 62 94 64 95 70 96 63 97
REMARK SMILES IDX 65 98 66 99 67 100 68 101
REMARK H PARENT 24 8 31 35 90 54 58 65
REMARK Flexibility Score: inf
ROOT
ATOM      1  C   UNL A   1      33.640  21.826  27.091  1.00  0.00     0.002 C 
ENDROOT
BRANCH   1   2
ATOM      2  C   UNL A   1      32.263  22.339  26.654  1.00  0.00     0.002 C 
BRANCH   2   3
ATOM      3  C   UNL A   1      31.825  21.861  25.262  1.00  0.00     0.021 C 
BRANCH   3   4
ATOM      4  C   UNL A   1      31.540  23.021  24.301  1.00  0.00     0.116 C 
BRANCH   4   5
ATOM      5  N   UNL A   1      32.769  23.375  23.617  1.00  0.00    -0.352 N 
ATOM      6  C   UNL A   1      33.174  24.526  23.027  1.00  0.00     0.251 C 
ATOM      7  O   UNL A   1      34.140  24.481  22.269  1.00  0.00    -0.270 OA
ATOM      8  H   UNL A   1      33.430  22.646  23.575  1.00  0.00     0.163 HD
BRANCH   6   9
ATOM      9  C   UNL A   1      32.562  25.840  23.344  1.00  0.00     0.067 C 
ATOM     10  C   UNL A   1      31.025  29.542  24.625  1.00  0.00    -0.002 A 
ATOM     11  C   UNL A   1      29.887  30.059  23.965  1.00  0.00     0.054 A 
ATOM     12  C   UNL A   1      31.499  28.284  24.228  1.00  0.00     0.131 A 
ATOM     13  C   UNL A   1      29.275  29.369  22.917  1.00  0.00     0.130 A 
ATOM     14  C   UNL A   1      30.947  27.624  23.127  1.00  0.00     0.021 A 
ATOM     15  O   UNL A   1      32.440  27.670  25.000  1.00  0.00    -0.475 OA
ATOM     16  C   UNL A   1      29.833  28.166  22.482  1.00  0.00     0.058 A 
ATOM     17  C   UNL A   1      31.497  26.343  22.700  1.00  0.00     0.025 C 
ATOM     18  C   UNL A   1      33.303  26.690  24.365  1.00  0.00     0.314 C 
BRANCH  10  19
ATOM     19  C   UNL A   1      31.621  30.391  25.734  1.00  0.00     0.039 C 
BRANCH  19  20
ATOM     20  C   UNL A   1      31.045  31.779  26.046  1.00  0.00     0.001 C 
ATOM     21  C   UNL A   1      31.880  32.604  27.018  1.00  0.00     0.004 C 
ENDBRANCH  19  20
ENDBRANCH  10  19
BRANCH  13  22
ATOM     22  O   UNL A   1      28.151  29.745  22.239  1.00  0.00    -0.406 OA
BRANCH  22  23
ATOM     23  C   UNL A   1      28.197  30.943  21.483  1.00  0.00     0.573 C 
ATOM     24  F   UNL A   1      29.470  31.315  21.226  1.00  0.00    -0.132 F 
ATOM     25  F   UNL A   1      27.532  30.797  20.316  1.00  0.00    -0.132 F 
ATOM     26  F   UNL A   1      27.600  31.930  22.185  1.00  0.00    -0.132 F 
ENDBRANCH  22  23
ENDBRANCH  13  22
BRANCH  18  27
ATOM     27  C   UNL A   1      34.052  25.953  25.499  1.00  0.00     0.429 C 
ATOM     28  F   UNL A   1      34.591  26.800  26.408  1.00  0.00    -0.167 F 
ATOM     29  F   UNL A   1      33.198  25.169  26.214  1.00  0.00    -0.167 F 
ATOM     30  F   UNL A   1      35.031  25.140  25.040  1.00  0.00    -0.167 F 
ENDBRANCH  18  27
ENDBRANCH   6   9
ENDBRANCH   4   5
ENDBRANCH   3   4
ENDBRANCH   2   3
ENDBRANCH   1   2
BRANCH   1  31
ATOM     31  C   UNL A   1      34.576  21.457  25.936  1.00  0.00     0.021 C 
BRANCH  31  32
ATOM     32  C   UNL A   1      35.978  22.041  26.069  1.00  0.00     0.116 C 
BRANCH  32  33
ATOM     33  N   UNL A   1      36.991  21.011  25.916  1.00  0.00    -0.352 N 
ATOM     34  C   UNL A   1      38.355  21.146  25.865  1.00  0.00     0.251 C 
ATOM     35  H   UNL A   1      36.652  20.090  25.839  1.00  0.00     0.163 HD
ATOM     36  O   UNL A   1      39.047  20.215  25.467  1.00  0.00    -0.269 OA
BRANCH  34  37
ATOM     37  C   UNL A   1      38.982  22.413  26.298  1.00  0.00     0.039 A 
ATOM     38  C   UNL A   1      38.514  23.616  25.765  1.00  0.00     0.014 A 
ATOM     39  C   UNL A   1      40.058  22.407  27.191  1.00  0.00     0.014 A 
ATOM     40  C   UNL A   1      39.119  24.817  26.139  1.00  0.00     0.010 A 
ATOM     41  C   UNL A   1      40.610  23.609  27.618  1.00  0.00     0.010 A 
ATOM     42  C   UNL A   1      40.167  24.824  27.073  1.00  0.00    -0.014 A 
BRANCH  42  43
ATOM     43  C   UNL A   1      40.852  26.084  27.450  1.00  0.00     0.031 A 
ATOM     44  C   UNL A   1      42.276  26.320  27.021  1.00  0.00     0.074 A 
ATOM     45  C   UNL A   1      40.220  26.982  28.230  1.00  0.00     0.049 A 
ATOM     46  N   UNL A   1      43.060  27.332  27.284  1.00  0.00    -0.248 NA
ATOM     47  C   UNL A   1      42.914  25.264  26.216  1.00  0.00     0.031 C 
ATOM     48  C   UNL A   1      38.868  26.830  28.771  1.00  0.00     0.029 A 
ATOM     49  N   UNL A   1      40.642  28.191  28.723  1.00  0.00    -0.354 N 
ATOM     50  C   UNL A   1      44.289  27.019  26.715  1.00  0.00     0.074 A 
ATOM     51  C   UNL A   1      44.160  25.707  26.124  1.00  0.00     0.031 C 
ATOM     52  C   UNL A   1      38.571  27.906  29.518  1.00  0.00     0.029 A 
ATOM     53  C   UNL A   1      39.715  28.812  29.527  1.00  0.00     0.049 A 
ATOM     54  H   UNL A   1      41.525  28.576  28.520  1.00  0.00     0.167 HD
ATOM     55  C   UNL A   1      45.414  27.770  26.657  1.00  0.00     0.034 A 
ATOM     56  C   UNL A   1      39.783  29.981  30.193  1.00  0.00     0.034 A 
ATOM     57  C   UNL A   1      45.517  29.099  27.196  1.00  0.00     0.049 A 
ATOM     58  C   UNL A   1      41.022  30.825  30.061  1.00  0.00     0.074 A 
ATOM     59  C   UNL A   1      46.581  29.981  27.113  1.00  0.00     0.029 A 
ATOM     60  N   UNL A   1      44.521  29.739  27.916  1.00  0.00    -0.354 N 
ATOM     61  N   UNL A   1      42.119  30.580  29.384  1.00  0.00    -0.248 NA
ATOM     62  C   UNL A   1      41.017  32.125  30.746  1.00  0.00     0.031 C 
ATOM     63  C   UNL A   1      46.231  31.149  27.799  1.00  0.00     0.029 A 
ATOM     64  C   UNL A   1      44.943  31.003  28.287  1.00  0.00     0.049 A 
ATOM     65  H   UNL A   1      43.643  29.350  28.132  1.00  0.00     0.167 HD
ATOM     66  C   UNL A   1      42.916  31.710  29.528  1.00  0.00     0.074 A 
ATOM     67  C   UNL A   1      42.168  32.647  30.341  1.00  0.00     0.031 C 
ATOM     68  C   UNL A   1      44.161  31.946  29.044  1.00  0.00     0.034 A 
BRANCH  55  69
ATOM     69  C   UNL A   1      46.604  27.195  25.934  1.00  0.00     0.023 A 
ATOM     70  C   UNL A   1      47.361  26.173  26.544  1.00  0.00     0.012 A 
ATOM     71  C   UNL A   1      46.945  27.625  24.637  1.00  0.00     0.148 A 
ATOM     72  C   UNL A   1      48.459  25.615  25.892  1.00  0.00     0.002 A 
ATOM     73  C   UNL A   1      48.014  27.032  23.974  1.00  0.00     0.091 A 
ATOM     74  F   UNL A   1      46.228  28.613  24.082  1.00  0.00    -0.205 F 
ATOM     75  C   UNL A   1      48.779  26.037  24.604  1.00  0.00     0.022 A 
BRANCH  73  76
ATOM     76  S   UNL A   1      48.457  27.449  22.284  1.00  0.00     0.127 S 
ATOM     77  O   UNL A   1      48.756  26.131  21.724  1.00  0.00    -0.237 OA
ATOM     78  O   UNL A   1      47.224  28.058  21.784  1.00  0.00    -0.237 OA
ATOM     79  O   UNL A   1      49.589  28.361  22.379  1.00  0.00    -0.744 OA
ENDBRANCH  73  76
ENDBRANCH  55  69
BRANCH  56  80
ATOM     80  C   UNL A   1      38.609  30.458  30.979  1.00  0.00     0.023 A 
ATOM     81  C   UNL A   1      38.553  30.197  32.361  1.00  0.00     0.012 A 
ATOM     82  C   UNL A   1      37.571  31.191  30.375  1.00  0.00     0.148 A 
ATOM     83  C   UNL A   1      37.465  30.628  33.123  1.00  0.00     0.002 A 
ATOM     84  C   UNL A   1      36.517  31.665  31.149  1.00  0.00     0.091 A 
ATOM     85  F   UNL A   1      37.638  31.421  29.056  1.00  0.00    -0.205 F 
ATOM     86  C   UNL A   1      36.453  31.368  32.520  1.00  0.00     0.022 A 
BRANCH  84  87
ATOM     87  S   UNL A   1      35.239  32.737  30.482  1.00  0.00     0.127 S 
ATOM     88  O   UNL A   1      36.014  33.902  30.063  1.00  0.00    -0.237 OA
ATOM     89  O   UNL A   1      34.704  31.926  29.388  1.00  0.00    -0.237 OA
ATOM     90  O   UNL A   1      34.302  32.958  31.576  1.00  0.00    -0.744 OA
ENDBRANCH  84  87
ENDBRANCH  56  80
BRANCH  68  91
ATOM     91  C   UNL A   1      44.783  33.285  29.338  1.00  0.00     0.023 A 
ATOM     92  C   UNL A   1      45.489  33.482  30.541  1.00  0.00     0.012 A 
ATOM     93  C   UNL A   1      44.735  34.322  28.385  1.00  0.00     0.148 A 
ATOM     94  C   UNL A   1      46.110  34.702  30.805  1.00  0.00     0.002 A 
ATOM     95  C   UNL A   1      45.399  35.517  28.634  1.00  0.00     0.091 A 
ATOM     96  F   UNL A   1      44.041  34.122  27.255  1.00  0.00    -0.205 F 
ATOM     97  C   UNL A   1      46.077  35.714  29.847  1.00  0.00     0.022 A 
BRANCH  95  98
ATOM     98  S   UNL A   1      45.490  36.834  27.416  1.00  0.00     0.127 S 
ATOM     99  O   UNL A   1      44.100  37.286  27.360  1.00  0.00    -0.237 OA
ATOM    100  O   UNL A   1      46.412  37.778  28.046  1.00  0.00    -0.237 OA
ATOM    101  O   UNL A   1      45.998  36.217  26.198  1.00  0.00    -0.744 OA
ENDBRANCH  95  98
ENDBRANCH  68  91
ENDBRANCH  42  43
ENDBRANCH  34  37
ENDBRANCH  32  33
ENDBRANCH  31  32
ENDBRANCH   1  31
TORSDOF 21
ENDMDL
MODEL 2
REMARK VINA RESULT:     -11.7      5.288     10.580
REMARK SMILES CCCc1cc(OC(F)(F)F)cc2c1O[C@@H](C(F)(F)F)C(C(=O)NCCCCCCNC(=O)c1ccc(-c3c4nc(c(-c5cccc(S(=O)(=O)[O-])c5F)c5ccc([nH]5)c(-c5cccc(S(=O)(=O)[O-])c5F)c5nc(c(-c6cccc(S(=O)(=O)[O-])c6F)c6ccc3[nH]6)C=C5)C=C4)cc1)=C2
REMARK SMILES IDX 28 1 27 2 26 3 25 4 24 5 22 6 23 7 21 9 4 10 5 11 14 12 6 13
REMARK SMILES IDX 13 14 15 15 12 16 97 17 16 18 3 19 2 20 1 21 7 22 8 23 9 24
REMARK SMILES IDX 10 25 11 26 17 27 18 28 19 29 20 30 29 31 30 32 31 33 32 34
REMARK SMILES IDX 33 36 34 37 35 38 96 39 36 40 95 41 37 42 38 43 39 44 89 45
REMARK SMILES IDX 40 46 94 47 88 48 90 49 41 50 93 51 87 52 86 53 42 55 74 56
REMARK SMILES IDX 54 57 73 58 55 59 58 60 72 61 91 62 56 63 57 64 71 66 92 67
REMARK SMILES IDX 59 68 43 69 44 70 52 71 45 72 47 73 53 74 46 75 48 76 49 77
REMARK SMILES IDX 50 78 51 79 75 80 76 81 84 82 77 83 79 84 85 85 78 86 80 87
REMARK SMILES IDX 81 88 82 89 83 90 60 91 61 92 69 93 62 94 64 95 70 96 63 97
REMARK SMILES IDX 65 98 66 99 67 100 68 101
REMARK H PARENT 24 8 31 35 90 54 58 65
REMARK Flexibility Score: inf
ROOT
ATOM      1  C   UNL A   1      31.772  27.896  27.108  1.00  0.00     0.002 C 
ENDROOT
BRANCH   1   2
ATOM      2  C   UNL A   1      31.693  26.392  26.820  1.00  0.00     0.002 C 
BRANCH   2   3
ATOM      3  C   UNL A   1      30.295  25.899  26.422  1.00  0.00     0.021 C 
BRANCH   3   4
ATOM      4  C   UNL A   1      30.300  24.453  25.914  1.00  0.00     0.116 C 
BRANCH   4   5
ATOM      5  N   UNL A   1      30.289  24.466  24.464  1.00  0.00    -0.352 N 
ATOM      6  C   UNL A   1      31.155  23.962  23.551  1.00  0.00     0.251 C 
ATOM      7  O   UNL A   1      31.069  24.355  22.390  1.00  0.00    -0.270 OA
ATOM      8  H   UNL A   1      29.511  24.924  24.071  1.00  0.00     0.163 HD
BRANCH   6   9
ATOM      9  C   UNL A   1      32.124  22.887  23.882  1.00  0.00     0.067 C 
ATOM     10  C   UNL A   1      35.180  20.137  24.776  1.00  0.00    -0.002 A 
ATOM     11  C   UNL A   1      34.898  18.758  24.651  1.00  0.00     0.054 A 
ATOM     12  C   UNL A   1      34.174  21.048  24.425  1.00  0.00     0.131 A 
ATOM     13  C   UNL A   1      33.643  18.304  24.239  1.00  0.00     0.130 A 
ATOM     14  C   UNL A   1      32.890  20.606  24.093  1.00  0.00     0.021 A 
ATOM     15  O   UNL A   1      34.500  22.367  24.315  1.00  0.00    -0.475 OA
ATOM     16  C   UNL A   1      32.634  19.236  23.993  1.00  0.00     0.058 A 
ATOM     17  C   UNL A   1      31.847  21.578  23.788  1.00  0.00     0.025 C 
ATOM     18  C   UNL A   1      33.440  23.343  24.492  1.00  0.00     0.314 C 
BRANCH  10  19
ATOM     19  C   UNL A   1      36.571  20.513  25.257  1.00  0.00     0.039 C 
BRANCH  19  20
ATOM     20  C   UNL A   1      37.328  21.680  24.608  1.00  0.00     0.001 C 
ATOM     21  C   UNL A   1      37.549  22.876  25.526  1.00  0.00     0.004 C 
ENDBRANCH  19  20
ENDBRANCH  10  19
BRANCH  13  22
ATOM     22  O   UNL A   1      33.270  17.006  24.038  1.00  0.00    -0.406 OA
BRANCH  22  23
ATOM     23  C   UNL A   1      33.143  16.166  25.173  1.00  0.00     0.573 C 
ATOM     24  F   UNL A   1      32.885  16.880  26.289  1.00  0.00    -0.132 F 
ATOM     25  F   UNL A   1      32.159  15.259  24.987  1.00  0.00    -0.132 F 
ATOM     26  F   UNL A   1      34.301  15.496  25.356  1.00  0.00    -0.132 F 
ENDBRANCH  22  23
ENDBRANCH  13  22
BRANCH  18  27
ATOM     27  C   UNL A   1      34.008  24.706  24.031  1.00  0.00     0.429 C 
ATOM     28  F   UNL A   1      35.198  25.000  24.605  1.00  0.00    -0.167 F 
ATOM     29  F   UNL A   1      34.256  24.699  22.692  1.00  0.00    -0.167 F 
ATOM     30  F   UNL A   1      33.158  25.733  24.261  1.00  0.00    -0.167 F 
ENDBRANCH  18  27
ENDBRANCH   6   9
ENDBRANCH   4   5
ENDBRANCH   3   4
ENDBRANCH   2   3
ENDBRANCH   1   2
BRANCH   1  31
ATOM     31  C   UNL A   1      31.748  28.784  25.860  1.00  0.00     0.021 C 
BRANCH  31  32
ATOM     32  C   UNL A   1      32.987  29.656  25.700  1.00  0.00     0.116 C 
BRANCH  32  33
ATOM     33  N   UNL A   1      32.692  31.046  26.003  1.00  0.00    -0.352 N 
ATOM     34  C   UNL A   1      33.172  31.824  27.026  1.00  0.00     0.251 C 
ATOM     35  H   UNL A   1      32.062  31.490  25.391  1.00  0.00     0.163 HD
ATOM     36  O   UNL A   1      32.622  32.888  27.295  1.00  0.00    -0.269 OA
BRANCH  34  37
ATOM     37  C   UNL A   1      34.354  31.379  27.792  1.00  0.00     0.039 A 
ATOM     38  C   UNL A   1      35.441  32.246  27.925  1.00  0.00     0.014 A 
ATOM     39  C   UNL A   1      34.407  30.093  28.339  1.00  0.00     0.014 A 
ATOM     40  C   UNL A   1      36.578  31.826  28.617  1.00  0.00     0.010 A 
ATOM     41  C   UNL A   1      35.510  29.704  29.090  1.00  0.00     0.010 A 
ATOM     42  C   UNL A   1      36.619  30.555  29.211  1.00  0.00    -0.014 A 
BRANCH  42  43
ATOM     43  C   UNL A   1      37.833  30.073  29.913  1.00  0.00     0.031 A 
ATOM     44  C   UNL A   1      38.126  30.543  31.313  1.00  0.00     0.074 A 
ATOM     45  C   UNL A   1      38.703  29.270  29.270  1.00  0.00     0.049 A 
ATOM     46  N   UNL A   1      39.151  30.273  32.076  1.00  0.00    -0.248 NA
ATOM     47  C   UNL A   1      37.152  31.464  31.924  1.00  0.00     0.031 C 
ATOM     48  C   UNL A   1      38.567  28.809  27.887  1.00  0.00     0.029 A 
ATOM     49  N   UNL A   1      39.887  28.719  29.690  1.00  0.00    -0.354 N 
ATOM     50  C   UNL A   1      38.968  31.018  33.236  1.00  0.00     0.074 A 
ATOM     51  C   UNL A   1      37.753  31.780  33.062  1.00  0.00     0.031 C 
ATOM     52  C   UNL A   1      39.625  28.043  27.574  1.00  0.00     0.029 A 
ATOM     53  C   UNL A   1      40.522  27.975  28.723  1.00  0.00     0.049 A 
ATOM     54  H   UNL A   1      40.248  28.844  30.597  1.00  0.00     0.167 HD
ATOM     55  C   UNL A   1      39.724  31.039  34.360  1.00  0.00     0.034 A 
ATOM     56  C   UNL A   1      41.695  27.313  28.762  1.00  0.00     0.034 A 
ATOM     57  C   UNL A   1      40.899  30.233  34.549  1.00  0.00     0.049 A 
ATOM     58  C   UNL A   1      42.483  27.301  30.044  1.00  0.00     0.074 A 
ATOM     59  C   UNL A   1      41.686  30.111  35.681  1.00  0.00     0.029 A 
ATOM     60  N   UNL A   1      41.456  29.410  33.582  1.00  0.00    -0.354 N 
ATOM     61  N   UNL A   1      42.210  27.887  31.186  1.00  0.00    -0.248 NA
ATOM     62  C   UNL A   1      43.718  26.504  30.059  1.00  0.00     0.031 C 
ATOM     63  C   UNL A   1      42.729  29.225  35.392  1.00  0.00     0.029 A 
ATOM     64  C   UNL A   1      42.578  28.778  34.089  1.00  0.00     0.049 A 
ATOM     65  H   UNL A   1      41.106  29.294  32.670  1.00  0.00     0.167 HD
ATOM     66  C   UNL A   1      43.214  27.496  32.064  1.00  0.00     0.074 A 
ATOM     67  C   UNL A   1      44.091  26.609  31.328  1.00  0.00     0.031 C 
ATOM     68  C   UNL A   1      43.403  27.850  33.360  1.00  0.00     0.034 A 
BRANCH  55  69
ATOM     69  C   UNL A   1      39.266  31.917  35.494  1.00  0.00     0.023 A 
ATOM     70  C   UNL A   1      38.378  31.400  36.460  1.00  0.00     0.012 A 
ATOM     71  C   UNL A   1      39.748  33.234  35.636  1.00  0.00     0.148 A 
ATOM     72  C   UNL A   1      37.948  32.188  37.526  1.00  0.00     0.002 A 
ATOM     73  C   UNL A   1      39.350  33.998  36.727  1.00  0.00     0.091 A 
ATOM     74  F   UNL A   1      40.574  33.717  34.696  1.00  0.00    -0.205 F 
ATOM     75  C   UNL A   1      38.442  33.482  37.665  1.00  0.00     0.022 A 
BRANCH  73  76
ATOM     76  S   UNL A   1      39.991  35.648  37.039  1.00  0.00     0.127 S 
ATOM     77  O   UNL A   1      39.297  36.005  38.276  1.00  0.00    -0.237 OA
ATOM     78  O   UNL A   1      41.424  35.396  37.196  1.00  0.00    -0.237 OA
ATOM     79  O   UNL A   1      39.639  36.442  35.870  1.00  0.00    -0.744 OA
ENDBRANCH  73  76
ENDBRANCH  55  69
BRANCH  56  80
ATOM     80  C   UNL A   1      42.152  26.539  27.573  1.00  0.00     0.023 A 
ATOM     81  C   UNL A   1      42.850  27.201  26.545  1.00  0.00     0.012 A 
ATOM     82  C   UNL A   1      41.929  25.153  27.470  1.00  0.00     0.148 A 
ATOM     83  C   UNL A   1      43.286  26.505  25.418  1.00  0.00     0.002 A 
ATOM     84  C   UNL A   1      42.415  24.454  26.369  1.00  0.00     0.091 A 
ATOM     85  F   UNL A   1      41.255  24.542  28.454  1.00  0.00    -0.205 F 
ATOM     86  C   UNL A   1      43.078  25.131  25.334  1.00  0.00     0.022 A 
BRANCH  84  87
ATOM     87  S   UNL A   1      42.308  22.665  26.242  1.00  0.00     0.127 S 
ATOM     88  O   UNL A   1      43.039  22.408  25.005  1.00  0.00    -0.237 OA
ATOM     89  O   UNL A   1      42.988  22.233  27.463  1.00  0.00    -0.237 OA
ATOM     90  O   UNL A   1      40.883  22.360  26.213  1.00  0.00    -0.744 OA
ENDBRANCH  84  87
ENDBRANCH  56  80
BRANCH  68  91
ATOM     91  C   UNL A   1      44.576  27.247  34.086  1.00  0.00     0.023 A 
ATOM     92  C   UNL A   1      45.835  27.879  34.033  1.00  0.00     0.012 A 
ATOM     93  C   UNL A   1      44.410  26.099  34.885  1.00  0.00     0.148 A 
ATOM     94  C   UNL A   1      46.918  27.357  34.739  1.00  0.00     0.002 A 
ATOM     95  C   UNL A   1      45.482  25.615  35.625  1.00  0.00     0.091 A 
ATOM     96  F   UNL A   1      43.210  25.501  34.906  1.00  0.00    -0.205 F 
ATOM     97  C   UNL A   1      46.739  26.234  35.545  1.00  0.00     0.022 A 
BRANCH  95  98
ATOM     98  S   UNL A   1      45.315  24.234  36.763  1.00  0.00     0.127 S 
ATOM     99  O   UNL A   1      46.644  24.183  37.368  1.00  0.00    -0.237 OA
ATOM    100  O   UNL A   1      44.255  24.695  37.659  1.00  0.00    -0.237 OA
ATOM    101  O   UNL A   1      44.954  23.084  35.945  1.00  0.00    -0.744 OA
ENDBRANCH  95  98
ENDBRANCH  68  91
ENDBRANCH  42  43
ENDBRANCH  34  37
ENDBRANCH  32  33
ENDBRANCH  31  32
ENDBRANCH   1  31
TORSDOF 21
ENDMDL
MODEL 3
REMARK VINA RESULT:     -11.3      2.131      7.570
REMARK SMILES CCCc1cc(OC(F)(F)F)cc2c1O[C@@H](C(F)(F)F)C(C(=O)NCCCCCCNC(=O)c1ccc(-c3c4nc(c(-c5cccc(S(=O)(=O)[O-])c5F)c5ccc([nH]5)c(-c5cccc(S(=O)(=O)[O-])c5F)c5nc(c(-c6cccc(S(=O)(=O)[O-])c6F)c6ccc3[nH]6)C=C5)C=C4)cc1)=C2
REMARK SMILES IDX 28 1 27 2 26 3 25 4 24 5 22 6 23 7 21 9 4 10 5 11 14 12 6 13
REMARK SMILES IDX 13 14 15 15 12 16 97 17 16 18 3 19 2 20 1 21 7 22 8 23 9 24
REMARK SMILES IDX 10 25 11 26 17 27 18 28 19 29 20 30 29 31 30 32 31 33 32 34
REMARK SMILES IDX 33 36 34 37 35 38 96 39 36 40 95 41 37 42 38 43 39 44 89 45
REMARK SMILES IDX 40 46 94 47 88 48 90 49 41 50 93 51 87 52 86 53 42 55 74 56
REMARK SMILES IDX 54 57 73 58 55 59 58 60 72 61 91 62 56 63 57 64 71 66 92 67
REMARK SMILES IDX 59 68 43 69 44 70 52 71 45 72 47 73 53 74 46 75 48 76 49 77
REMARK SMILES IDX 50 78 51 79 75 80 76 81 84 82 77 83 79 84 85 85 78 86 80 87
REMARK SMILES IDX 81 88 82 89 83 90 60 91 61 92 69 93 62 94 64 95 70 96 63 97
REMARK SMILES IDX 65 98 66 99 67 100 68 101
REMARK H PARENT 24 8 31 35 90 54 58 65
REMARK Flexibility Score: inf
ROOT
ATOM      1  C   UNL A   1      33.771  21.973  27.145  1.00  0.00     0.002 C 
ENDROOT
BRANCH   1   2
ATOM      2  C   UNL A   1      32.339  22.339  26.739  1.00  0.00     0.002 C 
BRANCH   2   3
ATOM      3  C   UNL A   1      31.905  21.777  25.378  1.00  0.00     0.021 C 
BRANCH   3   4
ATOM      4  C   UNL A   1      31.503  22.873  24.385  1.00  0.00     0.116 C 
BRANCH   4   5
ATOM      5  N   UNL A   1      32.630  23.153  23.516  1.00  0.00    -0.352 N 
ATOM      6  C   UNL A   1      32.983  24.265  22.826  1.00  0.00     0.251 C 
ATOM      7  O   UNL A   1      33.824  24.155  21.938  1.00  0.00    -0.270 OA
ATOM      8  H   UNL A   1      33.252  22.397  23.407  1.00  0.00     0.163 HD
BRANCH   6   9
ATOM      9  C   UNL A   1      32.470  25.613  23.175  1.00  0.00     0.067 C 
ATOM     10  C   UNL A   1      31.250  29.407  24.527  1.00  0.00    -0.002 A 
ATOM     11  C   UNL A   1      30.080  29.972  23.971  1.00  0.00     0.054 A 
ATOM     12  C   UNL A   1      31.620  28.121  24.110  1.00  0.00     0.131 A 
ATOM     13  C   UNL A   1      29.335  29.299  23.000  1.00  0.00     0.130 A 
ATOM     14  C   UNL A   1      30.932  27.474  23.081  1.00  0.00     0.021 A 
ATOM     15  O   UNL A   1      32.601  27.471  24.800  1.00  0.00    -0.475 OA
ATOM     16  C   UNL A   1      29.788  28.063  22.536  1.00  0.00     0.058 A 
ATOM     17  C   UNL A   1      31.374  26.161  22.628  1.00  0.00     0.025 C 
ATOM     18  C   UNL A   1      33.348  26.439  24.103  1.00  0.00     0.314 C 
BRANCH  10  19
ATOM     19  C   UNL A   1      31.992  30.240  25.557  1.00  0.00     0.039 C 
BRANCH  19  20
ATOM     20  C   UNL A   1      31.877  29.911  27.052  1.00  0.00     0.001 C 
ATOM     21  C   UNL A   1      32.751  28.749  27.511  1.00  0.00     0.004 C 
ENDBRANCH  19  20
ENDBRANCH  10  19
BRANCH  13  22
ATOM     22  O   UNL A   1      28.170  29.722  22.427  1.00  0.00    -0.406 OA
BRANCH  22  23
ATOM     23  C   UNL A   1      28.136  31.024  21.867  1.00  0.00     0.573 C 
ATOM     24  F   UNL A   1      27.474  31.887  22.667  1.00  0.00    -0.132 F 
ATOM     25  F   UNL A   1      29.388  31.485  21.654  1.00  0.00    -0.132 F 
ATOM     26  F   UNL A   1      27.499  30.975  20.677  1.00  0.00    -0.132 F 
ENDBRANCH  22  23
ENDBRANCH  13  22
BRANCH  18  27
ATOM     27  C   UNL A   1      34.167  25.682  25.174  1.00  0.00     0.429 C 
ATOM     28  F   UNL A   1      35.085  24.844  24.637  1.00  0.00    -0.167 F 
ATOM     29  F   UNL A   1      34.889  26.551  25.936  1.00  0.00    -0.167 F 
ATOM     30  F   UNL A   1      33.391  24.975  26.026  1.00  0.00    -0.167 F 
ENDBRANCH  18  27
ENDBRANCH   6   9
ENDBRANCH   4   5
ENDBRANCH   3   4
ENDBRANCH   2   3
ENDBRANCH   1   2
BRANCH   1  31
ATOM     31  C   UNL A   1      34.671  21.546  25.981  1.00  0.00     0.021 C 
BRANCH  31  32
ATOM     32  C   UNL A   1      36.099  22.070  26.081  1.00  0.00     0.116 C 
BRANCH  32  33
ATOM     33  N   UNL A   1      37.063  20.996  25.917  1.00  0.00    -0.352 N 
ATOM     34  C   UNL A   1      38.433  21.066  25.894  1.00  0.00     0.251 C 
ATOM     35  H   UNL A   1      36.682  20.095  25.809  1.00  0.00     0.163 HD
ATOM     36  O   UNL A   1      39.087  20.112  25.482  1.00  0.00    -0.269 OA
BRANCH  34  37
ATOM     37  C   UNL A   1      39.112  22.287  26.373  1.00  0.00     0.039 A 
ATOM     38  C   UNL A   1      38.674  23.531  25.910  1.00  0.00     0.014 A 
ATOM     39  C   UNL A   1      40.207  22.202  27.239  1.00  0.00     0.014 A 
ATOM     40  C   UNL A   1      39.328  24.691  26.328  1.00  0.00     0.010 A 
ATOM     41  C   UNL A   1      40.809  23.363  27.710  1.00  0.00     0.010 A 
ATOM     42  C   UNL A   1      40.396  24.617  27.236  1.00  0.00    -0.014 A 
BRANCH  42  43
ATOM     43  C   UNL A   1      41.133  25.834  27.657  1.00  0.00     0.031 A 
ATOM     44  C   UNL A   1      40.424  26.904  28.444  1.00  0.00     0.074 A 
ATOM     45  C   UNL A   1      42.413  26.007  27.276  1.00  0.00     0.049 A 
ATOM     46  N   UNL A   1      40.877  28.053  28.867  1.00  0.00    -0.248 NA
ATOM     47  C   UNL A   1      39.008  26.662  28.773  1.00  0.00     0.031 C 
ATOM     48  C   UNL A   1      43.183  25.077  26.448  1.00  0.00     0.029 A 
ATOM     49  N   UNL A   1      43.285  27.038  27.517  1.00  0.00    -0.354 N 
ATOM     50  C   UNL A   1      39.798  28.688  29.474  1.00  0.00     0.074 A 
ATOM     51  C   UNL A   1      38.658  27.812  29.331  1.00  0.00     0.031 C 
ATOM     52  C   UNL A   1      44.413  25.578  26.252  1.00  0.00     0.029 A 
ATOM     53  C   UNL A   1      44.513  26.871  26.921  1.00  0.00     0.049 A 
ATOM     54  H   UNL A   1      43.053  27.823  28.064  1.00  0.00     0.167 HD
ATOM     55  C   UNL A   1      39.767  29.876  30.122  1.00  0.00     0.034 A 
ATOM     56  C   UNL A   1      45.596  27.673  26.917  1.00  0.00     0.034 A 
ATOM     57  C   UNL A   1      40.919  30.715  30.311  1.00  0.00     0.049 A 
ATOM     58  C   UNL A   1      45.554  28.959  27.698  1.00  0.00     0.074 A 
ATOM     59  C   UNL A   1      41.016  31.894  31.028  1.00  0.00     0.029 A 
ATOM     60  N   UNL A   1      42.175  30.464  29.780  1.00  0.00    -0.354 N 
ATOM     61  N   UNL A   1      44.569  29.467  28.400  1.00  0.00    -0.248 NA
ATOM     62  C   UNL A   1      46.785  29.761  27.725  1.00  0.00     0.031 C 
ATOM     63  C   UNL A   1      42.329  32.364  30.917  1.00  0.00     0.029 A 
ATOM     64  C   UNL A   1      43.054  31.466  30.151  1.00  0.00     0.049 A 
ATOM     65  H   UNL A   1      42.406  29.687  29.221  1.00  0.00     0.167 HD
ATOM     66  C   UNL A   1      45.072  30.624  28.983  1.00  0.00     0.074 A 
ATOM     67  C   UNL A   1      46.456  30.732  28.567  1.00  0.00     0.031 C 
ATOM     68  C   UNL A   1      44.444  31.524  29.779  1.00  0.00     0.034 A 
BRANCH  55  69
ATOM     69  C   UNL A   1      38.457  30.309  30.727  1.00  0.00     0.023 A 
ATOM     70  C   UNL A   1      38.163  29.969  32.064  1.00  0.00     0.012 A 
ATOM     71  C   UNL A   1      37.541  31.090  29.996  1.00  0.00     0.148 A 
ATOM     72  C   UNL A   1      36.963  30.367  32.652  1.00  0.00     0.002 A 
ATOM     73  C   UNL A   1      36.367  31.522  30.604  1.00  0.00     0.091 A 
ATOM     74  F   UNL A   1      37.826  31.385  28.720  1.00  0.00    -0.205 F 
ATOM     75  C   UNL A   1      36.071  31.151  31.926  1.00  0.00     0.022 A 
BRANCH  73  76
ATOM     76  S   UNL A   1      35.190  32.602  29.780  1.00  0.00     0.127 S 
ATOM     77  O   UNL A   1      34.344  33.022  30.897  1.00  0.00    -0.237 OA
ATOM     78  O   UNL A   1      36.058  33.651  29.246  1.00  0.00    -0.237 OA
ATOM     79  O   UNL A   1      34.534  31.783  28.770  1.00  0.00    -0.744 OA
ENDBRANCH  73  76
ENDBRANCH  55  69
BRANCH  56  80
ATOM     80  C   UNL A   1      46.838  27.241  26.216  1.00  0.00     0.023 A 
ATOM     81  C   UNL A   1      46.992  27.528  24.846  1.00  0.00     0.012 A 
ATOM     82  C   UNL A   1      47.876  26.581  26.900  1.00  0.00     0.148 A 
ATOM     83  C   UNL A   1      48.141  27.133  24.160  1.00  0.00     0.002 A 
ATOM     84  C   UNL A   1      49.042  26.238  26.224  1.00  0.00     0.091 A 
ATOM     85  F   UNL A   1      47.707  26.309  28.202  1.00  0.00    -0.205 F 
ATOM     86  C   UNL A   1      49.170  26.497  24.850  1.00  0.00     0.022 A 
BRANCH  84  87
ATOM     87  S   UNL A   1      50.469  25.537  27.061  1.00  0.00     0.127 S 
ATOM     88  O   UNL A   1      49.915  24.305  27.615  1.00  0.00    -0.237 OA
ATOM     89  O   UNL A   1      51.408  25.349  25.955  1.00  0.00    -0.237 OA
ATOM     90  O   UNL A   1      50.884  26.540  28.034  1.00  0.00    -0.744 OA
ENDBRANCH  84  87
ENDBRANCH  56  80
BRANCH  68  91
ATOM     91  C   UNL A   1      45.252  32.685  30.295  1.00  0.00     0.023 A 
ATOM     92  C   UNL A   1      45.288  33.892  29.568  1.00  0.00     0.012 A 
ATOM     93  C   UNL A   1      45.907  32.605  31.539  1.00  0.00     0.148 A 
ATOM     94  C   UNL A   1      45.994  34.991  30.057  1.00  0.00     0.002 A 
ATOM     95  C   UNL A   1      46.566  33.720  32.043  1.00  0.00     0.091 A 
ATOM     96  F   UNL A   1      45.877  31.442  32.205  1.00  0.00    -0.205 F 
ATOM     97  C   UNL A   1      46.620  34.910  31.300  1.00  0.00     0.022 A 
BRANCH  95  98
ATOM     98  S   UNL A   1      47.315  33.734  33.676  1.00  0.00     0.127 S 
ATOM     99  O   UNL A   1      46.157  33.501  34.537  1.00  0.00    -0.237 OA
ATOM    100  O   UNL A   1      48.252  32.612  33.598  1.00  0.00    -0.237 OA
ATOM    101  O   UNL A   1      47.948  35.038  33.814  1.00  0.00    -0.744 OA
ENDBRANCH  95  98
ENDBRANCH  68  91
ENDBRANCH  42  43
ENDBRANCH  34  37
ENDBRANCH  32  33
ENDBRANCH  31  32
ENDBRANCH   1  31
TORSDOF 21
ENDMDL
