MODEL 1
REMARK VINA RESULT:     -10.9      0.000      0.000
REMARK SMILES C[C@H]1[C@@H](C(=O)NCCCCCCNC(=O)c2ccc(-c3c4nc(c(-c5cccc(S(=O)(=O)[O-])c5F)c5ccc([nH]5)c(-c5cccc(S(=O)(=O)[O-])c5F)c5nc(c(-c6cccc(S(=O)(=O)[O-])c6F)c6ccc3[nH]6)C=C5)C=C4)cc2)CC[N@@H+]1CC(=O)NNC(=O)c1cccs1
REMARK SMILES IDX 9 1 8 2 7 3 6 4 4 5 5 6 3 8 1 9 2 10 81 11 79 12 80 13 82 15
REMARK SMILES IDX 83 16 84 17 85 18 86 20 87 21 88 23 89 24 90 25 93 26 91 27
REMARK SMILES IDX 92 28 10 29 11 30 12 31 13 32 14 33 15 35 16 36 17 37 78 38
REMARK SMILES IDX 18 39 77 40 19 41 20 42 21 43 71 44 22 45 76 46 70 47 72 48
REMARK SMILES IDX 23 49 75 50 69 51 68 52 24 54 56 55 36 56 55 57 37 58 40 59
REMARK SMILES IDX 54 60 73 61 38 62 39 63 53 65 74 66 41 67 25 68 26 69 34 70
REMARK SMILES IDX 27 71 29 72 35 73 28 74 30 75 31 76 32 77 33 78 57 79 58 80
REMARK SMILES IDX 66 81 59 82 61 83 67 84 60 85 62 86 63 87 64 88 65 89 42 90
REMARK SMILES IDX 43 91 51 92 44 93 46 94 52 95 45 96 47 97 48 98 49 99 50 100
REMARK H PARENT 6 7 81 14 85 19 86 22 13 34 72 53 40 64
REMARK Flexibility Score: inf
ROOT
ATOM      1  C   UNL A   1      38.860  23.886  26.199  1.00  0.00     0.002 C 
ENDROOT
BRANCH   1   2
ATOM      2  C   UNL A   1      37.347  23.702  26.107  1.00  0.00     0.021 C 
BRANCH   2   3
ATOM      3  C   UNL A   1      36.829  23.364  24.705  1.00  0.00     0.116 C 
BRANCH   3   4
ATOM      4  N   UNL A   1      36.641  21.932  24.619  1.00  0.00    -0.356 N 
ATOM      5  C   UNL A   1      35.517  21.187  24.797  1.00  0.00     0.229 C 
ATOM      6  O   UNL A   1      35.691  19.979  24.981  1.00  0.00    -0.275 OA
ATOM      7  H   UNL A   1      37.452  21.418  24.397  1.00  0.00     0.163 HD
BRANCH   5   8
ATOM      8  C   UNL A   1      34.124  21.794  24.609  1.00  0.00     0.142 C 
ATOM      9  C   UNL A   1      33.769  22.109  27.227  1.00  0.00     0.076 C 
ATOM     10  C   UNL A   1      33.297  22.332  25.798  1.00  0.00     0.194 C 
ATOM     11  N   UNL A   1      31.979  21.690  25.729  1.00  0.00    -0.324 N 
ATOM     12  C   UNL A   1      33.177  20.795  23.915  1.00  0.00     0.081 C 
ATOM     13  C   UNL A   1      32.131  20.465  24.959  1.00  0.00     0.263 C 
ATOM     14  H   UNL A   1      31.674  21.443  26.670  1.00  0.00     0.348 HD
BRANCH  11  15
ATOM     15  C   UNL A   1      30.847  22.560  25.386  1.00  0.00     0.365 C 
BRANCH  15  16
ATOM     16  C   UNL A   1      30.293  23.407  26.532  1.00  0.00     0.293 C 
ATOM     17  O   UNL A   1      30.247  22.972  27.688  1.00  0.00    -0.267 OA
ATOM     18  N   UNL A   1      29.847  24.684  26.307  1.00  0.00    -0.262 N 
ATOM     19  H   UNL A   1      29.610  25.223  27.096  1.00  0.00     0.191 HD
BRANCH  18  20
ATOM     20  N   UNL A   1      29.700  25.287  25.055  1.00  0.00    -0.263 N 
ATOM     21  C   UNL A   1      30.182  26.562  24.778  1.00  0.00     0.279 C 
ATOM     22  H   UNL A   1      29.238  24.791  24.342  1.00  0.00     0.191 HD
ATOM     23  O   UNL A   1      29.545  27.250  23.975  1.00  0.00    -0.266 OA
BRANCH  21  24
ATOM     24  C   UNL A   1      31.404  26.995  25.437  1.00  0.00     0.094 A 
ATOM     25  C   UNL A   1      31.591  28.004  26.368  1.00  0.00     0.026 A 
ATOM     26  S   UNL A   1      32.864  26.143  25.150  1.00  0.00    -0.139 S 
ATOM     27  C   UNL A   1      32.940  28.096  26.812  1.00  0.00     0.012 A 
ATOM     28  C   UNL A   1      33.738  27.135  26.236  1.00  0.00     0.065 A 
ENDBRANCH  21  24
ENDBRANCH  18  20
ENDBRANCH  15  16
ENDBRANCH  11  15
ENDBRANCH   5   8
ENDBRANCH   3   4
ENDBRANCH   2   3
ENDBRANCH   1   2
BRANCH   1  29
ATOM     29  C   UNL A   1      39.584  22.751  26.921  1.00  0.00     0.002 C 
BRANCH  29  30
ATOM     30  C   UNL A   1      39.688  21.443  26.130  1.00  0.00     0.021 C 
BRANCH  30  31
ATOM     31  C   UNL A   1      40.095  20.223  26.955  1.00  0.00     0.116 C 
BRANCH  31  32
ATOM     32  N   UNL A   1      41.131  19.448  26.292  1.00  0.00    -0.352 N 
ATOM     33  C   UNL A   1      42.323  19.869  25.760  1.00  0.00     0.251 C 
ATOM     34  H   UNL A   1      40.951  18.483  26.214  1.00  0.00     0.163 HD
ATOM     35  O   UNL A   1      42.953  19.136  25.007  1.00  0.00    -0.269 OA
BRANCH  33  36
ATOM     36  C   UNL A   1      42.839  21.212  26.097  1.00  0.00     0.039 A 
ATOM     37  C   UNL A   1      43.001  22.152  25.078  1.00  0.00     0.014 A 
ATOM     38  C   UNL A   1      43.178  21.533  27.415  1.00  0.00     0.014 A 
ATOM     39  C   UNL A   1      43.460  23.433  25.389  1.00  0.00     0.010 A 
ATOM     40  C   UNL A   1      43.562  22.833  27.733  1.00  0.00     0.010 A 
ATOM     41  C   UNL A   1      43.718  23.793  26.722  1.00  0.00    -0.014 A 
BRANCH  41  42
ATOM     42  C   UNL A   1      44.147  25.170  27.077  1.00  0.00     0.031 A 
ATOM     43  C   UNL A   1      43.155  26.155  27.633  1.00  0.00     0.074 A 
ATOM     44  C   UNL A   1      45.414  25.555  26.827  1.00  0.00     0.049 A 
ATOM     45  N   UNL A   1      43.335  27.408  27.963  1.00  0.00    -0.248 NA
ATOM     46  C   UNL A   1      41.773  25.680  27.820  1.00  0.00     0.031 C 
ATOM     47  C   UNL A   1      46.448  24.714  26.219  1.00  0.00     0.029 A 
ATOM     48  N   UNL A   1      46.041  26.758  27.028  1.00  0.00    -0.354 N 
ATOM     49  C   UNL A   1      42.090  27.879  28.363  1.00  0.00     0.074 A 
ATOM     50  C   UNL A   1      41.155  26.789  28.200  1.00  0.00     0.031 C 
ATOM     51  C   UNL A   1      47.581  25.425  26.105  1.00  0.00     0.029 A 
ATOM     52  C   UNL A   1      47.347  26.778  26.598  1.00  0.00     0.049 A 
ATOM     53  H   UNL A   1      45.598  27.534  27.442  1.00  0.00     0.167 HD
ATOM     54  C   UNL A   1      41.761  29.100  28.849  1.00  0.00     0.034 A 
ATOM     55  C   UNL A   1      48.252  27.776  26.592  1.00  0.00     0.034 A 
ATOM     56  C   UNL A   1      42.702  30.170  29.040  1.00  0.00     0.049 A 
ATOM     57  C   UNL A   1      47.866  29.115  27.159  1.00  0.00     0.074 A 
ATOM     58  C   UNL A   1      42.485  31.415  29.606  1.00  0.00     0.029 A 
ATOM     59  N   UNL A   1      44.034  30.132  28.658  1.00  0.00    -0.354 N 
ATOM     60  N   UNL A   1      46.724  29.493  27.681  1.00  0.00    -0.248 NA
ATOM     61  C   UNL A   1      48.904  30.155  27.169  1.00  0.00     0.031 C 
ATOM     62  C   UNL A   1      43.678  32.141  29.533  1.00  0.00     0.029 A 
ATOM     63  C   UNL A   1      44.648  31.334  28.958  1.00  0.00     0.049 A 
ATOM     64  H   UNL A   1      44.477  29.361  28.235  1.00  0.00     0.167 HD
ATOM     65  C   UNL A   1      46.916  30.800  28.112  1.00  0.00     0.074 A 
ATOM     66  C   UNL A   1      48.291  31.141  27.812  1.00  0.00     0.031 C 
ATOM     67  C   UNL A   1      46.030  31.646  28.693  1.00  0.00     0.034 A 
BRANCH  54  68
ATOM     68  C   UNL A   1      40.325  29.330  29.249  1.00  0.00     0.023 A 
ATOM     69  C   UNL A   1      39.370  29.659  28.265  1.00  0.00     0.012 A 
ATOM     70  C   UNL A   1      39.910  29.167  30.585  1.00  0.00     0.148 A 
ATOM     71  C   UNL A   1      38.034  29.864  28.610  1.00  0.00     0.002 A 
ATOM     72  C   UNL A   1      38.568  29.324  30.913  1.00  0.00     0.091 A 
ATOM     73  F   UNL A   1      40.834  28.872  31.511  1.00  0.00    -0.205 F 
ATOM     74  C   UNL A   1      37.632  29.685  29.931  1.00  0.00     0.022 A 
BRANCH  72  75
ATOM     75  S   UNL A   1      37.935  29.038  32.570  1.00  0.00     0.127 S 
ATOM     76  O   UNL A   1      38.747  29.962  33.360  1.00  0.00    -0.237 OA
ATOM     77  O   UNL A   1      36.530  29.426  32.432  1.00  0.00    -0.237 OA
ATOM     78  O   UNL A   1      38.151  27.625  32.845  1.00  0.00    -0.744 OA
ENDBRANCH  72  75
ENDBRANCH  54  68
BRANCH  55  79
ATOM     79  C   UNL A   1      49.629  27.530  26.079  1.00  0.00     0.023 A 
ATOM     80  C   UNL A   1      50.633  27.098  26.968  1.00  0.00     0.012 A 
ATOM     81  C   UNL A   1      49.943  27.695  24.716  1.00  0.00     0.148 A 
ATOM     82  C   UNL A   1      51.933  26.870  26.516  1.00  0.00     0.002 A 
ATOM     83  C   UNL A   1      51.226  27.411  24.262  1.00  0.00     0.091 A 
ATOM     84  F   UNL A   1      48.976  28.113  23.888  1.00  0.00    -0.205 F 
ATOM     85  C   UNL A   1      52.227  27.016  25.162  1.00  0.00     0.022 A 
BRANCH  83  86
ATOM     86  S   UNL A   1      51.663  27.449  22.520  1.00  0.00     0.127 S 
ATOM     87  O   UNL A   1      51.734  28.883  22.260  1.00  0.00    -0.237 OA
ATOM     88  O   UNL A   1      52.952  26.756  22.519  1.00  0.00    -0.237 OA
ATOM     89  O   UNL A   1      50.596  26.734  21.830  1.00  0.00    -0.744 OA
ENDBRANCH  83  86
ENDBRANCH  55  79
BRANCH  67  90
ATOM     90  C   UNL A   1      46.524  33.018  29.079  1.00  0.00     0.023 A 
ATOM     91  C   UNL A   1      47.113  33.224  30.341  1.00  0.00     0.012 A 
ATOM     92  C   UNL A   1      46.466  34.084  28.159  1.00  0.00     0.148 A 
ATOM     93  C   UNL A   1      47.605  34.480  30.697  1.00  0.00     0.002 A 
ATOM     94  C   UNL A   1      47.006  35.318  28.500  1.00  0.00     0.091 A 
ATOM     95  F   UNL A   1      45.886  33.872  26.969  1.00  0.00    -0.205 F 
ATOM     96  C   UNL A   1      47.563  35.522  29.773  1.00  0.00     0.022 A 
BRANCH  94  97
ATOM     97  S   UNL A   1      47.085  36.690  27.343  1.00  0.00     0.127 S 
ATOM     98  O   UNL A   1      47.822  37.688  28.115  1.00  0.00    -0.237 OA
ATOM     99  O   UNL A   1      47.833  36.108  26.227  1.00  0.00    -0.237 OA
ATOM    100  O   UNL A   1      45.705  37.035  27.032  1.00  0.00    -0.744 OA
ENDBRANCH  94  97
ENDBRANCH  67  90
ENDBRANCH  41  42
ENDBRANCH  33  36
ENDBRANCH  31  32
ENDBRANCH  30  31
ENDBRANCH  29  30
ENDBRANCH   1  29
TORSDOF 20
ENDMDL
MODEL 2
REMARK VINA RESULT:     -10.8      6.092      9.482
REMARK SMILES C[C@H]1[C@@H](C(=O)NCCCCCCNC(=O)c2ccc(-c3c4nc(c(-c5cccc(S(=O)(=O)[O-])c5F)c5ccc([nH]5)c(-c5cccc(S(=O)(=O)[O-])c5F)c5nc(c(-c6cccc(S(=O)(=O)[O-])c6F)c6ccc3[nH]6)C=C5)C=C4)cc2)CC[N@@H+]1CC(=O)NNC(=O)c1cccs1
REMARK SMILES IDX 9 1 8 2 7 3 6 4 4 5 5 6 3 8 1 9 2 10 81 11 79 12 80 13 82 15
REMARK SMILES IDX 83 16 84 17 85 18 86 20 87 21 88 23 89 24 90 25 93 26 91 27
REMARK SMILES IDX 92 28 10 29 11 30 12 31 13 32 14 33 15 35 16 36 17 37 78 38
REMARK SMILES IDX 18 39 77 40 19 41 20 42 21 43 71 44 22 45 76 46 70 47 72 48
REMARK SMILES IDX 23 49 75 50 69 51 68 52 24 54 56 55 36 56 55 57 37 58 40 59
REMARK SMILES IDX 54 60 73 61 38 62 39 63 53 65 74 66 41 67 25 68 26 69 34 70
REMARK SMILES IDX 27 71 29 72 35 73 28 74 30 75 31 76 32 77 33 78 57 79 58 80
REMARK SMILES IDX 66 81 59 82 61 83 67 84 60 85 62 86 63 87 64 88 65 89 42 90
REMARK SMILES IDX 43 91 51 92 44 93 46 94 52 95 45 96 47 97 48 98 49 99 50 100
REMARK H PARENT 6 7 81 14 85 19 86 22 13 34 72 53 40 64
REMARK Flexibility Score: inf
ROOT
ATOM      1  C   UNL A   1      30.696  29.390  24.383  1.00  0.00     0.002 C 
ENDROOT
BRANCH   1   2
ATOM      2  C   UNL A   1      31.086  28.358  23.327  1.00  0.00     0.021 C 
BRANCH   2   3
ATOM      3  C   UNL A   1      32.575  28.340  22.969  1.00  0.00     0.116 C 
BRANCH   3   4
ATOM      4  N   UNL A   1      32.802  27.285  22.007  1.00  0.00    -0.356 N 
ATOM      5  C   UNL A   1      33.098  25.972  22.204  1.00  0.00     0.229 C 
ATOM      6  O   UNL A   1      33.552  25.365  21.231  1.00  0.00    -0.275 OA
ATOM      7  H   UNL A   1      32.732  27.559  21.063  1.00  0.00     0.163 HD
BRANCH   5   8
ATOM      8  C   UNL A   1      32.724  25.262  23.509  1.00  0.00     0.142 C 
ATOM      9  C   UNL A   1      34.995  23.876  23.553  1.00  0.00     0.076 C 
ATOM     10  C   UNL A   1      33.696  24.296  24.224  1.00  0.00     0.194 C 
ATOM     11  N   UNL A   1      32.965  23.044  24.452  1.00  0.00    -0.324 N 
ATOM     12  C   UNL A   1      31.433  24.437  23.338  1.00  0.00     0.081 C 
ATOM     13  C   UNL A   1      31.872  22.996  23.492  1.00  0.00     0.263 C 
ATOM     14  H   UNL A   1      33.584  22.254  24.274  1.00  0.00     0.348 HD
BRANCH  11  15
ATOM     15  C   UNL A   1      32.644  22.722  25.848  1.00  0.00     0.365 C 
BRANCH  15  16
ATOM     16  C   UNL A   1      33.385  21.523  26.438  1.00  0.00     0.293 C 
ATOM     17  O   UNL A   1      34.248  21.667  27.311  1.00  0.00    -0.267 OA
ATOM     18  N   UNL A   1      33.097  20.248  26.023  1.00  0.00    -0.262 N 
ATOM     19  H   UNL A   1      33.520  19.508  26.517  1.00  0.00     0.191 HD
BRANCH  18  20
ATOM     20  N   UNL A   1      32.256  19.907  24.961  1.00  0.00    -0.263 N 
ATOM     21  C   UNL A   1      32.586  18.929  24.029  1.00  0.00     0.279 C 
ATOM     22  H   UNL A   1      31.396  20.376  24.870  1.00  0.00     0.191 HD
ATOM     23  O   UNL A   1      32.184  19.085  22.873  1.00  0.00    -0.266 OA
BRANCH  21  24
ATOM     24  C   UNL A   1      33.368  17.787  24.476  1.00  0.00     0.094 A 
ATOM     25  C   UNL A   1      34.711  17.509  24.279  1.00  0.00     0.026 A 
ATOM     26  S   UNL A   1      32.632  16.598  25.468  1.00  0.00    -0.139 S 
ATOM     27  C   UNL A   1      35.120  16.302  24.913  1.00  0.00     0.012 A 
ATOM     28  C   UNL A   1      34.087  15.709  25.603  1.00  0.00     0.065 A 
ENDBRANCH  21  24
ENDBRANCH  18  20
ENDBRANCH  15  16
ENDBRANCH  11  15
ENDBRANCH   5   8
ENDBRANCH   3   4
ENDBRANCH   2   3
ENDBRANCH   1   2
BRANCH   1  29
ATOM     29  C   UNL A   1      31.837  29.788  25.318  1.00  0.00     0.002 C 
BRANCH  29  30
ATOM     30  C   UNL A   1      31.563  31.021  26.186  1.00  0.00     0.021 C 
BRANCH  30  31
ATOM     31  C   UNL A   1      32.669  31.364  27.182  1.00  0.00     0.116 C 
BRANCH  31  32
ATOM     32  N   UNL A   1      32.915  32.796  27.239  1.00  0.00    -0.352 N 
ATOM     33  C   UNL A   1      33.876  33.484  27.936  1.00  0.00     0.251 C 
ATOM     34  H   UNL A   1      32.305  33.350  26.701  1.00  0.00     0.163 HD
ATOM     35  O   UNL A   1      33.778  34.695  28.084  1.00  0.00    -0.269 OA
BRANCH  33  36
ATOM     36  C   UNL A   1      35.025  32.753  28.509  1.00  0.00     0.039 A 
ATOM     37  C   UNL A   1      36.318  33.216  28.256  1.00  0.00     0.014 A 
ATOM     38  C   UNL A   1      34.825  31.603  29.279  1.00  0.00     0.014 A 
ATOM     39  C   UNL A   1      37.410  32.551  28.816  1.00  0.00     0.010 A 
ATOM     40  C   UNL A   1      35.909  30.988  29.898  1.00  0.00     0.010 A 
ATOM     41  C   UNL A   1      37.213  31.448  29.664  1.00  0.00    -0.014 A 
BRANCH  41  42
ATOM     42  C   UNL A   1      38.361  30.768  30.317  1.00  0.00     0.031 A 
ATOM     43  C   UNL A   1      38.783  31.157  31.708  1.00  0.00     0.074 A 
ATOM     44  C   UNL A   1      39.068  29.851  29.628  1.00  0.00     0.049 A 
ATOM     45  N   UNL A   1      39.781  30.704  32.423  1.00  0.00    -0.248 NA
ATOM     46  C   UNL A   1      38.000  32.212  32.374  1.00  0.00     0.031 C 
ATOM     47  C   UNL A   1      38.804  29.444  28.246  1.00  0.00     0.029 A 
ATOM     48  N   UNL A   1      40.170  29.115  29.984  1.00  0.00    -0.354 N 
ATOM     49  C   UNL A   1      39.767  31.437  33.604  1.00  0.00     0.074 A 
ATOM     50  C   UNL A   1      38.684  32.389  33.495  1.00  0.00     0.031 C 
ATOM     51  C   UNL A   1      39.711  28.527  27.876  1.00  0.00     0.029 A 
ATOM     52  C   UNL A   1      40.641  28.306  28.979  1.00  0.00     0.049 A 
ATOM     53  H   UNL A   1      40.583  29.163  30.878  1.00  0.00     0.167 HD
ATOM     54  C   UNL A   1      40.563  31.309  34.692  1.00  0.00     0.034 A 
ATOM     55  C   UNL A   1      41.709  27.484  28.943  1.00  0.00     0.034 A 
ATOM     56  C   UNL A   1      41.617  30.337  34.807  1.00  0.00     0.049 A 
ATOM     57  C   UNL A   1      42.563  27.344  30.174  1.00  0.00     0.074 A 
ATOM     58  C   UNL A   1      42.423  30.069  35.899  1.00  0.00     0.029 A 
ATOM     59  N   UNL A   1      42.022  29.484  33.793  1.00  0.00    -0.354 N 
ATOM     60  N   UNL A   1      42.435  27.931  31.339  1.00  0.00    -0.248 NA
ATOM     61  C   UNL A   1      43.688  26.401  30.096  1.00  0.00     0.031 C 
ATOM     62  C   UNL A   1      43.340  29.078  35.533  1.00  0.00     0.029 A 
ATOM     63  C   UNL A   1      43.078  28.700  34.225  1.00  0.00     0.049 A 
ATOM     64  H   UNL A   1      41.618  29.442  32.896  1.00  0.00     0.167 HD
ATOM     65  C   UNL A   1      43.440  27.405  32.143  1.00  0.00     0.074 A 
ATOM     66  C   UNL A   1      44.152  26.434  31.339  1.00  0.00     0.031 C 
ATOM     67  C   UNL A   1      43.752  27.707  33.428  1.00  0.00     0.034 A 
BRANCH  54  68
ATOM     68  C   UNL A   1      40.297  32.218  35.865  1.00  0.00     0.023 A 
ATOM     69  C   UNL A   1      41.089  33.370  36.050  1.00  0.00     0.012 A 
ATOM     70  C   UNL A   1      39.232  31.965  36.751  1.00  0.00     0.148 A 
ATOM     71  C   UNL A   1      40.854  34.231  37.121  1.00  0.00     0.002 A 
ATOM     72  C   UNL A   1      38.971  32.855  37.786  1.00  0.00     0.091 A 
ATOM     73  F   UNL A   1      38.499  30.856  36.571  1.00  0.00    -0.205 F 
ATOM     74  C   UNL A   1      39.788  33.980  37.981  1.00  0.00     0.022 A 
BRANCH  72  75
ATOM     75  S   UNL A   1      37.575  32.665  38.900  1.00  0.00     0.127 S 
ATOM     76  O   UNL A   1      36.445  32.826  37.987  1.00  0.00    -0.237 OA
ATOM     77  O   UNL A   1      37.765  31.303  39.401  1.00  0.00    -0.237 OA
ATOM     78  O   UNL A   1      37.717  33.708  39.906  1.00  0.00    -0.744 OA
ENDBRANCH  72  75
ENDBRANCH  54  68
BRANCH  55  79
ATOM     79  C   UNL A   1      41.997  26.689  27.716  1.00  0.00     0.023 A 
ATOM     80  C   UNL A   1      42.619  27.312  26.617  1.00  0.00     0.012 A 
ATOM     81  C   UNL A   1      41.684  25.318  27.643  1.00  0.00     0.148 A 
ATOM     82  C   UNL A   1      42.891  26.592  25.453  1.00  0.00     0.002 A 
ATOM     83  C   UNL A   1      42.010  24.594  26.502  1.00  0.00     0.091 A 
ATOM     84  F   UNL A   1      41.086  24.746  28.697  1.00  0.00    -0.205 F 
ATOM     85  C   UNL A   1      42.596  25.233  25.399  1.00  0.00     0.022 A 
BRANCH  83  86
ATOM     86  S   UNL A   1      41.783  22.816  26.390  1.00  0.00     0.127 S 
ATOM     87  O   UNL A   1      42.480  22.349  27.585  1.00  0.00    -0.237 OA
ATOM     88  O   UNL A   1      40.326  22.695  26.439  1.00  0.00    -0.237 OA
ATOM     89  O   UNL A   1      42.377  22.421  25.119  1.00  0.00    -0.744 OA
ENDBRANCH  83  86
ENDBRANCH  55  79
BRANCH  67  90
ATOM     90  C   UNL A   1      44.894  26.957  34.064  1.00  0.00     0.023 A 
ATOM     91  C   UNL A   1      46.212  27.434  33.926  1.00  0.00     0.012 A 
ATOM     92  C   UNL A   1      44.650  25.820  34.858  1.00  0.00     0.148 A 
ATOM     93  C   UNL A   1      47.274  26.769  34.539  1.00  0.00     0.002 A 
ATOM     94  C   UNL A   1      45.705  25.193  35.510  1.00  0.00     0.091 A 
ATOM     95  F   UNL A   1      43.391  25.371  34.964  1.00  0.00    -0.205 F 
ATOM     96  C   UNL A   1      47.020  25.658  35.340  1.00  0.00     0.022 A 
BRANCH  94  97
ATOM     97  S   UNL A   1      45.464  23.817  36.639  1.00  0.00     0.127 S 
ATOM     98  O   UNL A   1      44.770  22.852  35.788  1.00  0.00    -0.237 OA
ATOM     99  O   UNL A   1      46.840  23.453  36.978  1.00  0.00    -0.237 OA
ATOM    100  O   UNL A   1      44.684  24.341  37.752  1.00  0.00    -0.744 OA
ENDBRANCH  94  97
ENDBRANCH  67  90
ENDBRANCH  41  42
ENDBRANCH  33  36
ENDBRANCH  31  32
ENDBRANCH  30  31
ENDBRANCH  29  30
ENDBRANCH   1  29
TORSDOF 20
ENDMDL
MODEL 3
REMARK VINA RESULT:     -10.8      5.532      8.862
REMARK SMILES C[C@H]1[C@@H](C(=O)NCCCCCCNC(=O)c2ccc(-c3c4nc(c(-c5cccc(S(=O)(=O)[O-])c5F)c5ccc([nH]5)c(-c5cccc(S(=O)(=O)[O-])c5F)c5nc(c(-c6cccc(S(=O)(=O)[O-])c6F)c6ccc3[nH]6)C=C5)C=C4)cc2)CC[N@@H+]1CC(=O)NNC(=O)c1cccs1
REMARK SMILES IDX 9 1 8 2 7 3 6 4 4 5 5 6 3 8 1 9 2 10 81 11 79 12 80 13 82 15
REMARK SMILES IDX 83 16 84 17 85 18 86 20 87 21 88 23 89 24 90 25 93 26 91 27
REMARK SMILES IDX 92 28 10 29 11 30 12 31 13 32 14 33 15 35 16 36 17 37 78 38
REMARK SMILES IDX 18 39 77 40 19 41 20 42 21 43 71 44 22 45 76 46 70 47 72 48
REMARK SMILES IDX 23 49 75 50 69 51 68 52 24 54 56 55 36 56 55 57 37 58 40 59
REMARK SMILES IDX 54 60 73 61 38 62 39 63 53 65 74 66 41 67 25 68 26 69 34 70
REMARK SMILES IDX 27 71 29 72 35 73 28 74 30 75 31 76 32 77 33 78 57 79 58 80
REMARK SMILES IDX 66 81 59 82 61 83 67 84 60 85 62 86 63 87 64 88 65 89 42 90
REMARK SMILES IDX 43 91 51 92 44 93 46 94 52 95 45 96 47 97 48 98 49 99 50 100
REMARK H PARENT 6 7 81 14 85 19 86 22 13 34 72 53 40 64
REMARK Flexibility Score: inf
ROOT
ATOM      1  C   UNL A   1      32.586  28.672  22.735  1.00  0.00     0.002 C 
ENDROOT
BRANCH   1   2
ATOM      2  C   UNL A   1      31.115  28.739  23.138  1.00  0.00     0.021 C 
BRANCH   2   3
ATOM      3  C   UNL A   1      30.320  27.457  22.870  1.00  0.00     0.116 C 
BRANCH   3   4
ATOM      4  N   UNL A   1      29.867  26.926  24.137  1.00  0.00    -0.356 N 
ATOM      5  C   UNL A   1      30.440  25.996  24.949  1.00  0.00     0.229 C 
ATOM      6  O   UNL A   1      29.704  25.492  25.802  1.00  0.00    -0.275 OA
ATOM      7  H   UNL A   1      29.014  27.294  24.463  1.00  0.00     0.163 HD
BRANCH   5   8
ATOM      8  C   UNL A   1      31.947  25.727  24.907  1.00  0.00     0.142 C 
ATOM      9  C   UNL A   1      31.644  23.557  23.397  1.00  0.00     0.076 C 
ATOM     10  C   UNL A   1      32.551  24.577  24.068  1.00  0.00     0.194 C 
ATOM     11  N   UNL A   1      33.405  23.793  24.969  1.00  0.00    -0.324 N 
ATOM     12  C   UNL A   1      32.505  25.490  26.324  1.00  0.00     0.081 C 
ATOM     13  C   UNL A   1      32.949  24.043  26.328  1.00  0.00     0.263 C 
ATOM     14  H   UNL A   1      33.286  22.801  24.768  1.00  0.00     0.348 HD
BRANCH  11  15
ATOM     15  C   UNL A   1      34.850  23.864  24.723  1.00  0.00     0.365 C 
BRANCH  15  16
ATOM     16  C   UNL A   1      35.428  22.752  23.849  1.00  0.00     0.293 C 
ATOM     17  O   UNL A   1      35.758  22.962  22.677  1.00  0.00    -0.267 OA
ATOM     18  N   UNL A   1      35.613  21.490  24.353  1.00  0.00    -0.262 N 
ATOM     19  H   UNL A   1      36.094  20.845  23.785  1.00  0.00     0.191 HD
BRANCH  18  20
ATOM     20  N   UNL A   1      35.178  21.038  25.602  1.00  0.00    -0.263 N 
ATOM     21  C   UNL A   1      33.958  20.395  25.781  1.00  0.00     0.279 C 
ATOM     22  H   UNL A   1      35.757  21.181  26.384  1.00  0.00     0.191 HD
ATOM     23  O   UNL A   1      33.373  20.572  26.853  1.00  0.00    -0.266 OA
BRANCH  21  24
ATOM     24  C   UNL A   1      33.461  19.550  24.708  1.00  0.00     0.094 A 
ATOM     25  C   UNL A   1      32.525  19.834  23.727  1.00  0.00     0.026 A 
ATOM     26  S   UNL A   1      34.128  17.985  24.488  1.00  0.00    -0.139 S 
ATOM     27  C   UNL A   1      32.332  18.751  22.822  1.00  0.00     0.012 A 
ATOM     28  C   UNL A   1      33.150  17.685  23.116  1.00  0.00     0.065 A 
ENDBRANCH  21  24
ENDBRANCH  18  20
ENDBRANCH  15  16
ENDBRANCH  11  15
ENDBRANCH   5   8
ENDBRANCH   3   4
ENDBRANCH   2   3
ENDBRANCH   1   2
BRANCH   1  29
ATOM     29  C   UNL A   1      33.557  29.042  23.854  1.00  0.00     0.002 C 
BRANCH  29  30
ATOM     30  C   UNL A   1      32.971  28.978  25.269  1.00  0.00     0.021 C 
BRANCH  30  31
ATOM     31  C   UNL A   1      33.982  29.193  26.393  1.00  0.00     0.116 C 
BRANCH  31  32
ATOM     32  N   UNL A   1      33.852  30.514  26.987  1.00  0.00    -0.352 N 
ATOM     33  C   UNL A   1      34.585  31.089  27.994  1.00  0.00     0.251 C 
ATOM     34  H   UNL A   1      33.135  31.076  26.613  1.00  0.00     0.163 HD
ATOM     35  O   UNL A   1      34.177  32.100  28.552  1.00  0.00    -0.269 OA
BRANCH  33  36
ATOM     36  C   UNL A   1      35.867  30.478  28.403  1.00  0.00     0.039 A 
ATOM     37  C   UNL A   1      37.015  30.745  27.654  1.00  0.00     0.014 A 
ATOM     38  C   UNL A   1      35.929  29.629  29.512  1.00  0.00     0.014 A 
ATOM     39  C   UNL A   1      38.237  30.197  28.048  1.00  0.00     0.010 A 
ATOM     40  C   UNL A   1      37.160  29.147  29.946  1.00  0.00     0.010 A 
ATOM     41  C   UNL A   1      38.325  29.416  29.212  1.00  0.00    -0.014 A 
BRANCH  41  42
ATOM     42  C   UNL A   1      39.628  28.878  29.679  1.00  0.00     0.031 A 
ATOM     43  C   UNL A   1      40.382  29.564  30.785  1.00  0.00     0.074 A 
ATOM     44  C   UNL A   1      40.168  27.813  29.054  1.00  0.00     0.049 A 
ATOM     45  N   UNL A   1      41.548  29.264  31.297  1.00  0.00    -0.248 NA
ATOM     46  C   UNL A   1      39.759  30.760  31.377  1.00  0.00     0.031 C 
ATOM     47  C   UNL A   1      39.569  27.107  27.918  1.00  0.00     0.029 A 
ATOM     48  N   UNL A   1      41.352  27.153  29.266  1.00  0.00    -0.354 N 
ATOM     49  C   UNL A   1      41.813  30.247  32.243  1.00  0.00     0.074 A 
ATOM     50  C   UNL A   1      40.703  31.173  32.209  1.00  0.00     0.031 C 
ATOM     51  C   UNL A   1      40.384  26.110  27.541  1.00  0.00     0.029 A 
ATOM     52  C   UNL A   1      41.577  26.125  28.382  1.00  0.00     0.049 A 
ATOM     53  H   UNL A   1      41.980  27.393  29.986  1.00  0.00     0.167 HD
ATOM     54  C   UNL A   1      42.869  30.353  33.085  1.00  0.00     0.034 A 
ATOM     55  C   UNL A   1      42.630  25.293  28.255  1.00  0.00     0.034 A 
ATOM     56  C   UNL A   1      43.953  29.410  33.136  1.00  0.00     0.049 A 
ATOM     57  C   UNL A   1      43.779  25.418  29.218  1.00  0.00     0.074 A 
ATOM     58  C   UNL A   1      45.026  29.381  34.011  1.00  0.00     0.029 A 
ATOM     59  N   UNL A   1      44.114  28.339  32.271  1.00  0.00    -0.354 N 
ATOM     60  N   UNL A   1      43.936  26.259  30.212  1.00  0.00    -0.248 NA
ATOM     61  C   UNL A   1      44.881  24.458  29.064  1.00  0.00     0.031 C 
ATOM     62  C   UNL A   1      45.853  28.312  33.651  1.00  0.00     0.029 A 
ATOM     63  C   UNL A   1      45.275  27.652  32.578  1.00  0.00     0.049 A 
ATOM     64  H   UNL A   1      43.492  28.103  31.545  1.00  0.00     0.167 HD
ATOM     65  C   UNL A   1      45.134  25.907  30.823  1.00  0.00     0.074 A 
ATOM     66  C   UNL A   1      45.650  24.764  30.101  1.00  0.00     0.031 C 
ATOM     67  C   UNL A   1      45.757  26.487  31.878  1.00  0.00     0.034 A 
BRANCH  54  68
ATOM     68  C   UNL A   1      42.881  31.512  34.050  1.00  0.00     0.023 A 
ATOM     69  C   UNL A   1      43.475  32.733  33.668  1.00  0.00     0.012 A 
ATOM     70  C   UNL A   1      42.260  31.412  35.310  1.00  0.00     0.148 A 
ATOM     71  C   UNL A   1      43.488  33.821  34.539  1.00  0.00     0.002 A 
ATOM     72  C   UNL A   1      42.233  32.517  36.153  1.00  0.00     0.091 A 
ATOM     73  F   UNL A   1      41.716  30.239  35.664  1.00  0.00    -0.205 F 
ATOM     74  C   UNL A   1      42.857  33.716  35.776  1.00  0.00     0.022 A 
BRANCH  72  75
ATOM     75  S   UNL A   1      41.377  32.511  37.733  1.00  0.00     0.127 S 
ATOM     76  O   UNL A   1      41.427  33.925  38.100  1.00  0.00    -0.237 OA
ATOM     77  O   UNL A   1      40.047  32.025  37.359  1.00  0.00    -0.237 OA
ATOM     78  O   UNL A   1      42.131  31.614  38.596  1.00  0.00    -0.744 OA
ENDBRANCH  72  75
ENDBRANCH  54  68
BRANCH  55  79
ATOM     79  C   UNL A   1      42.620  24.233  27.208  1.00  0.00     0.023 A 
ATOM     80  C   UNL A   1      43.253  24.473  25.973  1.00  0.00     0.012 A 
ATOM     81  C   UNL A   1      42.012  22.984  27.438  1.00  0.00     0.148 A 
ATOM     82  C   UNL A   1      43.249  23.500  24.972  1.00  0.00     0.002 A 
ATOM     83  C   UNL A   1      42.062  21.999  26.458  1.00  0.00     0.091 A 
ATOM     84  F   UNL A   1      41.409  22.779  28.617  1.00  0.00    -0.205 F 
ATOM     85  C   UNL A   1      42.664  22.261  25.218  1.00  0.00     0.022 A 
BRANCH  83  86
ATOM     86  S   UNL A   1      41.448  20.334  26.731  1.00  0.00     0.127 S 
ATOM     87  O   UNL A   1      40.018  20.568  26.916  1.00  0.00    -0.237 OA
ATOM     88  O   UNL A   1      41.808  19.671  25.478  1.00  0.00    -0.237 OA
ATOM     89  O   UNL A   1      42.161  19.836  27.900  1.00  0.00    -0.744 OA
ENDBRANCH  83  86
ENDBRANCH  55  79
BRANCH  67  90
ATOM     90  C   UNL A   1      47.054  25.878  32.346  1.00  0.00     0.023 A 
ATOM     91  C   UNL A   1      48.277  26.334  31.816  1.00  0.00     0.012 A 
ATOM     92  C   UNL A   1      47.060  24.902  33.362  1.00  0.00     0.148 A 
ATOM     93  C   UNL A   1      49.485  25.802  32.265  1.00  0.00     0.002 A 
ATOM     94  C   UNL A   1      48.270  24.416  33.843  1.00  0.00     0.091 A 
ATOM     95  F   UNL A   1      45.886  24.470  33.841  1.00  0.00    -0.205 F 
ATOM     96  C   UNL A   1      49.483  24.854  33.286  1.00  0.00     0.022 A 
BRANCH  94  97
ATOM     97  S   UNL A   1      48.370  23.268  35.220  1.00  0.00     0.127 S 
ATOM     98  O   UNL A   1      47.948  24.107  36.340  1.00  0.00    -0.237 OA
ATOM     99  O   UNL A   1      47.405  22.237  34.832  1.00  0.00    -0.237 OA
ATOM    100  O   UNL A   1      49.754  22.814  35.267  1.00  0.00    -0.744 OA
ENDBRANCH  94  97
ENDBRANCH  67  90
ENDBRANCH  41  42
ENDBRANCH  33  36
ENDBRANCH  31  32
ENDBRANCH  30  31
ENDBRANCH  29  30
ENDBRANCH   1  29
TORSDOF 20
ENDMDL
