MODEL 1
REMARK VINA RESULT:     -11.9      0.000      0.000
REMARK SMILES C[C@@H](C(=O)NCCCCCCNC(=O)c1ccc(-c2c3nc(c(-c4cccc(S(=O)(=O)[O-])c4F)c4ccc([nH]4)c(-c4cccc(S(=O)(=O)[O-])c4F)c4nc(c(-c5cccc(S(=O)(=O)[O-])c5F)c5ccc2[nH]5)C=C4)C=C3)cc1)c1ccc(C[C@H]2CCC[C@H]2O)cc1
REMARK SMILES IDX 8 1 7 2 6 3 5 4 3 5 4 6 2 8 1 9 78 10 79 11 90 12 80 13
REMARK SMILES IDX 89 14 81 15 82 16 83 17 84 18 87 19 85 20 86 21 88 22 9 24
REMARK SMILES IDX 10 25 11 26 12 27 13 28 14 30 15 31 16 32 77 33 17 34 76 35
REMARK SMILES IDX 18 36 19 37 20 38 70 39 21 40 75 41 69 42 71 43 22 44 74 45
REMARK SMILES IDX 68 46 67 47 23 49 55 50 35 51 54 52 36 53 39 54 53 55 72 56
REMARK SMILES IDX 37 57 38 58 52 60 73 61 40 62 24 63 25 64 33 65 26 66 28 67
REMARK SMILES IDX 34 68 27 69 29 70 30 71 31 72 32 73 56 74 57 75 65 76 58 77
REMARK SMILES IDX 60 78 66 79 59 80 61 81 62 82 63 83 64 84 41 85 42 86 50 87
REMARK SMILES IDX 43 88 45 89 51 90 44 91 46 92 47 93 48 94 49 95
REMARK H PARENT 5 7 88 23 12 29 71 48 39 59
REMARK Flexibility Score: inf
ROOT
ATOM      1  C   UNL A   1      34.618  24.320  25.039  1.00  0.00     0.002 C 
ENDROOT
BRANCH   1   2
ATOM      2  C   UNL A   1      34.393  25.837  24.951  1.00  0.00     0.021 C 
BRANCH   2   3
ATOM      3  C   UNL A   1      32.918  26.242  24.994  1.00  0.00     0.116 C 
BRANCH   3   4
ATOM      4  N   UNL A   1      32.451  26.551  23.658  1.00  0.00    -0.356 N 
ATOM      5  C   UNL A   1      31.443  25.986  22.937  1.00  0.00     0.227 C 
ATOM      6  O   UNL A   1      31.401  26.252  21.735  1.00  0.00    -0.274 OA
ATOM      7  H   UNL A   1      32.936  27.278  23.203  1.00  0.00     0.163 HD
BRANCH   5   8
ATOM      8  C   UNL A   1      30.408  25.111  23.653  1.00  0.00     0.105 C 
ATOM      9  C   UNL A   1      29.806  25.772  24.899  1.00  0.00     0.023 C 
BRANCH   8  10
ATOM     10  C   UNL A   1      30.973  23.749  24.032  1.00  0.00    -0.036 A 
ATOM     11  C   UNL A   1      30.830  23.267  25.337  1.00  0.00     0.005 A 
ATOM     12  C   UNL A   1      31.682  22.978  23.099  1.00  0.00     0.005 A 
ATOM     13  C   UNL A   1      31.466  22.088  25.721  1.00  0.00     0.004 A 
ATOM     14  C   UNL A   1      32.336  21.814  23.492  1.00  0.00     0.004 A 
ATOM     15  C   UNL A   1      32.289  21.396  24.825  1.00  0.00    -0.048 A 
BRANCH  15  16
ATOM     16  C   UNL A   1      33.172  20.274  25.301  1.00  0.00     0.041 C 
BRANCH  16  17
ATOM     17  C   UNL A   1      33.564  19.216  24.248  1.00  0.00     0.022 C 
ATOM     18  C   UNL A   1      34.784  18.335  24.580  1.00  0.00     0.007 C 
ATOM     19  C   UNL A   1      32.486  18.222  23.786  1.00  0.00     0.117 C 
ATOM     20  C   UNL A   1      34.548  16.997  23.873  1.00  0.00     0.003 C 
ATOM     21  C   UNL A   1      33.300  17.185  23.019  1.00  0.00     0.032 C 
BRANCH  19  22
ATOM     22  O   UNL A   1      31.788  17.562  24.825  1.00  0.00    -0.393 OA
ATOM     23  H   UNL A   1      31.808  16.605  24.671  1.00  0.00     0.210 HD
ENDBRANCH  19  22
ENDBRANCH  16  17
ENDBRANCH  15  16
ENDBRANCH   8  10
ENDBRANCH   5   8
ENDBRANCH   3   4
ENDBRANCH   2   3
ENDBRANCH   1   2
BRANCH   1  24
ATOM     24  C   UNL A   1      35.406  23.722  23.870  1.00  0.00     0.002 C 
BRANCH  24  25
ATOM     25  C   UNL A   1      36.124  22.409  24.193  1.00  0.00     0.021 C 
BRANCH  25  26
ATOM     26  C   UNL A   1      36.554  22.275  25.648  1.00  0.00     0.116 C 
BRANCH  26  27
ATOM     27  N   UNL A   1      37.489  21.180  25.835  1.00  0.00    -0.352 N 
ATOM     28  C   UNL A   1      38.834  21.231  26.097  1.00  0.00     0.251 C 
ATOM     29  H   UNL A   1      37.104  20.276  25.764  1.00  0.00     0.163 HD
ATOM     30  O   UNL A   1      39.512  20.212  26.015  1.00  0.00    -0.269 OA
BRANCH  28  31
ATOM     31  C   UNL A   1      39.461  22.518  26.469  1.00  0.00     0.039 A 
ATOM     32  C   UNL A   1      40.434  22.531  27.471  1.00  0.00     0.014 A 
ATOM     33  C   UNL A   1      39.071  23.711  25.851  1.00  0.00     0.014 A 
ATOM     34  C   UNL A   1      41.029  23.739  27.840  1.00  0.00     0.010 A 
ATOM     35  C   UNL A   1      39.726  24.899  26.160  1.00  0.00     0.010 A 
ATOM     36  C   UNL A   1      40.688  24.931  27.180  1.00  0.00    -0.014 A 
BRANCH  36  37
ATOM     37  C   UNL A   1      41.289  26.228  27.581  1.00  0.00     0.031 A 
ATOM     38  C   UNL A   1      42.706  26.554  27.185  1.00  0.00     0.074 A 
ATOM     39  C   UNL A   1      40.587  27.084  28.348  1.00  0.00     0.049 A 
ATOM     40  N   UNL A   1      43.409  27.625  27.447  1.00  0.00    -0.248 NA
ATOM     41  C   UNL A   1      43.440  25.532  26.419  1.00  0.00     0.031 C 
ATOM     42  C   UNL A   1      39.236  26.849  28.862  1.00  0.00     0.029 A 
ATOM     43  N   UNL A   1      40.919  28.320  28.842  1.00  0.00    -0.354 N 
ATOM     44  C   UNL A   1      44.673  27.387  26.920  1.00  0.00     0.074 A 
ATOM     45  C   UNL A   1      44.654  26.057  26.356  1.00  0.00     0.031 C 
ATOM     46  C   UNL A   1      38.849  27.913  29.584  1.00  0.00     0.029 A 
ATOM     47  C   UNL A   1      39.930  28.893  29.607  1.00  0.00     0.049 A 
ATOM     48  H   UNL A   1      41.785  28.755  28.666  1.00  0.00     0.167 HD
ATOM     49  C   UNL A   1      45.746  28.213  26.879  1.00  0.00     0.034 A 
ATOM     50  C   UNL A   1      39.898  30.078  30.249  1.00  0.00     0.034 A 
ATOM     51  C   UNL A   1      45.743  29.556  27.390  1.00  0.00     0.049 A 
ATOM     52  C   UNL A   1      41.083  31.001  30.134  1.00  0.00     0.074 A 
ATOM     53  C   UNL A   1      46.742  30.509  27.311  1.00  0.00     0.029 A 
ATOM     54  N   UNL A   1      44.690  30.135  28.082  1.00  0.00    -0.354 N 
ATOM     55  N   UNL A   1      42.210  30.823  29.491  1.00  0.00    -0.248 NA
ATOM     56  C   UNL A   1      40.970  32.307  30.799  1.00  0.00     0.031 C 
ATOM     57  C   UNL A   1      46.304  31.657  27.980  1.00  0.00     0.029 A 
ATOM     58  C   UNL A   1      45.017  31.430  28.443  1.00  0.00     0.049 A 
ATOM     59  H   UNL A   1      43.836  29.690  28.285  1.00  0.00     0.167 HD
ATOM     60  C   UNL A   1      42.921  32.009  29.631  1.00  0.00     0.074 A 
ATOM     61  C   UNL A   1      42.089  32.904  30.409  1.00  0.00     0.031 C 
ATOM     62  C   UNL A   1      44.154  32.329  29.166  1.00  0.00     0.034 A 
BRANCH  49  63
ATOM     63  C   UNL A   1      47.000  27.702  26.216  1.00  0.00     0.023 A 
ATOM     64  C   UNL A   1      47.936  26.959  26.963  1.00  0.00     0.012 A 
ATOM     65  C   UNL A   1      47.229  27.916  24.842  1.00  0.00     0.148 A 
ATOM     66  C   UNL A   1      49.098  26.471  26.366  1.00  0.00     0.002 A 
ATOM     67  C   UNL A   1      48.365  27.384  24.243  1.00  0.00     0.091 A 
ATOM     68  F   UNL A   1      46.340  28.644  24.150  1.00  0.00    -0.205 F 
ATOM     69  C   UNL A   1      49.306  26.674  25.005  1.00  0.00     0.022 A 
BRANCH  67  70
ATOM     70  S   UNL A   1      48.682  27.519  22.480  1.00  0.00     0.127 S 
ATOM     71  O   UNL A   1      49.980  28.191  22.464  1.00  0.00    -0.237 OA
ATOM     72  O   UNL A   1      48.717  26.116  22.066  1.00  0.00    -0.237 OA
ATOM     73  O   UNL A   1      47.573  28.286  21.929  1.00  0.00    -0.744 OA
ENDBRANCH  67  70
ENDBRANCH  49  63
BRANCH  50  74
ATOM     74  C   UNL A   1      38.671  30.497  30.983  1.00  0.00     0.023 A 
ATOM     75  C   UNL A   1      38.564  30.224  32.361  1.00  0.00     0.012 A 
ATOM     76  C   UNL A   1      37.622  31.175  30.333  1.00  0.00     0.148 A 
ATOM     77  C   UNL A   1      37.419  30.585  33.072  1.00  0.00     0.002 A 
ATOM     78  C   UNL A   1      36.508  31.581  31.059  1.00  0.00     0.091 A 
ATOM     79  F   UNL A   1      37.740  31.419  29.021  1.00  0.00    -0.205 F 
ATOM     80  C   UNL A   1      36.395  31.270  32.423  1.00  0.00     0.022 A 
BRANCH  78  81
ATOM     81  S   UNL A   1      35.200  32.578  30.339  1.00  0.00     0.127 S 
ATOM     82  O   UNL A   1      34.264  32.694  31.454  1.00  0.00    -0.237 OA
ATOM     83  O   UNL A   1      35.911  33.811  30.000  1.00  0.00    -0.237 OA
ATOM     84  O   UNL A   1      34.721  31.826  29.186  1.00  0.00    -0.744 OA
ENDBRANCH  78  81
ENDBRANCH  50  74
BRANCH  62  85
ATOM     85  C   UNL A   1      44.664  33.721  29.431  1.00  0.00     0.023 A 
ATOM     86  C   UNL A   1      45.510  33.969  30.529  1.00  0.00     0.012 A 
ATOM     87  C   UNL A   1      44.353  34.773  28.546  1.00  0.00     0.148 A 
ATOM     88  C   UNL A   1      46.008  35.250  30.765  1.00  0.00     0.002 A 
ATOM     89  C   UNL A   1      44.895  36.035  28.757  1.00  0.00     0.091 A 
ATOM     90  F   UNL A   1      43.529  34.524  27.518  1.00  0.00    -0.205 F 
ATOM     91  C   UNL A   1      45.711  36.279  29.874  1.00  0.00     0.022 A 
BRANCH  89  92
ATOM     92  S   UNL A   1      44.649  37.389  27.602  1.00  0.00     0.127 S 
ATOM     93  O   UNL A   1      44.714  38.551  28.486  1.00  0.00    -0.237 OA
ATOM     94  O   UNL A   1      45.794  37.242  26.702  1.00  0.00    -0.237 OA
ATOM     95  O   UNL A   1      43.357  37.148  26.975  1.00  0.00    -0.744 OA
ENDBRANCH  89  92
ENDBRANCH  62  85
ENDBRANCH  36  37
ENDBRANCH  28  31
ENDBRANCH  26  27
ENDBRANCH  25  26
ENDBRANCH  24  25
ENDBRANCH   1  24
TORSDOF 20
ENDMDL
MODEL 2
REMARK VINA RESULT:     -11.6      2.422      2.921
REMARK SMILES C[C@@H](C(=O)NCCCCCCNC(=O)c1ccc(-c2c3nc(c(-c4cccc(S(=O)(=O)[O-])c4F)c4ccc([nH]4)c(-c4cccc(S(=O)(=O)[O-])c4F)c4nc(c(-c5cccc(S(=O)(=O)[O-])c5F)c5ccc2[nH]5)C=C4)C=C3)cc1)c1ccc(C[C@H]2CCC[C@H]2O)cc1
REMARK SMILES IDX 8 1 7 2 6 3 5 4 3 5 4 6 2 8 1 9 78 10 79 11 90 12 80 13
REMARK SMILES IDX 89 14 81 15 82 16 83 17 84 18 87 19 85 20 86 21 88 22 9 24
REMARK SMILES IDX 10 25 11 26 12 27 13 28 14 30 15 31 16 32 77 33 17 34 76 35
REMARK SMILES IDX 18 36 19 37 20 38 70 39 21 40 75 41 69 42 71 43 22 44 74 45
REMARK SMILES IDX 68 46 67 47 23 49 55 50 35 51 54 52 36 53 39 54 53 55 72 56
REMARK SMILES IDX 37 57 38 58 52 60 73 61 40 62 24 63 25 64 33 65 26 66 28 67
REMARK SMILES IDX 34 68 27 69 29 70 30 71 31 72 32 73 56 74 57 75 65 76 58 77
REMARK SMILES IDX 60 78 66 79 59 80 61 81 62 82 63 83 64 84 41 85 42 86 50 87
REMARK SMILES IDX 43 88 45 89 51 90 44 91 46 92 47 93 48 94 49 95
REMARK H PARENT 5 7 88 23 12 29 71 48 39 59
REMARK Flexibility Score: inf
ROOT
ATOM      1  C   UNL A   1      34.387  25.328  25.412  1.00  0.00     0.002 C 
ENDROOT
BRANCH   1   2
ATOM      2  C   UNL A   1      34.017  26.709  24.852  1.00  0.00     0.021 C 
BRANCH   2   3
ATOM      3  C   UNL A   1      32.509  26.970  24.809  1.00  0.00     0.116 C 
BRANCH   3   4
ATOM      4  N   UNL A   1      32.065  27.073  23.434  1.00  0.00    -0.356 N 
ATOM      5  C   UNL A   1      31.193  26.288  22.742  1.00  0.00     0.227 C 
ATOM      6  O   UNL A   1      31.166  26.430  21.518  1.00  0.00    -0.274 OA
ATOM      7  H   UNL A   1      32.451  27.821  22.924  1.00  0.00     0.163 HD
BRANCH   5   8
ATOM      8  C   UNL A   1      30.273  25.330  23.508  1.00  0.00     0.105 C 
ATOM      9  C   UNL A   1      29.534  25.996  24.676  1.00  0.00     0.023 C 
BRANCH   8  10
ATOM     10  C   UNL A   1      31.021  24.107  24.020  1.00  0.00    -0.036 A 
ATOM     11  C   UNL A   1      31.651  23.240  23.121  1.00  0.00     0.005 A 
ATOM     12  C   UNL A   1      31.052  23.802  25.389  1.00  0.00     0.005 A 
ATOM     13  C   UNL A   1      32.214  22.049  23.574  1.00  0.00     0.004 A 
ATOM     14  C   UNL A   1      31.594  22.601  25.835  1.00  0.00     0.004 A 
ATOM     15  C   UNL A   1      32.118  21.682  24.921  1.00  0.00    -0.048 A 
BRANCH  15  16
ATOM     16  C   UNL A   1      32.496  20.295  25.369  1.00  0.00     0.041 C 
BRANCH  16  17
ATOM     17  C   UNL A   1      33.134  19.380  24.304  1.00  0.00     0.022 C 
ATOM     18  C   UNL A   1      34.510  18.780  24.649  1.00  0.00     0.007 C 
ATOM     19  C   UNL A   1      32.313  18.187  23.788  1.00  0.00     0.117 C 
ATOM     20  C   UNL A   1      34.592  17.444  23.905  1.00  0.00     0.003 C 
ATOM     21  C   UNL A   1      33.352  17.377  23.020  1.00  0.00     0.032 C 
BRANCH  19  22
ATOM     22  O   UNL A   1      31.754  17.361  24.791  1.00  0.00    -0.393 OA
ATOM     23  H   UNL A   1      32.089  16.456  24.689  1.00  0.00     0.210 HD
ENDBRANCH  19  22
ENDBRANCH  16  17
ENDBRANCH  15  16
ENDBRANCH   8  10
ENDBRANCH   5   8
ENDBRANCH   3   4
ENDBRANCH   2   3
ENDBRANCH   1   2
BRANCH   1  24
ATOM     24  C   UNL A   1      34.845  24.313  24.360  1.00  0.00     0.002 C 
BRANCH  24  25
ATOM     25  C   UNL A   1      35.617  23.118  24.923  1.00  0.00     0.021 C 
BRANCH  25  26
ATOM     26  C   UNL A   1      36.587  23.474  26.042  1.00  0.00     0.116 C 
BRANCH  26  27
ATOM     27  N   UNL A   1      37.658  22.499  26.158  1.00  0.00    -0.352 N 
ATOM     28  C   UNL A   1      38.988  22.709  26.417  1.00  0.00     0.251 C 
ATOM     29  H   UNL A   1      37.392  21.560  26.032  1.00  0.00     0.163 HD
ATOM     30  O   UNL A   1      39.791  21.793  26.270  1.00  0.00    -0.269 OA
BRANCH  28  31
ATOM     31  C   UNL A   1      39.448  24.041  26.865  1.00  0.00     0.039 A 
ATOM     32  C   UNL A   1      39.321  24.382  28.214  1.00  0.00     0.014 A 
ATOM     33  C   UNL A   1      39.977  24.961  25.955  1.00  0.00     0.014 A 
ATOM     34  C   UNL A   1      39.742  25.639  28.652  1.00  0.00     0.010 A 
ATOM     35  C   UNL A   1      40.475  26.179  26.408  1.00  0.00     0.010 A 
ATOM     36  C   UNL A   1      40.332  26.544  27.754  1.00  0.00    -0.014 A 
BRANCH  36  37
ATOM     37  C   UNL A   1      40.757  27.895  28.197  1.00  0.00     0.031 A 
ATOM     38  C   UNL A   1      42.216  28.271  28.170  1.00  0.00     0.074 A 
ATOM     39  C   UNL A   1      39.844  28.762  28.677  1.00  0.00     0.049 A 
ATOM     40  N   UNL A   1      42.785  29.394  28.526  1.00  0.00    -0.248 NA
ATOM     41  C   UNL A   1      43.165  27.241  27.713  1.00  0.00     0.031 C 
ATOM     42  C   UNL A   1      38.413  28.488  28.827  1.00  0.00     0.029 A 
ATOM     43  N   UNL A   1      39.987  30.044  29.143  1.00  0.00    -0.354 N 
ATOM     44  C   UNL A   1      44.152  29.191  28.377  1.00  0.00     0.074 A 
ATOM     45  C   UNL A   1      44.332  27.826  27.936  1.00  0.00     0.031 C 
ATOM     46  C   UNL A   1      37.808  29.575  29.333  1.00  0.00     0.029 A 
ATOM     47  C   UNL A   1      38.808  30.612  29.567  1.00  0.00     0.049 A 
ATOM     48  H   UNL A   1      40.853  30.513  29.172  1.00  0.00     0.167 HD
ATOM     49  C   UNL A   1      45.166  30.069  28.560  1.00  0.00     0.034 A 
ATOM     50  C   UNL A   1      38.563  31.834  30.081  1.00  0.00     0.034 A 
ATOM     51  C   UNL A   1      44.978  31.441  28.943  1.00  0.00     0.049 A 
ATOM     52  C   UNL A   1      39.701  32.811  30.215  1.00  0.00     0.074 A 
ATOM     53  C   UNL A   1      45.928  32.440  29.060  1.00  0.00     0.029 A 
ATOM     54  N   UNL A   1      43.758  32.008  29.280  1.00  0.00    -0.354 N 
ATOM     55  N   UNL A   1      40.967  32.652  29.913  1.00  0.00    -0.248 NA
ATOM     56  C   UNL A   1      39.368  34.150  30.720  1.00  0.00     0.031 C 
ATOM     57  C   UNL A   1      45.285  33.605  29.494  1.00  0.00     0.029 A 
ATOM     58  C   UNL A   1      43.930  33.340  29.611  1.00  0.00     0.049 A 
ATOM     59  H   UNL A   1      42.896  31.531  29.281  1.00  0.00     0.167 HD
ATOM     60  C   UNL A   1      41.572  33.882  30.145  1.00  0.00     0.074 A 
ATOM     61  C   UNL A   1      40.529  34.780  30.598  1.00  0.00     0.031 C 
ATOM     62  C   UNL A   1      42.873  34.236  30.003  1.00  0.00     0.034 A 
BRANCH  49  63
ATOM     63  C   UNL A   1      46.570  29.584  28.300  1.00  0.00     0.023 A 
ATOM     64  C   UNL A   1      47.144  29.748  27.023  1.00  0.00     0.012 A 
ATOM     65  C   UNL A   1      47.338  29.012  29.333  1.00  0.00     0.148 A 
ATOM     66  C   UNL A   1      48.444  29.313  26.765  1.00  0.00     0.002 A 
ATOM     67  C   UNL A   1      48.651  28.628  29.081  1.00  0.00     0.091 A 
ATOM     68  F   UNL A   1      46.771  28.844  30.536  1.00  0.00    -0.205 F 
ATOM     69  C   UNL A   1      49.200  28.764  27.797  1.00  0.00     0.022 A 
BRANCH  67  70
ATOM     70  S   UNL A   1      49.733  27.987  30.364  1.00  0.00     0.127 S 
ATOM     71  O   UNL A   1      49.068  26.732  30.713  1.00  0.00    -0.237 OA
ATOM     72  O   UNL A   1      50.998  27.827  29.646  1.00  0.00    -0.237 OA
ATOM     73  O   UNL A   1      49.754  28.997  31.414  1.00  0.00    -0.744 OA
ENDBRANCH  67  70
ENDBRANCH  49  63
BRANCH  50  74
ATOM     74  C   UNL A   1      37.169  32.233  30.423  1.00  0.00     0.023 A 
ATOM     75  C   UNL A   1      36.692  32.023  31.732  1.00  0.00     0.012 A 
ATOM     76  C   UNL A   1      36.322  32.834  29.472  1.00  0.00     0.148 A 
ATOM     77  C   UNL A   1      35.386  32.367  32.078  1.00  0.00     0.002 A 
ATOM     78  C   UNL A   1      35.039  33.224  29.839  1.00  0.00     0.091 A 
ATOM     79  F   UNL A   1      36.791  33.019  28.231  1.00  0.00    -0.205 F 
ATOM     80  C   UNL A   1      34.562  32.975  31.135  1.00  0.00     0.022 A 
BRANCH  78  81
ATOM     81  S   UNL A   1      33.953  34.128  28.730  1.00  0.00     0.127 S 
ATOM     82  O   UNL A   1      32.895  34.564  29.637  1.00  0.00    -0.237 OA
ATOM     83  O   UNL A   1      34.832  35.194  28.249  1.00  0.00    -0.237 OA
ATOM     84  O   UNL A   1      33.554  33.173  27.704  1.00  0.00    -0.744 OA
ENDBRANCH  78  81
ENDBRANCH  50  74
BRANCH  62  85
ATOM     85  C   UNL A   1      43.243  35.669  30.284  1.00  0.00     0.023 A 
ATOM     86  C   UNL A   1      43.785  36.029  31.533  1.00  0.00     0.012 A 
ATOM     87  C   UNL A   1      43.114  36.647  29.278  1.00  0.00     0.148 A 
ATOM     88  C   UNL A   1      44.155  37.349  31.790  1.00  0.00     0.002 A 
ATOM     89  C   UNL A   1      43.535  37.949  29.523  1.00  0.00     0.091 A 
ATOM     90  F   UNL A   1      42.577  36.291  28.101  1.00  0.00    -0.205 F 
ATOM     91  C   UNL A   1      44.041  38.304  30.783  1.00  0.00     0.022 A 
BRANCH  89  92
ATOM     92  S   UNL A   1      43.521  39.216  28.250  1.00  0.00     0.127 S 
ATOM     93  O   UNL A   1      44.145  38.517  27.127  1.00  0.00    -0.237 OA
ATOM     94  O   UNL A   1      42.090  39.478  28.086  1.00  0.00    -0.237 OA
ATOM     95  O   UNL A   1      44.279  40.335  28.793  1.00  0.00    -0.744 OA
ENDBRANCH  89  92
ENDBRANCH  62  85
ENDBRANCH  36  37
ENDBRANCH  28  31
ENDBRANCH  26  27
ENDBRANCH  25  26
ENDBRANCH  24  25
ENDBRANCH   1  24
TORSDOF 20
ENDMDL
MODEL 3
REMARK VINA RESULT:     -11.4      2.065      4.383
REMARK SMILES C[C@@H](C(=O)NCCCCCCNC(=O)c1ccc(-c2c3nc(c(-c4cccc(S(=O)(=O)[O-])c4F)c4ccc([nH]4)c(-c4cccc(S(=O)(=O)[O-])c4F)c4nc(c(-c5cccc(S(=O)(=O)[O-])c5F)c5ccc2[nH]5)C=C4)C=C3)cc1)c1ccc(C[C@H]2CCC[C@H]2O)cc1
REMARK SMILES IDX 8 1 7 2 6 3 5 4 3 5 4 6 2 8 1 9 78 10 79 11 90 12 80 13
REMARK SMILES IDX 89 14 81 15 82 16 83 17 84 18 87 19 85 20 86 21 88 22 9 24
REMARK SMILES IDX 10 25 11 26 12 27 13 28 14 30 15 31 16 32 77 33 17 34 76 35
REMARK SMILES IDX 18 36 19 37 20 38 70 39 21 40 75 41 69 42 71 43 22 44 74 45
REMARK SMILES IDX 68 46 67 47 23 49 55 50 35 51 54 52 36 53 39 54 53 55 72 56
REMARK SMILES IDX 37 57 38 58 52 60 73 61 40 62 24 63 25 64 33 65 26 66 28 67
REMARK SMILES IDX 34 68 27 69 29 70 30 71 31 72 32 73 56 74 57 75 65 76 58 77
REMARK SMILES IDX 60 78 66 79 59 80 61 81 62 82 63 83 64 84 41 85 42 86 50 87
REMARK SMILES IDX 43 88 45 89 51 90 44 91 46 92 47 93 48 94 49 95
REMARK H PARENT 5 7 88 23 12 29 71 48 39 59
REMARK Flexibility Score: inf
ROOT
ATOM      1  C   UNL A   1      34.808  20.207  24.929  1.00  0.00     0.002 C 
ENDROOT
BRANCH   1   2
ATOM      2  C   UNL A   1      33.604  20.449  25.852  1.00  0.00     0.021 C 
BRANCH   2   3
ATOM      3  C   UNL A   1      32.426  21.136  25.157  1.00  0.00     0.116 C 
BRANCH   3   4
ATOM      4  N   UNL A   1      31.700  21.953  26.107  1.00  0.00    -0.356 N 
ATOM      5  C   UNL A   1      31.905  23.249  26.474  1.00  0.00     0.227 C 
ATOM      6  O   UNL A   1      31.313  23.644  27.480  1.00  0.00    -0.274 OA
ATOM      7  H   UNL A   1      30.947  21.504  26.557  1.00  0.00     0.163 HD
BRANCH   5   8
ATOM      8  C   UNL A   1      32.798  24.142  25.605  1.00  0.00     0.105 C 
ATOM      9  C   UNL A   1      34.258  24.185  26.072  1.00  0.00     0.023 C 
BRANCH   8  10
ATOM     10  C   UNL A   1      32.262  25.564  25.506  1.00  0.00    -0.036 A 
ATOM     11  C   UNL A   1      31.034  25.811  24.882  1.00  0.00     0.005 A 
ATOM     12  C   UNL A   1      33.004  26.650  25.993  1.00  0.00     0.005 A 
ATOM     13  C   UNL A   1      30.609  27.120  24.666  1.00  0.00     0.004 A 
ATOM     14  C   UNL A   1      32.588  27.956  25.755  1.00  0.00     0.004 A 
ATOM     15  C   UNL A   1      31.420  28.202  25.027  1.00  0.00    -0.048 A 
BRANCH  15  16
ATOM     16  C   UNL A   1      31.087  29.598  24.574  1.00  0.00     0.041 C 
BRANCH  16  17
ATOM     17  C   UNL A   1      29.824  29.753  23.701  1.00  0.00     0.022 C 
ATOM     18  C   UNL A   1      29.097  31.109  23.779  1.00  0.00     0.007 C 
ATOM     19  C   UNL A   1      29.946  29.468  22.195  1.00  0.00     0.117 C 
ATOM     20  C   UNL A   1      28.426  31.311  22.417  1.00  0.00     0.003 C 
ATOM     21  C   UNL A   1      28.631  30.011  21.647  1.00  0.00     0.032 C 
BRANCH  19  22
ATOM     22  O   UNL A   1      31.011  30.131  21.540  1.00  0.00    -0.393 OA
ATOM     23  H   UNL A   1      31.819  29.601  21.619  1.00  0.00     0.210 HD
ENDBRANCH  19  22
ENDBRANCH  16  17
ENDBRANCH  15  16
ENDBRANCH   8  10
ENDBRANCH   5   8
ENDBRANCH   3   4
ENDBRANCH   2   3
ENDBRANCH   1   2
BRANCH   1  24
ATOM     24  C   UNL A   1      36.020  21.098  25.212  1.00  0.00     0.002 C 
BRANCH  24  25
ATOM     25  C   UNL A   1      37.373  20.436  24.945  1.00  0.00     0.021 C 
BRANCH  25  26
ATOM     26  C   UNL A   1      38.545  21.107  25.651  1.00  0.00     0.116 C 
BRANCH  26  27
ATOM     27  N   UNL A   1      39.601  20.159  25.961  1.00  0.00    -0.352 N 
ATOM     28  C   UNL A   1      40.893  20.407  26.347  1.00  0.00     0.251 C 
ATOM     29  H   UNL A   1      39.355  19.209  25.882  1.00  0.00     0.163 HD
ATOM     30  O   UNL A   1      41.713  19.494  26.363  1.00  0.00    -0.269 OA
BRANCH  28  31
ATOM     31  C   UNL A   1      41.294  21.776  26.734  1.00  0.00     0.039 A 
ATOM     32  C   UNL A   1      41.478  22.070  28.088  1.00  0.00     0.014 A 
ATOM     33  C   UNL A   1      41.462  22.775  25.770  1.00  0.00     0.014 A 
ATOM     34  C   UNL A   1      41.847  23.361  28.471  1.00  0.00     0.010 A 
ATOM     35  C   UNL A   1      41.914  24.036  26.146  1.00  0.00     0.010 A 
ATOM     36  C   UNL A   1      42.079  24.352  27.502  1.00  0.00    -0.014 A 
BRANCH  36  37
ATOM     37  C   UNL A   1      42.443  25.736  27.895  1.00  0.00     0.031 A 
ATOM     38  C   UNL A   1      43.875  26.194  27.796  1.00  0.00     0.074 A 
ATOM     39  C   UNL A   1      41.502  26.561  28.394  1.00  0.00     0.049 A 
ATOM     40  N   UNL A   1      44.392  27.356  28.099  1.00  0.00    -0.248 NA
ATOM     41  C   UNL A   1      44.862  25.208  27.321  1.00  0.00     0.031 C 
ATOM     42  C   UNL A   1      40.097  26.210  28.613  1.00  0.00     0.029 A 
ATOM     43  N   UNL A   1      41.590  27.861  28.823  1.00  0.00    -0.354 N 
ATOM     44  C   UNL A   1      45.761  27.228  27.896  1.00  0.00     0.074 A 
ATOM     45  C   UNL A   1      46.001  25.865  27.479  1.00  0.00     0.031 C 
ATOM     46  C   UNL A   1      39.452  27.273  29.119  1.00  0.00     0.029 A 
ATOM     47  C   UNL A   1      40.399  28.371  29.285  1.00  0.00     0.049 A 
ATOM     48  H   UNL A   1      42.427  28.380  28.803  1.00  0.00     0.167 HD
ATOM     49  C   UNL A   1      46.729  28.167  28.013  1.00  0.00     0.034 A 
ATOM     50  C   UNL A   1      40.105  29.590  29.780  1.00  0.00     0.034 A 
ATOM     51  C   UNL A   1      46.478  29.536  28.372  1.00  0.00     0.049 A 
ATOM     52  C   UNL A   1      41.189  30.633  29.841  1.00  0.00     0.074 A 
ATOM     53  C   UNL A   1      47.372  30.590  28.424  1.00  0.00     0.029 A 
ATOM     54  N   UNL A   1      45.243  30.040  28.748  1.00  0.00    -0.354 N 
ATOM     55  N   UNL A   1      42.448  30.540  29.489  1.00  0.00    -0.248 NA
ATOM     56  C   UNL A   1      40.800  31.964  30.329  1.00  0.00     0.031 C 
ATOM     57  C   UNL A   1      46.682  31.727  28.858  1.00  0.00     0.029 A 
ATOM     58  C   UNL A   1      45.351  31.387  29.041  1.00  0.00     0.049 A 
ATOM     59  H   UNL A   1      44.411  29.515  28.799  1.00  0.00     0.167 HD
ATOM     60  C   UNL A   1      42.989  31.808  29.664  1.00  0.00     0.074 A 
ATOM     61  C   UNL A   1      41.916  32.656  30.142  1.00  0.00     0.031 C 
ATOM     62  C   UNL A   1      44.260  32.232  29.457  1.00  0.00     0.034 A 
BRANCH  49  63
ATOM     63  C   UNL A   1      48.147  27.757  27.703  1.00  0.00     0.023 A 
ATOM     64  C   UNL A   1      48.974  27.261  28.731  1.00  0.00     0.012 A 
ATOM     65  C   UNL A   1      48.644  27.815  26.386  1.00  0.00     0.148 A 
ATOM     66  C   UNL A   1      50.285  26.869  28.463  1.00  0.00     0.002 A 
ATOM     67  C   UNL A   1      49.935  27.375  26.118  1.00  0.00     0.091 A 
ATOM     68  F   UNL A   1      47.851  28.309  25.424  1.00  0.00    -0.205 F 
ATOM     69  C   UNL A   1      50.761  26.915  27.156  1.00  0.00     0.022 A 
BRANCH  67  70
ATOM     70  S   UNL A   1      50.611  27.317  24.455  1.00  0.00     0.127 S 
ATOM     71  O   UNL A   1      51.891  26.647  24.680  1.00  0.00    -0.237 OA
ATOM     72  O   UNL A   1      49.617  26.508  23.747  1.00  0.00    -0.237 OA
ATOM     73  O   UNL A   1      50.699  28.700  24.007  1.00  0.00    -0.744 OA
ENDBRANCH  67  70
ENDBRANCH  49  63
BRANCH  50  74
ATOM     74  C   UNL A   1      38.706  29.918  30.174  1.00  0.00     0.023 A 
ATOM     75  C   UNL A   1      38.280  29.655  31.491  1.00  0.00     0.012 A 
ATOM     76  C   UNL A   1      37.804  30.502  29.264  1.00  0.00     0.148 A 
ATOM     77  C   UNL A   1      36.970  29.931  31.884  1.00  0.00     0.002 A 
ATOM     78  C   UNL A   1      36.517  30.826  29.678  1.00  0.00     0.091 A 
ATOM     79  F   UNL A   1      38.226  30.738  28.015  1.00  0.00    -0.205 F 
ATOM     80  C   UNL A   1      36.092  30.524  30.981  1.00  0.00     0.022 A 
BRANCH  78  81
ATOM     81  S   UNL A   1      35.359  31.705  28.625  1.00  0.00     0.127 S 
ATOM     82  O   UNL A   1      36.219  32.714  28.012  1.00  0.00    -0.237 OA
ATOM     83  O   UNL A   1      34.908  30.647  27.721  1.00  0.00    -0.237 OA
ATOM     84  O   UNL A   1      34.323  32.213  29.516  1.00  0.00    -0.744 OA
ENDBRANCH  78  81
ENDBRANCH  50  74
BRANCH  62  85
ATOM     85  C   UNL A   1      44.558  33.690  29.688  1.00  0.00     0.023 A 
ATOM     86  C   UNL A   1      44.996  34.133  30.952  1.00  0.00     0.012 A 
ATOM     87  C   UNL A   1      44.467  34.612  28.626  1.00  0.00     0.148 A 
ATOM     88  C   UNL A   1      45.300  35.477  31.165  1.00  0.00     0.002 A 
ATOM     89  C   UNL A   1      44.822  35.939  28.831  1.00  0.00     0.091 A 
ATOM     90  F   UNL A   1      44.029  34.177  27.435  1.00  0.00    -0.205 F 
ATOM     91  C   UNL A   1      45.224  36.377  30.104  1.00  0.00     0.022 A 
BRANCH  89  92
ATOM     92  S   UNL A   1      44.854  37.141  27.496  1.00  0.00     0.127 S 
ATOM     93  O   UNL A   1      45.815  36.536  26.575  1.00  0.00    -0.237 OA
ATOM     94  O   UNL A   1      43.467  37.123  27.029  1.00  0.00    -0.237 OA
ATOM     95  O   UNL A   1      45.270  38.398  28.101  1.00  0.00    -0.744 OA
ENDBRANCH  89  92
ENDBRANCH  62  85
ENDBRANCH  36  37
ENDBRANCH  28  31
ENDBRANCH  26  27
ENDBRANCH  25  26
ENDBRANCH  24  25
ENDBRANCH   1  24
TORSDOF 20
ENDMDL
