MODEL 1
REMARK VINA RESULT:     -11.4      0.000      0.000
REMARK SMILES O=C(Cc1ccccc1Nc1c(Cl)cccc1Cl)NCCCCCCNC(=O)c1ccc(-c2c3nc(c(-c4cccc(S(=O)(=O)[O-])c4F)c4ccc([nH]4)c(-c4cccc(S(=O)(=O)[O-])c4F)c4nc(c(-c5cccc(S(=O)(=O)[O-])c5F)c5ccc2[nH]5)C=C4)C=C3)cc1
REMARK SMILES IDX 22 1 21 2 20 3 19 4 1 5 2 6 3 8 4 9 5 10 9 11 6 12 8 13 7 14
REMARK SMILES IDX 10 15 11 17 12 18 17 19 13 20 14 21 16 22 18 23 15 24 23 25
REMARK SMILES IDX 24 26 25 27 26 28 27 29 28 31 29 32 30 33 91 34 31 35 90 36
REMARK SMILES IDX 32 37 33 38 34 39 84 40 35 41 89 42 83 43 85 44 36 45 88 46
REMARK SMILES IDX 82 47 81 48 37 50 69 51 49 52 68 53 50 54 53 55 67 56 86 57
REMARK SMILES IDX 51 58 52 59 66 61 87 62 54 63 38 64 39 65 47 66 40 67 42 68
REMARK SMILES IDX 48 69 41 70 43 71 44 72 45 73 46 74 70 75 71 76 79 77 72 78
REMARK SMILES IDX 74 79 80 80 73 81 75 82 76 83 77 84 78 85 55 86 56 87 64 88
REMARK SMILES IDX 57 89 59 90 65 91 58 92 60 93 61 94 62 95 63 96
REMARK H PARENT 19 7 10 16 26 30 85 49 53 60
REMARK Flexibility Score: inf
ROOT
ATOM      1  C   UNL A   1      30.925  26.918  26.537  1.00  0.00     0.002 C 
ENDROOT
BRANCH   1   2
ATOM      2  C   UNL A   1      31.677  25.679  26.039  1.00  0.00     0.021 C 
BRANCH   2   3
ATOM      3  C   UNL A   1      31.062  24.944  24.850  1.00  0.00     0.116 C 
BRANCH   3   4
ATOM      4  N   UNL A   1      31.979  24.026  24.205  1.00  0.00    -0.356 N 
ATOM      5  O   UNL A   1      31.176  22.147  25.246  1.00  0.00    -0.275 OA
ATOM      6  C   UNL A   1      31.937  22.672  24.437  1.00  0.00     0.224 C 
ATOM      7  H   UNL A   1      32.653  24.383  23.583  1.00  0.00     0.163 HD
BRANCH   6   8
ATOM      8  C   UNL A   1      32.876  21.844  23.596  1.00  0.00     0.137 C 
BRANCH   8   9
ATOM      9  C   UNL A   1      32.958  20.346  23.847  1.00  0.00    -0.015 A 
ATOM     10  C   UNL A   1      32.372  19.557  22.826  1.00  0.00     0.006 A 
ATOM     11  C   UNL A   1      33.601  19.694  24.926  1.00  0.00     0.042 A 
ATOM     12  C   UNL A   1      32.357  18.166  22.890  1.00  0.00     0.000 A 
ATOM     13  C   UNL A   1      33.522  18.289  24.991  1.00  0.00     0.026 A 
ATOM     14  C   UNL A   1      32.918  17.531  23.985  1.00  0.00     0.002 A 
BRANCH  11  15
ATOM     15  N   UNL A   1      34.247  20.396  25.963  1.00  0.00    -0.353 N 
ATOM     16  H   UNL A   1      33.915  20.207  26.870  1.00  0.00     0.167 HD
BRANCH  15  17
ATOM     17  C   UNL A   1      35.310  21.339  25.892  1.00  0.00     0.076 A 
ATOM     18  C   UNL A   1      35.120  22.674  26.296  1.00  0.00     0.066 A 
ATOM     19  C   UNL A   1      36.510  21.033  25.223  1.00  0.00     0.066 A 
ATOM     20  Cl  UNL A   1      33.762  23.139  27.243  1.00  0.00    -0.082 Cl
ATOM     21  C   UNL A   1      36.054  23.672  25.995  1.00  0.00     0.023 A 
ATOM     22  C   UNL A   1      37.463  22.024  24.954  1.00  0.00     0.023 A 
ATOM     23  Cl  UNL A   1      36.859  19.422  24.692  1.00  0.00    -0.082 Cl
ATOM     24  C   UNL A   1      37.222  23.348  25.317  1.00  0.00     0.003 A 
ENDBRANCH  15  17
ENDBRANCH  11  15
ENDBRANCH   8   9
ENDBRANCH   6   8
ENDBRANCH   3   4
ENDBRANCH   2   3
ENDBRANCH   1   2
BRANCH   1  25
ATOM     25  C   UNL A   1      31.782  28.104  26.980  1.00  0.00     0.002 C 
BRANCH  25  26
ATOM     26  C   UNL A   1      33.299  27.920  26.872  1.00  0.00     0.021 C 
BRANCH  26  27
ATOM     27  C   UNL A   1      34.026  28.985  26.059  1.00  0.00     0.116 C 
BRANCH  27  28
ATOM     28  N   UNL A   1      33.879  30.311  26.635  1.00  0.00    -0.352 N 
ATOM     29  C   UNL A   1      34.607  30.926  27.621  1.00  0.00     0.251 C 
ATOM     30  H   UNL A   1      33.146  30.850  26.259  1.00  0.00     0.163 HD
ATOM     31  O   UNL A   1      34.213  31.999  28.077  1.00  0.00    -0.269 OA
BRANCH  29  32
ATOM     32  C   UNL A   1      35.846  30.312  28.153  1.00  0.00     0.039 A 
ATOM     33  C   UNL A   1      37.027  30.449  27.416  1.00  0.00     0.014 A 
ATOM     34  C   UNL A   1      35.852  29.572  29.340  1.00  0.00     0.014 A 
ATOM     35  C   UNL A   1      38.215  29.886  27.889  1.00  0.00     0.010 A 
ATOM     36  C   UNL A   1      37.050  29.069  29.845  1.00  0.00     0.010 A 
ATOM     37  C   UNL A   1      38.243  29.211  29.121  1.00  0.00    -0.014 A 
BRANCH  37  38
ATOM     38  C   UNL A   1      39.519  28.682  29.667  1.00  0.00     0.031 A 
ATOM     39  C   UNL A   1      40.149  29.287  30.891  1.00  0.00     0.074 A 
ATOM     40  C   UNL A   1      40.147  27.683  29.014  1.00  0.00     0.049 A 
ATOM     41  N   UNL A   1      41.240  28.928  31.519  1.00  0.00    -0.248 NA
ATOM     42  C   UNL A   1      39.486  30.465  31.473  1.00  0.00     0.031 C 
ATOM     43  C   UNL A   1      39.686  27.073  27.765  1.00  0.00     0.029 A 
ATOM     44  N   UNL A   1      41.312  27.018  29.299  1.00  0.00    -0.354 N 
ATOM     45  C   UNL A   1      41.412  29.849  32.545  1.00  0.00     0.074 A 
ATOM     46  C   UNL A   1      40.330  30.805  32.436  1.00  0.00     0.031 C 
ATOM     47  C   UNL A   1      40.546  26.108  27.404  1.00  0.00     0.029 A 
ATOM     48  C   UNL A   1      41.629  26.045  28.380  1.00  0.00     0.049 A 
ATOM     49  H   UNL A   1      41.868  27.217  30.087  1.00  0.00     0.167 HD
ATOM     50  C   UNL A   1      42.367  29.884  33.506  1.00  0.00     0.034 A 
ATOM     51  C   UNL A   1      42.670  25.190  28.334  1.00  0.00     0.034 A 
ATOM     52  C   UNL A   1      43.416  28.906  33.635  1.00  0.00     0.049 A 
ATOM     53  C   UNL A   1      43.683  25.211  29.445  1.00  0.00     0.074 A 
ATOM     54  C   UNL A   1      44.363  28.786  34.638  1.00  0.00     0.029 A 
ATOM     55  N   UNL A   1      43.668  27.890  32.726  1.00  0.00    -0.354 N 
ATOM     56  N   UNL A   1      43.721  25.970  30.513  1.00  0.00    -0.248 NA
ATOM     57  C   UNL A   1      44.775  24.231  29.363  1.00  0.00     0.031 C 
ATOM     58  C   UNL A   1      45.204  27.713  34.319  1.00  0.00     0.029 A 
ATOM     59  C   UNL A   1      44.767  27.150  33.132  1.00  0.00     0.049 A 
ATOM     60  H   UNL A   1      43.142  27.720  31.911  1.00  0.00     0.167 HD
ATOM     61  C   UNL A   1      44.822  25.541  31.246  1.00  0.00     0.074 A 
ATOM     62  C   UNL A   1      45.405  24.436  30.513  1.00  0.00     0.031 C 
ATOM     63  C   UNL A   1      45.317  26.030  32.411  1.00  0.00     0.034 A 
BRANCH  50  64
ATOM     64  C   UNL A   1      42.291  30.991  34.528  1.00  0.00     0.023 A 
ATOM     65  C   UNL A   1      41.547  30.799  35.710  1.00  0.00     0.012 A 
ATOM     66  C   UNL A   1      42.993  32.199  34.344  1.00  0.00     0.148 A 
ATOM     67  C   UNL A   1      41.469  31.804  36.674  1.00  0.00     0.002 A 
ATOM     68  C   UNL A   1      42.946  33.180  35.329  1.00  0.00     0.091 A 
ATOM     69  F   UNL A   1      43.678  32.376  33.205  1.00  0.00    -0.205 F 
ATOM     70  C   UNL A   1      42.175  32.990  36.488  1.00  0.00     0.022 A 
BRANCH  68  71
ATOM     71  S   UNL A   1      43.884  34.708  35.217  1.00  0.00     0.127 S 
ATOM     72  O   UNL A   1      43.206  35.390  34.115  1.00  0.00    -0.237 OA
ATOM     73  O   UNL A   1      43.660  35.306  36.533  1.00  0.00    -0.237 OA
ATOM     74  O   UNL A   1      45.261  34.312  34.959  1.00  0.00    -0.744 OA
ENDBRANCH  68  71
ENDBRANCH  50  64
BRANCH  51  75
ATOM     75  C   UNL A   1      42.749  24.179  27.242  1.00  0.00     0.023 A 
ATOM     76  C   UNL A   1      43.499  24.475  26.086  1.00  0.00     0.012 A 
ATOM     77  C   UNL A   1      42.130  22.920  27.355  1.00  0.00     0.148 A 
ATOM     78  C   UNL A   1      43.608  23.546  25.051  1.00  0.00     0.002 A 
ATOM     79  C   UNL A   1      42.289  21.977  26.346  1.00  0.00     0.091 A 
ATOM     80  F   UNL A   1      41.412  22.662  28.458  1.00  0.00    -0.205 F 
ATOM     81  C   UNL A   1      43.013  22.294  25.186  1.00  0.00     0.022 A 
BRANCH  79  82
ATOM     82  S   UNL A   1      41.674  20.296  26.493  1.00  0.00     0.127 S 
ATOM     83  O   UNL A   1      40.232  20.492  26.350  1.00  0.00    -0.237 OA
ATOM     84  O   UNL A   1      42.320  19.638  25.354  1.00  0.00    -0.237 OA
ATOM     85  O   UNL A   1      42.123  19.822  27.790  1.00  0.00    -0.744 OA
ENDBRANCH  79  82
ENDBRANCH  51  75
BRANCH  63  86
ATOM     86  C   UNL A   1      46.547  25.363  32.973  1.00  0.00     0.023 A 
ATOM     87  C   UNL A   1      47.822  25.884  32.670  1.00  0.00     0.012 A 
ATOM     88  C   UNL A   1      46.443  24.252  33.832  1.00  0.00     0.148 A 
ATOM     89  C   UNL A   1      48.973  25.283  33.178  1.00  0.00     0.002 A 
ATOM     90  C   UNL A   1      47.591  23.689  34.374  1.00  0.00     0.091 A 
ATOM     91  F   UNL A   1      45.225  23.755  34.093  1.00  0.00    -0.205 F 
ATOM     92  C   UNL A   1      48.858  24.193  34.038  1.00  0.00     0.022 A 
BRANCH  90  93
ATOM     93  S   UNL A   1      47.529  22.344  35.564  1.00  0.00     0.127 S 
ATOM     94  O   UNL A   1      48.933  22.215  35.945  1.00  0.00    -0.237 OA
ATOM     95  O   UNL A   1      46.661  22.889  36.609  1.00  0.00    -0.237 OA
ATOM     96  O   UNL A   1      46.962  21.209  34.848  1.00  0.00    -0.744 OA
ENDBRANCH  90  93
ENDBRANCH  63  86
ENDBRANCH  37  38
ENDBRANCH  29  32
ENDBRANCH  27  28
ENDBRANCH  26  27
ENDBRANCH  25  26
ENDBRANCH   1  25
TORSDOF 19
ENDMDL
MODEL 2
REMARK VINA RESULT:     -11.0      2.106      2.468
REMARK SMILES O=C(Cc1ccccc1Nc1c(Cl)cccc1Cl)NCCCCCCNC(=O)c1ccc(-c2c3nc(c(-c4cccc(S(=O)(=O)[O-])c4F)c4ccc([nH]4)c(-c4cccc(S(=O)(=O)[O-])c4F)c4nc(c(-c5cccc(S(=O)(=O)[O-])c5F)c5ccc2[nH]5)C=C4)C=C3)cc1
REMARK SMILES IDX 22 1 21 2 20 3 19 4 1 5 2 6 3 8 4 9 5 10 9 11 6 12 8 13 7 14
REMARK SMILES IDX 10 15 11 17 12 18 17 19 13 20 14 21 16 22 18 23 15 24 23 25
REMARK SMILES IDX 24 26 25 27 26 28 27 29 28 31 29 32 30 33 91 34 31 35 90 36
REMARK SMILES IDX 32 37 33 38 34 39 84 40 35 41 89 42 83 43 85 44 36 45 88 46
REMARK SMILES IDX 82 47 81 48 37 50 69 51 49 52 68 53 50 54 53 55 67 56 86 57
REMARK SMILES IDX 51 58 52 59 66 61 87 62 54 63 38 64 39 65 47 66 40 67 42 68
REMARK SMILES IDX 48 69 41 70 43 71 44 72 45 73 46 74 70 75 71 76 79 77 72 78
REMARK SMILES IDX 74 79 80 80 73 81 75 82 76 83 77 84 78 85 55 86 56 87 64 88
REMARK SMILES IDX 57 89 59 90 65 91 58 92 60 93 61 94 62 95 63 96
REMARK H PARENT 19 7 10 16 26 30 85 49 53 60
REMARK Flexibility Score: inf
ROOT
ATOM      1  C   UNL A   1      30.706  26.969  26.217  1.00  0.00     0.002 C 
ENDROOT
BRANCH   1   2
ATOM      2  C   UNL A   1      31.435  25.674  25.840  1.00  0.00     0.021 C 
BRANCH   2   3
ATOM      3  C   UNL A   1      30.780  24.816  24.760  1.00  0.00     0.116 C 
BRANCH   3   4
ATOM      4  N   UNL A   1      31.709  23.933  24.085  1.00  0.00    -0.356 N 
ATOM      5  O   UNL A   1      31.270  22.105  25.398  1.00  0.00    -0.275 OA
ATOM      6  C   UNL A   1      31.856  22.615  24.447  1.00  0.00     0.224 C 
ATOM      7  H   UNL A   1      32.253  24.288  23.345  1.00  0.00     0.163 HD
BRANCH   6   8
ATOM      8  C   UNL A   1      32.772  21.803  23.566  1.00  0.00     0.137 C 
BRANCH   8   9
ATOM      9  C   UNL A   1      32.896  20.307  23.819  1.00  0.00    -0.015 A 
ATOM     10  C   UNL A   1      32.325  19.501  22.804  1.00  0.00     0.006 A 
ATOM     11  C   UNL A   1      33.564  19.675  24.895  1.00  0.00     0.042 A 
ATOM     12  C   UNL A   1      32.348  18.111  22.870  1.00  0.00     0.000 A 
ATOM     13  C   UNL A   1      33.523  18.268  24.963  1.00  0.00     0.026 A 
ATOM     14  C   UNL A   1      32.933  17.493  23.963  1.00  0.00     0.002 A 
BRANCH  11  15
ATOM     15  N   UNL A   1      34.197  20.396  25.927  1.00  0.00    -0.353 N 
ATOM     16  H   UNL A   1      33.827  20.255  26.827  1.00  0.00     0.167 HD
BRANCH  15  17
ATOM     17  C   UNL A   1      35.294  21.299  25.857  1.00  0.00     0.076 A 
ATOM     18  C   UNL A   1      35.148  22.646  26.241  1.00  0.00     0.066 A 
ATOM     19  C   UNL A   1      36.491  20.941  25.209  1.00  0.00     0.066 A 
ATOM     20  Cl  UNL A   1      33.796  23.173  27.163  1.00  0.00    -0.082 Cl
ATOM     21  C   UNL A   1      36.122  23.604  25.940  1.00  0.00     0.023 A 
ATOM     22  C   UNL A   1      37.483  21.892  24.940  1.00  0.00     0.023 A 
ATOM     23  Cl  UNL A   1      36.788  19.311  24.704  1.00  0.00    -0.082 Cl
ATOM     24  C   UNL A   1      37.286  23.229  25.282  1.00  0.00     0.003 A 
ENDBRANCH  15  17
ENDBRANCH  11  15
ENDBRANCH   8   9
ENDBRANCH   6   8
ENDBRANCH   3   4
ENDBRANCH   2   3
ENDBRANCH   1   2
BRANCH   1  25
ATOM     25  C   UNL A   1      31.583  28.191  26.487  1.00  0.00     0.002 C 
BRANCH  25  26
ATOM     26  C   UNL A   1      33.057  28.068  26.089  1.00  0.00     0.021 C 
BRANCH  26  27
ATOM     27  C   UNL A   1      33.668  29.318  25.465  1.00  0.00     0.116 C 
BRANCH  27  28
ATOM     28  N   UNL A   1      33.223  30.535  26.124  1.00  0.00    -0.352 N 
ATOM     29  C   UNL A   1      33.722  31.163  27.236  1.00  0.00     0.251 C 
ATOM     30  H   UNL A   1      32.447  30.974  25.708  1.00  0.00     0.163 HD
ATOM     31  O   UNL A   1      33.095  32.100  27.728  1.00  0.00    -0.269 OA
BRANCH  29  32
ATOM     32  C   UNL A   1      34.991  30.720  27.860  1.00  0.00     0.039 A 
ATOM     33  C   UNL A   1      36.094  31.578  27.807  1.00  0.00     0.014 A 
ATOM     34  C   UNL A   1      35.119  29.463  28.458  1.00  0.00     0.014 A 
ATOM     35  C   UNL A   1      37.306  31.194  28.388  1.00  0.00     0.010 A 
ATOM     36  C   UNL A   1      36.307  29.109  29.097  1.00  0.00     0.010 A 
ATOM     37  C   UNL A   1      37.417  29.966  29.061  1.00  0.00    -0.014 A 
BRANCH  37  38
ATOM     38  C   UNL A   1      38.678  29.590  29.750  1.00  0.00     0.031 A 
ATOM     39  C   UNL A   1      39.037  30.182  31.085  1.00  0.00     0.074 A 
ATOM     40  C   UNL A   1      39.536  28.752  29.135  1.00  0.00     0.049 A 
ATOM     41  N   UNL A   1      40.079  29.939  31.840  1.00  0.00    -0.248 NA
ATOM     42  C   UNL A   1      38.126  31.197  31.636  1.00  0.00     0.031 C 
ATOM     43  C   UNL A   1      39.346  28.182  27.799  1.00  0.00     0.029 A 
ATOM     44  N   UNL A   1      40.745  28.247  29.543  1.00  0.00    -0.354 N 
ATOM     45  C   UNL A   1      39.967  30.790  32.933  1.00  0.00     0.074 A 
ATOM     46  C   UNL A   1      38.771  31.580  32.727  1.00  0.00     0.031 C 
ATOM     47  C   UNL A   1      40.388  27.389  27.508  1.00  0.00     0.029 A 
ATOM     48  C   UNL A   1      41.330  27.410  28.623  1.00  0.00     0.049 A 
ATOM     49  H   UNL A   1      41.153  28.462  30.412  1.00  0.00     0.167 HD
ATOM     50  C   UNL A   1      40.769  30.889  34.020  1.00  0.00     0.034 A 
ATOM     51  C   UNL A   1      42.490  26.725  28.674  1.00  0.00     0.034 A 
ATOM     52  C   UNL A   1      41.934  30.071  34.239  1.00  0.00     0.049 A 
ATOM     53  C   UNL A   1      43.332  26.807  29.917  1.00  0.00     0.074 A 
ATOM     54  C   UNL A   1      42.748  30.013  35.357  1.00  0.00     0.029 A 
ATOM     55  N   UNL A   1      42.461  29.181  33.316  1.00  0.00    -0.354 N 
ATOM     56  N   UNL A   1      43.108  27.474  31.023  1.00  0.00    -0.248 NA
ATOM     57  C   UNL A   1      44.566  26.011  29.934  1.00  0.00     0.031 C 
ATOM     58  C   UNL A   1      43.783  29.106  35.098  1.00  0.00     0.029 A 
ATOM     59  C   UNL A   1      43.600  28.582  33.829  1.00  0.00     0.049 A 
ATOM     60  H   UNL A   1      42.081  29.000  32.426  1.00  0.00     0.167 HD
ATOM     61  C   UNL A   1      44.157  27.157  31.879  1.00  0.00     0.074 A 
ATOM     62  C   UNL A   1      44.999  26.213  31.171  1.00  0.00     0.031 C 
ATOM     63  C   UNL A   1      44.411  27.618  33.129  1.00  0.00     0.034 A 
BRANCH  50  64
ATOM     64  C   UNL A   1      40.386  31.887  35.084  1.00  0.00     0.023 A 
ATOM     65  C   UNL A   1      41.046  33.131  35.144  1.00  0.00     0.012 A 
ATOM     66  C   UNL A   1      39.343  31.616  35.992  1.00  0.00     0.148 A 
ATOM     67  C   UNL A   1      40.705  34.073  36.113  1.00  0.00     0.002 A 
ATOM     68  C   UNL A   1      38.977  32.579  36.928  1.00  0.00     0.091 A 
ATOM     69  F   UNL A   1      38.738  30.421  35.938  1.00  0.00    -0.205 F 
ATOM     70  C   UNL A   1      39.665  33.801  36.999  1.00  0.00     0.022 A 
BRANCH  68  71
ATOM     71  S   UNL A   1      37.600  32.353  38.059  1.00  0.00     0.127 S 
ATOM     72  O   UNL A   1      37.458  30.898  38.065  1.00  0.00    -0.237 OA
ATOM     73  O   UNL A   1      38.125  32.918  39.302  1.00  0.00    -0.237 OA
ATOM     74  O   UNL A   1      36.485  33.091  37.483  1.00  0.00    -0.744 OA
ENDBRANCH  68  71
ENDBRANCH  50  64
BRANCH  51  75
ATOM     75  C   UNL A   1      42.870  25.829  27.546  1.00  0.00     0.023 A 
ATOM     76  C   UNL A   1      43.809  26.281  26.597  1.00  0.00     0.012 A 
ATOM     77  C   UNL A   1      42.350  24.526  27.431  1.00  0.00     0.148 A 
ATOM     78  C   UNL A   1      44.201  25.463  25.538  1.00  0.00     0.002 A 
ATOM     79  C   UNL A   1      42.787  23.695  26.405  1.00  0.00     0.091 A 
ATOM     80  F   UNL A   1      41.450  24.119  28.337  1.00  0.00    -0.205 F 
ATOM     81  C   UNL A   1      43.699  24.167  25.448  1.00  0.00     0.022 A 
BRANCH  79  82
ATOM     82  S   UNL A   1      42.299  21.970  26.290  1.00  0.00     0.127 S 
ATOM     83  O   UNL A   1      42.625  21.477  27.628  1.00  0.00    -0.237 OA
ATOM     84  O   UNL A   1      40.866  22.081  26.009  1.00  0.00    -0.237 OA
ATOM     85  O   UNL A   1      43.080  21.409  25.202  1.00  0.00    -0.744 OA
ENDBRANCH  79  82
ENDBRANCH  51  75
BRANCH  63  86
ATOM     86  C   UNL A   1      45.647  27.098  33.820  1.00  0.00     0.023 A 
ATOM     87  C   UNL A   1      46.864  27.798  33.689  1.00  0.00     0.012 A 
ATOM     88  C   UNL A   1      45.596  25.947  34.630  1.00  0.00     0.148 A 
ATOM     89  C   UNL A   1      48.019  27.335  34.318  1.00  0.00     0.002 A 
ATOM     90  C   UNL A   1      46.740  25.521  35.294  1.00  0.00     0.091 A 
ATOM     91  F   UNL A   1      44.436  25.281  34.727  1.00  0.00    -0.205 F 
ATOM     92  C   UNL A   1      47.956  26.204  35.128  1.00  0.00     0.022 A 
BRANCH  90  93
ATOM     93  S   UNL A   1      46.724  24.130  36.431  1.00  0.00     0.127 S 
ATOM     94  O   UNL A   1      46.304  23.035  35.559  1.00  0.00    -0.237 OA
ATOM     95  O   UNL A   1      48.121  24.062  36.863  1.00  0.00    -0.237 OA
ATOM     96  O   UNL A   1      45.787  24.491  37.486  1.00  0.00    -0.744 OA
ENDBRANCH  90  93
ENDBRANCH  63  86
ENDBRANCH  37  38
ENDBRANCH  29  32
ENDBRANCH  27  28
ENDBRANCH  26  27
ENDBRANCH  25  26
ENDBRANCH   1  25
TORSDOF 19
ENDMDL
MODEL 3
REMARK VINA RESULT:     -10.9      2.560      8.068
REMARK SMILES O=C(Cc1ccccc1Nc1c(Cl)cccc1Cl)NCCCCCCNC(=O)c1ccc(-c2c3nc(c(-c4cccc(S(=O)(=O)[O-])c4F)c4ccc([nH]4)c(-c4cccc(S(=O)(=O)[O-])c4F)c4nc(c(-c5cccc(S(=O)(=O)[O-])c5F)c5ccc2[nH]5)C=C4)C=C3)cc1
REMARK SMILES IDX 22 1 21 2 20 3 19 4 1 5 2 6 3 8 4 9 5 10 9 11 6 12 8 13 7 14
REMARK SMILES IDX 10 15 11 17 12 18 17 19 13 20 14 21 16 22 18 23 15 24 23 25
REMARK SMILES IDX 24 26 25 27 26 28 27 29 28 31 29 32 30 33 91 34 31 35 90 36
REMARK SMILES IDX 32 37 33 38 34 39 84 40 35 41 89 42 83 43 85 44 36 45 88 46
REMARK SMILES IDX 82 47 81 48 37 50 69 51 49 52 68 53 50 54 53 55 67 56 86 57
REMARK SMILES IDX 51 58 52 59 66 61 87 62 54 63 38 64 39 65 47 66 40 67 42 68
REMARK SMILES IDX 48 69 41 70 43 71 44 72 45 73 46 74 70 75 71 76 79 77 72 78
REMARK SMILES IDX 74 79 80 80 73 81 75 82 76 83 77 84 78 85 55 86 56 87 64 88
REMARK SMILES IDX 57 89 59 90 65 91 58 92 60 93 61 94 62 95 63 96
REMARK H PARENT 19 7 10 16 26 30 85 49 53 60
REMARK Flexibility Score: inf
ROOT
ATOM      1  C   UNL A   1      32.764  26.729  25.899  1.00  0.00     0.002 C 
ENDROOT
BRANCH   1   2
ATOM      2  C   UNL A   1      31.454  25.980  25.636  1.00  0.00     0.021 C 
BRANCH   2   3
ATOM      3  C   UNL A   1      31.416  24.512  26.054  1.00  0.00     0.116 C 
BRANCH   3   4
ATOM      4  N   UNL A   1      32.718  23.980  26.403  1.00  0.00    -0.356 N 
ATOM      5  O   UNL A   1      31.943  22.539  28.009  1.00  0.00    -0.275 OA
ATOM      6  C   UNL A   1      32.873  22.994  27.348  1.00  0.00     0.224 C 
ATOM      7  H   UNL A   1      33.516  24.336  25.950  1.00  0.00     0.163 HD
BRANCH   6   8
ATOM      8  C   UNL A   1      34.277  22.466  27.505  1.00  0.00     0.137 C 
BRANCH   8   9
ATOM      9  C   UNL A   1      35.148  22.323  26.266  1.00  0.00    -0.015 A 
ATOM     10  C   UNL A   1      35.997  23.432  26.027  1.00  0.00     0.006 A 
ATOM     11  C   UNL A   1      35.237  21.201  25.407  1.00  0.00     0.042 A 
ATOM     12  C   UNL A   1      36.864  23.472  24.938  1.00  0.00     0.000 A 
ATOM     13  C   UNL A   1      36.083  21.293  24.284  1.00  0.00     0.026 A 
ATOM     14  C   UNL A   1      36.893  22.407  24.054  1.00  0.00     0.002 A 
BRANCH  11  15
ATOM     15  N   UNL A   1      34.464  20.038  25.594  1.00  0.00    -0.353 N 
ATOM     16  H   UNL A   1      34.401  19.719  26.523  1.00  0.00     0.167 HD
BRANCH  15  17
ATOM     17  C   UNL A   1      33.760  19.256  24.636  1.00  0.00     0.076 A 
ATOM     18  C   UNL A   1      34.233  17.988  24.249  1.00  0.00     0.066 A 
ATOM     19  C   UNL A   1      32.699  19.803  23.890  1.00  0.00     0.066 A 
ATOM     20  Cl  UNL A   1      35.426  17.158  25.169  1.00  0.00    -0.082 Cl
ATOM     21  C   UNL A   1      33.715  17.320  23.135  1.00  0.00     0.023 A 
ATOM     22  C   UNL A   1      32.154  19.118  22.796  1.00  0.00     0.023 A 
ATOM     23  Cl  UNL A   1      32.026  21.349  24.282  1.00  0.00    -0.082 Cl
ATOM     24  C   UNL A   1      32.680  17.889  22.403  1.00  0.00     0.003 A 
ENDBRANCH  15  17
ENDBRANCH  11  15
ENDBRANCH   8   9
ENDBRANCH   6   8
ENDBRANCH   3   4
ENDBRANCH   2   3
ENDBRANCH   1   2
BRANCH   1  25
ATOM     25  C   UNL A   1      33.263  27.645  24.781  1.00  0.00     0.002 C 
BRANCH  25  26
ATOM     26  C   UNL A   1      33.264  29.146  25.086  1.00  0.00     0.021 C 
BRANCH  26  27
ATOM     27  C   UNL A   1      32.571  29.546  26.384  1.00  0.00     0.116 C 
BRANCH  27  28
ATOM     28  N   UNL A   1      32.494  30.988  26.545  1.00  0.00    -0.352 N 
ATOM     29  C   UNL A   1      33.292  31.835  27.271  1.00  0.00     0.251 C 
ATOM     30  H   UNL A   1      31.757  31.423  26.058  1.00  0.00     0.163 HD
ATOM     31  O   UNL A   1      32.954  33.010  27.404  1.00  0.00    -0.269 OA
BRANCH  29  32
ATOM     32  C   UNL A   1      34.539  31.352  27.908  1.00  0.00     0.039 A 
ATOM     33  C   UNL A   1      35.627  32.227  27.991  1.00  0.00     0.014 A 
ATOM     34  C   UNL A   1      34.665  30.044  28.385  1.00  0.00     0.014 A 
ATOM     35  C   UNL A   1      36.818  31.807  28.589  1.00  0.00     0.010 A 
ATOM     36  C   UNL A   1      35.829  29.647  29.041  1.00  0.00     0.010 A 
ATOM     37  C   UNL A   1      36.922  30.520  29.142  1.00  0.00    -0.014 A 
BRANCH  37  38
ATOM     38  C   UNL A   1      38.158  30.097  29.850  1.00  0.00     0.031 A 
ATOM     39  C   UNL A   1      39.109  29.112  29.227  1.00  0.00     0.074 A 
ATOM     40  C   UNL A   1      38.392  30.560  31.093  1.00  0.00     0.049 A 
ATOM     41  N   UNL A   1      40.248  28.661  29.690  1.00  0.00    -0.248 NA
ATOM     42  C   UNL A   1      38.724  28.537  27.929  1.00  0.00     0.031 C 
ATOM     43  C   UNL A   1      37.500  31.448  31.843  1.00  0.00     0.029 A 
ATOM     44  N   UNL A   1      39.439  30.338  31.952  1.00  0.00    -0.354 N 
ATOM     45  C   UNL A   1      40.697  27.730  28.761  1.00  0.00     0.074 A 
ATOM     46  C   UNL A   1      39.691  27.656  27.722  1.00  0.00     0.031 C 
ATOM     47  C   UNL A   1      38.048  31.712  33.040  1.00  0.00     0.029 A 
ATOM     48  C   UNL A   1      39.316  30.998  33.152  1.00  0.00     0.049 A 
ATOM     49  H   UNL A   1      40.205  29.761  31.730  1.00  0.00     0.167 HD
ATOM     50  C   UNL A   1      41.851  27.020  28.758  1.00  0.00     0.034 A 
ATOM     51  C   UNL A   1      40.138  31.035  34.220  1.00  0.00     0.034 A 
ATOM     52  C   UNL A   1      42.867  27.129  29.773  1.00  0.00     0.049 A 
ATOM     53  C   UNL A   1      41.439  30.284  34.166  1.00  0.00     0.074 A 
ATOM     54  C   UNL A   1      44.120  26.541  29.805  1.00  0.00     0.029 A 
ATOM     55  N   UNL A   1      42.742  27.863  30.943  1.00  0.00    -0.354 N 
ATOM     56  N   UNL A   1      41.934  29.559  33.192  1.00  0.00    -0.248 NA
ATOM     57  C   UNL A   1      42.314  30.391  35.342  1.00  0.00     0.031 C 
ATOM     58  C   UNL A   1      44.741  26.898  31.008  1.00  0.00     0.029 A 
ATOM     59  C   UNL A   1      43.885  27.728  31.714  1.00  0.00     0.049 A 
ATOM     60  H   UNL A   1      41.955  28.401  31.190  1.00  0.00     0.167 HD
ATOM     61  C   UNL A   1      43.189  29.145  33.626  1.00  0.00     0.074 A 
ATOM     62  C   UNL A   1      43.389  29.728  34.937  1.00  0.00     0.031 C 
ATOM     63  C   UNL A   1      44.087  28.341  33.003  1.00  0.00     0.034 A 
BRANCH  50  64
ATOM     64  C   UNL A   1      42.101  26.096  27.593  1.00  0.00     0.023 A 
ATOM     65  C   UNL A   1      42.754  26.585  26.443  1.00  0.00     0.012 A 
ATOM     66  C   UNL A   1      41.736  24.736  27.653  1.00  0.00     0.148 A 
ATOM     67  C   UNL A   1      43.004  25.747  25.356  1.00  0.00     0.002 A 
ATOM     68  C   UNL A   1      42.028  23.897  26.582  1.00  0.00     0.091 A 
ATOM     69  F   UNL A   1      41.096  24.291  28.743  1.00  0.00    -0.205 F 
ATOM     70  C   UNL A   1      42.650  24.403  25.429  1.00  0.00     0.022 A 
BRANCH  68  71
ATOM     71  S   UNL A   1      41.682  22.134  26.614  1.00  0.00     0.127 S 
ATOM     72  O   UNL A   1      40.220  22.120  26.612  1.00  0.00    -0.237 OA
ATOM     73  O   UNL A   1      42.298  21.676  25.368  1.00  0.00    -0.237 OA
ATOM     74  O   UNL A   1      42.314  21.625  27.823  1.00  0.00    -0.744 OA
ENDBRANCH  68  71
ENDBRANCH  50  64
BRANCH  51  75
ATOM     75  C   UNL A   1      39.791  31.889  35.391  1.00  0.00     0.023 A 
ATOM     76  C   UNL A   1      40.327  33.190  35.473  1.00  0.00     0.012 A 
ATOM     77  C   UNL A   1      38.907  31.446  36.393  1.00  0.00     0.148 A 
ATOM     78  C   UNL A   1      40.011  34.024  36.546  1.00  0.00     0.002 A 
ATOM     79  C   UNL A   1      38.552  32.301  37.430  1.00  0.00     0.091 A 
ATOM     80  F   UNL A   1      38.417  30.201  36.302  1.00  0.00    -0.205 F 
ATOM     81  C   UNL A   1      39.116  33.583  37.517  1.00  0.00     0.022 A 
BRANCH  79  82
ATOM     82  S   UNL A   1      37.305  31.870  38.649  1.00  0.00     0.127 S 
ATOM     83  O   UNL A   1      37.978  32.218  39.900  1.00  0.00    -0.237 OA
ATOM     84  O   UNL A   1      36.202  32.758  38.277  1.00  0.00    -0.237 OA
ATOM     85  O   UNL A   1      37.029  30.458  38.451  1.00  0.00    -0.744 OA
ENDBRANCH  79  82
ENDBRANCH  51  75
BRANCH  63  86
ATOM     86  C   UNL A   1      45.377  28.052  33.729  1.00  0.00     0.023 A 
ATOM     87  C   UNL A   1      46.475  28.923  33.571  1.00  0.00     0.012 A 
ATOM     88  C   UNL A   1      45.490  26.950  34.597  1.00  0.00     0.148 A 
ATOM     89  C   UNL A   1      47.677  28.675  34.232  1.00  0.00     0.002 A 
ATOM     90  C   UNL A   1      46.675  26.737  35.291  1.00  0.00     0.091 A 
ATOM     91  F   UNL A   1      44.444  26.119  34.720  1.00  0.00    -0.205 F 
ATOM     92  C   UNL A   1      47.775  27.590  35.099  1.00  0.00     0.022 A 
BRANCH  90  93
ATOM     93  S   UNL A   1      46.854  25.419  36.499  1.00  0.00     0.127 S 
ATOM     94  O   UNL A   1      45.822  25.763  37.473  1.00  0.00    -0.237 OA
ATOM     95  O   UNL A   1      46.566  24.224  35.704  1.00  0.00    -0.237 OA
ATOM     96  O   UNL A   1      48.227  25.504  36.977  1.00  0.00    -0.744 OA
ENDBRANCH  90  93
ENDBRANCH  63  86
ENDBRANCH  37  38
ENDBRANCH  29  32
ENDBRANCH  27  28
ENDBRANCH  26  27
ENDBRANCH  25  26
ENDBRANCH   1  25
TORSDOF 19
ENDMDL
