MODEL 1
REMARK VINA RESULT:     -12.3      0.000      0.000
REMARK SMILES O=C(NCCCCCCNC(=O)c1ccccc1/N=C/c1coc2ccccc2c1=O)c1ccc(-c2c3nc(c(-c4cccc(S(=O)(=O)[O-])c4F)c4ccc([nH]4)c(-c4cccc(S(=O)(=O)[O-])c4F)c4nc(c(-c5cccc(S(=O)(=O)[O-])c5F)c5ccc2[nH]5)C=C4)C=C3)cc1
REMARK SMILES IDX 6 1 5 2 4 3 3 4 1 5 2 6 32 8 33 9 94 10 34 11 93 12 35 13
REMARK SMILES IDX 36 14 37 15 87 16 38 17 92 18 86 19 88 20 39 21 91 22 85 23
REMARK SMILES IDX 84 24 40 26 72 27 52 28 71 29 53 30 56 31 70 32 89 33 54 34
REMARK SMILES IDX 55 35 69 37 90 38 57 39 41 40 42 41 50 42 43 43 45 44 51 45
REMARK SMILES IDX 44 46 46 47 47 48 48 49 49 50 73 51 74 52 82 53 75 54 77 55
REMARK SMILES IDX 83 56 76 57 78 58 79 59 80 60 81 61 58 62 59 63 67 64 60 65
REMARK SMILES IDX 62 66 68 67 61 68 63 69 64 70 65 71 66 72 7 73 8 74 9 75
REMARK SMILES IDX 10 76 11 77 12 79 13 80 14 81 18 82 15 83 17 84 16 85 19 86
REMARK SMILES IDX 20 87 21 88 22 89 30 90 23 91 29 92 31 93 24 94 28 95 25 96
REMARK SMILES IDX 27 97 26 98
REMARK H PARENT 3 7 88 25 56 36 10 78
REMARK Flexibility Score: inf
ROOT
ATOM      1  C   UNL A   1      30.911  30.048  24.808  1.00  0.00     0.002 C 
ENDROOT
BRANCH   1   2
ATOM      2  C   UNL A   1      30.809  31.353  25.600  1.00  0.00     0.021 C 
BRANCH   2   3
ATOM      3  C   UNL A   1      31.970  31.666  26.535  1.00  0.00     0.116 C 
BRANCH   3   4
ATOM      4  N   UNL A   1      32.050  33.072  26.877  1.00  0.00    -0.352 N 
ATOM      5  O   UNL A   1      32.729  34.923  27.937  1.00  0.00    -0.269 OA
ATOM      6  C   UNL A   1      32.950  33.744  27.666  1.00  0.00     0.251 C 
ATOM      7  H   UNL A   1      31.347  33.636  26.480  1.00  0.00     0.163 HD
BRANCH   6   8
ATOM      8  C   UNL A   1      34.166  33.081  28.204  1.00  0.00     0.039 A 
ATOM      9  C   UNL A   1      35.438  33.651  28.098  1.00  0.00     0.014 A 
ATOM     10  C   UNL A   1      34.007  31.887  28.922  1.00  0.00     0.014 A 
ATOM     11  C   UNL A   1      36.550  32.999  28.639  1.00  0.00     0.010 A 
ATOM     12  C   UNL A   1      35.111  31.261  29.510  1.00  0.00     0.010 A 
ATOM     13  C   UNL A   1      36.394  31.808  29.366  1.00  0.00    -0.014 A 
BRANCH  13  14
ATOM     14  C   UNL A   1      37.556  31.218  30.078  1.00  0.00     0.031 A 
ATOM     15  C   UNL A   1      37.912  31.625  31.479  1.00  0.00     0.074 A 
ATOM     16  C   UNL A   1      38.324  30.324  29.426  1.00  0.00     0.049 A 
ATOM     17  N   UNL A   1      38.859  31.154  32.250  1.00  0.00    -0.248 NA
ATOM     18  C   UNL A   1      37.112  32.695  32.095  1.00  0.00     0.031 C 
ATOM     19  C   UNL A   1      38.123  29.901  28.037  1.00  0.00     0.029 A 
ATOM     20  N   UNL A   1      39.430  29.620  29.832  1.00  0.00    -0.354 N 
ATOM     21  C   UNL A   1      38.789  31.882  33.431  1.00  0.00     0.074 A 
ATOM     22  C   UNL A   1      37.709  32.833  33.274  1.00  0.00     0.031 C 
ATOM     23  C   UNL A   1      39.065  29.004  27.711  1.00  0.00     0.029 A 
ATOM     24  C   UNL A   1      39.950  28.803  28.854  1.00  0.00     0.049 A 
ATOM     25  H   UNL A   1      39.814  29.692  30.735  1.00  0.00     0.167 HD
ATOM     26  C   UNL A   1      39.534  31.744  34.552  1.00  0.00     0.034 A 
ATOM     27  C   UNL A   1      41.020  27.986  28.872  1.00  0.00     0.034 A 
ATOM     28  C   UNL A   1      40.562  30.752  34.729  1.00  0.00     0.049 A 
ATOM     29  C   UNL A   1      41.833  27.865  30.126  1.00  0.00     0.074 A 
ATOM     30  C   UNL A   1      41.248  30.418  35.885  1.00  0.00     0.029 A 
ATOM     31  N   UNL A   1      41.069  29.953  33.719  1.00  0.00    -0.354 N 
ATOM     32  N   UNL A   1      41.616  28.403  31.301  1.00  0.00    -0.248 NA
ATOM     33  C   UNL A   1      43.034  27.018  30.064  1.00  0.00     0.031 C 
ATOM     34  C   UNL A   1      42.179  29.421  35.569  1.00  0.00     0.029 A 
ATOM     35  C   UNL A   1      42.083  29.150  34.214  1.00  0.00     0.049 A 
ATOM     36  H   UNL A   1      40.755  29.954  32.786  1.00  0.00     0.167 HD
ATOM     37  C   UNL A   1      42.644  27.957  32.119  1.00  0.00     0.074 A 
ATOM     38  C   UNL A   1      43.475  27.084  31.314  1.00  0.00     0.031 C 
ATOM     39  C   UNL A   1      42.888  28.264  33.416  1.00  0.00     0.034 A 
BRANCH  26  40
ATOM     40  C   UNL A   1      39.208  32.629  35.722  1.00  0.00     0.023 A 
ATOM     41  C   UNL A   1      38.390  32.118  36.748  1.00  0.00     0.012 A 
ATOM     42  C   UNL A   1      39.762  33.916  35.848  1.00  0.00     0.148 A 
ATOM     43  C   UNL A   1      38.124  32.878  37.886  1.00  0.00     0.002 A 
ATOM     44  C   UNL A   1      39.504  34.663  36.992  1.00  0.00     0.091 A 
ATOM     45  F   UNL A   1      40.511  34.395  34.844  1.00  0.00    -0.205 F 
ATOM     46  C   UNL A   1      38.689  34.145  38.012  1.00  0.00     0.022 A 
BRANCH  44  47
ATOM     47  S   UNL A   1      40.220  36.291  37.252  1.00  0.00     0.127 S 
ATOM     48  O   UNL A   1      39.993  36.924  35.955  1.00  0.00    -0.237 OA
ATOM     49  O   UNL A   1      39.403  36.826  38.343  1.00  0.00    -0.237 OA
ATOM     50  O   UNL A   1      41.612  36.053  37.607  1.00  0.00    -0.744 OA
ENDBRANCH  44  47
ENDBRANCH  26  40
BRANCH  27  51
ATOM     51  C   UNL A   1      41.333  27.174  27.666  1.00  0.00     0.023 A 
ATOM     52  C   UNL A   1      41.938  27.796  26.559  1.00  0.00     0.012 A 
ATOM     53  C   UNL A   1      41.116  25.785  27.640  1.00  0.00     0.148 A 
ATOM     54  C   UNL A   1      42.321  27.045  25.446  1.00  0.00     0.002 A 
ATOM     55  C   UNL A   1      41.542  25.037  26.546  1.00  0.00     0.091 A 
ATOM     56  F   UNL A   1      40.527  25.201  28.695  1.00  0.00    -0.205 F 
ATOM     57  C   UNL A   1      42.137  25.664  25.444  1.00  0.00     0.022 A 
BRANCH  55  58
ATOM     58  S   UNL A   1      41.428  23.247  26.600  1.00  0.00     0.127 S 
ATOM     59  O   UNL A   1      41.974  22.936  27.916  1.00  0.00    -0.237 OA
ATOM     60  O   UNL A   1      39.992  23.000  26.461  1.00  0.00    -0.237 OA
ATOM     61  O   UNL A   1      42.216  22.826  25.446  1.00  0.00    -0.744 OA
ENDBRANCH  55  58
ENDBRANCH  27  51
BRANCH  39  62
ATOM     62  C   UNL A   1      44.125  27.686  34.042  1.00  0.00     0.023 A 
ATOM     63  C   UNL A   1      45.315  28.436  34.003  1.00  0.00     0.012 A 
ATOM     64  C   UNL A   1      44.105  26.453  34.719  1.00  0.00     0.148 A 
ATOM     65  C   UNL A   1      46.473  27.961  34.619  1.00  0.00     0.002 A 
ATOM     66  C   UNL A   1      45.256  25.998  35.353  1.00  0.00     0.091 A 
ATOM     67  F   UNL A   1      42.970  25.737  34.725  1.00  0.00    -0.205 F 
ATOM     68  C   UNL A   1      46.441  26.748  35.302  1.00  0.00     0.022 A 
BRANCH  66  69
ATOM     69  S   UNL A   1      45.243  24.472  36.302  1.00  0.00     0.127 S 
ATOM     70  O   UNL A   1      44.945  23.476  35.274  1.00  0.00    -0.237 OA
ATOM     71  O   UNL A   1      46.605  24.404  36.835  1.00  0.00    -0.237 OA
ATOM     72  O   UNL A   1      44.218  24.674  37.317  1.00  0.00    -0.744 OA
ENDBRANCH  66  69
ENDBRANCH  39  62
ENDBRANCH  13  14
ENDBRANCH   6   8
ENDBRANCH   3   4
ENDBRANCH   2   3
ENDBRANCH   1   2
BRANCH   1  73
ATOM     73  C   UNL A   1      29.938  29.905  23.634  1.00  0.00     0.002 C 
BRANCH  73  74
ATOM     74  C   UNL A   1      30.472  29.176  22.393  1.00  0.00     0.021 C 
BRANCH  74  75
ATOM     75  C   UNL A   1      30.558  27.652  22.491  1.00  0.00     0.116 C 
BRANCH  75  76
ATOM     76  N   UNL A   1      31.738  27.109  21.839  1.00  0.00    -0.352 N 
ATOM     77  C   UNL A   1      33.004  26.965  22.338  1.00  0.00     0.253 C 
ATOM     78  H   UNL A   1      31.608  26.805  20.912  1.00  0.00     0.163 HD
ATOM     79  O   UNL A   1      33.878  26.416  21.672  1.00  0.00    -0.269 OA
BRANCH  77  80
ATOM     80  C   UNL A   1      33.358  27.495  23.663  1.00  0.00     0.065 A 
ATOM     81  C   UNL A   1      33.921  28.781  23.701  1.00  0.00     0.016 A 
ATOM     82  C   UNL A   1      33.202  26.759  24.840  1.00  0.00     0.076 A 
ATOM     83  C   UNL A   1      34.300  29.351  24.918  1.00  0.00     0.001 A 
ATOM     84  C   UNL A   1      33.599  27.349  26.052  1.00  0.00     0.029 A 
ATOM     85  C   UNL A   1      34.143  28.631  26.097  1.00  0.00     0.002 A 
BRANCH  82  86
ATOM     86  N   UNL A   1      32.532  25.549  24.980  1.00  0.00    -0.255 NA
ATOM     87  C   UNL A   1      31.323  25.416  25.417  1.00  0.00     0.127 C 
BRANCH  87  88
ATOM     88  C   UNL A   1      30.783  24.039  25.324  1.00  0.00     0.076 A 
ATOM     89  C   UNL A   1      31.053  23.507  24.117  1.00  0.00     0.209 A 
ATOM     90  C   UNL A   1      31.026  23.123  26.467  1.00  0.00     0.201 A 
ATOM     91  O   UNL A   1      31.658  22.265  23.944  1.00  0.00    -0.463 OA
ATOM     92  C   UNL A   1      32.221  22.291  26.286  1.00  0.00     0.065 A 
ATOM     93  O   UNL A   1      30.370  23.153  27.496  1.00  0.00    -0.288 OA
ATOM     94  C   UNL A   1      32.518  21.926  24.972  1.00  0.00     0.137 A 
ATOM     95  C   UNL A   1      33.114  22.060  27.330  1.00  0.00     0.016 A 
ATOM     96  C   UNL A   1      33.729  21.310  24.684  1.00  0.00     0.048 A 
ATOM     97  C   UNL A   1      34.344  21.475  27.035  1.00  0.00     0.001 A 
ATOM     98  C   UNL A   1      34.651  21.104  25.718  1.00  0.00     0.004 A 
ENDBRANCH  87  88
ENDBRANCH  82  86
ENDBRANCH  77  80
ENDBRANCH  75  76
ENDBRANCH  74  75
ENDBRANCH  73  74
ENDBRANCH   1  73
TORSDOF 18
ENDMDL
MODEL 2
REMARK VINA RESULT:     -12.2      2.056      7.652
REMARK SMILES O=C(NCCCCCCNC(=O)c1ccccc1/N=C/c1coc2ccccc2c1=O)c1ccc(-c2c3nc(c(-c4cccc(S(=O)(=O)[O-])c4F)c4ccc([nH]4)c(-c4cccc(S(=O)(=O)[O-])c4F)c4nc(c(-c5cccc(S(=O)(=O)[O-])c5F)c5ccc2[nH]5)C=C4)C=C3)cc1
REMARK SMILES IDX 6 1 5 2 4 3 3 4 1 5 2 6 32 8 33 9 94 10 34 11 93 12 35 13
REMARK SMILES IDX 36 14 37 15 87 16 38 17 92 18 86 19 88 20 39 21 91 22 85 23
REMARK SMILES IDX 84 24 40 26 72 27 52 28 71 29 53 30 56 31 70 32 89 33 54 34
REMARK SMILES IDX 55 35 69 37 90 38 57 39 41 40 42 41 50 42 43 43 45 44 51 45
REMARK SMILES IDX 44 46 46 47 47 48 48 49 49 50 73 51 74 52 82 53 75 54 77 55
REMARK SMILES IDX 83 56 76 57 78 58 79 59 80 60 81 61 58 62 59 63 67 64 60 65
REMARK SMILES IDX 62 66 68 67 61 68 63 69 64 70 65 71 66 72 7 73 8 74 9 75
REMARK SMILES IDX 10 76 11 77 12 79 13 80 14 81 18 82 15 83 17 84 16 85 19 86
REMARK SMILES IDX 20 87 21 88 22 89 30 90 23 91 29 92 31 93 24 94 28 95 25 96
REMARK SMILES IDX 27 97 26 98
REMARK H PARENT 3 7 88 25 56 36 10 78
REMARK Flexibility Score: inf
ROOT
ATOM      1  C   UNL A   1      31.613  30.579  25.949  1.00  0.00     0.002 C 
ENDROOT
BRANCH   1   2
ATOM      2  C   UNL A   1      31.444  31.984  26.530  1.00  0.00     0.021 C 
BRANCH   2   3
ATOM      3  C   UNL A   1      32.628  32.534  27.316  1.00  0.00     0.116 C 
BRANCH   3   4
ATOM      4  N   UNL A   1      32.482  33.940  27.637  1.00  0.00    -0.352 N 
ATOM      5  O   UNL A   1      32.718  35.852  28.777  1.00  0.00    -0.269 OA
ATOM      6  C   UNL A   1      33.116  34.704  28.585  1.00  0.00     0.251 C 
ATOM      7  H   UNL A   1      31.825  34.424  27.088  1.00  0.00     0.163 HD
BRANCH   6   8
ATOM      8  C   UNL A   1      34.252  34.176  29.384  1.00  0.00     0.039 A 
ATOM      9  C   UNL A   1      34.063  33.405  30.535  1.00  0.00     0.014 A 
ATOM     10  C   UNL A   1      35.553  34.386  28.905  1.00  0.00     0.014 A 
ATOM     11  C   UNL A   1      35.164  32.912  31.241  1.00  0.00     0.010 A 
ATOM     12  C   UNL A   1      36.653  33.847  29.580  1.00  0.00     0.010 A 
ATOM     13  C   UNL A   1      36.469  33.112  30.760  1.00  0.00    -0.014 A 
BRANCH  13  14
ATOM     14  C   UNL A   1      37.614  32.441  31.424  1.00  0.00     0.031 A 
ATOM     15  C   UNL A   1      38.311  31.267  30.798  1.00  0.00     0.074 A 
ATOM     16  C   UNL A   1      38.003  32.881  32.637  1.00  0.00     0.049 A 
ATOM     17  N   UNL A   1      39.362  30.617  31.230  1.00  0.00    -0.248 NA
ATOM     18  C   UNL A   1      37.765  30.753  29.534  1.00  0.00     0.031 C 
ATOM     19  C   UNL A   1      37.358  33.967  33.381  1.00  0.00     0.029 A 
ATOM     20  N   UNL A   1      39.019  32.469  33.462  1.00  0.00    -0.354 N 
ATOM     21  C   UNL A   1      39.591  29.605  30.308  1.00  0.00     0.074 A 
ATOM     22  C   UNL A   1      38.563  29.720  29.294  1.00  0.00     0.031 C 
ATOM     23  C   UNL A   1      38.001  34.142  34.545  1.00  0.00     0.029 A 
ATOM     24  C   UNL A   1      39.086  33.171  34.643  1.00  0.00     0.049 A 
ATOM     25  H   UNL A   1      39.640  31.742  33.231  1.00  0.00     0.167 HD
ATOM     26  C   UNL A   1      40.586  28.687  30.293  1.00  0.00     0.034 A 
ATOM     27  C   UNL A   1      39.923  33.047  35.690  1.00  0.00     0.034 A 
ATOM     28  C   UNL A   1      41.644  28.617  31.265  1.00  0.00     0.049 A 
ATOM     29  C   UNL A   1      41.007  32.012  35.649  1.00  0.00     0.074 A 
ATOM     30  C   UNL A   1      42.790  27.841  31.239  1.00  0.00     0.029 A 
ATOM     31  N   UNL A   1      41.674  29.332  32.451  1.00  0.00    -0.354 N 
ATOM     32  N   UNL A   1      41.337  31.208  34.668  1.00  0.00    -0.248 NA
ATOM     33  C   UNL A   1      41.841  31.870  36.852  1.00  0.00     0.031 C 
ATOM     34  C   UNL A   1      43.509  28.080  32.416  1.00  0.00     0.029 A 
ATOM     35  C   UNL A   1      42.800  28.992  33.181  1.00  0.00     0.049 A 
ATOM     36  H   UNL A   1      40.995  29.987  32.732  1.00  0.00     0.167 HD
ATOM     37  C   UNL A   1      42.418  30.471  35.130  1.00  0.00     0.074 A 
ATOM     38  C   UNL A   1      42.706  30.938  36.471  1.00  0.00     0.031 C 
ATOM     39  C   UNL A   1      43.096  29.479  34.502  1.00  0.00     0.034 A 
BRANCH  26  40
ATOM     40  C   UNL A   1      40.637  27.731  29.135  1.00  0.00     0.023 A 
ATOM     41  C   UNL A   1      39.745  26.641  29.118  1.00  0.00     0.012 A 
ATOM     42  C   UNL A   1      41.497  27.944  28.042  1.00  0.00     0.148 A 
ATOM     43  C   UNL A   1      39.708  25.773  28.028  1.00  0.00     0.002 A 
ATOM     44  C   UNL A   1      41.445  27.082  26.951  1.00  0.00     0.091 A 
ATOM     45  F   UNL A   1      42.361  28.968  28.094  1.00  0.00    -0.205 F 
ATOM     46  C   UNL A   1      40.551  25.999  26.942  1.00  0.00     0.022 A 
BRANCH  44  47
ATOM     47  S   UNL A   1      42.471  27.321  25.495  1.00  0.00     0.127 S 
ATOM     48  O   UNL A   1      43.811  27.334  26.077  1.00  0.00    -0.237 OA
ATOM     49  O   UNL A   1      42.165  26.134  24.694  1.00  0.00    -0.237 OA
ATOM     50  O   UNL A   1      42.023  28.575  24.904  1.00  0.00    -0.744 OA
ENDBRANCH  44  47
ENDBRANCH  26  40
BRANCH  27  51
ATOM     51  C   UNL A   1      39.792  33.984  36.839  1.00  0.00     0.023 A 
ATOM     52  C   UNL A   1      40.133  35.337  36.661  1.00  0.00     0.012 A 
ATOM     53  C   UNL A   1      39.256  33.566  38.069  1.00  0.00     0.148 A 
ATOM     54  C   UNL A   1      39.941  36.257  37.694  1.00  0.00     0.002 A 
ATOM     55  C   UNL A   1      39.026  34.497  39.077  1.00  0.00     0.091 A 
ATOM     56  F   UNL A   1      38.945  32.271  38.234  1.00  0.00    -0.205 F 
ATOM     57  C   UNL A   1      39.375  35.842  38.897  1.00  0.00     0.022 A 
BRANCH  55  58
ATOM     58  S   UNL A   1      38.174  33.990  40.573  1.00  0.00     0.127 S 
ATOM     59  O   UNL A   1      39.167  33.149  41.231  1.00  0.00    -0.237 OA
ATOM     60  O   UNL A   1      37.905  35.260  41.250  1.00  0.00    -0.237 OA
ATOM     61  O   UNL A   1      36.979  33.322  40.069  1.00  0.00    -0.744 OA
ENDBRANCH  55  58
ENDBRANCH  27  51
BRANCH  39  62
ATOM     62  C   UNL A   1      44.193  28.799  35.270  1.00  0.00     0.023 A 
ATOM     63  C   UNL A   1      45.500  29.315  35.180  1.00  0.00     0.012 A 
ATOM     64  C   UNL A   1      43.936  27.709  36.121  1.00  0.00     0.148 A 
ATOM     65  C   UNL A   1      46.538  28.749  35.918  1.00  0.00     0.002 A 
ATOM     66  C   UNL A   1      44.972  27.165  36.875  1.00  0.00     0.091 A 
ATOM     67  F   UNL A   1      42.691  27.211  36.176  1.00  0.00    -0.205 F 
ATOM     68  C   UNL A   1      46.273  27.681  36.773  1.00  0.00     0.022 A 
BRANCH  66  69
ATOM     69  S   UNL A   1      44.662  25.831  38.038  1.00  0.00     0.127 S 
ATOM     70  O   UNL A   1      46.015  25.464  38.449  1.00  0.00    -0.237 OA
ATOM     71  O   UNL A   1      43.867  26.483  39.081  1.00  0.00    -0.237 OA
ATOM     72  O   UNL A   1      43.929  24.832  37.271  1.00  0.00    -0.744 OA
ENDBRANCH  66  69
ENDBRANCH  39  62
ENDBRANCH  13  14
ENDBRANCH   6   8
ENDBRANCH   3   4
ENDBRANCH   2   3
ENDBRANCH   1   2
BRANCH   1  73
ATOM     73  C   UNL A   1      32.625  29.681  26.665  1.00  0.00     0.002 C 
BRANCH  73  74
ATOM     74  C   UNL A   1      33.734  29.076  25.793  1.00  0.00     0.021 C 
BRANCH  74  75
ATOM     75  C   UNL A   1      33.613  27.582  25.486  1.00  0.00     0.116 C 
BRANCH  75  76
ATOM     76  N   UNL A   1      33.993  27.252  24.123  1.00  0.00    -0.352 N 
ATOM     77  C   UNL A   1      33.233  27.298  22.986  1.00  0.00     0.253 C 
ATOM     78  H   UNL A   1      34.923  26.954  24.002  1.00  0.00     0.163 HD
ATOM     79  O   UNL A   1      33.733  27.052  21.891  1.00  0.00    -0.269 OA
BRANCH  77  80
ATOM     80  C   UNL A   1      31.796  27.604  23.050  1.00  0.00     0.065 A 
ATOM     81  C   UNL A   1      31.393  28.858  22.562  1.00  0.00     0.016 A 
ATOM     82  C   UNL A   1      30.859  26.731  23.609  1.00  0.00     0.076 A 
ATOM     83  C   UNL A   1      30.048  29.232  22.600  1.00  0.00     0.001 A 
ATOM     84  C   UNL A   1      29.513  27.133  23.646  1.00  0.00     0.029 A 
ATOM     85  C   UNL A   1      29.106  28.370  23.148  1.00  0.00     0.002 A 
BRANCH  82  86
ATOM     86  N   UNL A   1      31.079  25.413  23.992  1.00  0.00    -0.255 NA
ATOM     87  C   UNL A   1      30.680  24.373  23.336  1.00  0.00     0.127 C 
BRANCH  87  88
ATOM     88  C   UNL A   1      31.174  23.082  23.870  1.00  0.00     0.076 A 
ATOM     89  C   UNL A   1      31.826  22.394  22.915  1.00  0.00     0.209 A 
ATOM     90  C   UNL A   1      31.853  23.095  25.190  1.00  0.00     0.201 A 
ATOM     91  O   UNL A   1      33.104  21.869  23.085  1.00  0.00    -0.463 OA
ATOM     92  C   UNL A   1      33.312  23.206  25.078  1.00  0.00     0.065 A 
ATOM     93  O   UNL A   1      31.250  23.135  26.251  1.00  0.00    -0.288 OA
ATOM     94  C   UNL A   1      33.887  22.602  23.959  1.00  0.00     0.137 A 
ATOM     95  C   UNL A   1      34.047  24.038  25.920  1.00  0.00     0.016 A 
ATOM     96  C   UNL A   1      35.226  22.822  23.667  1.00  0.00     0.048 A 
ATOM     97  C   UNL A   1      35.382  24.287  25.607  1.00  0.00     0.001 A 
ATOM     98  C   UNL A   1      35.968  23.684  24.485  1.00  0.00     0.004 A 
ENDBRANCH  87  88
ENDBRANCH  82  86
ENDBRANCH  77  80
ENDBRANCH  75  76
ENDBRANCH  74  75
ENDBRANCH  73  74
ENDBRANCH   1  73
TORSDOF 18
ENDMDL
MODEL 3
REMARK VINA RESULT:     -12.2      1.285      7.393
REMARK SMILES O=C(NCCCCCCNC(=O)c1ccccc1/N=C/c1coc2ccccc2c1=O)c1ccc(-c2c3nc(c(-c4cccc(S(=O)(=O)[O-])c4F)c4ccc([nH]4)c(-c4cccc(S(=O)(=O)[O-])c4F)c4nc(c(-c5cccc(S(=O)(=O)[O-])c5F)c5ccc2[nH]5)C=C4)C=C3)cc1
REMARK SMILES IDX 6 1 5 2 4 3 3 4 1 5 2 6 32 8 33 9 94 10 34 11 93 12 35 13
REMARK SMILES IDX 36 14 37 15 87 16 38 17 92 18 86 19 88 20 39 21 91 22 85 23
REMARK SMILES IDX 84 24 40 26 72 27 52 28 71 29 53 30 56 31 70 32 89 33 54 34
REMARK SMILES IDX 55 35 69 37 90 38 57 39 41 40 42 41 50 42 43 43 45 44 51 45
REMARK SMILES IDX 44 46 46 47 47 48 48 49 49 50 73 51 74 52 82 53 75 54 77 55
REMARK SMILES IDX 83 56 76 57 78 58 79 59 80 60 81 61 58 62 59 63 67 64 60 65
REMARK SMILES IDX 62 66 68 67 61 68 63 69 64 70 65 71 66 72 7 73 8 74 9 75
REMARK SMILES IDX 10 76 11 77 12 79 13 80 14 81 18 82 15 83 17 84 16 85 19 86
REMARK SMILES IDX 20 87 21 88 22 89 30 90 23 91 29 92 31 93 24 94 28 95 25 96
REMARK SMILES IDX 27 97 26 98
REMARK H PARENT 3 7 88 25 56 36 10 78
REMARK Flexibility Score: inf
ROOT
ATOM      1  C   UNL A   1      30.985  30.255  24.933  1.00  0.00     0.002 C 
ENDROOT
BRANCH   1   2
ATOM      2  C   UNL A   1      30.894  31.520  25.789  1.00  0.00     0.021 C 
BRANCH   2   3
ATOM      3  C   UNL A   1      32.109  31.837  26.652  1.00  0.00     0.116 C 
BRANCH   3   4
ATOM      4  N   UNL A   1      32.150  33.224  27.073  1.00  0.00    -0.352 N 
ATOM      5  O   UNL A   1      32.772  35.029  28.241  1.00  0.00    -0.269 OA
ATOM      6  C   UNL A   1      33.025  33.872  27.908  1.00  0.00     0.251 C 
ATOM      7  H   UNL A   1      31.438  33.791  26.699  1.00  0.00     0.163 HD
BRANCH   6   8
ATOM      8  C   UNL A   1      34.252  33.210  28.422  1.00  0.00     0.039 A 
ATOM      9  C   UNL A   1      35.496  33.849  28.439  1.00  0.00     0.014 A 
ATOM     10  C   UNL A   1      34.127  31.936  28.993  1.00  0.00     0.014 A 
ATOM     11  C   UNL A   1      36.617  33.193  28.953  1.00  0.00     0.010 A 
ATOM     12  C   UNL A   1      35.238  31.300  29.557  1.00  0.00     0.010 A 
ATOM     13  C   UNL A   1      36.496  31.920  29.534  1.00  0.00    -0.014 A 
BRANCH  13  14
ATOM     14  C   UNL A   1      37.657  31.308  30.227  1.00  0.00     0.031 A 
ATOM     15  C   UNL A   1      38.501  30.253  29.572  1.00  0.00     0.074 A 
ATOM     16  C   UNL A   1      37.927  31.691  31.490  1.00  0.00     0.049 A 
ATOM     17  N   UNL A   1      39.581  29.671  30.028  1.00  0.00    -0.248 NA
ATOM     18  C   UNL A   1      38.085  29.786  28.240  1.00  0.00     0.031 C 
ATOM     19  C   UNL A   1      37.137  32.655  32.261  1.00  0.00     0.029 A 
ATOM     20  N   UNL A   1      38.926  31.313  32.353  1.00  0.00    -0.354 N 
ATOM     21  C   UNL A   1      39.962  28.755  29.057  1.00  0.00     0.074 A 
ATOM     22  C   UNL A   1      38.992  28.851  27.986  1.00  0.00     0.031 C 
ATOM     23  C   UNL A   1      37.687  32.801  33.476  1.00  0.00     0.029 A 
ATOM     24  C   UNL A   1      38.852  31.928  33.581  1.00  0.00     0.049 A 
ATOM     25  H   UNL A   1      39.627  30.664  32.115  1.00  0.00     0.167 HD
ATOM     26  C   UNL A   1      41.039  27.935  29.047  1.00  0.00     0.034 A 
ATOM     27  C   UNL A   1      39.631  31.804  34.672  1.00  0.00     0.034 A 
ATOM     28  C   UNL A   1      42.037  27.891  30.082  1.00  0.00     0.049 A 
ATOM     29  C   UNL A   1      40.810  30.877  34.634  1.00  0.00     0.074 A 
ATOM     30  C   UNL A   1      43.252  27.226  30.081  1.00  0.00     0.029 A 
ATOM     31  N   UNL A   1      41.926  28.515  31.313  1.00  0.00    -0.354 N 
ATOM     32  N   UNL A   1      41.275  30.182  33.625  1.00  0.00    -0.248 NA
ATOM     33  C   UNL A   1      41.579  30.723  35.878  1.00  0.00     0.031 C 
ATOM     34  C   UNL A   1      43.872  27.442  31.318  1.00  0.00     0.029 A 
ATOM     35  C   UNL A   1      43.033  28.225  32.093  1.00  0.00     0.049 A 
ATOM     36  H   UNL A   1      41.171  29.083  31.592  1.00  0.00     0.167 HD
ATOM     37  C   UNL A   1      42.392  29.514  34.108  1.00  0.00     0.074 A 
ATOM     38  C   UNL A   1      42.550  29.905  35.494  1.00  0.00     0.031 C 
ATOM     39  C   UNL A   1      43.199  28.637  33.462  1.00  0.00     0.034 A 
BRANCH  26  40
ATOM     40  C   UNL A   1      41.253  27.076  27.833  1.00  0.00     0.023 A 
ATOM     41  C   UNL A   1      41.833  27.657  26.688  1.00  0.00     0.012 A 
ATOM     42  C   UNL A   1      40.960  25.700  27.843  1.00  0.00     0.148 A 
ATOM     43  C   UNL A   1      42.118  26.879  25.567  1.00  0.00     0.002 A 
ATOM     44  C   UNL A   1      41.260  24.927  26.727  1.00  0.00     0.091 A 
ATOM     45  F   UNL A   1      40.378  25.175  28.932  1.00  0.00    -0.205 F 
ATOM     46  C   UNL A   1      41.841  25.514  25.590  1.00  0.00     0.022 A 
BRANCH  44  47
ATOM     47  S   UNL A   1      40.968  23.155  26.684  1.00  0.00     0.127 S 
ATOM     48  O   UNL A   1      41.823  22.741  25.574  1.00  0.00    -0.237 OA
ATOM     49  O   UNL A   1      41.432  22.725  28.005  1.00  0.00    -0.237 OA
ATOM     50  O   UNL A   1      39.535  23.001  26.473  1.00  0.00    -0.744 OA
ENDBRANCH  44  47
ENDBRANCH  26  40
BRANCH  27  51
ATOM     51  C   UNL A   1      39.341  32.636  35.870  1.00  0.00     0.023 A 
ATOM     52  C   UNL A   1      39.824  33.957  35.920  1.00  0.00     0.012 A 
ATOM     53  C   UNL A   1      38.526  32.163  36.912  1.00  0.00     0.148 A 
ATOM     54  C   UNL A   1      39.498  34.791  36.991  1.00  0.00     0.002 A 
ATOM     55  C   UNL A   1      38.168  33.014  37.953  1.00  0.00     0.091 A 
ATOM     56  F   UNL A   1      38.079  30.899  36.863  1.00  0.00    -0.205 F 
ATOM     57  C   UNL A   1      38.658  34.326  38.001  1.00  0.00     0.022 A 
BRANCH  55  58
ATOM     58  S   UNL A   1      36.981  32.461  39.181  1.00  0.00     0.127 S 
ATOM     59  O   UNL A   1      37.369  31.071  39.390  1.00  0.00    -0.237 OA
ATOM     60  O   UNL A   1      37.241  33.346  40.319  1.00  0.00    -0.237 OA
ATOM     61  O   UNL A   1      35.695  32.693  38.533  1.00  0.00    -0.744 OA
ENDBRANCH  55  58
ENDBRANCH  27  51
BRANCH  39  62
ATOM     62  C   UNL A   1      44.307  28.006  34.254  1.00  0.00     0.023 A 
ATOM     63  C   UNL A   1      45.559  28.647  34.293  1.00  0.00     0.012 A 
ATOM     64  C   UNL A   1      44.105  26.833  35.005  1.00  0.00     0.148 A 
ATOM     65  C   UNL A   1      46.600  28.124  35.061  1.00  0.00     0.002 A 
ATOM     66  C   UNL A   1      45.140  26.331  35.788  1.00  0.00     0.091 A 
ATOM     67  F   UNL A   1      42.914  26.218  34.936  1.00  0.00    -0.205 F 
ATOM     68  C   UNL A   1      46.388  26.973  35.815  1.00  0.00     0.022 A 
BRANCH  66  69
ATOM     69  S   UNL A   1      44.890  24.888  36.828  1.00  0.00     0.127 S 
ATOM     70  O   UNL A   1      44.612  23.846  35.843  1.00  0.00    -0.237 OA
ATOM     71  O   UNL A   1      46.178  24.749  37.512  1.00  0.00    -0.237 OA
ATOM     72  O   UNL A   1      43.787  25.251  37.710  1.00  0.00    -0.744 OA
ENDBRANCH  66  69
ENDBRANCH  39  62
ENDBRANCH  13  14
ENDBRANCH   6   8
ENDBRANCH   3   4
ENDBRANCH   2   3
ENDBRANCH   1   2
BRANCH   1  73
ATOM     73  C   UNL A   1      29.920  30.114  23.842  1.00  0.00     0.002 C 
BRANCH  73  74
ATOM     74  C   UNL A   1      30.330  29.326  22.590  1.00  0.00     0.021 C 
BRANCH  74  75
ATOM     75  C   UNL A   1      30.443  27.809  22.754  1.00  0.00     0.116 C 
BRANCH  75  76
ATOM     76  N   UNL A   1      31.574  27.246  22.036  1.00  0.00    -0.352 N 
ATOM     77  C   UNL A   1      32.854  27.042  22.477  1.00  0.00     0.253 C 
ATOM     78  H   UNL A   1      31.396  26.974  21.107  1.00  0.00     0.163 HD
ATOM     79  O   UNL A   1      33.679  26.483  21.758  1.00  0.00    -0.269 OA
BRANCH  77  80
ATOM     80  C   UNL A   1      33.282  27.520  23.800  1.00  0.00     0.065 A 
ATOM     81  C   UNL A   1      33.841  28.808  23.858  1.00  0.00     0.016 A 
ATOM     82  C   UNL A   1      33.198  26.735  24.953  1.00  0.00     0.076 A 
ATOM     83  C   UNL A   1      34.287  29.330  25.074  1.00  0.00     0.001 A 
ATOM     84  C   UNL A   1      33.661  27.278  26.163  1.00  0.00     0.029 A 
ATOM     85  C   UNL A   1      34.202  28.561  26.229  1.00  0.00     0.002 A 
BRANCH  82  86
ATOM     86  N   UNL A   1      32.542  25.517  25.080  1.00  0.00    -0.255 NA
ATOM     87  C   UNL A   1      31.291  25.373  25.375  1.00  0.00     0.127 C 
BRANCH  87  88
ATOM     88  C   UNL A   1      30.797  23.979  25.298  1.00  0.00     0.076 A 
ATOM     89  C   UNL A   1      31.119  23.428  24.113  1.00  0.00     0.209 A 
ATOM     90  C   UNL A   1      31.032  23.097  26.469  1.00  0.00     0.201 A 
ATOM     91  O   UNL A   1      31.767  22.203  23.987  1.00  0.00    -0.463 OA
ATOM     92  C   UNL A   1      32.257  22.299  26.344  1.00  0.00     0.065 A 
ATOM     93  O   UNL A   1      30.344  23.130  27.477  1.00  0.00    -0.288 OA
ATOM     94  C   UNL A   1      32.606  21.913  25.048  1.00  0.00     0.137 A 
ATOM     95  C   UNL A   1      33.124  22.119  27.419  1.00  0.00     0.016 A 
ATOM     96  C   UNL A   1      33.843  21.330  24.811  1.00  0.00     0.048 A 
ATOM     97  C   UNL A   1      34.380  21.566  27.175  1.00  0.00     0.001 A 
ATOM     98  C   UNL A   1      34.738  21.176  25.877  1.00  0.00     0.004 A 
ENDBRANCH  87  88
ENDBRANCH  82  86
ENDBRANCH  77  80
ENDBRANCH  75  76
ENDBRANCH  74  75
ENDBRANCH  73  74
ENDBRANCH   1  73
TORSDOF 18
ENDMDL
