MODEL 1
REMARK VINA RESULT:     -11.5      0.000      0.000
REMARK SMILES O=C(CC1(NC(=O)C2(c3ccccc3)CC2)CCC1)NCCCCCCNC(=O)c1ccc(-c2c3nc(c(-c4cccc(S(=O)(=O)[O-])c4F)c4ccc([nH]4)c(-c4cccc(S(=O)(=O)[O-])c4F)c4nc(c(-c5cccc(S(=O)(=O)[O-])c5F)c5ccc2[nH]5)C=C4)C=C3)cc1
REMARK SMILES IDX 23 1 22 2 21 3 20 4 1 5 2 6 3 8 4 9 17 10 19 11 18 12 5 13
REMARK SMILES IDX 6 14 7 16 8 17 15 18 16 19 9 20 10 21 14 22 11 23 13 24
REMARK SMILES IDX 12 25 24 26 25 27 26 28 27 29 28 30 29 32 30 33 31 34 92 35
REMARK SMILES IDX 32 36 91 37 33 38 34 39 35 40 85 41 36 42 90 43 84 44 86 45
REMARK SMILES IDX 37 46 89 47 83 48 82 49 38 51 70 52 50 53 69 54 51 55 54 56
REMARK SMILES IDX 68 57 87 58 52 59 53 60 67 62 88 63 55 64 39 65 40 66 48 67
REMARK SMILES IDX 41 68 43 69 49 70 42 71 44 72 45 73 46 74 47 75 71 76 72 77
REMARK SMILES IDX 80 78 73 79 75 80 81 81 74 82 76 83 77 84 78 85 79 86 56 87
REMARK SMILES IDX 57 88 65 89 58 90 60 91 66 92 59 93 61 94 62 95 63 96 64 97
REMARK H PARENT 20 7 5 15 27 31 86 50 54 61
REMARK Flexibility Score: inf
ROOT
ATOM      1  C   UNL A   1      32.050  28.556  24.757  1.00  0.00     0.002 C 
ENDROOT
BRANCH   1   2
ATOM      2  C   UNL A   1      31.102  28.638  23.550  1.00  0.00     0.021 C 
BRANCH   2   3
ATOM      3  C   UNL A   1      31.171  27.461  22.571  1.00  0.00     0.116 C 
BRANCH   3   4
ATOM      4  N   UNL A   1      31.658  26.247  23.221  1.00  0.00    -0.356 N 
ATOM      5  O   UNL A   1      33.258  25.966  21.905  1.00  0.00    -0.275 OA
ATOM      6  C   UNL A   1      33.077  25.853  23.170  1.00  0.00     0.222 C 
ATOM      7  H   UNL A   1      31.019  25.676  23.707  1.00  0.00     0.163 HD
BRANCH   6   8
ATOM      8  C   UNL A   1      34.452  25.275  24.762  1.00  0.00     0.128 C 
BRANCH   8   9
ATOM      9  C   UNL A   1      34.960  23.710  25.398  1.00  0.00     0.049 C 
ATOM     10  C   UNL A   1      35.497  22.485  24.534  1.00  0.00     0.029 C 
ATOM     11  C   UNL A   1      36.485  23.904  25.837  1.00  0.00     0.029 C 
ATOM     12  C   UNL A   1      36.943  22.886  24.800  1.00  0.00     0.005 C 
BRANCH   9  13
ATOM     13  N   UNL A   1      34.258  23.208  26.650  1.00  0.00    -0.349 N 
ATOM     14  C   UNL A   1      33.032  22.659  26.947  1.00  0.00     0.231 C 
ATOM     15  H   UNL A   1      34.823  23.299  27.450  1.00  0.00     0.164 HD
ATOM     16  O   UNL A   1      32.782  22.420  28.129  1.00  0.00    -0.274 OA
BRANCH  14  17
ATOM     17  C   UNL A   1      32.026  22.351  25.873  1.00  0.00     0.074 C 
ATOM     18  C   UNL A   1      30.551  22.397  26.229  1.00  0.00     0.023 C 
ATOM     19  C   UNL A   1      31.139  23.492  25.390  1.00  0.00     0.023 C 
BRANCH  17  20
ATOM     20  C   UNL A   1      32.494  21.326  24.885  1.00  0.00    -0.032 A 
ATOM     21  C   UNL A   1      32.180  21.683  23.121  1.00  0.00     0.005 A 
ATOM     22  C   UNL A   1      32.793  19.620  25.406  1.00  0.00     0.005 A 
ATOM     23  C   UNL A   1      32.018  20.324  21.952  1.00  0.00     0.000 A 
ATOM     24  C   UNL A   1      32.544  18.281  24.240  1.00  0.00     0.000 A 
ATOM     25  C   UNL A   1      32.155  18.627  22.503  1.00  0.00     0.000 A 
ENDBRANCH  17  20
ENDBRANCH  14  17
ENDBRANCH   9  13
ENDBRANCH   8   9
ENDBRANCH   6   8
ENDBRANCH   3   4
ENDBRANCH   2   3
ENDBRANCH   1   2
BRANCH   1  26
ATOM     26  C   UNL A   1      31.806  29.583  25.866  1.00  0.00     0.002 C 
BRANCH  26  27
ATOM     27  C   UNL A   1      32.555  29.334  27.174  1.00  0.00     0.021 C 
BRANCH  27  28
ATOM     28  C   UNL A   1      33.882  30.068  27.302  1.00  0.00     0.116 C 
BRANCH  28  29
ATOM     29  N   UNL A   1      33.781  31.317  28.044  1.00  0.00    -0.352 N 
ATOM     30  C   UNL A   1      34.667  31.827  28.961  1.00  0.00     0.251 C 
ATOM     31  H   UNL A   1      32.980  31.860  27.867  1.00  0.00     0.163 HD
ATOM     32  O   UNL A   1      34.403  32.851  29.584  1.00  0.00    -0.269 OA
BRANCH  30  33
ATOM     33  C   UNL A   1      35.924  31.096  29.214  1.00  0.00     0.039 A 
ATOM     34  C   UNL A   1      37.111  31.596  28.678  1.00  0.00     0.014 A 
ATOM     35  C   UNL A   1      35.934  29.963  30.034  1.00  0.00     0.014 A 
ATOM     36  C   UNL A   1      38.321  30.988  29.014  1.00  0.00     0.010 A 
ATOM     37  C   UNL A   1      37.147  29.413  30.433  1.00  0.00     0.010 A 
ATOM     38  C   UNL A   1      38.352  29.915  29.921  1.00  0.00    -0.014 A 
BRANCH  38  39
ATOM     39  C   UNL A   1      39.645  29.330  30.353  1.00  0.00     0.031 A 
ATOM     40  C   UNL A   1      40.342  29.837  31.584  1.00  0.00     0.074 A 
ATOM     41  C   UNL A   1      40.217  28.371  29.598  1.00  0.00     0.049 A 
ATOM     42  N   UNL A   1      41.442  29.402  32.143  1.00  0.00    -0.248 NA
ATOM     43  C   UNL A   1      39.746  30.999  32.263  1.00  0.00     0.031 C 
ATOM     44  C   UNL A   1      39.686  27.865  28.330  1.00  0.00     0.029 A 
ATOM     45  N   UNL A   1      41.373  27.656  29.782  1.00  0.00    -0.354 N 
ATOM     46  C   UNL A   1      41.687  30.252  33.215  1.00  0.00     0.074 A 
ATOM     47  C   UNL A   1      40.642  31.252  33.206  1.00  0.00     0.031 C 
ATOM     48  C   UNL A   1      40.494  26.896  27.870  1.00  0.00     0.029 A 
ATOM     49  C   UNL A   1      41.612  26.731  28.793  1.00  0.00     0.049 A 
ATOM     50  H   UNL A   1      41.973  27.791  30.550  1.00  0.00     0.167 HD
ATOM     51  C   UNL A   1      42.673  30.189  34.140  1.00  0.00     0.034 A 
ATOM     52  C   UNL A   1      42.613  25.841  28.652  1.00  0.00     0.034 A 
ATOM     53  C   UNL A   1      43.690  29.171  34.161  1.00  0.00     0.049 A 
ATOM     54  C   UNL A   1      43.669  25.759  29.721  1.00  0.00     0.074 A 
ATOM     55  C   UNL A   1      44.669  28.952  35.113  1.00  0.00     0.029 A 
ATOM     56  N   UNL A   1      43.871  28.214  33.174  1.00  0.00    -0.354 N 
ATOM     57  N   UNL A   1      43.775  26.448  30.832  1.00  0.00    -0.248 NA
ATOM     58  C   UNL A   1      44.720  24.750  29.535  1.00  0.00     0.031 C 
ATOM     59  C   UNL A   1      45.468  27.887  34.680  1.00  0.00     0.029 A 
ATOM     60  C   UNL A   1      44.961  27.417  33.480  1.00  0.00     0.049 A 
ATOM     61  H   UNL A   1      43.307  28.115  32.374  1.00  0.00     0.167 HD
ATOM     62  C   UNL A   1      44.885  25.935  31.492  1.00  0.00     0.074 A 
ATOM     63  C   UNL A   1      45.396  24.856  30.670  1.00  0.00     0.031 C 
ATOM     64  C   UNL A   1      45.441  26.328  32.666  1.00  0.00     0.034 A 
BRANCH  51  65
ATOM     65  C   UNL A   1      42.680  31.235  35.225  1.00  0.00     0.023 A 
ATOM     66  C   UNL A   1      42.015  30.986  36.445  1.00  0.00     0.012 A 
ATOM     67  C   UNL A   1      43.375  32.448  35.055  1.00  0.00     0.148 A 
ATOM     68  C   UNL A   1      42.005  31.944  37.459  1.00  0.00     0.002 A 
ATOM     69  C   UNL A   1      43.403  33.377  36.090  1.00  0.00     0.091 A 
ATOM     70  F   UNL A   1      43.982  32.679  33.882  1.00  0.00    -0.205 F 
ATOM     71  C   UNL A   1      42.707  33.134  37.285  1.00  0.00     0.022 A 
BRANCH  69  72
ATOM     72  S   UNL A   1      44.349  34.901  35.995  1.00  0.00     0.127 S 
ATOM     73  O   UNL A   1      43.678  35.595  34.897  1.00  0.00    -0.237 OA
ATOM     74  O   UNL A   1      44.122  35.486  37.316  1.00  0.00    -0.237 OA
ATOM     75  O   UNL A   1      45.725  34.503  35.735  1.00  0.00    -0.744 OA
ENDBRANCH  69  72
ENDBRANCH  51  65
BRANCH  52  76
ATOM     76  C   UNL A   1      42.613  24.895  27.500  1.00  0.00     0.023 A 
ATOM     77  C   UNL A   1      43.236  25.276  26.296  1.00  0.00     0.012 A 
ATOM     78  C   UNL A   1      42.030  23.618  27.598  1.00  0.00     0.148 A 
ATOM     79  C   UNL A   1      43.251  24.415  25.198  1.00  0.00     0.002 A 
ATOM     80  C   UNL A   1      42.097  22.743  26.521  1.00  0.00     0.091 A 
ATOM     81  F   UNL A   1      41.435  23.280  28.751  1.00  0.00    -0.205 F 
ATOM     82  C   UNL A   1      42.690  23.146  25.313  1.00  0.00     0.022 A 
BRANCH  80  83
ATOM     83  S   UNL A   1      41.521  21.045  26.618  1.00  0.00     0.127 S 
ATOM     84  O   UNL A   1      42.104  20.603  27.883  1.00  0.00    -0.237 OA
ATOM     85  O   UNL A   1      40.069  21.222  26.636  1.00  0.00    -0.237 OA
ATOM     86  O   UNL A   1      42.032  20.386  25.424  1.00  0.00    -0.744 OA
ENDBRANCH  80  83
ENDBRANCH  52  76
BRANCH  64  87
ATOM     87  C   UNL A   1      46.656  25.571  33.141  1.00  0.00     0.023 A 
ATOM     88  C   UNL A   1      47.946  26.030  32.807  1.00  0.00     0.012 A 
ATOM     89  C   UNL A   1      46.521  24.426  33.951  1.00  0.00     0.148 A 
ATOM     90  C   UNL A   1      49.079  25.333  33.224  1.00  0.00     0.002 A 
ATOM     91  C   UNL A   1      47.656  23.768  34.410  1.00  0.00     0.091 A 
ATOM     92  F   UNL A   1      45.287  23.992  34.246  1.00  0.00    -0.205 F 
ATOM     93  C   UNL A   1      48.935  24.210  34.033  1.00  0.00     0.022 A 
BRANCH  91  94
ATOM     94  S   UNL A   1      47.565  22.374  35.539  1.00  0.00     0.127 S 
ATOM     95  O   UNL A   1      46.903  21.365  34.713  1.00  0.00    -0.237 OA
ATOM     96  O   UNL A   1      48.977  22.105  35.815  1.00  0.00    -0.237 OA
ATOM     97  O   UNL A   1      46.805  22.840  36.691  1.00  0.00    -0.744 OA
ENDBRANCH  91  94
ENDBRANCH  64  87
ENDBRANCH  38  39
ENDBRANCH  30  33
ENDBRANCH  28  29
ENDBRANCH  27  28
ENDBRANCH  26  27
ENDBRANCH   1  26
TORSDOF 20
ENDMDL
MODEL 2
REMARK VINA RESULT:     -11.3      2.080      2.407
REMARK SMILES O=C(CC1(NC(=O)C2(c3ccccc3)CC2)CCC1)NCCCCCCNC(=O)c1ccc(-c2c3nc(c(-c4cccc(S(=O)(=O)[O-])c4F)c4ccc([nH]4)c(-c4cccc(S(=O)(=O)[O-])c4F)c4nc(c(-c5cccc(S(=O)(=O)[O-])c5F)c5ccc2[nH]5)C=C4)C=C3)cc1
REMARK SMILES IDX 23 1 22 2 21 3 20 4 1 5 2 6 3 8 4 9 17 10 19 11 18 12 5 13
REMARK SMILES IDX 6 14 7 16 8 17 15 18 16 19 9 20 10 21 14 22 11 23 13 24
REMARK SMILES IDX 12 25 24 26 25 27 26 28 27 29 28 30 29 32 30 33 31 34 92 35
REMARK SMILES IDX 32 36 91 37 33 38 34 39 35 40 85 41 36 42 90 43 84 44 86 45
REMARK SMILES IDX 37 46 89 47 83 48 82 49 38 51 70 52 50 53 69 54 51 55 54 56
REMARK SMILES IDX 68 57 87 58 52 59 53 60 67 62 88 63 55 64 39 65 40 66 48 67
REMARK SMILES IDX 41 68 43 69 49 70 42 71 44 72 45 73 46 74 47 75 71 76 72 77
REMARK SMILES IDX 80 78 73 79 75 80 81 81 74 82 76 83 77 84 78 85 79 86 56 87
REMARK SMILES IDX 57 88 65 89 58 90 60 91 66 92 59 93 61 94 62 95 63 96 64 97
REMARK H PARENT 20 7 5 15 27 31 86 50 54 61
REMARK Flexibility Score: inf
ROOT
ATOM      1  C   UNL A   1      31.608  28.808  24.660  1.00  0.00     0.002 C 
ENDROOT
BRANCH   1   2
ATOM      2  C   UNL A   1      30.670  28.793  23.443  1.00  0.00     0.021 C 
BRANCH   2   3
ATOM      3  C   UNL A   1      30.614  27.475  22.664  1.00  0.00     0.116 C 
BRANCH   3   4
ATOM      4  N   UNL A   1      31.133  26.361  23.452  1.00  0.00    -0.356 N 
ATOM      5  O   UNL A   1      32.414  25.661  21.956  1.00  0.00    -0.275 OA
ATOM      6  C   UNL A   1      32.482  25.812  23.228  1.00  0.00     0.222 C 
ATOM      7  H   UNL A   1      30.566  25.966  24.154  1.00  0.00     0.163 HD
BRANCH   6   8
ATOM      8  C   UNL A   1      34.102  25.399  24.629  1.00  0.00     0.128 C 
BRANCH   8   9
ATOM      9  C   UNL A   1      34.734  23.907  25.328  1.00  0.00     0.049 C 
ATOM     10  C   UNL A   1      35.372  22.697  24.514  1.00  0.00     0.029 C 
ATOM     11  C   UNL A   1      36.236  24.242  25.761  1.00  0.00     0.029 C 
ATOM     12  C   UNL A   1      36.780  23.225  24.766  1.00  0.00     0.005 C 
BRANCH   9  13
ATOM     13  N   UNL A   1      34.069  23.400  26.598  1.00  0.00    -0.349 N 
ATOM     14  C   UNL A   1      32.875  22.795  26.920  1.00  0.00     0.231 C 
ATOM     15  H   UNL A   1      34.636  23.538  27.390  1.00  0.00     0.164 HD
ATOM     16  O   UNL A   1      32.648  22.572  28.109  1.00  0.00    -0.274 OA
BRANCH  14  17
ATOM     17  C   UNL A   1      31.878  22.411  25.862  1.00  0.00     0.074 C 
ATOM     18  C   UNL A   1      30.406  22.384  26.234  1.00  0.00     0.023 C 
ATOM     19  C   UNL A   1      30.924  23.493  25.368  1.00  0.00     0.023 C 
BRANCH  17  20
ATOM     20  C   UNL A   1      32.392  21.394  24.890  1.00  0.00    -0.032 A 
ATOM     21  C   UNL A   1      32.115  21.741  23.118  1.00  0.00     0.005 A 
ATOM     22  C   UNL A   1      32.712  19.695  25.423  1.00  0.00     0.005 A 
ATOM     23  C   UNL A   1      32.012  20.377  21.948  1.00  0.00     0.000 A 
ATOM     24  C   UNL A   1      32.520  18.349  24.254  1.00  0.00     0.000 A 
ATOM     25  C   UNL A   1      32.169  18.684  22.506  1.00  0.00     0.000 A 
ENDBRANCH  17  20
ENDBRANCH  14  17
ENDBRANCH   9  13
ENDBRANCH   8   9
ENDBRANCH   6   8
ENDBRANCH   3   4
ENDBRANCH   2   3
ENDBRANCH   1   2
BRANCH   1  26
ATOM     26  C   UNL A   1      31.360  29.925  25.678  1.00  0.00     0.002 C 
BRANCH  26  27
ATOM     27  C   UNL A   1      32.302  29.943  26.880  1.00  0.00     0.021 C 
BRANCH  27  28
ATOM     28  C   UNL A   1      33.535  30.819  26.716  1.00  0.00     0.116 C 
BRANCH  28  29
ATOM     29  N   UNL A   1      33.384  32.143  27.302  1.00  0.00    -0.352 N 
ATOM     30  C   UNL A   1      34.176  32.740  28.253  1.00  0.00     0.251 C 
ATOM     31  H   UNL A   1      32.621  32.674  26.980  1.00  0.00     0.163 HD
ATOM     32  O   UNL A   1      33.870  33.830  28.728  1.00  0.00    -0.269 OA
BRANCH  30  33
ATOM     33  C   UNL A   1      35.380  32.026  28.722  1.00  0.00     0.039 A 
ATOM     34  C   UNL A   1      36.634  32.495  28.331  1.00  0.00     0.014 A 
ATOM     35  C   UNL A   1      35.266  30.942  29.598  1.00  0.00     0.014 A 
ATOM     36  C   UNL A   1      37.780  31.909  28.868  1.00  0.00     0.010 A 
ATOM     37  C   UNL A   1      36.406  30.417  30.196  1.00  0.00     0.010 A 
ATOM     38  C   UNL A   1      37.675  30.889  29.830  1.00  0.00    -0.014 A 
BRANCH  38  39
ATOM     39  C   UNL A   1      38.890  30.331  30.473  1.00  0.00     0.031 A 
ATOM     40  C   UNL A   1      39.302  30.775  31.849  1.00  0.00     0.074 A 
ATOM     41  C   UNL A   1      39.653  29.457  29.787  1.00  0.00     0.049 A 
ATOM     42  N   UNL A   1      40.294  30.348  32.586  1.00  0.00    -0.248 NA
ATOM     43  C   UNL A   1      38.518  31.855  32.469  1.00  0.00     0.031 C 
ATOM     44  C   UNL A   1      39.411  29.024  28.409  1.00  0.00     0.029 A 
ATOM     45  N   UNL A   1      40.789  28.781  30.152  1.00  0.00    -0.354 N 
ATOM     46  C   UNL A   1      40.274  31.125  33.738  1.00  0.00     0.074 A 
ATOM     47  C   UNL A   1      39.196  32.077  33.585  1.00  0.00     0.031 C 
ATOM     48  C   UNL A   1      40.348  28.128  28.058  1.00  0.00     0.029 A 
ATOM     49  C   UNL A   1      41.271  27.944  29.173  1.00  0.00     0.049 A 
ATOM     50  H   UNL A   1      41.218  28.885  31.032  1.00  0.00     0.167 HD
ATOM     51  C   UNL A   1      41.062  31.037  34.835  1.00  0.00     0.034 A 
ATOM     52  C   UNL A   1      42.330  27.111  29.178  1.00  0.00     0.034 A 
ATOM     53  C   UNL A   1      42.112  30.066  34.994  1.00  0.00     0.049 A 
ATOM     54  C   UNL A   1      43.158  26.997  30.428  1.00  0.00     0.074 A 
ATOM     55  C   UNL A   1      42.897  29.820  36.105  1.00  0.00     0.029 A 
ATOM     56  N   UNL A   1      42.538  29.194  34.003  1.00  0.00    -0.354 N 
ATOM     57  N   UNL A   1      43.005  27.605  31.580  1.00  0.00    -0.248 NA
ATOM     58  C   UNL A   1      44.282  26.051  30.391  1.00  0.00     0.031 C 
ATOM     59  C   UNL A   1      43.825  28.826  35.773  1.00  0.00     0.029 A 
ATOM     60  C   UNL A   1      43.592  28.425  34.468  1.00  0.00     0.049 A 
ATOM     61  H   UNL A   1      42.149  29.131  33.101  1.00  0.00     0.167 HD
ATOM     62  C   UNL A   1      43.992  27.093  32.414  1.00  0.00     0.074 A 
ATOM     63  C   UNL A   1      44.715  26.102  31.643  1.00  0.00     0.031 C 
ATOM     64  C   UNL A   1      44.284  27.421  33.698  1.00  0.00     0.034 A 
BRANCH  51  65
ATOM     65  C   UNL A   1      40.796  31.999  35.965  1.00  0.00     0.023 A 
ATOM     66  C   UNL A   1      41.703  33.048  36.223  1.00  0.00     0.012 A 
ATOM     67  C   UNL A   1      39.631  31.887  36.749  1.00  0.00     0.148 A 
ATOM     68  C   UNL A   1      41.477  33.944  37.269  1.00  0.00     0.002 A 
ATOM     69  C   UNL A   1      39.388  32.814  37.757  1.00  0.00     0.091 A 
ATOM     70  F   UNL A   1      38.791  30.871  36.507  1.00  0.00    -0.205 F 
ATOM     71  C   UNL A   1      40.315  33.833  38.027  1.00  0.00     0.022 A 
BRANCH  69  72
ATOM     72  S   UNL A   1      37.880  32.806  38.734  1.00  0.00     0.127 S 
ATOM     73  O   UNL A   1      37.959  31.499  39.385  1.00  0.00    -0.237 OA
ATOM     74  O   UNL A   1      38.087  33.946  39.627  1.00  0.00    -0.237 OA
ATOM     75  O   UNL A   1      36.788  32.968  37.786  1.00  0.00    -0.744 OA
ENDBRANCH  69  72
ENDBRANCH  51  65
BRANCH  52  76
ATOM     76  C   UNL A   1      42.610  26.255  27.991  1.00  0.00     0.023 A 
ATOM     77  C   UNL A   1      43.564  26.678  27.045  1.00  0.00     0.012 A 
ATOM     78  C   UNL A   1      41.964  25.018  27.808  1.00  0.00     0.148 A 
ATOM     79  C   UNL A   1      43.848  25.902  25.922  1.00  0.00     0.002 A 
ATOM     80  C   UNL A   1      42.290  24.222  26.717  1.00  0.00     0.091 A 
ATOM     81  F   UNL A   1      41.053  24.639  28.716  1.00  0.00    -0.205 F 
ATOM     82  C   UNL A   1      43.218  24.670  25.762  1.00  0.00     0.022 A 
BRANCH  80  83
ATOM     83  S   UNL A   1      41.632  22.566  26.498  1.00  0.00     0.127 S 
ATOM     84  O   UNL A   1      42.232  22.171  25.226  1.00  0.00    -0.237 OA
ATOM     85  O   UNL A   1      42.162  21.875  27.673  1.00  0.00    -0.237 OA
ATOM     86  O   UNL A   1      40.182  22.715  26.492  1.00  0.00    -0.744 OA
ENDBRANCH  80  83
ENDBRANCH  52  76
BRANCH  64  87
ATOM     87  C   UNL A   1      45.424  26.686  34.357  1.00  0.00     0.023 A 
ATOM     88  C   UNL A   1      46.743  27.161  34.215  1.00  0.00     0.012 A 
ATOM     89  C   UNL A   1      45.184  25.544  35.146  1.00  0.00     0.148 A 
ATOM     90  C   UNL A   1      47.810  26.483  34.804  1.00  0.00     0.002 A 
ATOM     91  C   UNL A   1      46.246  24.905  35.776  1.00  0.00     0.091 A 
ATOM     92  F   UNL A   1      43.926  25.094  35.257  1.00  0.00    -0.205 F 
ATOM     93  C   UNL A   1      47.560  25.363  35.592  1.00  0.00     0.022 A 
BRANCH  91  94
ATOM     94  S   UNL A   1      46.005  23.517  36.889  1.00  0.00     0.127 S 
ATOM     95  O   UNL A   1      45.479  22.497  35.985  1.00  0.00    -0.237 OA
ATOM     96  O   UNL A   1      47.364  23.264  37.370  1.00  0.00    -0.237 OA
ATOM     97  O   UNL A   1      45.082  23.982  37.916  1.00  0.00    -0.744 OA
ENDBRANCH  91  94
ENDBRANCH  64  87
ENDBRANCH  38  39
ENDBRANCH  30  33
ENDBRANCH  28  29
ENDBRANCH  27  28
ENDBRANCH  26  27
ENDBRANCH   1  26
TORSDOF 20
ENDMDL
MODEL 3
REMARK VINA RESULT:     -10.9      4.161      7.342
REMARK SMILES O=C(CC1(NC(=O)C2(c3ccccc3)CC2)CCC1)NCCCCCCNC(=O)c1ccc(-c2c3nc(c(-c4cccc(S(=O)(=O)[O-])c4F)c4ccc([nH]4)c(-c4cccc(S(=O)(=O)[O-])c4F)c4nc(c(-c5cccc(S(=O)(=O)[O-])c5F)c5ccc2[nH]5)C=C4)C=C3)cc1
REMARK SMILES IDX 23 1 22 2 21 3 20 4 1 5 2 6 3 8 4 9 17 10 19 11 18 12 5 13
REMARK SMILES IDX 6 14 7 16 8 17 15 18 16 19 9 20 10 21 14 22 11 23 13 24
REMARK SMILES IDX 12 25 24 26 25 27 26 28 27 29 28 30 29 32 30 33 31 34 92 35
REMARK SMILES IDX 32 36 91 37 33 38 34 39 35 40 85 41 36 42 90 43 84 44 86 45
REMARK SMILES IDX 37 46 89 47 83 48 82 49 38 51 70 52 50 53 69 54 51 55 54 56
REMARK SMILES IDX 68 57 87 58 52 59 53 60 67 62 88 63 55 64 39 65 40 66 48 67
REMARK SMILES IDX 41 68 43 69 49 70 42 71 44 72 45 73 46 74 47 75 71 76 72 77
REMARK SMILES IDX 80 78 73 79 75 80 81 81 74 82 76 83 77 84 78 85 79 86 56 87
REMARK SMILES IDX 57 88 65 89 58 90 60 91 66 92 59 93 61 94 62 95 63 96 64 97
REMARK H PARENT 20 7 5 15 27 31 86 50 54 61
REMARK Flexibility Score: inf
ROOT
ATOM      1  C   UNL A   1      37.351  33.121  29.765  1.00  0.00     0.002 C 
ENDROOT
BRANCH   1   2
ATOM      2  C   UNL A   1      38.432  34.211  29.810  1.00  0.00     0.021 C 
BRANCH   2   3
ATOM      3  C   UNL A   1      39.863  33.717  30.046  1.00  0.00     0.116 C 
BRANCH   3   4
ATOM      4  N   UNL A   1      40.847  34.589  29.411  1.00  0.00    -0.356 N 
ATOM      5  O   UNL A   1      42.081  34.727  31.092  1.00  0.00    -0.275 OA
ATOM      6  C   UNL A   1      42.260  34.601  29.829  1.00  0.00     0.222 C 
ATOM      7  H   UNL A   1      40.558  35.186  28.682  1.00  0.00     0.163 HD
BRANCH   6   8
ATOM      8  C   UNL A   1      44.093  34.438  28.657  1.00  0.00     0.128 C 
BRANCH   8   9
ATOM      9  C   UNL A   1      44.665  33.251  27.483  1.00  0.00     0.049 C 
ATOM     10  C   UNL A   1      43.768  32.514  26.394  1.00  0.00     0.029 C 
ATOM     11  C   UNL A   1      45.230  34.105  26.255  1.00  0.00     0.029 C 
ATOM     12  C   UNL A   1      44.168  33.527  25.328  1.00  0.00     0.005 C 
BRANCH   9  13
ATOM     13  N   UNL A   1      45.825  32.363  27.904  1.00  0.00    -0.349 N 
ATOM     14  C   UNL A   1      45.990  31.262  28.712  1.00  0.00     0.231 C 
ATOM     15  H   UNL A   1      46.674  32.648  27.494  1.00  0.00     0.164 HD
ATOM     16  O   UNL A   1      47.133  30.829  28.866  1.00  0.00    -0.274 OA
BRANCH  14  17
ATOM     17  C   UNL A   1      44.821  30.599  29.386  1.00  0.00     0.074 C 
ATOM     18  C   UNL A   1      44.873  30.396  30.889  1.00  0.00     0.023 C 
ATOM     19  C   UNL A   1      43.971  31.450  30.321  1.00  0.00     0.023 C 
BRANCH  17  20
ATOM     20  C   UNL A   1      44.154  29.554  28.543  1.00  0.00    -0.032 A 
ATOM     21  C   UNL A   1      45.222  28.224  27.889  1.00  0.00     0.005 A 
ATOM     22  C   UNL A   1      42.570  29.897  27.741  1.00  0.00     0.005 A 
ATOM     23  C   UNL A   1      44.760  27.377  26.369  1.00  0.00     0.000 A 
ATOM     24  C   UNL A   1      42.174  29.100  26.184  1.00  0.00     0.000 A 
ATOM     25  C   UNL A   1      43.270  27.832  25.490  1.00  0.00     0.000 A 
ENDBRANCH  17  20
ENDBRANCH  14  17
ENDBRANCH   9  13
ENDBRANCH   8   9
ENDBRANCH   6   8
ENDBRANCH   3   4
ENDBRANCH   2   3
ENDBRANCH   1   2
BRANCH   1  26
ATOM     26  C   UNL A   1      35.997  33.500  30.372  1.00  0.00     0.002 C 
BRANCH  26  27
ATOM     27  C   UNL A   1      34.807  33.451  29.416  1.00  0.00     0.021 C 
BRANCH  27  28
ATOM     28  C   UNL A   1      35.138  32.998  28.002  1.00  0.00     0.116 C 
BRANCH  28  29
ATOM     29  N   UNL A   1      34.371  31.836  27.575  1.00  0.00    -0.352 N 
ATOM     30  C   UNL A   1      34.747  30.516  27.618  1.00  0.00     0.251 C 
ATOM     31  H   UNL A   1      33.476  32.020  27.210  1.00  0.00     0.163 HD
ATOM     32  O   UNL A   1      34.032  29.645  27.131  1.00  0.00    -0.269 OA
BRANCH  30  33
ATOM     33  C   UNL A   1      36.047  30.169  28.224  1.00  0.00     0.039 A 
ATOM     34  C   UNL A   1      36.070  29.680  29.531  1.00  0.00     0.014 A 
ATOM     35  C   UNL A   1      37.226  30.262  27.478  1.00  0.00     0.014 A 
ATOM     36  C   UNL A   1      37.275  29.229  30.070  1.00  0.00     0.010 A 
ATOM     37  C   UNL A   1      38.407  29.734  27.987  1.00  0.00     0.010 A 
ATOM     38  C   UNL A   1      38.445  29.220  29.291  1.00  0.00    -0.014 A 
BRANCH  38  39
ATOM     39  C   UNL A   1      39.705  28.652  29.831  1.00  0.00     0.031 A 
ATOM     40  C   UNL A   1      40.341  29.231  31.064  1.00  0.00     0.074 A 
ATOM     41  C   UNL A   1      40.305  27.642  29.171  1.00  0.00     0.049 A 
ATOM     42  N   UNL A   1      41.402  28.822  31.709  1.00  0.00    -0.248 NA
ATOM     43  C   UNL A   1      39.723  30.439  31.634  1.00  0.00     0.031 C 
ATOM     44  C   UNL A   1      39.838  27.060  27.910  1.00  0.00     0.029 A 
ATOM     45  N   UNL A   1      41.440  26.929  29.464  1.00  0.00    -0.354 N 
ATOM     46  C   UNL A   1      41.599  29.737  32.737  1.00  0.00     0.074 A 
ATOM     47  C   UNL A   1      40.569  30.744  32.606  1.00  0.00     0.031 C 
ATOM     48  C   UNL A   1      40.658  26.056  27.558  1.00  0.00     0.029 A 
ATOM     49  C   UNL A   1      41.721  25.940  28.550  1.00  0.00     0.049 A 
ATOM     50  H   UNL A   1      41.999  27.107  30.254  1.00  0.00     0.167 HD
ATOM     51  C   UNL A   1      42.532  29.724  33.717  1.00  0.00     0.034 A 
ATOM     52  C   UNL A   1      42.717  25.034  28.522  1.00  0.00     0.034 A 
ATOM     53  C   UNL A   1      43.533  28.701  33.859  1.00  0.00     0.049 A 
ATOM     54  C   UNL A   1      43.712  25.011  29.650  1.00  0.00     0.074 A 
ATOM     55  C   UNL A   1      44.456  28.534  34.875  1.00  0.00     0.029 A 
ATOM     56  N   UNL A   1      43.756  27.680  32.946  1.00  0.00    -0.354 N 
ATOM     57  N   UNL A   1      43.766  25.769  30.720  1.00  0.00    -0.248 NA
ATOM     58  C   UNL A   1      44.758  23.982  29.588  1.00  0.00     0.031 C 
ATOM     59  C   UNL A   1      45.264  27.436  34.556  1.00  0.00     0.029 A 
ATOM     60  C   UNL A   1      44.818  26.894  33.362  1.00  0.00     0.049 A 
ATOM     61  H   UNL A   1      43.235  27.536  32.124  1.00  0.00     0.167 HD
ATOM     62  C   UNL A   1      44.832  25.289  31.472  1.00  0.00     0.074 A 
ATOM     63  C   UNL A   1      45.373  24.155  30.749  1.00  0.00     0.031 C 
ATOM     64  C   UNL A   1      45.328  25.751  32.647  1.00  0.00     0.034 A 
BRANCH  51  65
ATOM     65  C   UNL A   1      42.493  30.837  34.733  1.00  0.00     0.023 A 
ATOM     66  C   UNL A   1      41.770  30.669  35.932  1.00  0.00     0.012 A 
ATOM     67  C   UNL A   1      43.201  32.036  34.519  1.00  0.00     0.148 A 
ATOM     68  C   UNL A   1      41.716  31.690  36.881  1.00  0.00     0.002 A 
ATOM     69  C   UNL A   1      43.185  33.029  35.492  1.00  0.00     0.091 A 
ATOM     70  F   UNL A   1      43.864  32.190  33.364  1.00  0.00    -0.205 F 
ATOM     71  C   UNL A   1      42.432  32.864  36.666  1.00  0.00     0.022 A 
BRANCH  69  72
ATOM     72  S   UNL A   1      44.142  34.542  35.345  1.00  0.00     0.127 S 
ATOM     73  O   UNL A   1      43.362  35.289  34.359  1.00  0.00    -0.237 OA
ATOM     74  O   UNL A   1      44.080  35.078  36.704  1.00  0.00    -0.237 OA
ATOM     75  O   UNL A   1      45.471  34.135  34.912  1.00  0.00    -0.744 OA
ENDBRANCH  69  72
ENDBRANCH  51  65
BRANCH  52  76
ATOM     76  C   UNL A   1      42.768  24.016  27.434  1.00  0.00     0.023 A 
ATOM     77  C   UNL A   1      43.530  24.279  26.279  1.00  0.00     0.012 A 
ATOM     78  C   UNL A   1      42.095  22.785  27.548  1.00  0.00     0.148 A 
ATOM     79  C   UNL A   1      43.596  23.349  25.242  1.00  0.00     0.002 A 
ATOM     80  C   UNL A   1      42.210  21.839  26.536  1.00  0.00     0.091 A 
ATOM     81  F   UNL A   1      41.370  22.559  28.652  1.00  0.00    -0.205 F 
ATOM     82  C   UNL A   1      42.944  22.126  25.374  1.00  0.00     0.022 A 
BRANCH  80  83
ATOM     83  S   UNL A   1      41.517  20.188  26.675  1.00  0.00     0.127 S 
ATOM     84  O   UNL A   1      40.088  20.471  26.773  1.00  0.00    -0.237 OA
ATOM     85  O   UNL A   1      41.943  19.578  25.415  1.00  0.00    -0.237 OA
ATOM     86  O   UNL A   1      42.127  19.603  27.863  1.00  0.00    -0.744 OA
ENDBRANCH  80  83
ENDBRANCH  52  76
BRANCH  64  87
ATOM     87  C   UNL A   1      46.505  25.015  33.236  1.00  0.00     0.023 A 
ATOM     88  C   UNL A   1      47.817  25.436  32.939  1.00  0.00     0.012 A 
ATOM     89  C   UNL A   1      46.311  23.930  34.113  1.00  0.00     0.148 A 
ATOM     90  C   UNL A   1      48.917  24.756  33.462  1.00  0.00     0.002 A 
ATOM     91  C   UNL A   1      47.411  23.293  34.676  1.00  0.00     0.091 A 
ATOM     92  F   UNL A   1      45.058  23.532  34.373  1.00  0.00    -0.205 F 
ATOM     93  C   UNL A   1      48.714  23.693  34.337  1.00  0.00     0.022 A 
BRANCH  91  94
ATOM     94  S   UNL A   1      47.241  21.981  35.890  1.00  0.00     0.127 S 
ATOM     95  O   UNL A   1      48.472  21.221  35.683  1.00  0.00    -0.237 OA
ATOM     96  O   UNL A   1      47.189  22.727  37.149  1.00  0.00    -0.237 OA
ATOM     97  O   UNL A   1      46.007  21.283  35.555  1.00  0.00    -0.744 OA
ENDBRANCH  91  94
ENDBRANCH  64  87
ENDBRANCH  38  39
ENDBRANCH  30  33
ENDBRANCH  28  29
ENDBRANCH  27  28
ENDBRANCH  26  27
ENDBRANCH   1  26
TORSDOF 20
ENDMDL
