MODEL 1
REMARK VINA RESULT:     -11.6      0.000      0.000
REMARK SMILES C[C@]1(CNC(=O)N2CCOC[C@H]2C(=O)NCCCCCCNC(=O)c2ccc(-c3c4nc(c(-c5cccc(S(=O)(=O)[O-])c5F)c5ccc([nH]5)c(-c5cccc(S(=O)(=O)[O-])c5F)c5nc(c(-c6cccc(S(=O)(=O)[O-])c6F)c6ccc3[nH]6)C=C5)C=C4)cc2)CCCO1
REMARK SMILES IDX 18 1 17 2 16 3 15 4 13 5 14 6 12 8 7 9 8 10 9 11 11 12 10 13
REMARK SMILES IDX 5 14 4 15 6 17 3 18 2 19 1 20 88 21 91 22 89 23 90 24 19 25
REMARK SMILES IDX 20 26 21 27 22 28 23 29 24 31 25 32 26 33 87 34 27 35 86 36
REMARK SMILES IDX 28 37 29 38 30 39 80 40 31 41 85 42 79 43 81 44 32 45 84 46
REMARK SMILES IDX 78 47 77 48 33 50 65 51 45 52 64 53 46 54 49 55 63 56 82 57
REMARK SMILES IDX 47 58 48 59 62 61 83 62 50 63 34 64 35 65 43 66 36 67 38 68
REMARK SMILES IDX 44 69 37 70 39 71 40 72 41 73 42 74 66 75 67 76 75 77 68 78
REMARK SMILES IDX 70 79 76 80 69 81 71 82 72 83 73 84 74 85 51 86 52 87 60 88
REMARK SMILES IDX 53 89 55 90 61 91 54 92 56 93 57 94 58 95 59 96
REMARK H PARENT 15 7 4 16 22 30 81 49 49 60
REMARK Flexibility Score: inf
ROOT
ATOM      1  C   UNL A   1      31.801  29.501  26.726  1.00  0.00     0.002 C 
ENDROOT
BRANCH   1   2
ATOM      2  C   UNL A   1      33.267  29.335  27.125  1.00  0.00     0.021 C 
BRANCH   2   3
ATOM      3  C   UNL A   1      34.040  28.309  26.285  1.00  0.00     0.116 C 
BRANCH   3   4
ATOM      4  N   UNL A   1      34.018  28.644  24.873  1.00  0.00    -0.354 N 
ATOM      5  C   UNL A   1      33.481  28.062  23.767  1.00  0.00     0.245 C 
ATOM      6  O   UNL A   1      33.601  28.730  22.729  1.00  0.00    -0.273 OA
ATOM      7  H   UNL A   1      34.497  29.479  24.670  1.00  0.00     0.163 HD
BRANCH   5   8
ATOM      8  C   UNL A   1      32.748  26.690  23.717  1.00  0.00     0.202 C 
ATOM      9  N   UNL A   1      31.594  26.558  22.798  1.00  0.00    -0.308 N 
ATOM     10  C   UNL A   1      31.977  26.172  21.454  1.00  0.00     0.151 C 
ATOM     11  C   UNL A   1      32.741  24.854  21.502  1.00  0.00     0.182 C 
ATOM     12  C   UNL A   1      33.678  25.463  23.620  1.00  0.00     0.195 C 
ATOM     13  O   UNL A   1      33.939  25.005  22.283  1.00  0.00    -0.377 OA
BRANCH   9  14
ATOM     14  C   UNL A   1      30.342  26.806  23.273  1.00  0.00     0.318 C 
ATOM     15  N   UNL A   1      29.800  28.042  23.276  1.00  0.00    -0.335 N 
ATOM     16  H   UNL A   1      29.025  28.108  23.881  1.00  0.00     0.165 HD
ATOM     17  O   UNL A   1      29.609  25.898  23.673  1.00  0.00    -0.249 OA
BRANCH  15  18
ATOM     18  C   UNL A   1      30.083  29.303  22.598  1.00  0.00     0.152 C 
BRANCH  18  19
ATOM     19  C   UNL A   1      28.877  30.249  22.382  1.00  0.00     0.083 C 
ATOM     20  C   UNL A   1      27.673  29.662  23.145  1.00  0.00     0.044 C 
ATOM     21  C   UNL A   1      29.091  31.720  22.737  1.00  0.00     0.039 C 
ATOM     22  O   UNL A   1      28.534  30.254  20.978  1.00  0.00    -0.373 OA
ATOM     23  C   UNL A   1      28.068  32.415  21.866  1.00  0.00     0.031 C 
ATOM     24  C   UNL A   1      28.067  31.560  20.615  1.00  0.00     0.161 C 
ENDBRANCH  18  19
ENDBRANCH  15  18
ENDBRANCH   9  14
ENDBRANCH   5   8
ENDBRANCH   3   4
ENDBRANCH   2   3
ENDBRANCH   1   2
BRANCH   1  25
ATOM     25  C   UNL A   1      31.475  30.812  26.000  1.00  0.00     0.002 C 
BRANCH  25  26
ATOM     26  C   UNL A   1      31.419  32.065  26.882  1.00  0.00     0.021 C 
BRANCH  26  27
ATOM     27  C   UNL A   1      32.769  32.725  27.159  1.00  0.00     0.116 C 
BRANCH  27  28
ATOM     28  N   UNL A   1      32.620  34.108  27.585  1.00  0.00    -0.352 N 
ATOM     29  C   UNL A   1      33.207  34.771  28.633  1.00  0.00     0.251 C 
ATOM     30  H   UNL A   1      32.005  34.649  27.039  1.00  0.00     0.163 HD
ATOM     31  O   UNL A   1      32.777  35.868  28.978  1.00  0.00    -0.269 OA
BRANCH  29  32
ATOM     32  C   UNL A   1      34.355  34.169  29.345  1.00  0.00     0.039 A 
ATOM     33  C   UNL A   1      34.112  33.332  30.437  1.00  0.00     0.014 A 
ATOM     34  C   UNL A   1      35.667  34.462  28.962  1.00  0.00     0.014 A 
ATOM     35  C   UNL A   1      35.186  32.749  31.116  1.00  0.00     0.010 A 
ATOM     36  C   UNL A   1      36.732  33.829  29.598  1.00  0.00     0.010 A 
ATOM     37  C   UNL A   1      36.503  32.975  30.687  1.00  0.00    -0.014 A 
BRANCH  37  38
ATOM     38  C   UNL A   1      37.656  32.326  31.361  1.00  0.00     0.031 A 
ATOM     39  C   UNL A   1      38.380  31.186  30.695  1.00  0.00     0.074 A 
ATOM     40  C   UNL A   1      37.992  32.702  32.611  1.00  0.00     0.049 A 
ATOM     41  N   UNL A   1      39.365  30.457  31.153  1.00  0.00    -0.248 NA
ATOM     42  C   UNL A   1      37.919  30.795  29.353  1.00  0.00     0.031 C 
ATOM     43  C   UNL A   1      37.316  33.740  33.391  1.00  0.00     0.029 A 
ATOM     44  N   UNL A   1      38.967  32.234  33.456  1.00  0.00    -0.354 N 
ATOM     45  C   UNL A   1      39.614  29.499  30.177  1.00  0.00     0.074 A 
ATOM     46  C   UNL A   1      38.658  29.721  29.113  1.00  0.00     0.031 C 
ATOM     47  C   UNL A   1      37.898  33.832  34.598  1.00  0.00     0.029 A 
ATOM     48  C   UNL A   1      38.969  32.845  34.688  1.00  0.00     0.049 A 
ATOM     49  H   UNL A   1      39.606  31.529  33.204  1.00  0.00     0.167 HD
ATOM     50  C   UNL A   1      40.570  28.539  30.154  1.00  0.00     0.034 A 
ATOM     51  C   UNL A   1      39.743  32.631  35.770  1.00  0.00     0.034 A 
ATOM     52  C   UNL A   1      41.553  28.359  31.187  1.00  0.00     0.049 A 
ATOM     53  C   UNL A   1      40.831  31.594  35.696  1.00  0.00     0.074 A 
ATOM     54  C   UNL A   1      42.625  27.484  31.211  1.00  0.00     0.029 A 
ATOM     55  N   UNL A   1      41.582  29.060  32.382  1.00  0.00    -0.354 N 
ATOM     56  N   UNL A   1      41.159  30.812  34.696  1.00  0.00    -0.248 NA
ATOM     57  C   UNL A   1      41.681  31.435  36.885  1.00  0.00     0.031 C 
ATOM     58  C   UNL A   1      43.293  27.645  32.430  1.00  0.00     0.029 A 
ATOM     59  C   UNL A   1      42.648  28.634  33.156  1.00  0.00     0.049 A 
ATOM     60  H   UNL A   1      40.940  29.760  32.642  1.00  0.00     0.167 HD
ATOM     61  C   UNL A   1      42.273  30.097  35.120  1.00  0.00     0.074 A 
ATOM     62  C   UNL A   1      42.576  30.554  36.461  1.00  0.00     0.031 C 
ATOM     63  C   UNL A   1      42.972  29.138  34.465  1.00  0.00     0.034 A 
BRANCH  50  64
ATOM     64  C   UNL A   1      40.637  27.643  28.945  1.00  0.00     0.023 A 
ATOM     65  C   UNL A   1      39.676  26.625  28.780  1.00  0.00     0.012 A 
ATOM     66  C   UNL A   1      41.606  27.848  27.943  1.00  0.00     0.148 A 
ATOM     67  C   UNL A   1      39.697  25.804  27.652  1.00  0.00     0.002 A 
ATOM     68  C   UNL A   1      41.595  27.053  26.802  1.00  0.00     0.091 A 
ATOM     69  F   UNL A   1      42.526  28.805  28.128  1.00  0.00    -0.205 F 
ATOM     70  C   UNL A   1      40.648  26.025  26.661  1.00  0.00     0.022 A 
BRANCH  68  71
ATOM     71  S   UNL A   1      42.729  27.308  25.433  1.00  0.00     0.127 S 
ATOM     72  O   UNL A   1      44.001  27.480  26.131  1.00  0.00    -0.237 OA
ATOM     73  O   UNL A   1      42.605  26.051  24.692  1.00  0.00    -0.237 OA
ATOM     74  O   UNL A   1      42.241  28.482  24.721  1.00  0.00    -0.744 OA
ENDBRANCH  68  71
ENDBRANCH  50  64
BRANCH  51  75
ATOM     75  C   UNL A   1      39.569  33.470  36.989  1.00  0.00     0.023 A 
ATOM     76  C   UNL A   1      38.541  33.156  37.899  1.00  0.00     0.012 A 
ATOM     77  C   UNL A   1      40.424  34.554  37.267  1.00  0.00     0.148 A 
ATOM     78  C   UNL A   1      38.348  33.923  39.048  1.00  0.00     0.002 A 
ATOM     79  C   UNL A   1      40.260  35.281  38.441  1.00  0.00     0.091 A 
ATOM     80  F   UNL A   1      41.389  34.846  36.383  1.00  0.00    -0.205 F 
ATOM     81  C   UNL A   1      39.212  34.979  39.324  1.00  0.00     0.022 A 
BRANCH  79  82
ATOM     82  S   UNL A   1      41.407  36.571  38.939  1.00  0.00     0.127 S 
ATOM     83  O   UNL A   1      40.580  37.380  39.832  1.00  0.00    -0.237 OA
ATOM     84  O   UNL A   1      42.460  35.803  39.602  1.00  0.00    -0.237 OA
ATOM     85  O   UNL A   1      41.827  37.218  37.703  1.00  0.00    -0.744 OA
ENDBRANCH  79  82
ENDBRANCH  51  75
BRANCH  63  86
ATOM     86  C   UNL A   1      44.161  28.536  35.168  1.00  0.00     0.023 A 
ATOM     87  C   UNL A   1      45.451  29.047  34.920  1.00  0.00     0.012 A 
ATOM     88  C   UNL A   1      43.990  27.523  36.130  1.00  0.00     0.148 A 
ATOM     89  C   UNL A   1      46.556  28.535  35.598  1.00  0.00     0.002 A 
ATOM     90  C   UNL A   1      45.089  27.052  36.837  1.00  0.00     0.091 A 
ATOM     91  F   UNL A   1      42.756  27.038  36.338  1.00  0.00    -0.205 F 
ATOM     92  C   UNL A   1      46.374  27.548  36.564  1.00  0.00     0.022 A 
BRANCH  90  93
ATOM     93  S   UNL A   1      44.936  25.853  38.166  1.00  0.00     0.127 S 
ATOM     94  O   UNL A   1      44.168  26.604  39.158  1.00  0.00    -0.237 OA
ATOM     95  O   UNL A   1      44.200  24.765  37.521  1.00  0.00    -0.237 OA
ATOM     96  O   UNL A   1      46.298  25.512  38.555  1.00  0.00    -0.744 OA
ENDBRANCH  90  93
ENDBRANCH  63  86
ENDBRANCH  37  38
ENDBRANCH  29  32
ENDBRANCH  27  28
ENDBRANCH  26  27
ENDBRANCH  25  26
ENDBRANCH   1  25
TORSDOF 19
ENDMDL
MODEL 2
REMARK VINA RESULT:     -11.6      1.850      2.199
REMARK SMILES C[C@]1(CNC(=O)N2CCOC[C@H]2C(=O)NCCCCCCNC(=O)c2ccc(-c3c4nc(c(-c5cccc(S(=O)(=O)[O-])c5F)c5ccc([nH]5)c(-c5cccc(S(=O)(=O)[O-])c5F)c5nc(c(-c6cccc(S(=O)(=O)[O-])c6F)c6ccc3[nH]6)C=C5)C=C4)cc2)CCCO1
REMARK SMILES IDX 18 1 17 2 16 3 15 4 13 5 14 6 12 8 7 9 8 10 9 11 11 12 10 13
REMARK SMILES IDX 5 14 4 15 6 17 3 18 2 19 1 20 88 21 91 22 89 23 90 24 19 25
REMARK SMILES IDX 20 26 21 27 22 28 23 29 24 31 25 32 26 33 87 34 27 35 86 36
REMARK SMILES IDX 28 37 29 38 30 39 80 40 31 41 85 42 79 43 81 44 32 45 84 46
REMARK SMILES IDX 78 47 77 48 33 50 65 51 45 52 64 53 46 54 49 55 63 56 82 57
REMARK SMILES IDX 47 58 48 59 62 61 83 62 50 63 34 64 35 65 43 66 36 67 38 68
REMARK SMILES IDX 44 69 37 70 39 71 40 72 41 73 42 74 66 75 67 76 75 77 68 78
REMARK SMILES IDX 70 79 76 80 69 81 71 82 72 83 73 84 74 85 51 86 52 87 60 88
REMARK SMILES IDX 53 89 55 90 61 91 54 92 56 93 57 94 58 95 59 96
REMARK H PARENT 15 7 4 16 22 30 81 49 49 60
REMARK Flexibility Score: inf
ROOT
ATOM      1  C   UNL A   1      31.938  29.635  26.922  1.00  0.00     0.002 C 
ENDROOT
BRANCH   1   2
ATOM      2  C   UNL A   1      33.451  29.597  27.138  1.00  0.00     0.021 C 
BRANCH   2   3
ATOM      3  C   UNL A   1      34.165  28.449  26.413  1.00  0.00     0.116 C 
BRANCH   3   4
ATOM      4  N   UNL A   1      34.155  28.635  24.973  1.00  0.00    -0.354 N 
ATOM      5  C   UNL A   1      33.682  27.907  23.926  1.00  0.00     0.245 C 
ATOM      6  O   UNL A   1      33.783  28.470  22.825  1.00  0.00    -0.273 OA
ATOM      7  H   UNL A   1      34.585  29.474  24.691  1.00  0.00     0.163 HD
BRANCH   5   8
ATOM      8  C   UNL A   1      33.038  26.492  24.007  1.00  0.00     0.202 C 
ATOM      9  N   UNL A   1      31.845  26.228  23.172  1.00  0.00    -0.308 N 
ATOM     10  C   UNL A   1      32.175  25.777  21.833  1.00  0.00     0.151 C 
ATOM     11  C   UNL A   1      33.026  24.515  21.918  1.00  0.00     0.182 C 
ATOM     12  C   UNL A   1      34.040  25.321  23.931  1.00  0.00     0.195 C 
ATOM     13  O   UNL A   1      34.253  24.791  22.612  1.00  0.00    -0.377 OA
BRANCH   9  14
ATOM     14  C   UNL A   1      30.609  26.430  23.706  1.00  0.00     0.318 C 
ATOM     15  N   UNL A   1      29.981  27.623  23.650  1.00  0.00    -0.335 N 
ATOM     16  H   UNL A   1      29.241  27.686  24.297  1.00  0.00     0.165 HD
ATOM     17  O   UNL A   1      29.967  25.510  24.219  1.00  0.00    -0.249 OA
BRANCH  15  18
ATOM     18  C   UNL A   1      30.135  28.843  22.863  1.00  0.00     0.152 C 
BRANCH  18  19
ATOM     19  C   UNL A   1      28.858  29.696  22.671  1.00  0.00     0.083 C 
ATOM     20  C   UNL A   1      27.637  28.779  22.885  1.00  0.00     0.044 C 
ATOM     21  C   UNL A   1      28.750  30.963  23.519  1.00  0.00     0.039 C 
ATOM     22  O   UNL A   1      28.810  30.162  21.304  1.00  0.00    -0.373 OA
ATOM     23  C   UNL A   1      27.824  31.828  22.693  1.00  0.00     0.031 C 
ATOM     24  C   UNL A   1      28.217  31.467  21.274  1.00  0.00     0.161 C 
ENDBRANCH  18  19
ENDBRANCH  15  18
ENDBRANCH   9  14
ENDBRANCH   5   8
ENDBRANCH   3   4
ENDBRANCH   2   3
ENDBRANCH   1   2
BRANCH   1  25
ATOM     25  C   UNL A   1      31.441  30.790  26.044  1.00  0.00     0.002 C 
BRANCH  25  26
ATOM     26  C   UNL A   1      31.367  32.161  26.726  1.00  0.00     0.021 C 
BRANCH  26  27
ATOM     27  C   UNL A   1      32.706  32.878  26.890  1.00  0.00     0.116 C 
BRANCH  27  28
ATOM     28  N   UNL A   1      32.554  34.172  27.536  1.00  0.00    -0.352 N 
ATOM     29  C   UNL A   1      33.160  34.666  28.664  1.00  0.00     0.251 C 
ATOM     30  H   UNL A   1      31.921  34.786  27.098  1.00  0.00     0.163 HD
ATOM     31  O   UNL A   1      32.727  35.687  29.191  1.00  0.00    -0.269 OA
BRANCH  29  32
ATOM     32  C   UNL A   1      34.330  33.973  29.244  1.00  0.00     0.039 A 
ATOM     33  C   UNL A   1      35.613  34.428  28.927  1.00  0.00     0.014 A 
ATOM     34  C   UNL A   1      34.164  32.854  30.064  1.00  0.00     0.014 A 
ATOM     35  C   UNL A   1      36.729  33.789  29.473  1.00  0.00     0.010 A 
ATOM     36  C   UNL A   1      35.274  32.259  30.658  1.00  0.00     0.010 A 
ATOM     37  C   UNL A   1      36.568  32.713  30.361  1.00  0.00    -0.014 A 
BRANCH  37  38
ATOM     38  C   UNL A   1      37.737  32.051  30.993  1.00  0.00     0.031 A 
ATOM     39  C   UNL A   1      38.513  31.003  30.241  1.00  0.00     0.074 A 
ATOM     40  C   UNL A   1      38.043  32.328  32.276  1.00  0.00     0.049 A 
ATOM     41  N   UNL A   1      39.520  30.274  30.648  1.00  0.00    -0.248 NA
ATOM     42  C   UNL A   1      38.083  30.715  28.863  1.00  0.00     0.031 C 
ATOM     43  C   UNL A   1      37.318  33.267  33.134  1.00  0.00     0.029 A 
ATOM     44  N   UNL A   1      39.026  31.825  33.092  1.00  0.00    -0.354 N 
ATOM     45  C   UNL A   1      39.818  29.417  29.595  1.00  0.00     0.074 A 
ATOM     46  C   UNL A   1      38.867  29.696  28.541  1.00  0.00     0.031 C 
ATOM     47  C   UNL A   1      37.881  33.274  34.353  1.00  0.00     0.029 A 
ATOM     48  C   UNL A   1      38.989  32.324  34.373  1.00  0.00     0.049 A 
ATOM     49  H   UNL A   1      39.694  31.169  32.789  1.00  0.00     0.167 HD
ATOM     50  C   UNL A   1      40.810  28.499  29.503  1.00  0.00     0.034 A 
ATOM     51  C   UNL A   1      39.758  32.045  35.443  1.00  0.00     0.034 A 
ATOM     52  C   UNL A   1      41.787  28.266  30.531  1.00  0.00     0.049 A 
ATOM     53  C   UNL A   1      40.886  31.060  35.295  1.00  0.00     0.074 A 
ATOM     54  C   UNL A   1      42.892  27.433  30.494  1.00  0.00     0.029 A 
ATOM     55  N   UNL A   1      41.775  28.859  31.784  1.00  0.00    -0.354 N 
ATOM     56  N   UNL A   1      41.256  30.382  34.236  1.00  0.00    -0.248 NA
ATOM     57  C   UNL A   1      41.727  30.829  36.479  1.00  0.00     0.031 C 
ATOM     58  C   UNL A   1      43.539  27.511  31.733  1.00  0.00     0.029 A 
ATOM     59  C   UNL A   1      42.847  28.406  32.533  1.00  0.00     0.049 A 
ATOM     60  H   UNL A   1      41.103  29.508  32.094  1.00  0.00     0.167 HD
ATOM     61  C   UNL A   1      42.392  29.675  34.613  1.00  0.00     0.074 A 
ATOM     62  C   UNL A   1      42.661  30.023  35.993  1.00  0.00     0.031 C 
ATOM     63  C   UNL A   1      43.136  28.805  33.886  1.00  0.00     0.034 A 
BRANCH  50  64
ATOM     64  C   UNL A   1      40.927  27.716  28.221  1.00  0.00     0.023 A 
ATOM     65  C   UNL A   1      41.512  28.320  27.089  1.00  0.00     0.012 A 
ATOM     66  C   UNL A   1      40.521  26.369  28.154  1.00  0.00     0.148 A 
ATOM     67  C   UNL A   1      41.662  27.605  25.901  1.00  0.00     0.002 A 
ATOM     68  C   UNL A   1      40.713  25.650  26.979  1.00  0.00     0.091 A 
ATOM     69  F   UNL A   1      39.946  25.820  29.233  1.00  0.00    -0.205 F 
ATOM     70  C   UNL A   1      41.273  26.270  25.850  1.00  0.00     0.022 A 
BRANCH  68  71
ATOM     71  S   UNL A   1      40.316  23.905  26.836  1.00  0.00     0.127 S 
ATOM     72  O   UNL A   1      38.906  23.952  26.455  1.00  0.00    -0.237 OA
ATOM     73  O   UNL A   1      41.222  23.469  25.771  1.00  0.00    -0.237 OA
ATOM     74  O   UNL A   1      40.591  23.322  28.142  1.00  0.00    -0.744 OA
ENDBRANCH  68  71
ENDBRANCH  50  64
BRANCH  51  75
ATOM     75  C   UNL A   1      39.536  32.766  36.729  1.00  0.00     0.023 A 
ATOM     76  C   UNL A   1      40.203  33.985  36.958  1.00  0.00     0.012 A 
ATOM     77  C   UNL A   1      38.655  32.270  37.709  1.00  0.00     0.148 A 
ATOM     78  C   UNL A   1      40.021  34.682  38.152  1.00  0.00     0.002 A 
ATOM     79  C   UNL A   1      38.436  32.998  38.874  1.00  0.00     0.091 A 
ATOM     80  F   UNL A   1      38.039  31.102  37.478  1.00  0.00    -0.205 F 
ATOM     81  C   UNL A   1      39.131  34.195  39.105  1.00  0.00     0.022 A 
BRANCH  79  82
ATOM     82  S   UNL A   1      37.211  32.511  40.094  1.00  0.00     0.127 S 
ATOM     83  O   UNL A   1      37.566  33.356  41.230  1.00  0.00    -0.237 OA
ATOM     84  O   UNL A   1      35.959  32.868  39.427  1.00  0.00    -0.237 OA
ATOM     85  O   UNL A   1      37.398  31.078  40.284  1.00  0.00    -0.744 OA
ENDBRANCH  79  82
ENDBRANCH  51  75
BRANCH  63  86
ATOM     86  C   UNL A   1      44.339  28.189  34.551  1.00  0.00     0.023 A 
ATOM     87  C   UNL A   1      45.578  28.859  34.512  1.00  0.00     0.012 A 
ATOM     88  C   UNL A   1      44.222  26.990  35.280  1.00  0.00     0.148 A 
ATOM     89  C   UNL A   1      46.690  28.327  35.165  1.00  0.00     0.002 A 
ATOM     90  C   UNL A   1      45.322  26.493  35.968  1.00  0.00     0.091 A 
ATOM     91  F   UNL A   1      43.038  26.359  35.290  1.00  0.00    -0.205 F 
ATOM     92  C   UNL A   1      46.559  27.152  35.901  1.00  0.00     0.022 A 
BRANCH  90  93
ATOM     93  S   UNL A   1      45.220  25.040  37.021  1.00  0.00     0.127 S 
ATOM     94  O   UNL A   1      44.477  25.556  38.170  1.00  0.00    -0.237 OA
ATOM     95  O   UNL A   1      44.475  24.100  36.184  1.00  0.00    -0.237 OA
ATOM     96  O   UNL A   1      46.596  24.646  37.291  1.00  0.00    -0.744 OA
ENDBRANCH  90  93
ENDBRANCH  63  86
ENDBRANCH  37  38
ENDBRANCH  29  32
ENDBRANCH  27  28
ENDBRANCH  26  27
ENDBRANCH  25  26
ENDBRANCH   1  25
TORSDOF 19
ENDMDL
MODEL 3
REMARK VINA RESULT:     -11.5      2.038      3.933
REMARK SMILES C[C@]1(CNC(=O)N2CCOC[C@H]2C(=O)NCCCCCCNC(=O)c2ccc(-c3c4nc(c(-c5cccc(S(=O)(=O)[O-])c5F)c5ccc([nH]5)c(-c5cccc(S(=O)(=O)[O-])c5F)c5nc(c(-c6cccc(S(=O)(=O)[O-])c6F)c6ccc3[nH]6)C=C5)C=C4)cc2)CCCO1
REMARK SMILES IDX 18 1 17 2 16 3 15 4 13 5 14 6 12 8 7 9 8 10 9 11 11 12 10 13
REMARK SMILES IDX 5 14 4 15 6 17 3 18 2 19 1 20 88 21 91 22 89 23 90 24 19 25
REMARK SMILES IDX 20 26 21 27 22 28 23 29 24 31 25 32 26 33 87 34 27 35 86 36
REMARK SMILES IDX 28 37 29 38 30 39 80 40 31 41 85 42 79 43 81 44 32 45 84 46
REMARK SMILES IDX 78 47 77 48 33 50 65 51 45 52 64 53 46 54 49 55 63 56 82 57
REMARK SMILES IDX 47 58 48 59 62 61 83 62 50 63 34 64 35 65 43 66 36 67 38 68
REMARK SMILES IDX 44 69 37 70 39 71 40 72 41 73 42 74 66 75 67 76 75 77 68 78
REMARK SMILES IDX 70 79 76 80 69 81 71 82 72 83 73 84 74 85 51 86 52 87 60 88
REMARK SMILES IDX 53 89 55 90 61 91 54 92 56 93 57 94 58 95 59 96
REMARK H PARENT 15 7 4 16 22 30 81 49 49 60
REMARK Flexibility Score: inf
ROOT
ATOM      1  C   UNL A   1      32.126  29.678  27.043  1.00  0.00     0.002 C 
ENDROOT
BRANCH   1   2
ATOM      2  C   UNL A   1      32.980  28.619  26.345  1.00  0.00     0.021 C 
BRANCH   2   3
ATOM      3  C   UNL A   1      32.353  27.219  26.312  1.00  0.00     0.116 C 
BRANCH   3   4
ATOM      4  N   UNL A   1      31.631  26.982  25.075  1.00  0.00    -0.354 N 
ATOM      5  C   UNL A   1      31.783  26.115  24.039  1.00  0.00     0.245 C 
ATOM      6  O   UNL A   1      30.875  26.163  23.195  1.00  0.00    -0.273 OA
ATOM      7  H   UNL A   1      30.859  27.583  24.961  1.00  0.00     0.163 HD
BRANCH   5   8
ATOM      8  C   UNL A   1      32.950  25.102  23.852  1.00  0.00     0.202 C 
ATOM      9  N   UNL A   1      32.683  23.678  24.157  1.00  0.00    -0.308 N 
ATOM     10  C   UNL A   1      32.139  22.947  23.028  1.00  0.00     0.151 C 
ATOM     11  C   UNL A   1      33.102  23.043  21.850  1.00  0.00     0.182 C 
ATOM     12  C   UNL A   1      33.730  25.251  22.530  1.00  0.00     0.195 C 
ATOM     13  O   UNL A   1      33.266  24.416  21.456  1.00  0.00    -0.377 OA
BRANCH   9  14
ATOM     14  C   UNL A   1      32.950  23.210  25.407  1.00  0.00     0.318 C 
ATOM     15  N   UNL A   1      33.843  22.225  25.636  1.00  0.00    -0.335 N 
ATOM     16  H   UNL A   1      33.731  21.819  26.526  1.00  0.00     0.165 HD
ATOM     17  O   UNL A   1      32.432  23.707  26.410  1.00  0.00    -0.249 OA
BRANCH  15  18
ATOM     18  C   UNL A   1      34.936  21.616  24.883  1.00  0.00     0.152 C 
BRANCH  18  19
ATOM     19  C   UNL A   1      36.260  22.417  24.832  1.00  0.00     0.083 C 
ATOM     20  C   UNL A   1      36.463  22.905  23.384  1.00  0.00     0.044 C 
ATOM     21  C   UNL A   1      36.399  23.569  25.827  1.00  0.00     0.039 C 
ATOM     22  O   UNL A   1      37.355  21.527  25.142  1.00  0.00    -0.373 OA
ATOM     23  C   UNL A   1      37.900  23.694  25.969  1.00  0.00     0.031 C 
ATOM     24  C   UNL A   1      38.360  22.254  25.860  1.00  0.00     0.161 C 
ENDBRANCH  18  19
ENDBRANCH  15  18
ENDBRANCH   9  14
ENDBRANCH   5   8
ENDBRANCH   3   4
ENDBRANCH   2   3
ENDBRANCH   1   2
BRANCH   1  25
ATOM     25  C   UNL A   1      31.587  30.780  26.123  1.00  0.00     0.002 C 
BRANCH  25  26
ATOM     26  C   UNL A   1      31.448  32.168  26.758  1.00  0.00     0.021 C 
BRANCH  26  27
ATOM     27  C   UNL A   1      32.747  32.773  27.288  1.00  0.00     0.116 C 
BRANCH  27  28
ATOM     28  N   UNL A   1      32.582  34.167  27.670  1.00  0.00    -0.352 N 
ATOM     29  C   UNL A   1      33.165  34.872  28.692  1.00  0.00     0.251 C 
ATOM     30  H   UNL A   1      31.956  34.681  27.110  1.00  0.00     0.163 HD
ATOM     31  O   UNL A   1      32.721  35.973  29.004  1.00  0.00    -0.269 OA
BRANCH  29  32
ATOM     32  C   UNL A   1      34.326  34.309  29.416  1.00  0.00     0.039 A 
ATOM     33  C   UNL A   1      34.109  33.618  30.611  1.00  0.00     0.014 A 
ATOM     34  C   UNL A   1      35.625  34.498  28.938  1.00  0.00     0.014 A 
ATOM     35  C   UNL A   1      35.195  33.074  31.302  1.00  0.00     0.010 A 
ATOM     36  C   UNL A   1      36.698  33.899  29.594  1.00  0.00     0.010 A 
ATOM     37  C   UNL A   1      36.495  33.191  30.787  1.00  0.00    -0.014 A 
BRANCH  37  38
ATOM     38  C   UNL A   1      37.658  32.576  31.479  1.00  0.00     0.031 A 
ATOM     39  C   UNL A   1      38.399  31.431  30.843  1.00  0.00     0.074 A 
ATOM     40  C   UNL A   1      37.986  32.990  32.718  1.00  0.00     0.049 A 
ATOM     41  N   UNL A   1      39.395  30.729  31.320  1.00  0.00    -0.248 NA
ATOM     42  C   UNL A   1      37.945  30.998  29.511  1.00  0.00     0.031 C 
ATOM     43  C   UNL A   1      37.294  34.037  33.471  1.00  0.00     0.029 A 
ATOM     44  N   UNL A   1      38.968  32.559  33.576  1.00  0.00    -0.354 N 
ATOM     45  C   UNL A   1      39.659  29.750  30.369  1.00  0.00     0.074 A 
ATOM     46  C   UNL A   1      38.701  29.930  29.300  1.00  0.00     0.031 C 
ATOM     47  C   UNL A   1      37.873  34.169  34.676  1.00  0.00     0.029 A 
ATOM     48  C   UNL A   1      38.958  33.202  34.792  1.00  0.00     0.049 A 
ATOM     49  H   UNL A   1      39.617  31.857  33.343  1.00  0.00     0.167 HD
ATOM     50  C   UNL A   1      40.629  28.804  30.372  1.00  0.00     0.034 A 
ATOM     51  C   UNL A   1      39.735  33.028  35.880  1.00  0.00     0.034 A 
ATOM     52  C   UNL A   1      41.614  28.666  31.410  1.00  0.00     0.049 A 
ATOM     53  C   UNL A   1      40.839  32.005  35.833  1.00  0.00     0.074 A 
ATOM     54  C   UNL A   1      42.699  27.808  31.457  1.00  0.00     0.029 A 
ATOM     55  N   UNL A   1      41.631  29.398  32.587  1.00  0.00    -0.354 N 
ATOM     56  N   UNL A   1      41.179  31.202  34.854  1.00  0.00    -0.248 NA
ATOM     57  C   UNL A   1      41.689  31.890  37.027  1.00  0.00     0.031 C 
ATOM     58  C   UNL A   1      43.363  28.010  32.672  1.00  0.00     0.029 A 
ATOM     59  C   UNL A   1      42.702  29.008  33.372  1.00  0.00     0.049 A 
ATOM     60  H   UNL A   1      40.978  30.094  32.828  1.00  0.00     0.167 HD
ATOM     61  C   UNL A   1      42.303  30.516  35.298  1.00  0.00     0.074 A 
ATOM     62  C   UNL A   1      42.598  31.012  36.626  1.00  0.00     0.031 C 
ATOM     63  C   UNL A   1      43.018  29.550  34.668  1.00  0.00     0.034 A 
BRANCH  50  64
ATOM     64  C   UNL A   1      40.711  27.878  29.187  1.00  0.00     0.023 A 
ATOM     65  C   UNL A   1      39.840  26.772  29.107  1.00  0.00     0.012 A 
ATOM     66  C   UNL A   1      41.600  28.136  28.125  1.00  0.00     0.148 A 
ATOM     67  C   UNL A   1      39.874  25.920  28.004  1.00  0.00     0.002 A 
ATOM     68  C   UNL A   1      41.598  27.306  27.008  1.00  0.00     0.091 A 
ATOM     69  F   UNL A   1      42.436  29.179  28.229  1.00  0.00    -0.205 F 
ATOM     70  C   UNL A   1      40.743  26.193  26.952  1.00  0.00     0.022 A 
BRANCH  68  71
ATOM     71  S   UNL A   1      42.625  27.617  25.569  1.00  0.00     0.127 S 
ATOM     72  O   UNL A   1      42.367  26.428  24.759  1.00  0.00    -0.237 OA
ATOM     73  O   UNL A   1      42.046  28.854  25.038  1.00  0.00    -0.237 OA
ATOM     74  O   UNL A   1      43.987  27.751  26.068  1.00  0.00    -0.744 OA
ENDBRANCH  68  71
ENDBRANCH  50  64
BRANCH  51  75
ATOM     75  C   UNL A   1      39.546  33.895  37.077  1.00  0.00     0.023 A 
ATOM     76  C   UNL A   1      39.943  35.245  37.017  1.00  0.00     0.012 A 
ATOM     77  C   UNL A   1      38.956  33.404  38.257  1.00  0.00     0.148 A 
ATOM     78  C   UNL A   1      39.785  36.083  38.122  1.00  0.00     0.002 A 
ATOM     79  C   UNL A   1      38.751  34.259  39.335  1.00  0.00     0.091 A 
ATOM     80  F   UNL A   1      38.596  32.113  38.299  1.00  0.00    -0.205 F 
ATOM     81  C   UNL A   1      39.180  35.593  39.276  1.00  0.00     0.022 A 
BRANCH  79  82
ATOM     82  S   UNL A   1      37.862  33.746  40.810  1.00  0.00     0.127 S 
ATOM     83  O   UNL A   1      37.892  34.964  41.616  1.00  0.00    -0.237 OA
ATOM     84  O   UNL A   1      36.550  33.396  40.269  1.00  0.00    -0.237 OA
ATOM     85  O   UNL A   1      38.610  32.614  41.342  1.00  0.00    -0.744 OA
ENDBRANCH  79  82
ENDBRANCH  51  75
BRANCH  63  86
ATOM     86  C   UNL A   1      44.214  28.985  35.387  1.00  0.00     0.023 A 
ATOM     87  C   UNL A   1      45.478  29.586  35.219  1.00  0.00     0.012 A 
ATOM     88  C   UNL A   1      44.071  27.912  36.287  1.00  0.00     0.148 A 
ATOM     89  C   UNL A   1      46.587  29.107  35.915  1.00  0.00     0.002 A 
ATOM     90  C   UNL A   1      45.171  27.472  37.013  1.00  0.00     0.091 A 
ATOM     91  F   UNL A   1      42.864  27.342  36.418  1.00  0.00    -0.205 F 
ATOM     92  C   UNL A   1      46.431  28.059  36.819  1.00  0.00     0.022 A 
BRANCH  90  93
ATOM     93  S   UNL A   1      45.043  26.194  38.270  1.00  0.00     0.127 S 
ATOM     94  O   UNL A   1      43.911  26.669  39.064  1.00  0.00    -0.237 OA
ATOM     95  O   UNL A   1      44.771  24.998  37.473  1.00  0.00    -0.237 OA
ATOM     96  O   UNL A   1      46.328  26.181  38.957  1.00  0.00    -0.744 OA
ENDBRANCH  90  93
ENDBRANCH  63  86
ENDBRANCH  37  38
ENDBRANCH  29  32
ENDBRANCH  27  28
ENDBRANCH  26  27
ENDBRANCH  25  26
ENDBRANCH   1  25
TORSDOF 19
ENDMDL
