MODEL 1
REMARK VINA RESULT:     -12.7      0.000      0.000
REMARK SMILES NS(=O)(=O)c1ccc(-n2ccnc2-c2ccc(O)c(C(=O)NCCCCCCNC(=O)c3ccc(-c4c5nc(c(-c6cccc(S(=O)(=O)[O-])c6F)c6ccc([nH]6)c(-c6cccc(S(=O)(=O)[O-])c6F)c6nc(c(-c7cccc(S(=O)(=O)[O-])c7F)c7ccc4[nH]7)C=C6)C=C5)cc3)c2)cc1
REMARK SMILES IDX 25 1 24 2 23 3 22 4 20 5 21 6 19 8 14 9 15 10 95 11 16 12
REMARK SMILES IDX 17 13 13 14 9 15 10 16 11 17 12 18 8 19 5 20 6 21 97 22 7 23
REMARK SMILES IDX 96 24 2 25 3 26 4 27 1 28 18 31 26 33 27 34 28 35 29 36
REMARK SMILES IDX 30 37 31 39 32 40 33 41 94 42 34 43 93 44 35 45 36 46 37 47
REMARK SMILES IDX 87 48 38 49 92 50 86 51 88 52 39 53 91 54 85 55 84 56 40 58
REMARK SMILES IDX 72 59 52 60 71 61 53 62 56 63 70 64 89 65 54 66 55 67 69 69
REMARK SMILES IDX 90 70 57 71 41 72 42 73 50 74 43 75 45 76 51 77 44 78 46 79
REMARK SMILES IDX 47 80 48 81 49 82 73 83 74 84 82 85 75 86 77 87 83 88 76 89
REMARK SMILES IDX 78 90 79 91 80 92 81 93 58 94 59 95 67 96 60 97 62 98 68 99
REMARK SMILES IDX 61 100 63 101 64 102 65 103 66 104
REMARK H PARENT 22 7 1 29 1 30 18 32 29 38 88 57 56 68
REMARK Flexibility Score: inf
ROOT
ATOM      1  C   UNL A   1      36.021  21.576  24.810  1.00  0.00     0.002 C 
ENDROOT
BRANCH   1   2
ATOM      2  C   UNL A   1      34.662  21.857  24.171  1.00  0.00     0.021 C 
BRANCH   2   3
ATOM      3  C   UNL A   1      33.455  21.974  25.093  1.00  0.00     0.116 C 
BRANCH   3   4
ATOM      4  N   UNL A   1      32.185  22.271  24.444  1.00  0.00    -0.352 N 
ATOM      5  C   UNL A   1      31.741  23.398  23.778  1.00  0.00     0.255 C 
ATOM      6  O   UNL A   1      30.590  23.397  23.331  1.00  0.00    -0.269 OA
ATOM      7  H   UNL A   1      31.527  21.540  24.488  1.00  0.00     0.163 HD
BRANCH   5   8
ATOM      8  C   UNL A   1      32.553  24.639  23.602  1.00  0.00     0.082 A 
ATOM      9  C   UNL A   1      33.391  26.775  24.483  1.00  0.00     0.019 A 
ATOM     10  C   UNL A   1      33.854  27.107  23.209  1.00  0.00     0.016 A 
ATOM     11  C   UNL A   1      32.794  25.515  24.658  1.00  0.00     0.029 A 
ATOM     12  C   UNL A   1      33.746  26.189  22.157  1.00  0.00     0.048 A 
ATOM     13  C   UNL A   1      33.098  24.966  22.355  1.00  0.00     0.128 A 
BRANCH   9  14
ATOM     14  C   UNL A   1      33.362  27.772  25.573  1.00  0.00     0.144 A 
ATOM     15  N   UNL A   1      32.677  28.993  25.555  1.00  0.00    -0.300 N 
ATOM     16  C   UNL A   1      33.349  29.831  26.412  1.00  0.00     0.113 A 
ATOM     17  C   UNL A   1      34.247  29.030  27.075  1.00  0.00     0.132 A 
ATOM     18  N   UNL A   1      34.182  27.743  26.611  1.00  0.00    -0.236 NA
BRANCH  15  19
ATOM     19  C   UNL A   1      31.561  29.336  24.747  1.00  0.00     0.047 A 
ATOM     20  C   UNL A   1      29.169  29.921  23.452  1.00  0.00     0.082 A 
ATOM     21  C   UNL A   1      29.777  30.895  24.249  1.00  0.00     0.024 A 
ATOM     22  C   UNL A   1      29.768  28.669  23.269  1.00  0.00     0.024 A 
ATOM     23  C   UNL A   1      30.975  30.603  24.897  1.00  0.00     0.028 A 
ATOM     24  C   UNL A   1      30.982  28.380  23.903  1.00  0.00     0.028 A 
BRANCH  20  25
ATOM     25  S   UNL A   1      27.619  30.330  22.709  1.00  0.00     0.238 S 
ATOM     26  O   UNL A   1      27.825  30.539  21.304  1.00  0.00    -0.207 OA
ATOM     27  O   UNL A   1      26.951  31.301  23.555  1.00  0.00    -0.207 OA
BRANCH  25  28
ATOM     28  N   UNL A   1      26.692  28.935  22.836  1.00  0.00    -0.225 NA
ATOM     29  H   UNL A   1      25.832  29.143  23.342  1.00  0.00     0.137 HD
ATOM     30  H   UNL A   1      27.219  28.222  23.341  1.00  0.00     0.137 HD
ENDBRANCH  25  28
ENDBRANCH  20  25
ENDBRANCH  15  19
ENDBRANCH   9  14
BRANCH  13  31
ATOM     31  O   UNL A   1      33.031  24.131  21.269  1.00  0.00    -0.507 OA
ATOM     32  H   UNL A   1      33.730  23.534  21.093  1.00  0.00     0.293 HD
ENDBRANCH  13  31
ENDBRANCH   5   8
ENDBRANCH   3   4
ENDBRANCH   2   3
ENDBRANCH   1   2
BRANCH   1  33
ATOM     33  C   UNL A   1      36.430  20.115  25.046  1.00  0.00     0.002 C 
BRANCH  33  34
ATOM     34  C   UNL A   1      37.846  19.670  24.656  1.00  0.00     0.021 C 
BRANCH  34  35
ATOM     35  C   UNL A   1      38.946  20.073  25.621  1.00  0.00     0.116 C 
BRANCH  35  36
ATOM     36  N   UNL A   1      40.023  19.083  25.766  1.00  0.00    -0.352 N 
ATOM     37  C   UNL A   1      41.375  19.318  25.998  1.00  0.00     0.251 C 
ATOM     38  H   UNL A   1      39.754  18.139  25.691  1.00  0.00     0.163 HD
ATOM     39  O   UNL A   1      42.218  18.462  25.758  1.00  0.00    -0.269 OA
BRANCH  37  40
ATOM     40  C   UNL A   1      41.765  20.626  26.553  1.00  0.00     0.039 A 
ATOM     41  C   UNL A   1      42.421  21.623  25.822  1.00  0.00     0.014 A 
ATOM     42  C   UNL A   1      41.376  20.859  27.860  1.00  0.00     0.014 A 
ATOM     43  C   UNL A   1      42.598  22.873  26.419  1.00  0.00     0.010 A 
ATOM     44  C   UNL A   1      41.259  22.141  28.298  1.00  0.00     0.010 A 
ATOM     45  C   UNL A   1      41.997  23.120  27.662  1.00  0.00    -0.014 A 
BRANCH  45  46
ATOM     46  C   UNL A   1      42.128  24.375  28.381  1.00  0.00     0.031 A 
ATOM     47  C   UNL A   1      41.032  25.351  28.200  1.00  0.00     0.074 A 
ATOM     48  C   UNL A   1      43.081  24.559  29.323  1.00  0.00     0.049 A 
ATOM     49  N   UNL A   1      41.069  26.434  27.501  1.00  0.00    -0.248 NA
ATOM     50  C   UNL A   1      39.710  25.038  28.757  1.00  0.00     0.031 C 
ATOM     51  C   UNL A   1      44.056  23.592  29.863  1.00  0.00     0.029 A 
ATOM     52  N   UNL A   1      43.284  25.645  30.107  1.00  0.00    -0.354 N 
ATOM     53  C   UNL A   1      39.851  27.068  27.724  1.00  0.00     0.074 A 
ATOM     54  C   UNL A   1      38.992  26.079  28.327  1.00  0.00     0.031 C 
ATOM     55  C   UNL A   1      44.549  24.051  31.033  1.00  0.00     0.029 A 
ATOM     56  C   UNL A   1      44.097  25.414  31.206  1.00  0.00     0.049 A 
ATOM     57  H   UNL A   1      42.888  26.525  29.912  1.00  0.00     0.167 HD
ATOM     58  C   UNL A   1      39.727  28.420  27.615  1.00  0.00     0.034 A 
ATOM     59  C   UNL A   1      44.363  26.287  32.202  1.00  0.00     0.034 A 
ATOM     60  C   UNL A   1      40.905  29.014  27.029  1.00  0.00     0.049 A 
ATOM     61  C   UNL A   1      44.134  27.642  31.648  1.00  0.00     0.074 A 
ATOM     62  C   UNL A   1      41.577  28.882  25.831  1.00  0.00     0.029 A 
ATOM     63  N   UNL A   1      41.796  29.605  27.894  1.00  0.00    -0.354 N 
ATOM     64  N   UNL A   1      44.844  28.139  30.672  1.00  0.00    -0.248 NA
ATOM     65  C   UNL A   1      42.836  28.261  31.854  1.00  0.00     0.031 C 
ATOM     66  C   UNL A   1      42.960  28.942  26.180  1.00  0.00     0.029 A 
ATOM     67  C   UNL A   1      43.048  29.161  27.557  1.00  0.00     0.049 A 
ATOM     68  H   UNL A   1      41.575  30.231  28.622  1.00  0.00     0.167 HD
ATOM     69  C   UNL A   1      43.921  28.797  29.868  1.00  0.00     0.074 A 
ATOM     70  C   UNL A   1      42.731  28.940  30.708  1.00  0.00     0.031 C 
ATOM     71  C   UNL A   1      44.103  28.905  28.517  1.00  0.00     0.034 A 
BRANCH  58  72
ATOM     72  C   UNL A   1      38.714  29.271  28.339  1.00  0.00     0.023 A 
ATOM     73  C   UNL A   1      37.909  30.126  27.553  1.00  0.00     0.012 A 
ATOM     74  C   UNL A   1      38.688  29.468  29.737  1.00  0.00     0.148 A 
ATOM     75  C   UNL A   1      37.154  31.155  28.125  1.00  0.00     0.002 A 
ATOM     76  C   UNL A   1      37.873  30.441  30.307  1.00  0.00     0.091 A 
ATOM     77  F   UNL A   1      39.549  28.814  30.521  1.00  0.00    -0.205 F 
ATOM     78  C   UNL A   1      37.129  31.309  29.505  1.00  0.00     0.022 A 
BRANCH  76  79
ATOM     79  S   UNL A   1      37.767  30.645  32.088  1.00  0.00     0.127 S 
ATOM     80  O   UNL A   1      37.312  32.027  32.198  1.00  0.00    -0.237 OA
ATOM     81  O   UNL A   1      36.773  29.632  32.450  1.00  0.00    -0.237 OA
ATOM     82  O   UNL A   1      39.108  30.364  32.587  1.00  0.00    -0.744 OA
ENDBRANCH  76  79
ENDBRANCH  58  72
BRANCH  59  83
ATOM     83  C   UNL A   1      44.512  26.005  33.643  1.00  0.00     0.023 A 
ATOM     84  C   UNL A   1      45.789  25.986  34.230  1.00  0.00     0.012 A 
ATOM     85  C   UNL A   1      43.381  26.021  34.492  1.00  0.00     0.148 A 
ATOM     86  C   UNL A   1      45.937  26.016  35.622  1.00  0.00     0.002 A 
ATOM     87  C   UNL A   1      43.534  26.046  35.874  1.00  0.00     0.091 A 
ATOM     88  F   UNL A   1      42.162  26.102  33.941  1.00  0.00    -0.205 F 
ATOM     89  C   UNL A   1      44.812  26.056  36.443  1.00  0.00     0.022 A 
BRANCH  87  90
ATOM     90  S   UNL A   1      42.126  26.130  36.989  1.00  0.00     0.127 S 
ATOM     91  O   UNL A   1      42.783  26.274  38.289  1.00  0.00    -0.237 OA
ATOM     92  O   UNL A   1      41.438  27.326  36.510  1.00  0.00    -0.237 OA
ATOM     93  O   UNL A   1      41.408  24.872  36.815  1.00  0.00    -0.744 OA
ENDBRANCH  87  90
ENDBRANCH  59  83
BRANCH  71  94
ATOM     94  C   UNL A   1      45.429  28.452  27.943  1.00  0.00     0.023 A 
ATOM     95  C   UNL A   1      46.589  29.254  28.026  1.00  0.00     0.012 A 
ATOM     96  C   UNL A   1      45.560  27.134  27.478  1.00  0.00     0.148 A 
ATOM     97  C   UNL A   1      47.839  28.768  27.637  1.00  0.00     0.002 A 
ATOM     98  C   UNL A   1      46.812  26.638  27.127  1.00  0.00     0.091 A 
ATOM     99  F   UNL A   1      44.458  26.372  27.420  1.00  0.00    -0.205 F 
ATOM    100  C   UNL A   1      47.953  27.454  27.196  1.00  0.00     0.022 A 
BRANCH  98 101
ATOM    101  S   UNL A   1      47.059  24.922  26.662  1.00  0.00     0.127 S 
ATOM    102  O   UNL A   1      46.321  24.837  25.404  1.00  0.00    -0.237 OA
ATOM    103  O   UNL A   1      48.514  24.842  26.524  1.00  0.00    -0.237 OA
ATOM    104  O   UNL A   1      46.519  24.126  27.757  1.00  0.00    -0.744 OA
ENDBRANCH  98 101
ENDBRANCH  71  94
ENDBRANCH  45  46
ENDBRANCH  37  40
ENDBRANCH  35  36
ENDBRANCH  34  35
ENDBRANCH  33  34
ENDBRANCH   1  33
TORSDOF 21
ENDMDL
MODEL 2
REMARK VINA RESULT:     -12.6      3.306      8.446
REMARK SMILES NS(=O)(=O)c1ccc(-n2ccnc2-c2ccc(O)c(C(=O)NCCCCCCNC(=O)c3ccc(-c4c5nc(c(-c6cccc(S(=O)(=O)[O-])c6F)c6ccc([nH]6)c(-c6cccc(S(=O)(=O)[O-])c6F)c6nc(c(-c7cccc(S(=O)(=O)[O-])c7F)c7ccc4[nH]7)C=C6)C=C5)cc3)c2)cc1
REMARK SMILES IDX 25 1 24 2 23 3 22 4 20 5 21 6 19 8 14 9 15 10 95 11 16 12
REMARK SMILES IDX 17 13 13 14 9 15 10 16 11 17 12 18 8 19 5 20 6 21 97 22 7 23
REMARK SMILES IDX 96 24 2 25 3 26 4 27 1 28 18 31 26 33 27 34 28 35 29 36
REMARK SMILES IDX 30 37 31 39 32 40 33 41 94 42 34 43 93 44 35 45 36 46 37 47
REMARK SMILES IDX 87 48 38 49 92 50 86 51 88 52 39 53 91 54 85 55 84 56 40 58
REMARK SMILES IDX 72 59 52 60 71 61 53 62 56 63 70 64 89 65 54 66 55 67 69 69
REMARK SMILES IDX 90 70 57 71 41 72 42 73 50 74 43 75 45 76 51 77 44 78 46 79
REMARK SMILES IDX 47 80 48 81 49 82 73 83 74 84 82 85 75 86 77 87 83 88 76 89
REMARK SMILES IDX 78 90 79 91 80 92 81 93 58 94 59 95 67 96 60 97 62 98 68 99
REMARK SMILES IDX 61 100 63 101 64 102 65 103 66 104
REMARK H PARENT 22 7 1 29 1 30 18 32 29 38 88 57 56 68
REMARK Flexibility Score: inf
ROOT
ATOM      1  C   UNL A   1      31.465  27.599  26.215  1.00  0.00     0.002 C 
ENDROOT
BRANCH   1   2
ATOM      2  C   UNL A   1      30.687  27.703  24.905  1.00  0.00     0.021 C 
BRANCH   2   3
ATOM      3  C   UNL A   1      31.319  27.106  23.654  1.00  0.00     0.116 C 
BRANCH   3   4
ATOM      4  N   UNL A   1      30.780  25.826  23.218  1.00  0.00    -0.352 N 
ATOM      5  C   UNL A   1      30.970  24.543  23.696  1.00  0.00     0.255 C 
ATOM      6  O   UNL A   1      30.399  23.613  23.119  1.00  0.00    -0.269 OA
ATOM      7  H   UNL A   1      30.172  25.885  22.444  1.00  0.00     0.163 HD
BRANCH   5   8
ATOM      8  C   UNL A   1      31.862  24.204  24.846  1.00  0.00     0.082 A 
ATOM      9  C   UNL A   1      34.087  23.622  25.712  1.00  0.00     0.019 A 
ATOM     10  C   UNL A   1      33.513  23.304  26.944  1.00  0.00     0.016 A 
ATOM     11  C   UNL A   1      33.244  24.118  24.703  1.00  0.00     0.029 A 
ATOM     12  C   UNL A   1      32.144  23.509  27.159  1.00  0.00     0.048 A 
ATOM     13  C   UNL A   1      31.327  23.953  26.116  1.00  0.00     0.128 A 
BRANCH   9  14
ATOM     14  C   UNL A   1      35.494  23.285  25.410  1.00  0.00     0.144 A 
ATOM     15  N   UNL A   1      36.032  21.996  25.328  1.00  0.00    -0.300 N 
ATOM     16  C   UNL A   1      37.368  22.110  25.628  1.00  0.00     0.113 A 
ATOM     17  C   UNL A   1      37.623  23.460  25.646  1.00  0.00     0.132 A 
ATOM     18  N   UNL A   1      36.475  24.172  25.421  1.00  0.00    -0.236 NA
BRANCH  15  19
ATOM     19  C   UNL A   1      35.329  20.789  25.074  1.00  0.00     0.047 A 
ATOM     20  C   UNL A   1      34.060  18.460  24.230  1.00  0.00     0.082 A 
ATOM     21  C   UNL A   1      35.409  18.417  24.598  1.00  0.00     0.024 A 
ATOM     22  C   UNL A   1      33.334  19.653  24.317  1.00  0.00     0.024 A 
ATOM     23  C   UNL A   1      36.044  19.581  25.021  1.00  0.00     0.028 A 
ATOM     24  C   UNL A   1      33.964  20.821  24.760  1.00  0.00     0.028 A 
BRANCH  20  25
ATOM     25  S   UNL A   1      33.330  16.964  23.642  1.00  0.00     0.238 S 
ATOM     26  O   UNL A   1      34.300  15.910  23.739  1.00  0.00    -0.207 OA
ATOM     27  O   UNL A   1      32.615  17.258  22.414  1.00  0.00    -0.207 OA
BRANCH  25  28
ATOM     28  N   UNL A   1      32.132  16.592  24.761  1.00  0.00    -0.225 NA
ATOM     29  H   UNL A   1      32.564  16.258  25.622  1.00  0.00     0.137 HD
ATOM     30  H   UNL A   1      31.526  15.866  24.380  1.00  0.00     0.137 HD
ENDBRANCH  25  28
ENDBRANCH  20  25
ENDBRANCH  15  19
ENDBRANCH   9  14
BRANCH  13  31
ATOM     31  O   UNL A   1      29.998  24.118  26.412  1.00  0.00    -0.507 OA
ATOM     32  H   UNL A   1      29.649  24.978  26.533  1.00  0.00     0.293 HD
ENDBRANCH  13  31
ENDBRANCH   5   8
ENDBRANCH   3   4
ENDBRANCH   2   3
ENDBRANCH   1   2
BRANCH   1  33
ATOM     33  C   UNL A   1      32.998  27.538  26.153  1.00  0.00     0.002 C 
BRANCH  33  34
ATOM     34  C   UNL A   1      33.781  28.829  25.879  1.00  0.00     0.021 C 
BRANCH  34  35
ATOM     35  C   UNL A   1      34.788  29.220  26.946  1.00  0.00     0.116 C 
BRANCH  35  36
ATOM     36  N   UNL A   1      34.657  30.601  27.431  1.00  0.00    -0.352 N 
ATOM     37  C   UNL A   1      35.248  31.173  28.554  1.00  0.00     0.251 C 
ATOM     38  H   UNL A   1      34.081  31.194  26.896  1.00  0.00     0.163 HD
ATOM     39  O   UNL A   1      34.805  32.203  29.049  1.00  0.00    -0.269 OA
BRANCH  37  40
ATOM     40  C   UNL A   1      36.433  30.509  29.126  1.00  0.00     0.039 A 
ATOM     41  C   UNL A   1      36.378  29.537  30.130  1.00  0.00     0.014 A 
ATOM     42  C   UNL A   1      37.644  30.855  28.554  1.00  0.00     0.014 A 
ATOM     43  C   UNL A   1      37.557  28.876  30.477  1.00  0.00     0.010 A 
ATOM     44  C   UNL A   1      38.695  29.999  28.660  1.00  0.00     0.010 A 
ATOM     45  C   UNL A   1      38.714  29.113  29.720  1.00  0.00    -0.014 A 
BRANCH  45  46
ATOM     46  C   UNL A   1      39.998  28.495  30.000  1.00  0.00     0.031 A 
ATOM     47  C   UNL A   1      40.442  28.518  31.410  1.00  0.00     0.074 A 
ATOM     48  C   UNL A   1      40.648  27.757  29.072  1.00  0.00     0.049 A 
ATOM     49  N   UNL A   1      41.362  29.266  31.918  1.00  0.00    -0.248 NA
ATOM     50  C   UNL A   1      39.711  27.710  32.393  1.00  0.00     0.031 C 
ATOM     51  C   UNL A   1      40.209  27.360  27.721  1.00  0.00     0.029 A 
ATOM     52  N   UNL A   1      41.815  27.081  29.208  1.00  0.00    -0.354 N 
ATOM     53  C   UNL A   1      41.496  28.852  33.239  1.00  0.00     0.074 A 
ATOM     54  C   UNL A   1      40.332  28.051  33.526  1.00  0.00     0.031 C 
ATOM     55  C   UNL A   1      40.960  26.327  27.285  1.00  0.00     0.029 A 
ATOM     56  C   UNL A   1      42.051  26.142  28.216  1.00  0.00     0.049 A 
ATOM     57  H   UNL A   1      42.442  27.243  29.950  1.00  0.00     0.167 HD
ATOM     58  C   UNL A   1      42.670  29.004  33.913  1.00  0.00     0.034 A 
ATOM     59  C   UNL A   1      43.072  25.257  28.178  1.00  0.00     0.034 A 
ATOM     60  C   UNL A   1      43.599  29.828  33.177  1.00  0.00     0.049 A 
ATOM     61  C   UNL A   1      44.154  25.827  29.014  1.00  0.00     0.074 A 
ATOM     62  C   UNL A   1      43.595  31.122  32.697  1.00  0.00     0.029 A 
ATOM     63  N   UNL A   1      44.589  29.175  32.480  1.00  0.00    -0.354 N 
ATOM     64  N   UNL A   1      44.766  26.942  28.720  1.00  0.00    -0.248 NA
ATOM     65  C   UNL A   1      44.241  25.415  30.405  1.00  0.00     0.031 C 
ATOM     66  C   UNL A   1      44.228  31.039  31.421  1.00  0.00     0.029 A 
ATOM     67  C   UNL A   1      44.629  29.716  31.222  1.00  0.00     0.049 A 
ATOM     68  H   UNL A   1      45.163  28.451  32.823  1.00  0.00     0.167 HD
ATOM     69  C   UNL A   1      44.913  27.592  29.940  1.00  0.00     0.074 A 
ATOM     70  C   UNL A   1      44.683  26.554  30.945  1.00  0.00     0.031 C 
ATOM     71  C   UNL A   1      44.920  28.957  30.022  1.00  0.00     0.034 A 
BRANCH  58  72
ATOM     72  C   UNL A   1      43.142  28.148  35.062  1.00  0.00     0.023 A 
ATOM     73  C   UNL A   1      43.601  28.817  36.219  1.00  0.00     0.012 A 
ATOM     74  C   UNL A   1      43.402  26.763  34.973  1.00  0.00     0.148 A 
ATOM     75  C   UNL A   1      44.321  28.150  37.215  1.00  0.00     0.002 A 
ATOM     76  C   UNL A   1      44.049  26.089  36.003  1.00  0.00     0.091 A 
ATOM     77  F   UNL A   1      43.150  26.107  33.836  1.00  0.00    -0.205 F 
ATOM     78  C   UNL A   1      44.540  26.782  37.112  1.00  0.00     0.022 A 
BRANCH  76  79
ATOM     79  S   UNL A   1      44.309  24.313  35.940  1.00  0.00     0.127 S 
ATOM     80  O   UNL A   1      45.296  24.200  34.872  1.00  0.00    -0.237 OA
ATOM     81  O   UNL A   1      44.814  24.033  37.286  1.00  0.00    -0.237 OA
ATOM     82  O   UNL A   1      42.995  23.743  35.670  1.00  0.00    -0.744 OA
ENDBRANCH  76  79
ENDBRANCH  58  72
BRANCH  59  83
ATOM     83  C   UNL A   1      43.045  23.857  27.713  1.00  0.00     0.023 A 
ATOM     84  C   UNL A   1      41.964  23.023  28.045  1.00  0.00     0.012 A 
ATOM     85  C   UNL A   1      43.950  23.421  26.717  1.00  0.00     0.148 A 
ATOM     86  C   UNL A   1      41.769  21.805  27.384  1.00  0.00     0.002 A 
ATOM     87  C   UNL A   1      43.755  22.208  26.066  1.00  0.00     0.091 A 
ATOM     88  F   UNL A   1      44.947  24.237  26.350  1.00  0.00    -0.205 F 
ATOM     89  C   UNL A   1      42.657  21.402  26.389  1.00  0.00     0.022 A 
BRANCH  87  90
ATOM     90  S   UNL A   1      44.844  21.644  24.751  1.00  0.00     0.127 S 
ATOM     91  O   UNL A   1      46.137  21.598  25.434  1.00  0.00    -0.237 OA
ATOM     92  O   UNL A   1      44.271  20.340  24.430  1.00  0.00    -0.237 OA
ATOM     93  O   UNL A   1      44.754  22.653  23.702  1.00  0.00    -0.744 OA
ENDBRANCH  87  90
ENDBRANCH  59  83
BRANCH  71  94
ATOM     94  C   UNL A   1      44.951  29.744  28.728  1.00  0.00     0.023 A 
ATOM     95  C   UNL A   1      43.799  29.898  27.925  1.00  0.00     0.012 A 
ATOM     96  C   UNL A   1      46.096  30.490  28.407  1.00  0.00     0.148 A 
ATOM     97  C   UNL A   1      43.794  30.751  26.819  1.00  0.00     0.002 A 
ATOM     98  C   UNL A   1      46.076  31.370  27.328  1.00  0.00     0.091 A 
ATOM     99  F   UNL A   1      47.179  30.354  29.187  1.00  0.00    -0.205 F 
ATOM    100  C   UNL A   1      44.930  31.497  26.526  1.00  0.00     0.022 A 
BRANCH  98 101
ATOM    101  S   UNL A   1      47.460  32.450  26.958  1.00  0.00     0.127 S 
ATOM    102  O   UNL A   1      48.456  31.509  26.451  1.00  0.00    -0.237 OA
ATOM    103  O   UNL A   1      46.895  33.346  25.946  1.00  0.00    -0.237 OA
ATOM    104  O   UNL A   1      47.804  33.109  28.212  1.00  0.00    -0.744 OA
ENDBRANCH  98 101
ENDBRANCH  71  94
ENDBRANCH  45  46
ENDBRANCH  37  40
ENDBRANCH  35  36
ENDBRANCH  34  35
ENDBRANCH  33  34
ENDBRANCH   1  33
TORSDOF 21
ENDMDL
MODEL 3
REMARK VINA RESULT:     -12.3      2.215      3.154
REMARK SMILES NS(=O)(=O)c1ccc(-n2ccnc2-c2ccc(O)c(C(=O)NCCCCCCNC(=O)c3ccc(-c4c5nc(c(-c6cccc(S(=O)(=O)[O-])c6F)c6ccc([nH]6)c(-c6cccc(S(=O)(=O)[O-])c6F)c6nc(c(-c7cccc(S(=O)(=O)[O-])c7F)c7ccc4[nH]7)C=C6)C=C5)cc3)c2)cc1
REMARK SMILES IDX 25 1 24 2 23 3 22 4 20 5 21 6 19 8 14 9 15 10 95 11 16 12
REMARK SMILES IDX 17 13 13 14 9 15 10 16 11 17 12 18 8 19 5 20 6 21 97 22 7 23
REMARK SMILES IDX 96 24 2 25 3 26 4 27 1 28 18 31 26 33 27 34 28 35 29 36
REMARK SMILES IDX 30 37 31 39 32 40 33 41 94 42 34 43 93 44 35 45 36 46 37 47
REMARK SMILES IDX 87 48 38 49 92 50 86 51 88 52 39 53 91 54 85 55 84 56 40 58
REMARK SMILES IDX 72 59 52 60 71 61 53 62 56 63 70 64 89 65 54 66 55 67 69 69
REMARK SMILES IDX 90 70 57 71 41 72 42 73 50 74 43 75 45 76 51 77 44 78 46 79
REMARK SMILES IDX 47 80 48 81 49 82 73 83 74 84 82 85 75 86 77 87 83 88 76 89
REMARK SMILES IDX 78 90 79 91 80 92 81 93 58 94 59 95 67 96 60 97 62 98 68 99
REMARK SMILES IDX 61 100 63 101 64 102 65 103 66 104
REMARK H PARENT 22 7 1 29 1 30 18 32 29 38 88 57 56 68
REMARK Flexibility Score: inf
ROOT
ATOM      1  C   UNL A   1      36.803  23.200  24.959  1.00  0.00     0.002 C 
ENDROOT
BRANCH   1   2
ATOM      2  C   UNL A   1      36.068  23.554  26.249  1.00  0.00     0.021 C 
BRANCH   2   3
ATOM      3  C   UNL A   1      35.386  22.425  27.012  1.00  0.00     0.116 C 
BRANCH   3   4
ATOM      4  N   UNL A   1      34.005  22.665  27.405  1.00  0.00    -0.352 N 
ATOM      5  C   UNL A   1      32.827  22.619  26.682  1.00  0.00     0.255 C 
ATOM      6  O   UNL A   1      31.773  22.892  27.263  1.00  0.00    -0.269 OA
ATOM      7  H   UNL A   1      33.889  22.904  28.354  1.00  0.00     0.163 HD
BRANCH   5   8
ATOM      8  C   UNL A   1      32.755  22.300  25.224  1.00  0.00     0.082 A 
ATOM      9  C   UNL A   1      32.860  23.031  22.880  1.00  0.00     0.019 A 
ATOM     10  C   UNL A   1      32.361  21.790  22.481  1.00  0.00     0.016 A 
ATOM     11  C   UNL A   1      33.095  23.235  24.250  1.00  0.00     0.029 A 
ATOM     12  C   UNL A   1      32.136  20.783  23.428  1.00  0.00     0.048 A 
ATOM     13  C   UNL A   1      32.330  21.039  24.788  1.00  0.00     0.128 A 
BRANCH   9  14
ATOM     14  C   UNL A   1      32.973  24.155  21.927  1.00  0.00     0.144 A 
ATOM     15  N   UNL A   1      32.608  25.483  22.175  1.00  0.00    -0.300 N 
ATOM     16  C   UNL A   1      32.302  26.039  20.956  1.00  0.00     0.113 A 
ATOM     17  C   UNL A   1      32.712  25.117  20.023  1.00  0.00     0.132 A 
ATOM     18  N   UNL A   1      33.207  23.996  20.635  1.00  0.00    -0.236 NA
BRANCH  15  19
ATOM     19  C   UNL A   1      32.489  26.116  23.441  1.00  0.00     0.047 A 
ATOM     20  C   UNL A   1      32.165  27.656  25.735  1.00  0.00     0.082 A 
ATOM     21  C   UNL A   1      31.053  27.034  25.160  1.00  0.00     0.024 A 
ATOM     22  C   UNL A   1      33.443  27.483  25.191  1.00  0.00     0.024 A 
ATOM     23  C   UNL A   1      31.215  26.262  24.012  1.00  0.00     0.028 A 
ATOM     24  C   UNL A   1      33.611  26.693  24.049  1.00  0.00     0.028 A 
BRANCH  20  25
ATOM     25  S   UNL A   1      31.884  28.674  27.152  1.00  0.00     0.238 S 
ATOM     26  O   UNL A   1      30.948  28.011  28.015  1.00  0.00    -0.207 OA
ATOM     27  O   UNL A   1      31.702  30.041  26.702  1.00  0.00    -0.207 OA
BRANCH  25  28
ATOM     28  N   UNL A   1      33.347  28.682  27.980  1.00  0.00    -0.225 NA
ATOM     29  H   UNL A   1      34.100  28.431  27.342  1.00  0.00     0.137 HD
ATOM     30  H   UNL A   1      33.307  28.007  28.743  1.00  0.00     0.137 HD
ENDBRANCH  25  28
ENDBRANCH  20  25
ENDBRANCH  15  19
ENDBRANCH   9  14
BRANCH  13  31
ATOM     31  O   UNL A   1      32.078  19.999  25.646  1.00  0.00    -0.507 OA
ATOM     32  H   UNL A   1      32.561  19.201  25.568  1.00  0.00     0.293 HD
ENDBRANCH  13  31
ENDBRANCH   5   8
ENDBRANCH   3   4
ENDBRANCH   2   3
ENDBRANCH   1   2
BRANCH   1  33
ATOM     33  C   UNL A   1      36.473  21.868  24.271  1.00  0.00     0.002 C 
BRANCH  33  34
ATOM     34  C   UNL A   1      37.550  20.775  24.219  1.00  0.00     0.021 C 
BRANCH  34  35
ATOM     35  C   UNL A   1      38.077  20.313  25.566  1.00  0.00     0.116 C 
BRANCH  35  36
ATOM     36  N   UNL A   1      39.294  19.492  25.496  1.00  0.00    -0.352 N 
ATOM     37  C   UNL A   1      40.599  19.869  25.798  1.00  0.00     0.251 C 
ATOM     38  H   UNL A   1      39.170  18.561  25.198  1.00  0.00     0.163 HD
ATOM     39  O   UNL A   1      41.557  19.230  25.379  1.00  0.00    -0.269 OA
BRANCH  37  40
ATOM     40  C   UNL A   1      40.797  21.057  26.647  1.00  0.00     0.039 A 
ATOM     41  C   UNL A   1      40.984  21.007  28.033  1.00  0.00     0.014 A 
ATOM     42  C   UNL A   1      40.861  22.265  25.977  1.00  0.00     0.014 A 
ATOM     43  C   UNL A   1      41.313  22.189  28.699  1.00  0.00     0.010 A 
ATOM     44  C   UNL A   1      41.489  23.317  26.565  1.00  0.00     0.010 A 
ATOM     45  C   UNL A   1      41.574  23.342  27.944  1.00  0.00    -0.014 A 
BRANCH  45  46
ATOM     46  C   UNL A   1      41.909  24.627  28.531  1.00  0.00     0.031 A 
ATOM     47  C   UNL A   1      40.899  25.697  28.384  1.00  0.00     0.074 A 
ATOM     48  C   UNL A   1      42.978  24.779  29.345  1.00  0.00     0.049 A 
ATOM     49  N   UNL A   1      40.960  26.713  27.592  1.00  0.00    -0.248 NA
ATOM     50  C   UNL A   1      39.628  25.570  29.106  1.00  0.00     0.031 C 
ATOM     51  C   UNL A   1      43.911  23.759  29.860  1.00  0.00     0.029 A 
ATOM     52  N   UNL A   1      43.377  25.895  30.003  1.00  0.00    -0.354 N 
ATOM     53  C   UNL A   1      39.844  27.488  27.889  1.00  0.00     0.074 A 
ATOM     54  C   UNL A   1      38.969  26.646  28.666  1.00  0.00     0.031 C 
ATOM     55  C   UNL A   1      44.580  24.252  30.924  1.00  0.00     0.029 A 
ATOM     56  C   UNL A   1      44.285  25.664  31.024  1.00  0.00     0.049 A 
ATOM     57  H   UNL A   1      43.048  26.795  29.775  1.00  0.00     0.167 HD
ATOM     58  C   UNL A   1      39.840  28.833  27.674  1.00  0.00     0.034 A 
ATOM     59  C   UNL A   1      44.749  26.578  31.904  1.00  0.00     0.034 A 
ATOM     60  C   UNL A   1      40.994  29.252  26.915  1.00  0.00     0.049 A 
ATOM     61  C   UNL A   1      44.590  27.903  31.260  1.00  0.00     0.074 A 
ATOM     62  C   UNL A   1      41.506  28.957  25.667  1.00  0.00     0.029 A 
ATOM     63  N   UNL A   1      42.033  29.809  27.622  1.00  0.00    -0.354 N 
ATOM     64  N   UNL A   1      45.227  28.244  30.173  1.00  0.00    -0.248 NA
ATOM     65  C   UNL A   1      43.391  28.670  31.550  1.00  0.00     0.031 C 
ATOM     66  C   UNL A   1      42.919  28.896  25.858  1.00  0.00     0.029 A 
ATOM     67  C   UNL A   1      43.188  29.210  27.193  1.00  0.00     0.049 A 
ATOM     68  H   UNL A   1      41.960  30.509  28.311  1.00  0.00     0.167 HD
ATOM     69  C   UNL A   1      44.285  28.934  29.419  1.00  0.00     0.074 A 
ATOM     70  C   UNL A   1      43.220  29.267  30.366  1.00  0.00     0.031 C 
ATOM     71  C   UNL A   1      44.318  28.918  28.052  1.00  0.00     0.034 A 
BRANCH  58  72
ATOM     72  C   UNL A   1      39.005  29.841  28.425  1.00  0.00     0.023 A 
ATOM     73  C   UNL A   1      39.329  30.064  29.783  1.00  0.00     0.012 A 
ATOM     74  C   UNL A   1      37.784  30.374  27.958  1.00  0.00     0.148 A 
ATOM     75  C   UNL A   1      38.459  30.742  30.643  1.00  0.00     0.002 A 
ATOM     76  C   UNL A   1      36.960  31.116  28.798  1.00  0.00     0.091 A 
ATOM     77  F   UNL A   1      37.337  30.055  26.740  1.00  0.00    -0.205 F 
ATOM     78  C   UNL A   1      37.276  31.277  30.148  1.00  0.00     0.022 A 
BRANCH  76  79
ATOM     79  S   UNL A   1      35.446  31.871  28.194  1.00  0.00     0.127 S 
ATOM     80  O   UNL A   1      34.962  30.853  27.268  1.00  0.00    -0.237 OA
ATOM     81  O   UNL A   1      34.667  32.014  29.424  1.00  0.00    -0.237 OA
ATOM     82  O   UNL A   1      35.860  33.139  27.603  1.00  0.00    -0.744 OA
ENDBRANCH  76  79
ENDBRANCH  58  72
BRANCH  59  83
ATOM     83  C   UNL A   1      45.037  26.393  33.340  1.00  0.00     0.023 A 
ATOM     84  C   UNL A   1      46.347  26.553  33.824  1.00  0.00     0.012 A 
ATOM     85  C   UNL A   1      43.978  26.326  34.275  1.00  0.00     0.148 A 
ATOM     86  C   UNL A   1      46.594  26.674  35.196  1.00  0.00     0.002 A 
ATOM     87  C   UNL A   1      44.229  26.443  35.638  1.00  0.00     0.091 A 
ATOM     88  F   UNL A   1      42.721  26.237  33.820  1.00  0.00    -0.205 F 
ATOM     89  C   UNL A   1      45.536  26.630  36.102  1.00  0.00     0.022 A 
BRANCH  87  90
ATOM     90  S   UNL A   1      42.908  26.426  36.857  1.00  0.00     0.127 S 
ATOM     91  O   UNL A   1      42.432  25.046  36.763  1.00  0.00    -0.237 OA
ATOM     92  O   UNL A   1      43.632  26.746  38.084  1.00  0.00    -0.237 OA
ATOM     93  O   UNL A   1      41.944  27.425  36.409  1.00  0.00    -0.744 OA
ENDBRANCH  87  90
ENDBRANCH  59  83
BRANCH  71  94
ATOM     94  C   UNL A   1      45.518  28.282  27.380  1.00  0.00     0.023 A 
ATOM     95  C   UNL A   1      46.782  28.912  27.368  1.00  0.00     0.012 A 
ATOM     96  C   UNL A   1      45.423  26.961  26.916  1.00  0.00     0.148 A 
ATOM     97  C   UNL A   1      47.916  28.254  26.886  1.00  0.00     0.002 A 
ATOM     98  C   UNL A   1      46.561  26.293  26.472  1.00  0.00     0.091 A 
ATOM     99  F   UNL A   1      44.223  26.363  26.949  1.00  0.00    -0.205 F 
ATOM    100  C   UNL A   1      47.808  26.939  26.448  1.00  0.00     0.022 A 
BRANCH  98 101
ATOM    101  S   UNL A   1      46.525  24.562  26.003  1.00  0.00     0.127 S 
ATOM    102  O   UNL A   1      45.930  24.619  24.670  1.00  0.00    -0.237 OA
ATOM    103  O   UNL A   1      47.945  24.203  26.023  1.00  0.00    -0.237 OA
ATOM    104  O   UNL A   1      45.724  23.886  27.016  1.00  0.00    -0.744 OA
ENDBRANCH  98 101
ENDBRANCH  71  94
ENDBRANCH  45  46
ENDBRANCH  37  40
ENDBRANCH  35  36
ENDBRANCH  34  35
ENDBRANCH  33  34
ENDBRANCH   1  33
TORSDOF 21
ENDMDL
