MODEL 1
REMARK VINA RESULT:     -11.9      0.000      0.000
REMARK SMILES O=C(NCCCCCCNC(=O)c1ccc(-c2c3nc(c(-c4cccc(S(=O)(=O)[O-])c4F)c4ccc([nH]4)c(-c4cccc(S(=O)(=O)[O-])c4F)c4nc(c(-c5cccc(S(=O)(=O)[O-])c5F)c5ccc2[nH]5)C=C4)C=C3)cc1)C1=Cc2cc(Cl)cc(Cl)c2O[C@@H]1C(F)(F)F
REMARK SMILES IDX 7 1 6 2 5 3 4 4 3 5 1 6 2 7 76 9 77 10 87 11 78 12 86 13
REMARK SMILES IDX 79 14 85 15 80 16 83 17 81 18 82 19 84 20 88 21 89 22 90 23
REMARK SMILES IDX 91 24 8 25 9 26 10 27 11 28 12 30 13 31 14 32 75 33 15 34
REMARK SMILES IDX 74 35 16 36 17 37 18 38 68 39 19 40 73 41 67 42 69 43 20 44
REMARK SMILES IDX 72 45 66 46 65 47 21 49 53 50 33 51 52 52 34 53 37 54 51 55
REMARK SMILES IDX 70 56 35 57 36 58 50 60 71 61 38 62 22 63 23 64 31 65 24 66
REMARK SMILES IDX 26 67 32 68 25 69 27 70 28 71 29 72 30 73 54 74 55 75 63 76
REMARK SMILES IDX 56 77 58 78 64 79 57 80 59 81 60 82 61 83 62 84 39 85 40 86
REMARK SMILES IDX 48 87 41 88 43 89 49 90 42 91 44 92 45 93 46 94 47 95
REMARK H PARENT 3 8 10 29 69 48 37 59
REMARK Flexibility Score: inf
ROOT
ATOM      1  C   UNL A   1      34.790  21.459  26.493  1.00  0.00     0.002 C 
ENDROOT
BRANCH   1   2
ATOM      2  C   UNL A   1      34.179  22.738  27.080  1.00  0.00     0.002 C 
BRANCH   2   3
ATOM      3  C   UNL A   1      32.749  22.633  27.604  1.00  0.00     0.021 C 
BRANCH   3   4
ATOM      4  C   UNL A   1      31.644  22.741  26.558  1.00  0.00     0.116 C 
BRANCH   4   5
ATOM      5  N   UNL A   1      30.617  23.730  26.839  1.00  0.00    -0.352 N 
ATOM      6  O   UNL A   1      29.304  25.515  26.477  1.00  0.00    -0.270 OA
ATOM      7  C   UNL A   1      30.332  24.901  26.193  1.00  0.00     0.251 C 
ATOM      8  H   UNL A   1      30.041  23.526  27.610  1.00  0.00     0.163 HD
BRANCH   7   9
ATOM      9  C   UNL A   1      31.178  25.425  25.079  1.00  0.00     0.067 C 
ATOM     10  C   UNL A   1      30.659  25.767  23.886  1.00  0.00     0.025 C 
ATOM     11  C   UNL A   1      32.424  26.124  25.564  1.00  0.00     0.314 C 
ATOM     12  C   UNL A   1      30.678  27.241  23.690  1.00  0.00     0.020 A 
ATOM     13  O   UNL A   1      32.281  27.566  25.499  1.00  0.00    -0.474 OA
ATOM     14  C   UNL A   1      29.730  27.791  22.818  1.00  0.00     0.032 A 
ATOM     15  C   UNL A   1      31.385  28.067  24.582  1.00  0.00     0.146 A 
ATOM     16  C   UNL A   1      29.420  29.147  22.909  1.00  0.00     0.043 A 
ATOM     17  C   UNL A   1      31.079  29.434  24.638  1.00  0.00     0.085 A 
ATOM     18  Cl  UNL A   1      28.101  29.770  21.997  1.00  0.00    -0.084 Cl
ATOM     19  C   UNL A   1      30.084  29.969  23.817  1.00  0.00     0.045 A 
ATOM     20  Cl  UNL A   1      31.806  30.458  25.823  1.00  0.00    -0.080 Cl
BRANCH  11  21
ATOM     21  C   UNL A   1      33.685  25.647  24.827  1.00  0.00     0.429 C 
ATOM     22  F   UNL A   1      33.981  26.451  23.777  1.00  0.00    -0.167 F 
ATOM     23  F   UNL A   1      34.770  25.651  25.639  1.00  0.00    -0.167 F 
ATOM     24  F   UNL A   1      33.557  24.387  24.346  1.00  0.00    -0.167 F 
ENDBRANCH  11  21
ENDBRANCH   7   9
ENDBRANCH   4   5
ENDBRANCH   3   4
ENDBRANCH   2   3
ENDBRANCH   1   2
BRANCH   1  25
ATOM     25  C   UNL A   1      35.251  21.517  25.032  1.00  0.00     0.021 C 
BRANCH  25  26
ATOM     26  C   UNL A   1      36.733  21.803  24.800  1.00  0.00     0.116 C 
BRANCH  26  27
ATOM     27  N   UNL A   1      37.589  20.702  25.207  1.00  0.00    -0.352 N 
ATOM     28  C   UNL A   1      38.836  20.711  25.782  1.00  0.00     0.251 C 
ATOM     29  H   UNL A   1      37.215  19.806  25.044  1.00  0.00     0.163 HD
ATOM     30  O   UNL A   1      39.445  19.651  25.909  1.00  0.00    -0.269 OA
BRANCH  28  31
ATOM     31  C   UNL A   1      39.462  21.976  26.235  1.00  0.00     0.039 A 
ATOM     32  C   UNL A   1      40.524  21.907  27.143  1.00  0.00     0.014 A 
ATOM     33  C   UNL A   1      38.990  23.222  25.816  1.00  0.00     0.014 A 
ATOM     34  C   UNL A   1      41.140  23.080  27.590  1.00  0.00     0.010 A 
ATOM     35  C   UNL A   1      39.650  24.387  26.206  1.00  0.00     0.010 A 
ATOM     36  C   UNL A   1      40.726  24.331  27.106  1.00  0.00    -0.014 A 
BRANCH  36  37
ATOM     37  C   UNL A   1      41.409  25.582  27.528  1.00  0.00     0.031 A 
ATOM     38  C   UNL A   1      40.659  26.641  28.294  1.00  0.00     0.074 A 
ATOM     39  C   UNL A   1      42.688  25.800  27.162  1.00  0.00     0.049 A 
ATOM     40  N   UNL A   1      41.073  27.814  28.701  1.00  0.00    -0.248 NA
ATOM     41  C   UNL A   1      39.254  26.355  28.626  1.00  0.00     0.031 C 
ATOM     42  C   UNL A   1      43.502  24.888  26.355  1.00  0.00     0.029 A 
ATOM     43  N   UNL A   1      43.520  26.866  27.397  1.00  0.00    -0.354 N 
ATOM     44  C   UNL A   1      39.978  28.415  29.311  1.00  0.00     0.074 A 
ATOM     45  C   UNL A   1      38.869  27.494  29.185  1.00  0.00     0.031 C 
ATOM     46  C   UNL A   1      44.711  25.436  26.157  1.00  0.00     0.029 A 
ATOM     47  C   UNL A   1      44.752  26.747  26.796  1.00  0.00     0.049 A 
ATOM     48  H   UNL A   1      43.261  27.643  27.943  1.00  0.00     0.167 HD
ATOM     49  C   UNL A   1      39.907  29.610  29.947  1.00  0.00     0.034 A 
ATOM     50  C   UNL A   1      45.793  27.602  26.751  1.00  0.00     0.034 A 
ATOM     51  C   UNL A   1      41.018  30.510  30.099  1.00  0.00     0.049 A 
ATOM     52  C   UNL A   1      45.700  28.909  27.490  1.00  0.00     0.074 A 
ATOM     53  C   UNL A   1      41.065  31.712  30.784  1.00  0.00     0.029 A 
ATOM     54  N   UNL A   1      42.277  30.312  29.553  1.00  0.00    -0.354 N 
ATOM     55  N   UNL A   1      44.700  29.393  28.188  1.00  0.00    -0.248 NA
ATOM     56  C   UNL A   1      46.890  29.771  27.472  1.00  0.00     0.031 C 
ATOM     57  C   UNL A   1      42.346  32.252  30.633  1.00  0.00     0.029 A 
ATOM     58  C   UNL A   1      43.107  31.371  29.881  1.00  0.00     0.049 A 
ATOM     59  H   UNL A   1      42.543  29.534  29.012  1.00  0.00     0.167 HD
ATOM     60  C   UNL A   1      45.152  30.596  28.718  1.00  0.00     0.074 A 
ATOM     61  C   UNL A   1      46.523  30.755  28.281  1.00  0.00     0.031 C 
ATOM     62  C   UNL A   1      44.486  31.494  29.485  1.00  0.00     0.034 A 
BRANCH  49  63
ATOM     63  C   UNL A   1      38.591  29.987  30.581  1.00  0.00     0.023 A 
ATOM     64  C   UNL A   1      38.303  29.551  31.891  1.00  0.00     0.012 A 
ATOM     65  C   UNL A   1      37.671  30.818  29.913  1.00  0.00     0.148 A 
ATOM     66  C   UNL A   1      37.106  29.905  32.512  1.00  0.00     0.002 A 
ATOM     67  C   UNL A   1      36.500  31.205  30.556  1.00  0.00     0.091 A 
ATOM     68  F   UNL A   1      37.953  31.211  28.662  1.00  0.00    -0.205 F 
ATOM     69  C   UNL A   1      36.210  30.739  31.849  1.00  0.00     0.022 A 
BRANCH  67  70
ATOM     70  S   UNL A   1      35.316  32.339  29.822  1.00  0.00     0.127 S 
ATOM     71  O   UNL A   1      36.181  33.446  29.415  1.00  0.00    -0.237 OA
ATOM     72  O   UNL A   1      34.779  31.548  28.714  1.00  0.00    -0.237 OA
ATOM     73  O   UNL A   1      34.354  32.650  30.869  1.00  0.00    -0.744 OA
ENDBRANCH  67  70
ENDBRANCH  49  63
BRANCH  50  74
ATOM     74  C   UNL A   1      47.033  27.225  26.014  1.00  0.00     0.023 A 
ATOM     75  C   UNL A   1      47.159  27.548  24.649  1.00  0.00     0.012 A 
ATOM     76  C   UNL A   1      48.097  26.571  26.666  1.00  0.00     0.148 A 
ATOM     77  C   UNL A   1      48.305  27.194  23.937  1.00  0.00     0.002 A 
ATOM     78  C   UNL A   1      49.260  26.275  25.965  1.00  0.00     0.091 A 
ATOM     79  F   UNL A   1      47.955  26.262  27.962  1.00  0.00    -0.205 F 
ATOM     80  C   UNL A   1      49.359  26.568  24.597  1.00  0.00     0.022 A 
BRANCH  78  81
ATOM     81  S   UNL A   1      50.717  25.595  26.767  1.00  0.00     0.127 S 
ATOM     82  O   UNL A   1      51.600  25.356  25.630  1.00  0.00    -0.237 OA
ATOM     83  O   UNL A   1      51.121  26.694  27.644  1.00  0.00    -0.237 OA
ATOM     84  O   UNL A   1      50.256  24.406  27.474  1.00  0.00    -0.744 OA
ENDBRANCH  78  81
ENDBRANCH  50  74
BRANCH  62  85
ATOM     85  C   UNL A   1      45.238  32.719  29.939  1.00  0.00     0.023 A 
ATOM     86  C   UNL A   1      46.001  32.676  31.123  1.00  0.00     0.012 A 
ATOM     87  C   UNL A   1      45.245  33.888  29.154  1.00  0.00     0.148 A 
ATOM     88  C   UNL A   1      46.732  33.789  31.536  1.00  0.00     0.002 A 
ATOM     89  C   UNL A   1      46.015  34.976  29.545  1.00  0.00     0.091 A 
ATOM     90  F   UNL A   1      44.498  33.916  28.040  1.00  0.00    -0.205 F 
ATOM     91  C   UNL A   1      46.749  34.933  30.741  1.00  0.00     0.022 A 
BRANCH  89  92
ATOM     92  S   UNL A   1      46.175  36.455  28.538  1.00  0.00     0.127 S 
ATOM     93  O   UNL A   1      44.804  36.961  28.531  1.00  0.00    -0.237 OA
ATOM     94  O   UNL A   1      47.118  37.260  29.317  1.00  0.00    -0.237 OA
ATOM     95  O   UNL A   1      46.683  36.011  27.246  1.00  0.00    -0.744 OA
ENDBRANCH  89  92
ENDBRANCH  62  85
ENDBRANCH  36  37
ENDBRANCH  28  31
ENDBRANCH  26  27
ENDBRANCH  25  26
ENDBRANCH   1  25
TORSDOF 17
ENDMDL
MODEL 2
REMARK VINA RESULT:     -11.7      5.090      7.995
REMARK SMILES O=C(NCCCCCCNC(=O)c1ccc(-c2c3nc(c(-c4cccc(S(=O)(=O)[O-])c4F)c4ccc([nH]4)c(-c4cccc(S(=O)(=O)[O-])c4F)c4nc(c(-c5cccc(S(=O)(=O)[O-])c5F)c5ccc2[nH]5)C=C4)C=C3)cc1)C1=Cc2cc(Cl)cc(Cl)c2O[C@@H]1C(F)(F)F
REMARK SMILES IDX 7 1 6 2 5 3 4 4 3 5 1 6 2 7 76 9 77 10 87 11 78 12 86 13
REMARK SMILES IDX 79 14 85 15 80 16 83 17 81 18 82 19 84 20 88 21 89 22 90 23
REMARK SMILES IDX 91 24 8 25 9 26 10 27 11 28 12 30 13 31 14 32 75 33 15 34
REMARK SMILES IDX 74 35 16 36 17 37 18 38 68 39 19 40 73 41 67 42 69 43 20 44
REMARK SMILES IDX 72 45 66 46 65 47 21 49 53 50 33 51 52 52 34 53 37 54 51 55
REMARK SMILES IDX 70 56 35 57 36 58 50 60 71 61 38 62 22 63 23 64 31 65 24 66
REMARK SMILES IDX 26 67 32 68 25 69 27 70 28 71 29 72 30 73 54 74 55 75 63 76
REMARK SMILES IDX 56 77 58 78 64 79 57 80 59 81 60 82 61 83 62 84 39 85 40 86
REMARK SMILES IDX 48 87 41 88 43 89 49 90 42 91 44 92 45 93 46 94 47 95
REMARK H PARENT 3 8 10 29 69 48 37 59
REMARK Flexibility Score: inf
ROOT
ATOM      1  C   UNL A   1      30.654  30.003  24.405  1.00  0.00     0.002 C 
ENDROOT
BRANCH   1   2
ATOM      2  C   UNL A   1      30.182  29.330  23.109  1.00  0.00     0.002 C 
BRANCH   2   3
ATOM      3  C   UNL A   1      31.204  28.460  22.381  1.00  0.00     0.021 C 
BRANCH   3   4
ATOM      4  C   UNL A   1      30.907  26.964  22.349  1.00  0.00     0.116 C 
BRANCH   4   5
ATOM      5  N   UNL A   1      31.974  26.130  21.826  1.00  0.00    -0.352 N 
ATOM      6  O   UNL A   1      33.294  24.322  21.647  1.00  0.00    -0.270 OA
ATOM      7  C   UNL A   1      32.514  24.980  22.334  1.00  0.00     0.251 C 
ATOM      8  H   UNL A   1      32.369  26.438  20.979  1.00  0.00     0.163 HD
BRANCH   7   9
ATOM      9  C   UNL A   1      32.120  24.434  23.667  1.00  0.00     0.067 C 
ATOM     10  C   UNL A   1      31.504  23.246  23.801  1.00  0.00     0.025 C 
ATOM     11  C   UNL A   1      32.990  24.940  24.792  1.00  0.00     0.314 C 
ATOM     12  C   UNL A   1      32.408  22.233  24.409  1.00  0.00     0.020 A 
ATOM     13  O   UNL A   1      33.960  23.941  25.199  1.00  0.00    -0.474 OA
ATOM     14  C   UNL A   1      32.155  20.885  24.125  1.00  0.00     0.032 A 
ATOM     15  C   UNL A   1      33.642  22.623  24.960  1.00  0.00     0.146 A 
ATOM     16  C   UNL A   1      33.169  19.946  24.300  1.00  0.00     0.043 A 
ATOM     17  C   UNL A   1      34.639  21.658  25.157  1.00  0.00     0.085 A 
ATOM     18  Cl  UNL A   1      32.930  18.337  23.742  1.00  0.00    -0.084 Cl
ATOM     19  C   UNL A   1      34.410  20.325  24.809  1.00  0.00     0.045 A 
ATOM     20  Cl  UNL A   1      36.220  22.110  25.683  1.00  0.00    -0.080 Cl
BRANCH  11  21
ATOM     21  C   UNL A   1      32.165  25.448  25.984  1.00  0.00     0.429 C 
ATOM     22  F   UNL A   1      31.929  24.461  26.881  1.00  0.00    -0.167 F 
ATOM     23  F   UNL A   1      32.810  26.437  26.652  1.00  0.00    -0.167 F 
ATOM     24  F   UNL A   1      30.964  25.946  25.607  1.00  0.00    -0.167 F 
ENDBRANCH  11  21
ENDBRANCH   7   9
ENDBRANCH   4   5
ENDBRANCH   3   4
ENDBRANCH   2   3
ENDBRANCH   1   2
BRANCH   1  25
ATOM     25  C   UNL A   1      31.657  29.227  25.265  1.00  0.00     0.021 C 
BRANCH  25  26
ATOM     26  C   UNL A   1      31.947  29.801  26.651  1.00  0.00     0.116 C 
BRANCH  26  27
ATOM     27  N   UNL A   1      32.014  31.252  26.655  1.00  0.00    -0.352 N 
ATOM     28  C   UNL A   1      32.914  32.099  27.255  1.00  0.00     0.251 C 
ATOM     29  H   UNL A   1      31.299  31.700  26.148  1.00  0.00     0.163 HD
ATOM     30  O   UNL A   1      32.693  33.308  27.251  1.00  0.00    -0.269 OA
BRANCH  28  31
ATOM     31  C   UNL A   1      34.133  31.578  27.917  1.00  0.00     0.039 A 
ATOM     32  C   UNL A   1      35.059  32.494  28.426  1.00  0.00     0.014 A 
ATOM     33  C   UNL A   1      34.396  30.209  28.001  1.00  0.00     0.014 A 
ATOM     34  C   UNL A   1      36.219  32.038  29.059  1.00  0.00     0.010 A 
ATOM     35  C   UNL A   1      35.518  29.753  28.695  1.00  0.00     0.010 A 
ATOM     36  C   UNL A   1      36.448  30.663  29.223  1.00  0.00    -0.014 A 
BRANCH  36  37
ATOM     37  C   UNL A   1      37.648  30.164  29.944  1.00  0.00     0.031 A 
ATOM     38  C   UNL A   1      37.967  30.660  31.331  1.00  0.00     0.074 A 
ATOM     39  C   UNL A   1      38.494  29.316  29.326  1.00  0.00     0.049 A 
ATOM     40  N   UNL A   1      38.994  30.378  32.093  1.00  0.00    -0.248 NA
ATOM     41  C   UNL A   1      37.023  31.615  31.932  1.00  0.00     0.031 C 
ATOM     42  C   UNL A   1      38.340  28.820  27.956  1.00  0.00     0.029 A 
ATOM     43  N   UNL A   1      39.664  28.742  29.755  1.00  0.00    -0.354 N 
ATOM     44  C   UNL A   1      38.834  31.136  33.246  1.00  0.00     0.074 A 
ATOM     45  C   UNL A   1      37.632  31.922  33.068  1.00  0.00     0.031 C 
ATOM     46  C   UNL A   1      39.377  28.024  27.656  1.00  0.00     0.029 A 
ATOM     47  C   UNL A   1      40.285  27.973  28.798  1.00  0.00     0.049 A 
ATOM     48  H   UNL A   1      40.026  28.868  30.662  1.00  0.00     0.167 HD
ATOM     49  C   UNL A   1      39.597  31.155  34.366  1.00  0.00     0.034 A 
ATOM     50  C   UNL A   1      41.459  27.312  28.829  1.00  0.00     0.034 A 
ATOM     51  C   UNL A   1      40.773  30.349  34.553  1.00  0.00     0.049 A 
ATOM     52  C   UNL A   1      42.273  27.324  30.094  1.00  0.00     0.074 A 
ATOM     53  C   UNL A   1      41.576  30.246  35.676  1.00  0.00     0.029 A 
ATOM     54  N   UNL A   1      41.321  29.512  33.594  1.00  0.00    -0.354 N 
ATOM     55  N   UNL A   1      42.026  27.933  31.229  1.00  0.00    -0.248 NA
ATOM     56  C   UNL A   1      43.508  26.526  30.100  1.00  0.00     0.031 C 
ATOM     57  C   UNL A   1      42.622  29.363  35.388  1.00  0.00     0.029 A 
ATOM     58  C   UNL A   1      42.453  28.893  34.096  1.00  0.00     0.049 A 
ATOM     59  H   UNL A   1      40.959  29.378  32.688  1.00  0.00     0.167 HD
ATOM     60  C   UNL A   1      43.052  27.566  32.091  1.00  0.00     0.074 A 
ATOM     61  C   UNL A   1      43.911  26.661  31.356  1.00  0.00     0.031 C 
ATOM     62  C   UNL A   1      43.271  27.954  33.372  1.00  0.00     0.034 A 
BRANCH  49  63
ATOM     63  C   UNL A   1      39.148  32.038  35.504  1.00  0.00     0.023 A 
ATOM     64  C   UNL A   1      38.237  31.531  36.455  1.00  0.00     0.012 A 
ATOM     65  C   UNL A   1      39.667  33.336  35.670  1.00  0.00     0.148 A 
ATOM     66  C   UNL A   1      37.823  32.315  37.531  1.00  0.00     0.002 A 
ATOM     67  C   UNL A   1      39.285  34.095  36.771  1.00  0.00     0.091 A 
ATOM     68  F   UNL A   1      40.519  33.808  34.748  1.00  0.00    -0.205 F 
ATOM     69  C   UNL A   1      38.354  33.592  37.694  1.00  0.00     0.022 A 
BRANCH  67  70
ATOM     70  S   UNL A   1      39.968  35.720  37.117  1.00  0.00     0.127 S 
ATOM     71  O   UNL A   1      41.387  35.412  37.294  1.00  0.00    -0.237 OA
ATOM     72  O   UNL A   1      39.654  36.453  35.890  1.00  0.00    -0.237 OA
ATOM     73  O   UNL A   1      39.281  36.201  38.306  1.00  0.00    -0.744 OA
ENDBRANCH  67  70
ENDBRANCH  49  63
BRANCH  50  74
ATOM     74  C   UNL A   1      41.912  26.544  27.634  1.00  0.00     0.023 A 
ATOM     75  C   UNL A   1      42.624  27.200  26.611  1.00  0.00     0.012 A 
ATOM     76  C   UNL A   1      41.662  25.162  27.519  1.00  0.00     0.148 A 
ATOM     77  C   UNL A   1      43.046  26.504  25.479  1.00  0.00     0.002 A 
ATOM     78  C   UNL A   1      42.137  24.462  26.416  1.00  0.00     0.091 A 
ATOM     79  F   UNL A   1      40.973  24.557  28.497  1.00  0.00    -0.205 F 
ATOM     80  C   UNL A   1      42.813  25.134  25.386  1.00  0.00     0.022 A 
BRANCH  78  81
ATOM     81  S   UNL A   1      42.002  22.676  26.282  1.00  0.00     0.127 S 
ATOM     82  O   UNL A   1      42.654  22.422  25.000  1.00  0.00    -0.237 OA
ATOM     83  O   UNL A   1      42.750  22.226  27.456  1.00  0.00    -0.237 OA
ATOM     84  O   UNL A   1      40.574  22.386  26.336  1.00  0.00    -0.744 OA
ENDBRANCH  78  81
ENDBRANCH  50  74
BRANCH  62  85
ATOM     85  C   UNL A   1      44.467  27.376  34.083  1.00  0.00     0.023 A 
ATOM     86  C   UNL A   1      45.702  28.053  34.047  1.00  0.00     0.012 A 
ATOM     87  C   UNL A   1      44.346  26.198  34.847  1.00  0.00     0.148 A 
ATOM     88  C   UNL A   1      46.807  27.549  34.731  1.00  0.00     0.002 A 
ATOM     89  C   UNL A   1      45.438  25.729  35.567  1.00  0.00     0.091 A 
ATOM     90  F   UNL A   1      43.168  25.558  34.854  1.00  0.00    -0.205 F 
ATOM     91  C   UNL A   1      46.672  26.395  35.500  1.00  0.00     0.022 A 
BRANCH  89  92
ATOM     92  S   UNL A   1      45.333  24.307  36.660  1.00  0.00     0.127 S 
ATOM     93  O   UNL A   1      44.479  24.817  37.731  1.00  0.00    -0.237 OA
ATOM     94  O   UNL A   1      44.701  23.303  35.802  1.00  0.00    -0.237 OA
ATOM     95  O   UNL A   1      46.702  23.995  37.048  1.00  0.00    -0.744 OA
ENDBRANCH  89  92
ENDBRANCH  62  85
ENDBRANCH  36  37
ENDBRANCH  28  31
ENDBRANCH  26  27
ENDBRANCH  25  26
ENDBRANCH   1  25
TORSDOF 17
ENDMDL
MODEL 3
REMARK VINA RESULT:     -11.6      2.373      8.019
REMARK SMILES O=C(NCCCCCCNC(=O)c1ccc(-c2c3nc(c(-c4cccc(S(=O)(=O)[O-])c4F)c4ccc([nH]4)c(-c4cccc(S(=O)(=O)[O-])c4F)c4nc(c(-c5cccc(S(=O)(=O)[O-])c5F)c5ccc2[nH]5)C=C4)C=C3)cc1)C1=Cc2cc(Cl)cc(Cl)c2O[C@@H]1C(F)(F)F
REMARK SMILES IDX 7 1 6 2 5 3 4 4 3 5 1 6 2 7 76 9 77 10 87 11 78 12 86 13
REMARK SMILES IDX 79 14 85 15 80 16 83 17 81 18 82 19 84 20 88 21 89 22 90 23
REMARK SMILES IDX 91 24 8 25 9 26 10 27 11 28 12 30 13 31 14 32 75 33 15 34
REMARK SMILES IDX 74 35 16 36 17 37 18 38 68 39 19 40 73 41 67 42 69 43 20 44
REMARK SMILES IDX 72 45 66 46 65 47 21 49 53 50 33 51 52 52 34 53 37 54 51 55
REMARK SMILES IDX 70 56 35 57 36 58 50 60 71 61 38 62 22 63 23 64 31 65 24 66
REMARK SMILES IDX 26 67 32 68 25 69 27 70 28 71 29 72 30 73 54 74 55 75 63 76
REMARK SMILES IDX 56 77 58 78 64 79 57 80 59 81 60 82 61 83 62 84 39 85 40 86
REMARK SMILES IDX 48 87 41 88 43 89 49 90 42 91 44 92 45 93 46 94 47 95
REMARK H PARENT 3 8 10 29 69 48 37 59
REMARK Flexibility Score: inf
ROOT
ATOM      1  C   UNL A   1      35.051  21.693  26.228  1.00  0.00     0.002 C 
ENDROOT
BRANCH   1   2
ATOM      2  C   UNL A   1      34.239  22.758  26.976  1.00  0.00     0.002 C 
BRANCH   2   3
ATOM      3  C   UNL A   1      32.835  22.357  27.422  1.00  0.00     0.021 C 
BRANCH   3   4
ATOM      4  C   UNL A   1      31.709  22.656  26.437  1.00  0.00     0.116 C 
BRANCH   4   5
ATOM      5  N   UNL A   1      30.784  23.698  26.849  1.00  0.00    -0.352 N 
ATOM      6  O   UNL A   1      29.583  25.588  26.684  1.00  0.00    -0.270 OA
ATOM      7  C   UNL A   1      30.538  24.921  26.287  1.00  0.00     0.251 C 
ATOM      8  H   UNL A   1      30.255  23.492  27.653  1.00  0.00     0.163 HD
BRANCH   7   9
ATOM      9  C   UNL A   1      31.332  25.445  25.136  1.00  0.00     0.067 C 
ATOM     10  C   UNL A   1      30.766  25.746  23.954  1.00  0.00     0.025 C 
ATOM     11  C   UNL A   1      32.572  26.191  25.567  1.00  0.00     0.314 C 
ATOM     12  C   UNL A   1      30.735  27.216  23.727  1.00  0.00     0.020 A 
ATOM     13  O   UNL A   1      32.384  27.626  25.477  1.00  0.00    -0.474 OA
ATOM     14  C   UNL A   1      29.743  27.719  22.875  1.00  0.00     0.032 A 
ATOM     15  C   UNL A   1      31.444  28.081  24.579  1.00  0.00     0.146 A 
ATOM     16  C   UNL A   1      29.396  29.067  22.949  1.00  0.00     0.043 A 
ATOM     17  C   UNL A   1      31.100  29.439  24.617  1.00  0.00     0.085 A 
ATOM     18  Cl  UNL A   1      28.032  29.632  22.067  1.00  0.00    -0.084 Cl
ATOM     19  C   UNL A   1      30.064  29.927  23.817  1.00  0.00     0.045 A 
ATOM     20  Cl  UNL A   1      31.832  30.509  25.757  1.00  0.00    -0.080 Cl
BRANCH  11  21
ATOM     21  C   UNL A   1      33.822  25.734  24.799  1.00  0.00     0.429 C 
ATOM     22  F   UNL A   1      34.898  25.638  25.617  1.00  0.00    -0.167 F 
ATOM     23  F   UNL A   1      33.646  24.512  24.240  1.00  0.00    -0.167 F 
ATOM     24  F   UNL A   1      34.153  26.583  23.797  1.00  0.00    -0.167 F 
ENDBRANCH  11  21
ENDBRANCH   7   9
ENDBRANCH   4   5
ENDBRANCH   3   4
ENDBRANCH   2   3
ENDBRANCH   1   2
BRANCH   1  25
ATOM     25  C   UNL A   1      36.073  22.193  25.201  1.00  0.00     0.021 C 
BRANCH  25  26
ATOM     26  C   UNL A   1      37.276  22.953  25.757  1.00  0.00     0.116 C 
BRANCH  26  27
ATOM     27  N   UNL A   1      38.415  22.089  26.020  1.00  0.00    -0.352 N 
ATOM     28  C   UNL A   1      39.674  22.393  26.475  1.00  0.00     0.251 C 
ATOM     29  H   UNL A   1      38.258  21.134  25.842  1.00  0.00     0.163 HD
ATOM     30  O   UNL A   1      40.535  21.516  26.484  1.00  0.00    -0.269 OA
BRANCH  28  31
ATOM     31  C   UNL A   1      40.013  23.760  26.938  1.00  0.00     0.039 A 
ATOM     32  C   UNL A   1      40.303  23.953  28.292  1.00  0.00     0.014 A 
ATOM     33  C   UNL A   1      40.005  24.854  26.069  1.00  0.00     0.014 A 
ATOM     34  C   UNL A   1      40.628  25.228  28.763  1.00  0.00     0.010 A 
ATOM     35  C   UNL A   1      40.400  26.112  26.524  1.00  0.00     0.010 A 
ATOM     36  C   UNL A   1      40.706  26.316  27.879  1.00  0.00    -0.014 A 
BRANCH  36  37
ATOM     37  C   UNL A   1      41.108  27.666  28.355  1.00  0.00     0.031 A 
ATOM     38  C   UNL A   1      42.565  28.022  28.501  1.00  0.00     0.074 A 
ATOM     39  C   UNL A   1      40.161  28.552  28.725  1.00  0.00     0.049 A 
ATOM     40  N   UNL A   1      43.103  29.129  28.949  1.00  0.00    -0.248 NA
ATOM     41  C   UNL A   1      43.545  26.994  28.118  1.00  0.00     0.031 C 
ATOM     42  C   UNL A   1      38.718  28.303  28.704  1.00  0.00     0.029 A 
ATOM     43  N   UNL A   1      40.269  29.829  29.215  1.00  0.00    -0.354 N 
ATOM     44  C   UNL A   1      44.477  28.922  28.926  1.00  0.00     0.074 A 
ATOM     45  C   UNL A   1      44.690  27.569  28.459  1.00  0.00     0.031 C 
ATOM     46  C   UNL A   1      38.077  29.388  29.165  1.00  0.00     0.029 A 
ATOM     47  C   UNL A   1      39.060  30.398  29.542  1.00  0.00     0.049 A 
ATOM     48  H   UNL A   1      41.130  30.295  29.323  1.00  0.00     0.167 HD
ATOM     49  C   UNL A   1      45.473  29.787  29.233  1.00  0.00     0.034 A 
ATOM     50  C   UNL A   1      38.773  31.593  30.097  1.00  0.00     0.034 A 
ATOM     51  C   UNL A   1      45.260  31.142  29.666  1.00  0.00     0.049 A 
ATOM     52  C   UNL A   1      39.896  32.548  30.401  1.00  0.00     0.074 A 
ATOM     53  C   UNL A   1      46.204  32.118  29.937  1.00  0.00     0.029 A 
ATOM     54  N   UNL A   1      44.019  31.713  29.899  1.00  0.00    -0.354 N 
ATOM     55  N   UNL A   1      41.187  32.385  30.232  1.00  0.00    -0.248 NA
ATOM     56  C   UNL A   1      39.524  33.866  30.934  1.00  0.00     0.031 C 
ATOM     57  C   UNL A   1      45.533  33.272  30.355  1.00  0.00     0.029 A 
ATOM     58  C   UNL A   1      44.170  33.025  30.315  1.00  0.00     0.049 A 
ATOM     59  H   UNL A   1      43.155  31.253  29.787  1.00  0.00     0.167 HD
ATOM     60  C   UNL A   1      41.775  33.587  30.604  1.00  0.00     0.074 A 
ATOM     61  C   UNL A   1      40.699  34.478  30.984  1.00  0.00     0.031 C 
ATOM     62  C   UNL A   1      43.090  33.919  30.641  1.00  0.00     0.034 A 
BRANCH  49  63
ATOM     63  C   UNL A   1      46.893  29.311  29.054  1.00  0.00     0.023 A 
ATOM     64  C   UNL A   1      47.612  28.842  30.174  1.00  0.00     0.012 A 
ATOM     65  C   UNL A   1      47.494  29.266  27.781  1.00  0.00     0.148 A 
ATOM     66  C   UNL A   1      48.918  28.373  30.035  1.00  0.00     0.002 A 
ATOM     67  C   UNL A   1      48.779  28.753  27.644  1.00  0.00     0.091 A 
ATOM     68  F   UNL A   1      46.802  29.730  26.730  1.00  0.00    -0.205 F 
ATOM     69  C   UNL A   1      49.497  28.319  28.770  1.00  0.00     0.022 A 
BRANCH  67  70
ATOM     70  S   UNL A   1      49.587  28.567  26.050  1.00  0.00     0.127 S 
ATOM     71  O   UNL A   1      48.444  28.349  25.164  1.00  0.00    -0.237 OA
ATOM     72  O   UNL A   1      50.245  29.863  25.886  1.00  0.00    -0.237 OA
ATOM     73  O   UNL A   1      50.495  27.437  26.189  1.00  0.00    -0.744 OA
ENDBRANCH  67  70
ENDBRANCH  49  63
BRANCH  50  74
ATOM     74  C   UNL A   1      37.355  31.971  30.357  1.00  0.00     0.023 A 
ATOM     75  C   UNL A   1      36.782  31.705  31.616  1.00  0.00     0.012 A 
ATOM     76  C   UNL A   1      36.580  32.614  29.372  1.00  0.00     0.148 A 
ATOM     77  C   UNL A   1      35.453  32.039  31.877  1.00  0.00     0.002 A 
ATOM     78  C   UNL A   1      35.275  32.998  29.658  1.00  0.00     0.091 A 
ATOM     79  F   UNL A   1      37.139  32.848  28.176  1.00  0.00    -0.205 F 
ATOM     80  C   UNL A   1      34.704  32.694  30.903  1.00  0.00     0.022 A 
BRANCH  78  81
ATOM     81  S   UNL A   1      34.286  33.966  28.514  1.00  0.00     0.127 S 
ATOM     82  O   UNL A   1      34.127  33.039  27.397  1.00  0.00    -0.237 OA
ATOM     83  O   UNL A   1      33.072  34.209  29.293  1.00  0.00    -0.237 OA
ATOM     84  O   UNL A   1      35.069  35.165  28.238  1.00  0.00    -0.744 OA
ENDBRANCH  78  81
ENDBRANCH  50  74
BRANCH  62  85
ATOM     85  C   UNL A   1      43.446  35.318  31.073  1.00  0.00     0.023 A 
ATOM     86  C   UNL A   1      43.722  36.304  30.104  1.00  0.00     0.012 A 
ATOM     87  C   UNL A   1      43.435  35.672  32.437  1.00  0.00     0.148 A 
ATOM     88  C   UNL A   1      44.016  37.612  30.488  1.00  0.00     0.002 A 
ATOM     89  C   UNL A   1      43.679  36.988  32.808  1.00  0.00     0.091 A 
ATOM     90  F   UNL A   1      43.187  34.716  33.344  1.00  0.00    -0.205 F 
ATOM     91  C   UNL A   1      43.982  37.956  31.838  1.00  0.00     0.022 A 
BRANCH  89  92
ATOM     92  S   UNL A   1      43.562  37.545  34.512  1.00  0.00     0.127 S 
ATOM     93  O   UNL A   1      44.211  38.853  34.444  1.00  0.00    -0.237 OA
ATOM     94  O   UNL A   1      42.115  37.594  34.724  1.00  0.00    -0.237 OA
ATOM     95  O   UNL A   1      44.257  36.545  35.312  1.00  0.00    -0.744 OA
ENDBRANCH  89  92
ENDBRANCH  62  85
ENDBRANCH  36  37
ENDBRANCH  28  31
ENDBRANCH  26  27
ENDBRANCH  25  26
ENDBRANCH   1  25
TORSDOF 17
ENDMDL
