MODEL 1
REMARK VINA RESULT:     -13.3      0.000      0.000
REMARK SMILES Cc1ccc(C(=O)NC2(CC(=O)NCCCCCCNC(=O)c3ccc(-c4c5nc(c(-c6cccc(S(=O)(=O)[O-])c6F)c6ccc([nH]6)c(-c6cccc(S(=O)(=O)[O-])c6F)c6nc(c(-c7cccc(S(=O)(=O)[O-])c7F)c7ccc4[nH]7)C=C6)C=C5)cc3)CCC2)cc1
REMARK SMILES IDX 16 1 15 2 14 3 13 4 11 5 12 6 10 8 9 9 86 10 88 11 87 12
REMARK SMILES IDX 8 13 6 14 7 15 5 17 1 18 2 19 3 20 90 21 4 22 89 23 17 24
REMARK SMILES IDX 18 25 19 26 20 27 21 28 22 30 23 31 24 32 85 33 25 34 84 35
REMARK SMILES IDX 26 36 27 37 28 38 78 39 29 40 83 41 77 42 79 43 30 44 82 45
REMARK SMILES IDX 76 46 75 47 31 49 63 50 43 51 62 52 44 53 47 54 61 55 80 56
REMARK SMILES IDX 45 57 46 58 60 60 81 61 48 62 32 63 33 64 41 65 34 66 36 67
REMARK SMILES IDX 42 68 35 69 37 70 38 71 39 72 40 73 64 74 65 75 73 76 66 77
REMARK SMILES IDX 68 78 74 79 67 80 69 81 70 82 71 83 72 84 49 85 50 86 58 87
REMARK SMILES IDX 51 88 53 89 59 90 52 91 54 92 55 93 56 94 57 95
REMARK H PARENT 13 7 8 16 20 29 79 48 47 59
REMARK Flexibility Score: inf
ROOT
ATOM      1  C   UNL A   1      34.840  21.039  24.644  1.00  0.00     0.002 C 
ENDROOT
BRANCH   1   2
ATOM      2  C   UNL A   1      33.765  20.652  25.638  1.00  0.00     0.021 C 
BRANCH   2   3
ATOM      3  C   UNL A   1      33.882  21.383  26.947  1.00  0.00     0.116 C 
BRANCH   3   4
ATOM      4  N   UNL A   1      32.452  21.962  27.538  1.00  0.00    -0.356 N 
ATOM      5  C   UNL A   1      31.031  23.222  26.998  1.00  0.00     0.222 C 
ATOM      6  O   UNL A   1      29.834  23.331  27.380  1.00  0.00    -0.275 OA
ATOM      7  H   UNL A   1      32.249  21.561  28.414  1.00  0.00     0.163 HD
BRANCH   5   8
ATOM      8  C   UNL A   1      31.303  24.606  25.725  1.00  0.00     0.128 C 
BRANCH   8   9
ATOM      9  C   UNL A   1      31.175  24.428  24.048  1.00  0.00     0.049 C 
ATOM     10  C   UNL A   1      31.599  23.048  23.436  1.00  0.00     0.029 C 
ATOM     11  C   UNL A   1      32.002  24.991  22.678  1.00  0.00     0.029 C 
ATOM     12  C   UNL A   1      32.820  23.721  22.735  1.00  0.00     0.005 C 
BRANCH   9  13
ATOM     13  N   UNL A   1      29.864  24.977  23.744  1.00  0.00    -0.346 N 
ATOM     14  C   UNL A   1      29.757  26.315  23.993  1.00  0.00     0.251 C 
ATOM     15  O   UNL A   1      28.784  26.982  23.683  1.00  0.00    -0.269 OA
ATOM     16  H   UNL A   1      29.123  24.435  23.390  1.00  0.00     0.164 HD
BRANCH  14  17
ATOM     17  C   UNL A   1      30.853  26.824  24.886  1.00  0.00     0.039 A 
ATOM     18  C   UNL A   1      34.316  29.851  26.983  1.00  0.00     0.044 C 
ATOM     19  C   UNL A   1      33.016  29.314  26.430  1.00  0.00    -0.051 A 
ATOM     20  C   UNL A   1      32.921  29.178  24.631  1.00  0.00     0.004 A 
ATOM     21  C   UNL A   1      31.997  28.300  27.512  1.00  0.00     0.004 A 
ATOM     22  C   UNL A   1      31.855  27.951  23.870  1.00  0.00     0.014 A 
ATOM     23  C   UNL A   1      30.920  27.013  26.778  1.00  0.00     0.014 A 
ENDBRANCH  14  17
ENDBRANCH   9  13
ENDBRANCH   8   9
ENDBRANCH   5   8
ENDBRANCH   3   4
ENDBRANCH   2   3
ENDBRANCH   1   2
BRANCH   1  24
ATOM     24  C   UNL A   1      36.296  20.813  25.092  1.00  0.00     0.002 C 
BRANCH  24  25
ATOM     25  C   UNL A   1      37.046  21.969  25.772  1.00  0.00     0.021 C 
BRANCH  25  26
ATOM     26  C   UNL A   1      38.495  22.041  25.401  1.00  0.00     0.116 C 
BRANCH  26  27
ATOM     27  N   UNL A   1      39.315  22.084  26.577  1.00  0.00    -0.352 N 
ATOM     28  C   UNL A   1      40.185  23.108  26.883  1.00  0.00     0.251 C 
ATOM     29  H   UNL A   1      39.252  21.332  27.208  1.00  0.00     0.163 HD
ATOM     30  O   UNL A   1      41.302  22.850  27.308  1.00  0.00    -0.269 OA
BRANCH  28  31
ATOM     31  C   UNL A   1      39.615  24.490  26.900  1.00  0.00     0.039 A 
ATOM     32  C   UNL A   1      40.438  25.404  26.236  1.00  0.00     0.014 A 
ATOM     33  C   UNL A   1      38.877  24.898  28.007  1.00  0.00     0.014 A 
ATOM     34  C   UNL A   1      40.829  26.549  26.903  1.00  0.00     0.010 A 
ATOM     35  C   UNL A   1      39.384  25.925  28.754  1.00  0.00     0.010 A 
ATOM     36  C   UNL A   1      40.407  26.706  28.213  1.00  0.00    -0.014 A 
BRANCH  36  37
ATOM     37  C   UNL A   1      40.693  27.862  29.019  1.00  0.00     0.031 A 
ATOM     38  C   UNL A   1      39.720  28.954  28.833  1.00  0.00     0.074 A 
ATOM     39  C   UNL A   1      41.564  27.701  30.038  1.00  0.00     0.049 A 
ATOM     40  N   UNL A   1      39.858  30.136  29.296  1.00  0.00    -0.248 NA
ATOM     41  C   UNL A   1      38.494  28.800  28.036  1.00  0.00     0.031 C 
ATOM     42  C   UNL A   1      41.619  28.408  31.308  1.00  0.00     0.029 A 
ATOM     43  N   UNL A   1      42.680  26.875  30.084  1.00  0.00    -0.354 N 
ATOM     44  C   UNL A   1      38.634  30.768  29.164  1.00  0.00     0.074 A 
ATOM     45  C   UNL A   1      37.880  29.964  28.247  1.00  0.00     0.031 C 
ATOM     46  C   UNL A   1      42.808  28.174  31.895  1.00  0.00     0.029 A 
ATOM     47  C   UNL A   1      43.631  27.439  30.944  1.00  0.00     0.049 A 
ATOM     48  H   UNL A   1      42.787  26.029  29.591  1.00  0.00     0.167 HD
ATOM     49  C   UNL A   1      38.367  31.797  30.010  1.00  0.00     0.034 A 
ATOM     50  C   UNL A   1      44.811  27.916  30.428  1.00  0.00     0.034 A 
ATOM     51  C   UNL A   1      39.560  32.037  30.838  1.00  0.00     0.049 A 
ATOM     52  C   UNL A   1      44.836  29.436  30.392  1.00  0.00     0.074 A 
ATOM     53  C   UNL A   1      39.927  31.561  32.087  1.00  0.00     0.029 A 
ATOM     54  N   UNL A   1      40.726  32.478  30.224  1.00  0.00    -0.354 N 
ATOM     55  N   UNL A   1      43.769  30.179  30.517  1.00  0.00    -0.248 NA
ATOM     56  C   UNL A   1      46.053  30.238  30.285  1.00  0.00     0.031 C 
ATOM     57  C   UNL A   1      41.347  31.622  32.169  1.00  0.00     0.029 A 
ATOM     58  C   UNL A   1      41.837  32.157  30.989  1.00  0.00     0.049 A 
ATOM     59  H   UNL A   1      40.759  32.953  29.362  1.00  0.00     0.167 HD
ATOM     60  C   UNL A   1      44.104  31.501  30.472  1.00  0.00     0.074 A 
ATOM     61  C   UNL A   1      45.554  31.486  30.357  1.00  0.00     0.031 C 
ATOM     62  C   UNL A   1      43.174  32.503  30.517  1.00  0.00     0.034 A 
BRANCH  49  63
ATOM     63  C   UNL A   1      37.015  32.414  30.330  1.00  0.00     0.023 A 
ATOM     64  C   UNL A   1      36.561  32.227  31.656  1.00  0.00     0.012 A 
ATOM     65  C   UNL A   1      36.132  33.113  29.469  1.00  0.00     0.148 A 
ATOM     66  C   UNL A   1      35.306  32.652  32.098  1.00  0.00     0.002 A 
ATOM     67  C   UNL A   1      34.871  33.542  29.911  1.00  0.00     0.091 A 
ATOM     68  F   UNL A   1      36.493  33.397  28.219  1.00  0.00    -0.205 F 
ATOM     69  C   UNL A   1      34.456  33.303  31.224  1.00  0.00     0.022 A 
BRANCH  67  70
ATOM     70  S   UNL A   1      33.688  34.405  28.856  1.00  0.00     0.127 S 
ATOM     71  O   UNL A   1      32.643  34.781  29.811  1.00  0.00    -0.237 OA
ATOM     72  O   UNL A   1      34.478  35.527  28.352  1.00  0.00    -0.237 OA
ATOM     73  O   UNL A   1      33.260  33.448  27.843  1.00  0.00    -0.744 OA
ENDBRANCH  67  70
ENDBRANCH  49  63
BRANCH  50  74
ATOM     74  C   UNL A   1      45.367  26.986  29.389  1.00  0.00     0.023 A 
ATOM     75  C   UNL A   1      45.444  25.623  29.774  1.00  0.00     0.012 A 
ATOM     76  C   UNL A   1      45.274  27.300  28.022  1.00  0.00     0.148 A 
ATOM     77  C   UNL A   1      45.170  24.607  28.856  1.00  0.00     0.002 A 
ATOM     78  C   UNL A   1      45.017  26.278  27.109  1.00  0.00     0.091 A 
ATOM     79  F   UNL A   1      45.360  28.584  27.650  1.00  0.00    -0.205 F 
ATOM     80  C   UNL A   1      44.896  24.944  27.535  1.00  0.00     0.022 A 
BRANCH  78  81
ATOM     81  S   UNL A   1      44.679  26.620  25.377  1.00  0.00     0.127 S 
ATOM     82  O   UNL A   1      44.400  28.052  25.406  1.00  0.00    -0.237 OA
ATOM     83  O   UNL A   1      45.943  26.264  24.738  1.00  0.00    -0.237 OA
ATOM     84  O   UNL A   1      43.558  25.762  25.024  1.00  0.00    -0.744 OA
ENDBRANCH  78  81
ENDBRANCH  50  74
BRANCH  62  85
ATOM     85  C   UNL A   1      43.458  33.937  30.133  1.00  0.00     0.023 A 
ATOM     86  C   UNL A   1      43.684  34.931  31.103  1.00  0.00     0.012 A 
ATOM     87  C   UNL A   1      43.687  34.295  28.780  1.00  0.00     0.148 A 
ATOM     88  C   UNL A   1      44.020  36.238  30.748  1.00  0.00     0.002 A 
ATOM     89  C   UNL A   1      44.166  35.553  28.447  1.00  0.00     0.091 A 
ATOM     90  F   UNL A   1      43.426  33.419  27.798  1.00  0.00    -0.205 F 
ATOM     91  C   UNL A   1      44.285  36.544  29.422  1.00  0.00     0.022 A 
BRANCH  89  92
ATOM     92  S   UNL A   1      44.810  35.900  26.806  1.00  0.00     0.127 S 
ATOM     93  O   UNL A   1      45.203  37.302  26.930  1.00  0.00    -0.237 OA
ATOM     94  O   UNL A   1      45.926  34.957  26.708  1.00  0.00    -0.237 OA
ATOM     95  O   UNL A   1      43.712  35.622  25.890  1.00  0.00    -0.744 OA
ENDBRANCH  89  92
ENDBRANCH  62  85
ENDBRANCH  36  37
ENDBRANCH  28  31
ENDBRANCH  26  27
ENDBRANCH  25  26
ENDBRANCH  24  25
ENDBRANCH   1  24
TORSDOF 19
ENDMDL
MODEL 2
REMARK VINA RESULT:     -13.2      1.281      2.041
REMARK SMILES Cc1ccc(C(=O)NC2(CC(=O)NCCCCCCNC(=O)c3ccc(-c4c5nc(c(-c6cccc(S(=O)(=O)[O-])c6F)c6ccc([nH]6)c(-c6cccc(S(=O)(=O)[O-])c6F)c6nc(c(-c7cccc(S(=O)(=O)[O-])c7F)c7ccc4[nH]7)C=C6)C=C5)cc3)CCC2)cc1
REMARK SMILES IDX 16 1 15 2 14 3 13 4 11 5 12 6 10 8 9 9 86 10 88 11 87 12
REMARK SMILES IDX 8 13 6 14 7 15 5 17 1 18 2 19 3 20 90 21 4 22 89 23 17 24
REMARK SMILES IDX 18 25 19 26 20 27 21 28 22 30 23 31 24 32 85 33 25 34 84 35
REMARK SMILES IDX 26 36 27 37 28 38 78 39 29 40 83 41 77 42 79 43 30 44 82 45
REMARK SMILES IDX 76 46 75 47 31 49 63 50 43 51 62 52 44 53 47 54 61 55 80 56
REMARK SMILES IDX 45 57 46 58 60 60 81 61 48 62 32 63 33 64 41 65 34 66 36 67
REMARK SMILES IDX 42 68 35 69 37 70 38 71 39 72 40 73 64 74 65 75 73 76 66 77
REMARK SMILES IDX 68 78 74 79 67 80 69 81 70 82 71 83 72 84 49 85 50 86 58 87
REMARK SMILES IDX 51 88 53 89 59 90 52 91 54 92 55 93 56 94 57 95
REMARK H PARENT 13 7 8 16 20 29 79 48 47 59
REMARK Flexibility Score: inf
ROOT
ATOM      1  C   UNL A   1      34.965  23.798  24.671  1.00  0.00     0.002 C 
ENDROOT
BRANCH   1   2
ATOM      2  C   UNL A   1      33.725  23.092  25.179  1.00  0.00     0.021 C 
BRANCH   2   3
ATOM      3  C   UNL A   1      33.468  23.333  26.640  1.00  0.00     0.116 C 
BRANCH   3   4
ATOM      4  N   UNL A   1      31.914  23.765  26.999  1.00  0.00    -0.356 N 
ATOM      5  C   UNL A   1      30.557  25.056  26.372  1.00  0.00     0.222 C 
ATOM      6  O   UNL A   1      29.303  25.066  26.506  1.00  0.00    -0.275 OA
ATOM      7  H   UNL A   1      31.563  23.221  27.740  1.00  0.00     0.163 HD
BRANCH   5   8
ATOM      8  C   UNL A   1      30.996  26.636  25.413  1.00  0.00     0.128 C 
BRANCH   8   9
ATOM      9  C   UNL A   1      32.500  26.971  24.718  1.00  0.00     0.049 C 
ATOM     10  C   UNL A   1      33.742  27.014  25.675  1.00  0.00     0.029 C 
ATOM     11  C   UNL A   1      33.288  28.324  24.064  1.00  0.00     0.029 C 
ATOM     12  C   UNL A   1      33.888  28.549  25.434  1.00  0.00     0.005 C 
BRANCH   9  13
ATOM     13  N   UNL A   1      32.530  26.120  23.540  1.00  0.00    -0.346 N 
ATOM     14  C   UNL A   1      31.641  26.490  22.571  1.00  0.00     0.251 C 
ATOM     15  O   UNL A   1      31.605  25.985  21.462  1.00  0.00    -0.269 OA
ATOM     16  H   UNL A   1      33.135  25.350  23.447  1.00  0.00     0.164 HD
BRANCH  14  17
ATOM     17  C   UNL A   1      30.576  27.414  23.090  1.00  0.00     0.039 A 
ATOM     18  C   UNL A   1      27.265  31.220  23.408  1.00  0.00     0.044 C 
ATOM     19  C   UNL A   1      28.042  30.024  22.911  1.00  0.00    -0.051 A 
ATOM     20  C   UNL A   1      29.732  30.353  22.362  1.00  0.00     0.004 A 
ATOM     21  C   UNL A   1      27.530  28.394  23.476  1.00  0.00     0.004 A 
ATOM     22  C   UNL A   1      30.980  29.067  22.450  1.00  0.00     0.014 A 
ATOM     23  C   UNL A   1      28.781  27.062  23.614  1.00  0.00     0.014 A 
ENDBRANCH  14  17
ENDBRANCH   9  13
ENDBRANCH   8   9
ENDBRANCH   5   8
ENDBRANCH   3   4
ENDBRANCH   2   3
ENDBRANCH   1   2
BRANCH   1  24
ATOM     24  C   UNL A   1      36.218  22.923  24.476  1.00  0.00     0.002 C 
BRANCH  24  25
ATOM     25  C   UNL A   1      37.030  22.514  25.713  1.00  0.00     0.021 C 
BRANCH  25  26
ATOM     26  C   UNL A   1      38.412  22.035  25.389  1.00  0.00     0.116 C 
BRANCH  26  27
ATOM     27  N   UNL A   1      39.246  22.077  26.555  1.00  0.00    -0.352 N 
ATOM     28  C   UNL A   1      40.152  23.079  26.829  1.00  0.00     0.251 C 
ATOM     29  H   UNL A   1      39.166  21.341  27.203  1.00  0.00     0.163 HD
ATOM     30  O   UNL A   1      41.265  22.794  27.248  1.00  0.00    -0.269 OA
BRANCH  28  31
ATOM     31  C   UNL A   1      39.627  24.478  26.823  1.00  0.00     0.039 A 
ATOM     32  C   UNL A   1      40.506  25.364  26.194  1.00  0.00     0.014 A 
ATOM     33  C   UNL A   1      38.857  24.911  27.898  1.00  0.00     0.014 A 
ATOM     34  C   UNL A   1      40.905  26.497  26.877  1.00  0.00     0.010 A 
ATOM     35  C   UNL A   1      39.364  25.922  28.665  1.00  0.00     0.010 A 
ATOM     36  C   UNL A   1      40.434  26.669  28.168  1.00  0.00    -0.014 A 
BRANCH  36  37
ATOM     37  C   UNL A   1      40.722  27.816  28.986  1.00  0.00     0.031 A 
ATOM     38  C   UNL A   1      39.749  28.910  28.814  1.00  0.00     0.074 A 
ATOM     39  C   UNL A   1      41.597  27.644  30.000  1.00  0.00     0.049 A 
ATOM     40  N   UNL A   1      39.889  30.087  29.290  1.00  0.00    -0.248 NA
ATOM     41  C   UNL A   1      38.521  28.765  28.020  1.00  0.00     0.031 C 
ATOM     42  C   UNL A   1      41.656  28.338  31.277  1.00  0.00     0.029 A 
ATOM     43  N   UNL A   1      42.713  26.817  30.033  1.00  0.00    -0.354 N 
ATOM     44  C   UNL A   1      38.666  30.721  29.168  1.00  0.00     0.074 A 
ATOM     45  C   UNL A   1      37.908  29.927  28.245  1.00  0.00     0.031 C 
ATOM     46  C   UNL A   1      42.848  28.097  31.858  1.00  0.00     0.029 A 
ATOM     47  C   UNL A   1      43.667  27.372  30.897  1.00  0.00     0.049 A 
ATOM     48  H   UNL A   1      42.818  25.977  29.531  1.00  0.00     0.167 HD
ATOM     49  C   UNL A   1      38.401  31.742  30.026  1.00  0.00     0.034 A 
ATOM     50  C   UNL A   1      44.845  27.854  30.381  1.00  0.00     0.034 A 
ATOM     51  C   UNL A   1      39.597  31.972  30.853  1.00  0.00     0.049 A 
ATOM     52  C   UNL A   1      44.871  29.374  30.361  1.00  0.00     0.074 A 
ATOM     53  C   UNL A   1      39.969  31.482  32.095  1.00  0.00     0.029 A 
ATOM     54  N   UNL A   1      40.762  32.419  30.239  1.00  0.00    -0.354 N 
ATOM     55  N   UNL A   1      43.805  30.116  30.498  1.00  0.00    -0.248 NA
ATOM     56  C   UNL A   1      46.088  30.177  30.259  1.00  0.00     0.031 C 
ATOM     57  C   UNL A   1      41.389  31.543  32.174  1.00  0.00     0.029 A 
ATOM     58  C   UNL A   1      41.875  32.090  30.997  1.00  0.00     0.049 A 
ATOM     59  H   UNL A   1      40.791  32.904  29.382  1.00  0.00     0.167 HD
ATOM     60  C   UNL A   1      44.140  31.439  30.466  1.00  0.00     0.074 A 
ATOM     61  C   UNL A   1      45.590  31.424  30.346  1.00  0.00     0.031 C 
ATOM     62  C   UNL A   1      43.210  32.440  30.525  1.00  0.00     0.034 A 
BRANCH  49  63
ATOM     63  C   UNL A   1      37.051  32.355  30.357  1.00  0.00     0.023 A 
ATOM     64  C   UNL A   1      36.591  32.136  31.676  1.00  0.00     0.012 A 
ATOM     65  C   UNL A   1      36.174  33.080  29.512  1.00  0.00     0.148 A 
ATOM     66  C   UNL A   1      35.336  32.554  32.125  1.00  0.00     0.002 A 
ATOM     67  C   UNL A   1      34.913  33.502  29.960  1.00  0.00     0.091 A 
ATOM     68  F   UNL A   1      36.541  33.395  28.270  1.00  0.00    -0.205 F 
ATOM     69  C   UNL A   1      34.492  33.231  31.264  1.00  0.00     0.022 A 
BRANCH  67  70
ATOM     70  S   UNL A   1      33.736  34.397  28.923  1.00  0.00     0.127 S 
ATOM     71  O   UNL A   1      34.564  35.476  28.381  1.00  0.00    -0.237 OA
ATOM     72  O   UNL A   1      33.349  33.382  27.944  1.00  0.00    -0.237 OA
ATOM     73  O   UNL A   1      32.665  34.845  29.804  1.00  0.00    -0.744 OA
ENDBRANCH  67  70
ENDBRANCH  49  63
BRANCH  50  74
ATOM     74  C   UNL A   1      45.398  26.935  29.331  1.00  0.00     0.023 A 
ATOM     75  C   UNL A   1      45.550  25.582  29.728  1.00  0.00     0.012 A 
ATOM     76  C   UNL A   1      45.234  27.227  27.965  1.00  0.00     0.148 A 
ATOM     77  C   UNL A   1      45.282  24.543  28.833  1.00  0.00     0.002 A 
ATOM     78  C   UNL A   1      44.984  26.183  27.076  1.00  0.00     0.091 A 
ATOM     79  F   UNL A   1      45.249  28.508  27.575  1.00  0.00    -0.205 F 
ATOM     80  C   UNL A   1      44.939  24.850  27.522  1.00  0.00     0.022 A 
BRANCH  78  81
ATOM     81  S   UNL A   1      44.561  26.487  25.356  1.00  0.00     0.127 S 
ATOM     82  O   UNL A   1      45.880  26.594  24.740  1.00  0.00    -0.237 OA
ATOM     83  O   UNL A   1      43.824  25.276  24.999  1.00  0.00    -0.237 OA
ATOM     84  O   UNL A   1      43.762  27.703  25.362  1.00  0.00    -0.744 OA
ENDBRANCH  78  81
ENDBRANCH  50  74
BRANCH  62  85
ATOM     85  C   UNL A   1      43.493  33.878  30.155  1.00  0.00     0.023 A 
ATOM     86  C   UNL A   1      43.846  34.834  31.125  1.00  0.00     0.012 A 
ATOM     87  C   UNL A   1      43.591  34.273  28.797  1.00  0.00     0.148 A 
ATOM     88  C   UNL A   1      44.181  36.143  30.775  1.00  0.00     0.002 A 
ATOM     89  C   UNL A   1      44.068  35.529  28.453  1.00  0.00     0.091 A 
ATOM     90  F   UNL A   1      43.205  33.436  27.823  1.00  0.00    -0.205 F 
ATOM     91  C   UNL A   1      44.316  36.485  29.438  1.00  0.00     0.022 A 
BRANCH  89  92
ATOM     92  S   UNL A   1      44.548  35.912  26.764  1.00  0.00     0.127 S 
ATOM     93  O   UNL A   1      43.268  35.829  26.064  1.00  0.00    -0.237 OA
ATOM     94  O   UNL A   1      45.084  37.268  26.898  1.00  0.00    -0.237 OA
ATOM     95  O   UNL A   1      45.542  34.911  26.403  1.00  0.00    -0.744 OA
ENDBRANCH  89  92
ENDBRANCH  62  85
ENDBRANCH  36  37
ENDBRANCH  28  31
ENDBRANCH  26  27
ENDBRANCH  25  26
ENDBRANCH  24  25
ENDBRANCH   1  24
TORSDOF 19
ENDMDL
MODEL 3
REMARK VINA RESULT:     -13.0      1.163      2.396
REMARK SMILES Cc1ccc(C(=O)NC2(CC(=O)NCCCCCCNC(=O)c3ccc(-c4c5nc(c(-c6cccc(S(=O)(=O)[O-])c6F)c6ccc([nH]6)c(-c6cccc(S(=O)(=O)[O-])c6F)c6nc(c(-c7cccc(S(=O)(=O)[O-])c7F)c7ccc4[nH]7)C=C6)C=C5)cc3)CCC2)cc1
REMARK SMILES IDX 16 1 15 2 14 3 13 4 11 5 12 6 10 8 9 9 86 10 88 11 87 12
REMARK SMILES IDX 8 13 6 14 7 15 5 17 1 18 2 19 3 20 90 21 4 22 89 23 17 24
REMARK SMILES IDX 18 25 19 26 20 27 21 28 22 30 23 31 24 32 85 33 25 34 84 35
REMARK SMILES IDX 26 36 27 37 28 38 78 39 29 40 83 41 77 42 79 43 30 44 82 45
REMARK SMILES IDX 76 46 75 47 31 49 63 50 43 51 62 52 44 53 47 54 61 55 80 56
REMARK SMILES IDX 45 57 46 58 60 60 81 61 48 62 32 63 33 64 41 65 34 66 36 67
REMARK SMILES IDX 42 68 35 69 37 70 38 71 39 72 40 73 64 74 65 75 73 76 66 77
REMARK SMILES IDX 68 78 74 79 67 80 69 81 70 82 71 83 72 84 49 85 50 86 58 87
REMARK SMILES IDX 51 88 53 89 59 90 52 91 54 92 55 93 56 94 57 95
REMARK H PARENT 13 7 8 16 20 29 79 48 47 59
REMARK Flexibility Score: inf
ROOT
ATOM      1  C   UNL A   1      35.431  23.612  24.528  1.00  0.00     0.002 C 
ENDROOT
BRANCH   1   2
ATOM      2  C   UNL A   1      34.805  24.461  25.615  1.00  0.00     0.021 C 
BRANCH   2   3
ATOM      3  C   UNL A   1      34.171  25.718  25.088  1.00  0.00     0.116 C 
BRANCH   3   4
ATOM      4  N   UNL A   1      33.837  26.852  26.243  1.00  0.00    -0.356 N 
ATOM      5  C   UNL A   1      32.420  28.162  26.662  1.00  0.00     0.222 C 
ATOM      6  O   UNL A   1      32.120  28.737  27.744  1.00  0.00    -0.275 OA
ATOM      7  H   UNL A   1      34.553  26.884  26.918  1.00  0.00     0.163 HD
BRANCH   5   8
ATOM      8  C   UNL A   1      31.209  28.830  25.360  1.00  0.00     0.128 C 
BRANCH   8   9
ATOM      9  C   UNL A   1      31.265  28.485  23.705  1.00  0.00     0.049 C 
ATOM     10  C   UNL A   1      32.254  27.361  23.238  1.00  0.00     0.029 C 
ATOM     11  C   UNL A   1      31.867  29.231  22.305  1.00  0.00     0.029 C 
ATOM     12  C   UNL A   1      33.130  28.423  22.501  1.00  0.00     0.005 C 
BRANCH   9  13
ATOM     13  N   UNL A   1      29.865  28.415  23.322  1.00  0.00    -0.346 N 
ATOM     14  C   UNL A   1      29.259  27.240  23.665  1.00  0.00     0.251 C 
ATOM     15  O   UNL A   1      28.061  27.041  23.546  1.00  0.00    -0.269 OA
ATOM     16  H   UNL A   1      29.396  29.146  22.861  1.00  0.00     0.164 HD
BRANCH  14  17
ATOM     17  C   UNL A   1      30.247  26.153  23.981  1.00  0.00     0.039 A 
ATOM     18  C   UNL A   1      32.358  22.028  25.997  1.00  0.00     0.044 C 
ATOM     19  C   UNL A   1      31.388  22.962  25.314  1.00  0.00    -0.051 A 
ATOM     20  C   UNL A   1      30.553  24.154  26.387  1.00  0.00     0.004 A 
ATOM     21  C   UNL A   1      31.607  23.263  23.554  1.00  0.00     0.004 A 
ATOM     22  C   UNL A   1      29.991  25.725  25.729  1.00  0.00     0.014 A 
ATOM     23  C   UNL A   1      31.078  24.869  22.849  1.00  0.00     0.014 A 
ENDBRANCH  14  17
ENDBRANCH   9  13
ENDBRANCH   8   9
ENDBRANCH   5   8
ENDBRANCH   3   4
ENDBRANCH   2   3
ENDBRANCH   1   2
BRANCH   1  24
ATOM     24  C   UNL A   1      36.306  22.435  25.000  1.00  0.00     0.002 C 
BRANCH  24  25
ATOM     25  C   UNL A   1      37.513  22.731  25.901  1.00  0.00     0.021 C 
BRANCH  25  26
ATOM     26  C   UNL A   1      38.735  21.941  25.543  1.00  0.00     0.116 C 
BRANCH  26  27
ATOM     27  N   UNL A   1      39.739  22.078  26.558  1.00  0.00    -0.352 N 
ATOM     28  C   UNL A   1      40.561  23.175  26.698  1.00  0.00     0.251 C 
ATOM     29  H   UNL A   1      39.848  21.338  27.197  1.00  0.00     0.163 HD
ATOM     30  O   UNL A   1      41.752  23.017  26.924  1.00  0.00    -0.269 OA
BRANCH  28  31
ATOM     31  C   UNL A   1      39.890  24.506  26.801  1.00  0.00     0.039 A 
ATOM     32  C   UNL A   1      40.596  25.502  26.120  1.00  0.00     0.014 A 
ATOM     33  C   UNL A   1      39.198  24.821  27.966  1.00  0.00     0.014 A 
ATOM     34  C   UNL A   1      40.942  26.653  26.802  1.00  0.00     0.010 A 
ATOM     35  C   UNL A   1      39.673  25.861  28.716  1.00  0.00     0.010 A 
ATOM     36  C   UNL A   1      40.596  26.736  28.140  1.00  0.00    -0.014 A 
BRANCH  36  37
ATOM     37  C   UNL A   1      40.845  27.885  28.968  1.00  0.00     0.031 A 
ATOM     38  C   UNL A   1      39.848  28.955  28.790  1.00  0.00     0.074 A 
ATOM     39  C   UNL A   1      41.710  27.728  29.993  1.00  0.00     0.049 A 
ATOM     40  N   UNL A   1      39.952  30.132  29.274  1.00  0.00    -0.248 NA
ATOM     41  C   UNL A   1      38.634  28.785  27.979  1.00  0.00     0.031 C 
ATOM     42  C   UNL A   1      41.736  28.416  31.275  1.00  0.00     0.029 A 
ATOM     43  N   UNL A   1      42.847  26.929  30.037  1.00  0.00    -0.354 N 
ATOM     44  C   UNL A   1      38.715  30.737  29.140  1.00  0.00     0.074 A 
ATOM     45  C   UNL A   1      37.989  29.930  28.203  1.00  0.00     0.031 C 
ATOM     46  C   UNL A   1      42.925  28.201  31.870  1.00  0.00     0.029 A 
ATOM     47  C   UNL A   1      43.774  27.502  30.916  1.00  0.00     0.049 A 
ATOM     48  H   UNL A   1      42.978  26.095  29.531  1.00  0.00     0.167 HD
ATOM     49  C   UNL A   1      38.414  31.745  30.000  1.00  0.00     0.034 A 
ATOM     50  C   UNL A   1      44.947  28.016  30.419  1.00  0.00     0.034 A 
ATOM     51  C   UNL A   1      39.593  32.000  30.844  1.00  0.00     0.049 A 
ATOM     52  C   UNL A   1      44.936  29.536  30.408  1.00  0.00     0.074 A 
ATOM     53  C   UNL A   1      39.960  31.512  32.088  1.00  0.00     0.029 A 
ATOM     54  N   UNL A   1      40.754  32.479  30.248  1.00  0.00    -0.354 N 
ATOM     55  N   UNL A   1      43.850  30.251  30.535  1.00  0.00    -0.248 NA
ATOM     56  C   UNL A   1      46.134  30.369  30.327  1.00  0.00     0.031 C 
ATOM     57  C   UNL A   1      41.377  31.607  32.186  1.00  0.00     0.029 A 
ATOM     58  C   UNL A   1      41.865  32.174  31.019  1.00  0.00     0.049 A 
ATOM     59  H   UNL A   1      40.783  32.970  29.395  1.00  0.00     0.167 HD
ATOM     60  C   UNL A   1      44.152  31.582  30.515  1.00  0.00     0.074 A 
ATOM     61  C   UNL A   1      45.603  31.604  30.414  1.00  0.00     0.031 C 
ATOM     62  C   UNL A   1      43.197  32.559  30.567  1.00  0.00     0.034 A 
BRANCH  49  63
ATOM     63  C   UNL A   1      37.045  32.323  30.316  1.00  0.00     0.023 A 
ATOM     64  C   UNL A   1      36.542  32.024  31.604  1.00  0.00     0.012 A 
ATOM     65  C   UNL A   1      36.188  33.084  29.482  1.00  0.00     0.148 A 
ATOM     66  C   UNL A   1      35.267  32.402  32.031  1.00  0.00     0.002 A 
ATOM     67  C   UNL A   1      34.907  33.465  29.908  1.00  0.00     0.091 A 
ATOM     68  F   UNL A   1      36.593  33.473  28.274  1.00  0.00    -0.205 F 
ATOM     69  C   UNL A   1      34.444  33.117  31.180  1.00  0.00     0.022 A 
BRANCH  67  70
ATOM     70  S   UNL A   1      33.755  34.403  28.883  1.00  0.00     0.127 S 
ATOM     71  O   UNL A   1      33.369  33.415  27.873  1.00  0.00    -0.237 OA
ATOM     72  O   UNL A   1      32.695  34.742  29.832  1.00  0.00    -0.237 OA
ATOM     73  O   UNL A   1      34.499  35.541  28.357  1.00  0.00    -0.744 OA
ENDBRANCH  67  70
ENDBRANCH  49  63
BRANCH  50  74
ATOM     74  C   UNL A   1      45.536  27.117  29.371  1.00  0.00     0.023 A 
ATOM     75  C   UNL A   1      45.762  25.777  29.777  1.00  0.00     0.012 A 
ATOM     76  C   UNL A   1      45.345  27.388  28.004  1.00  0.00     0.148 A 
ATOM     77  C   UNL A   1      45.539  24.718  28.894  1.00  0.00     0.002 A 
ATOM     78  C   UNL A   1      45.140  26.325  27.126  1.00  0.00     0.091 A 
ATOM     79  F   UNL A   1      45.290  28.665  27.603  1.00  0.00    -0.205 F 
ATOM     80  C   UNL A   1      45.168  24.996  27.584  1.00  0.00     0.022 A 
BRANCH  78  81
ATOM     81  S   UNL A   1      44.685  26.591  25.408  1.00  0.00     0.127 S 
ATOM     82  O   UNL A   1      45.990  26.603  24.754  1.00  0.00    -0.237 OA
ATOM     83  O   UNL A   1      43.873  25.412  25.115  1.00  0.00    -0.237 OA
ATOM     84  O   UNL A   1      43.955  27.850  25.391  1.00  0.00    -0.744 OA
ENDBRANCH  78  81
ENDBRANCH  50  74
BRANCH  62  85
ATOM     85  C   UNL A   1      43.450  34.006  30.209  1.00  0.00     0.023 A 
ATOM     86  C   UNL A   1      43.726  34.973  31.193  1.00  0.00     0.012 A 
ATOM     87  C   UNL A   1      43.597  34.405  28.856  1.00  0.00     0.148 A 
ATOM     88  C   UNL A   1      44.033  36.293  30.858  1.00  0.00     0.002 A 
ATOM     89  C   UNL A   1      44.048  35.676  28.533  1.00  0.00     0.091 A 
ATOM     90  F   UNL A   1      43.284  33.556  27.866  1.00  0.00    -0.205 F 
ATOM     91  C   UNL A   1      44.218  36.639  29.527  1.00  0.00     0.022 A 
BRANCH  89  92
ATOM     92  S   UNL A   1      44.592  36.076  26.868  1.00  0.00     0.127 S 
ATOM     93  O   UNL A   1      43.347  35.965  26.112  1.00  0.00    -0.237 OA
ATOM     94  O   UNL A   1      45.091  37.443  27.028  1.00  0.00    -0.237 OA
ATOM     95  O   UNL A   1      45.624  35.098  26.549  1.00  0.00    -0.744 OA
ENDBRANCH  89  92
ENDBRANCH  62  85
ENDBRANCH  36  37
ENDBRANCH  28  31
ENDBRANCH  26  27
ENDBRANCH  25  26
ENDBRANCH  24  25
ENDBRANCH   1  24
TORSDOF 19
ENDMDL
