MODEL 1
REMARK VINA RESULT:     -10.3      0.000      0.000
REMARK SMILES Cn1cc(SCC[C@H]2CCC[C@]2([NH2+]C2CC2)C(=O)NCCCCCCNC(=O)c2ccc(-c3c4nc(c(-c5cccc(S(=O)(=O)[O-])c5F)c5ccc([nH]5)c(-c5cccc(S(=O)(=O)[O-])c5F)c5nc(c(-c6cccc(S(=O)(=O)[O-])c6F)c6ccc3[nH]6)C=C5)C=C4)cc2)cn1
REMARK SMILES IDX 22 1 21 2 20 3 19 4 17 5 18 6 12 8 8 9 9 10 10 11 11 12 7 13
REMARK SMILES IDX 6 14 5 15 4 16 1 17 2 18 3 19 93 20 92 21 13 22 14 25 15 26
REMARK SMILES IDX 16 27 23 28 24 29 25 30 26 31 27 32 28 34 29 35 30 36 91 37
REMARK SMILES IDX 31 38 90 39 32 40 33 41 34 42 84 43 35 44 89 45 83 46 85 47
REMARK SMILES IDX 36 48 88 49 82 50 81 51 37 53 69 54 49 55 68 56 50 57 53 58
REMARK SMILES IDX 67 59 86 60 51 61 52 62 66 64 87 65 54 66 38 67 39 68 47 69
REMARK SMILES IDX 40 70 42 71 48 72 41 73 43 74 44 75 45 76 46 77 70 78 71 79
REMARK SMILES IDX 79 80 72 81 74 82 80 83 73 84 75 85 76 86 77 87 78 88 55 89
REMARK SMILES IDX 56 90 64 91 57 92 59 93 65 94 58 95 60 96 61 97 62 98 63 99
REMARK H PARENT 19 7 13 23 13 24 26 33 85 52 53 63
REMARK Flexibility Score: inf
ROOT
ATOM      1  C   UNL A   1      34.524  22.913  23.429  1.00  0.00     0.002 C 
ENDROOT
BRANCH   1   2
ATOM      2  C   UNL A   1      34.012  23.945  22.418  1.00  0.00     0.021 C 
BRANCH   2   3
ATOM      3  C   UNL A   1      33.231  25.109  23.033  1.00  0.00     0.116 C 
BRANCH   3   4
ATOM      4  N   UNL A   1      33.634  26.381  22.452  1.00  0.00    -0.351 N 
ATOM      5  C   UNL A   1      33.224  27.654  22.752  1.00  0.00     0.281 C 
ATOM      6  O   UNL A   1      33.657  28.571  22.044  1.00  0.00    -0.268 OA
ATOM      7  H   UNL A   1      34.305  26.317  21.733  1.00  0.00     0.163 HD
BRANCH   5   8
ATOM      8  C   UNL A   1      32.177  27.908  23.898  1.00  0.00     0.178 C 
ATOM      9  C   UNL A   1      30.974  26.944  23.555  1.00  0.00     0.061 C 
ATOM     10  C   UNL A   1      30.263  27.776  22.487  1.00  0.00     0.011 C 
ATOM     11  C   UNL A   1      30.375  29.229  22.843  1.00  0.00     0.008 C 
ATOM     12  C   UNL A   1      31.505  29.302  23.835  1.00  0.00     0.079 C 
BRANCH   9  13
ATOM     13  C   UNL A   1      30.017  26.470  24.663  1.00  0.00     0.022 C 
BRANCH  13  14
ATOM     14  C   UNL A   1      30.221  25.027  25.212  1.00  0.00     0.075 C 
BRANCH  14  15
ATOM     15  S   UNL A   1      31.499  24.624  26.455  1.00  0.00    -0.123 SA
BRANCH  15  16
ATOM     16  C   UNL A   1      32.061  22.983  26.292  1.00  0.00     0.045 A 
ATOM     17  C   UNL A   1      32.793  19.901  24.704  1.00  0.00     0.173 C 
ATOM     18  N   UNL A   1      32.578  20.955  25.670  1.00  0.00    -0.275 N 
ATOM     19  C   UNL A   1      31.536  21.848  25.712  1.00  0.00     0.123 A 
ATOM     20  N   UNL A   1      33.554  21.263  26.540  1.00  0.00    -0.181 NA
ATOM     21  C   UNL A   1      33.237  22.507  26.914  1.00  0.00     0.150 A 
ENDBRANCH  15  16
ENDBRANCH  14  15
ENDBRANCH  13  14
ENDBRANCH   9  13
BRANCH   8  22
ATOM     22  N   UNL A   1      32.867  27.802  25.202  1.00  0.00    -0.331 N 
ATOM     23  H   UNL A   1      33.852  28.003  25.034  1.00  0.00     0.347 HD
ATOM     24  H   UNL A   1      32.638  26.860  25.520  1.00  0.00     0.347 HD
BRANCH  22  25
ATOM     25  C   UNL A   1      32.431  28.672  26.330  1.00  0.00     0.183 C 
ATOM     26  C   UNL A   1      31.786  28.231  27.620  1.00  0.00     0.071 C 
ATOM     27  C   UNL A   1      33.207  28.705  27.628  1.00  0.00     0.071 C 
ENDBRANCH  22  25
ENDBRANCH   8  22
ENDBRANCH   5   8
ENDBRANCH   3   4
ENDBRANCH   2   3
ENDBRANCH   1   2
BRANCH   1  28
ATOM     28  C   UNL A   1      36.047  22.751  23.480  1.00  0.00     0.002 C 
BRANCH  28  29
ATOM     29  C   UNL A   1      36.771  23.697  24.442  1.00  0.00     0.021 C 
BRANCH  29  30
ATOM     30  C   UNL A   1      36.820  23.225  25.892  1.00  0.00     0.116 C 
BRANCH  30  31
ATOM     31  N   UNL A   1      37.944  22.335  26.141  1.00  0.00    -0.352 N 
ATOM     32  C   UNL A   1      39.231  22.638  26.502  1.00  0.00     0.251 C 
ATOM     33  H   UNL A   1      37.752  21.375  26.035  1.00  0.00     0.163 HD
ATOM     34  O   UNL A   1      40.094  21.757  26.474  1.00  0.00    -0.269 OA
BRANCH  32  35
ATOM     35  C   UNL A   1      39.593  24.013  26.908  1.00  0.00     0.039 A 
ATOM     36  C   UNL A   1      39.471  24.372  28.253  1.00  0.00     0.014 A 
ATOM     37  C   UNL A   1      40.026  24.954  25.970  1.00  0.00     0.014 A 
ATOM     38  C   UNL A   1      39.824  25.660  28.661  1.00  0.00     0.010 A 
ATOM     39  C   UNL A   1      40.451  26.213  26.391  1.00  0.00     0.010 A 
ATOM     40  C   UNL A   1      40.342  26.586  27.739  1.00  0.00    -0.014 A 
BRANCH  40  41
ATOM     41  C   UNL A   1      40.777  27.937  28.182  1.00  0.00     0.031 A 
ATOM     42  C   UNL A   1      42.234  28.320  28.165  1.00  0.00     0.074 A 
ATOM     43  C   UNL A   1      39.859  28.806  28.653  1.00  0.00     0.049 A 
ATOM     44  N   UNL A   1      42.788  29.459  28.490  1.00  0.00    -0.248 NA
ATOM     45  C   UNL A   1      43.198  27.284  27.757  1.00  0.00     0.031 C 
ATOM     46  C   UNL A   1      38.430  28.525  28.807  1.00  0.00     0.029 A 
ATOM     47  N   UNL A   1      39.993  30.095  29.105  1.00  0.00    -0.354 N 
ATOM     48  C   UNL A   1      44.160  29.269  28.360  1.00  0.00     0.074 A 
ATOM     49  C   UNL A   1      44.357  27.894  27.957  1.00  0.00     0.031 C 
ATOM     50  C   UNL A   1      37.817  29.614  29.298  1.00  0.00     0.029 A 
ATOM     51  C   UNL A   1      38.811  30.660  29.520  1.00  0.00     0.049 A 
ATOM     52  H   UNL A   1      40.855  30.570  29.129  1.00  0.00     0.167 HD
ATOM     53  C   UNL A   1      45.162  30.163  28.534  1.00  0.00     0.034 A 
ATOM     54  C   UNL A   1      38.552  31.884  30.020  1.00  0.00     0.034 A 
ATOM     55  C   UNL A   1      44.959  31.541  28.890  1.00  0.00     0.049 A 
ATOM     56  C   UNL A   1      39.680  32.874  30.147  1.00  0.00     0.074 A 
ATOM     57  C   UNL A   1      45.900  32.552  28.984  1.00  0.00     0.029 A 
ATOM     58  N   UNL A   1      43.736  32.102  29.224  1.00  0.00    -0.354 N 
ATOM     59  N   UNL A   1      40.945  32.729  29.838  1.00  0.00    -0.248 NA
ATOM     60  C   UNL A   1      39.334  34.212  30.649  1.00  0.00     0.031 C 
ATOM     61  C   UNL A   1      45.251  33.717  29.410  1.00  0.00     0.029 A 
ATOM     62  C   UNL A   1      43.899  33.440  29.542  1.00  0.00     0.049 A 
ATOM     63  H   UNL A   1      42.878  31.620  29.233  1.00  0.00     0.167 HD
ATOM     64  C   UNL A   1      41.539  33.965  30.072  1.00  0.00     0.074 A 
ATOM     65  C   UNL A   1      40.487  34.853  30.520  1.00  0.00     0.031 C 
ATOM     66  C   UNL A   1      42.838  34.328  29.940  1.00  0.00     0.034 A 
BRANCH  53  67
ATOM     67  C   UNL A   1      46.575  29.694  28.298  1.00  0.00     0.023 A 
ATOM     68  C   UNL A   1      47.172  29.877  27.034  1.00  0.00     0.012 A 
ATOM     69  C   UNL A   1      47.338  29.145  29.348  1.00  0.00     0.148 A 
ATOM     70  C   UNL A   1      48.494  29.490  26.808  1.00  0.00     0.002 A 
ATOM     71  C   UNL A   1      48.668  28.806  29.129  1.00  0.00     0.091 A 
ATOM     72  F   UNL A   1      46.748  28.960  30.538  1.00  0.00    -0.205 F 
ATOM     73  C   UNL A   1      49.243  28.967  27.858  1.00  0.00     0.022 A 
BRANCH  71  74
ATOM     74  S   UNL A   1      49.742  28.205  30.438  1.00  0.00     0.127 S 
ATOM     75  O   UNL A   1      50.230  29.459  31.017  1.00  0.00    -0.237 OA
ATOM     76  O   UNL A   1      48.802  27.470  31.289  1.00  0.00    -0.237 OA
ATOM     77  O   UNL A   1      50.748  27.384  29.792  1.00  0.00    -0.744 OA
ENDBRANCH  71  74
ENDBRANCH  53  67
BRANCH  54  78
ATOM     78  C   UNL A   1      37.156  32.273  30.375  1.00  0.00     0.023 A 
ATOM     79  C   UNL A   1      36.695  32.072  31.691  1.00  0.00     0.012 A 
ATOM     80  C   UNL A   1      36.289  32.841  29.423  1.00  0.00     0.148 A 
ATOM     81  C   UNL A   1      35.382  32.388  32.041  1.00  0.00     0.002 A 
ATOM     82  C   UNL A   1      35.001  33.208  29.793  1.00  0.00     0.091 A 
ATOM     83  F   UNL A   1      36.742  33.014  28.173  1.00  0.00    -0.205 F 
ATOM     84  C   UNL A   1      34.538  32.964  31.095  1.00  0.00     0.022 A 
BRANCH  82  85
ATOM     85  S   UNL A   1      33.893  34.076  28.676  1.00  0.00     0.127 S 
ATOM     86  O   UNL A   1      34.778  35.088  28.103  1.00  0.00    -0.237 OA
ATOM     87  O   UNL A   1      33.500  33.009  27.752  1.00  0.00    -0.237 OA
ATOM     88  O   UNL A   1      32.810  34.575  29.507  1.00  0.00    -0.744 OA
ENDBRANCH  82  85
ENDBRANCH  54  78
BRANCH  66  89
ATOM     89  C   UNL A   1      43.195  35.761  30.245  1.00  0.00     0.023 A 
ATOM     90  C   UNL A   1      43.740  36.100  31.500  1.00  0.00     0.012 A 
ATOM     91  C   UNL A   1      43.032  36.764  29.269  1.00  0.00     0.148 A 
ATOM     92  C   UNL A   1      44.075  37.421  31.794  1.00  0.00     0.002 A 
ATOM     93  C   UNL A   1      43.419  38.068  29.551  1.00  0.00     0.091 A 
ATOM     94  F   UNL A   1      42.494  36.427  28.087  1.00  0.00    -0.205 F 
ATOM     95  C   UNL A   1      43.924  38.402  30.817  1.00  0.00     0.022 A 
BRANCH  93  96
ATOM     96  S   UNL A   1      43.355  39.374  28.319  1.00  0.00     0.127 S 
ATOM     97  O   UNL A   1      43.953  38.717  27.158  1.00  0.00    -0.237 OA
ATOM     98  O   UNL A   1      41.917  39.624  28.204  1.00  0.00    -0.237 OA
ATOM     99  O   UNL A   1      44.116  40.485  28.873  1.00  0.00    -0.744 OA
ENDBRANCH  93  96
ENDBRANCH  66  89
ENDBRANCH  40  41
ENDBRANCH  32  35
ENDBRANCH  30  31
ENDBRANCH  29  30
ENDBRANCH  28  29
ENDBRANCH   1  28
TORSDOF 22
ENDMDL
MODEL 2
REMARK VINA RESULT:     -10.0      2.356      4.011
REMARK SMILES Cn1cc(SCC[C@H]2CCC[C@]2([NH2+]C2CC2)C(=O)NCCCCCCNC(=O)c2ccc(-c3c4nc(c(-c5cccc(S(=O)(=O)[O-])c5F)c5ccc([nH]5)c(-c5cccc(S(=O)(=O)[O-])c5F)c5nc(c(-c6cccc(S(=O)(=O)[O-])c6F)c6ccc3[nH]6)C=C5)C=C4)cc2)cn1
REMARK SMILES IDX 22 1 21 2 20 3 19 4 17 5 18 6 12 8 8 9 9 10 10 11 11 12 7 13
REMARK SMILES IDX 6 14 5 15 4 16 1 17 2 18 3 19 93 20 92 21 13 22 14 25 15 26
REMARK SMILES IDX 16 27 23 28 24 29 25 30 26 31 27 32 28 34 29 35 30 36 91 37
REMARK SMILES IDX 31 38 90 39 32 40 33 41 34 42 84 43 35 44 89 45 83 46 85 47
REMARK SMILES IDX 36 48 88 49 82 50 81 51 37 53 69 54 49 55 68 56 50 57 53 58
REMARK SMILES IDX 67 59 86 60 51 61 52 62 66 64 87 65 54 66 38 67 39 68 47 69
REMARK SMILES IDX 40 70 42 71 48 72 41 73 43 74 44 75 45 76 46 77 70 78 71 79
REMARK SMILES IDX 79 80 72 81 74 82 80 83 73 84 75 85 76 86 77 87 78 88 55 89
REMARK SMILES IDX 56 90 64 91 57 92 59 93 65 94 58 95 60 96 61 97 62 98 63 99
REMARK H PARENT 19 7 13 23 13 24 26 33 85 52 53 63
REMARK Flexibility Score: inf
ROOT
ATOM      1  C   UNL A   1      36.695  22.961  23.607  1.00  0.00     0.002 C 
ENDROOT
BRANCH   1   2
ATOM      2  C   UNL A   1      35.220  23.237  23.295  1.00  0.00     0.021 C 
BRANCH   2   3
ATOM      3  C   UNL A   1      34.552  24.257  24.220  1.00  0.00     0.116 C 
BRANCH   3   4
ATOM      4  N   UNL A   1      34.382  23.721  25.563  1.00  0.00    -0.351 N 
ATOM      5  C   UNL A   1      33.309  23.079  26.123  1.00  0.00     0.281 C 
ATOM      6  O   UNL A   1      33.382  22.796  27.325  1.00  0.00    -0.268 OA
ATOM      7  H   UNL A   1      35.157  23.838  26.159  1.00  0.00     0.163 HD
BRANCH   5   8
ATOM      8  C   UNL A   1      32.013  22.797  25.278  1.00  0.00     0.178 C 
ATOM      9  C   UNL A   1      31.533  24.226  24.805  1.00  0.00     0.061 C 
ATOM     10  C   UNL A   1      30.813  24.696  26.069  1.00  0.00     0.011 C 
ATOM     11  C   UNL A   1      30.138  23.522  26.714  1.00  0.00     0.008 C 
ATOM     12  C   UNL A   1      30.808  22.311  26.121  1.00  0.00     0.079 C 
BRANCH   9  13
ATOM     13  C   UNL A   1      30.663  24.376  23.544  1.00  0.00     0.022 C 
BRANCH  13  14
ATOM     14  C   UNL A   1      30.910  25.629  22.653  1.00  0.00     0.075 C 
BRANCH  14  15
ATOM     15  S   UNL A   1      32.431  26.634  22.778  1.00  0.00    -0.123 SA
BRANCH  15  16
ATOM     16  C   UNL A   1      32.289  27.865  24.003  1.00  0.00     0.045 A 
ATOM     17  C   UNL A   1      31.807  29.257  27.226  1.00  0.00     0.173 C 
ATOM     18  N   UNL A   1      31.979  29.061  25.804  1.00  0.00    -0.275 N 
ATOM     19  C   UNL A   1      31.387  28.103  25.017  1.00  0.00     0.123 A 
ATOM     20  N   UNL A   1      32.940  29.737  25.154  1.00  0.00    -0.181 NA
ATOM     21  C   UNL A   1      33.132  29.000  24.055  1.00  0.00     0.150 A 
ENDBRANCH  15  16
ENDBRANCH  14  15
ENDBRANCH  13  14
ENDBRANCH   9  13
BRANCH   8  22
ATOM     22  N   UNL A   1      32.316  21.747  24.282  1.00  0.00    -0.331 N 
ATOM     23  H   UNL A   1      33.206  21.994  23.850  1.00  0.00     0.347 HD
ATOM     24  H   UNL A   1      31.495  21.746  23.676  1.00  0.00     0.347 HD
BRANCH  22  25
ATOM     25  C   UNL A   1      32.428  20.330  24.728  1.00  0.00     0.183 C 
ATOM     26  C   UNL A   1      32.772  19.134  23.876  1.00  0.00     0.071 C 
ATOM     27  C   UNL A   1      33.778  19.661  24.853  1.00  0.00     0.071 C 
ENDBRANCH  22  25
ENDBRANCH   8  22
ENDBRANCH   5   8
ENDBRANCH   3   4
ENDBRANCH   2   3
ENDBRANCH   1   2
BRANCH   1  28
ATOM     28  C   UNL A   1      36.983  21.598  24.244  1.00  0.00     0.002 C 
BRANCH  28  29
ATOM     29  C   UNL A   1      37.340  21.638  25.733  1.00  0.00     0.021 C 
BRANCH  29  30
ATOM     30  C   UNL A   1      38.506  22.555  26.089  1.00  0.00     0.116 C 
BRANCH  30  31
ATOM     31  N   UNL A   1      39.788  21.870  26.005  1.00  0.00    -0.352 N 
ATOM     32  C   UNL A   1      41.053  22.365  26.190  1.00  0.00     0.251 C 
ATOM     33  H   UNL A   1      39.739  20.912  25.784  1.00  0.00     0.163 HD
ATOM     34  O   UNL A   1      42.027  21.673  25.881  1.00  0.00    -0.269 OA
BRANCH  32  35
ATOM     35  C   UNL A   1      41.256  23.722  26.741  1.00  0.00     0.039 A 
ATOM     36  C   UNL A   1      41.497  23.864  28.109  1.00  0.00     0.014 A 
ATOM     37  C   UNL A   1      41.184  24.853  25.922  1.00  0.00     0.014 A 
ATOM     38  C   UNL A   1      41.709  25.135  28.648  1.00  0.00     0.010 A 
ATOM     39  C   UNL A   1      41.472  26.111  26.447  1.00  0.00     0.010 A 
ATOM     40  C   UNL A   1      41.724  26.270  27.818  1.00  0.00    -0.014 A 
BRANCH  40  41
ATOM     41  C   UNL A   1      42.011  27.617  28.378  1.00  0.00     0.031 A 
ATOM     42  C   UNL A   1      43.430  28.096  28.540  1.00  0.00     0.074 A 
ATOM     43  C   UNL A   1      40.988  28.392  28.794  1.00  0.00     0.049 A 
ATOM     44  N   UNL A   1      43.863  29.248  28.984  1.00  0.00    -0.248 NA
ATOM     45  C   UNL A   1      44.504  27.154  28.183  1.00  0.00     0.031 C 
ATOM     46  C   UNL A   1      39.575  28.008  28.776  1.00  0.00     0.029 A 
ATOM     47  N   UNL A   1      40.980  29.657  29.327  1.00  0.00    -0.354 N 
ATOM     48  C   UNL A   1      45.251  29.157  28.994  1.00  0.00     0.074 A 
ATOM     49  C   UNL A   1      45.588  27.826  28.541  1.00  0.00     0.031 C 
ATOM     50  C   UNL A   1      38.837  29.021  29.256  1.00  0.00     0.029 A 
ATOM     51  C   UNL A   1      39.723  30.115  29.641  1.00  0.00     0.049 A 
ATOM     52  H   UNL A   1      41.798  30.185  29.470  1.00  0.00     0.167 HD
ATOM     53  C   UNL A   1      46.162  30.104  29.324  1.00  0.00     0.034 A 
ATOM     54  C   UNL A   1      39.325  31.286  30.176  1.00  0.00     0.034 A 
ATOM     55  C   UNL A   1      45.823  31.441  29.730  1.00  0.00     0.049 A 
ATOM     56  C   UNL A   1      40.358  32.339  30.478  1.00  0.00     0.074 A 
ATOM     57  C   UNL A   1      46.673  32.505  29.981  1.00  0.00     0.029 A 
ATOM     58  N   UNL A   1      44.534  31.897  29.959  1.00  0.00    -0.354 N 
ATOM     59  N   UNL A   1      41.656  32.298  30.301  1.00  0.00    -0.248 NA
ATOM     60  C   UNL A   1      39.866  33.617  31.011  1.00  0.00     0.031 C 
ATOM     61  C   UNL A   1      45.900  33.595  30.396  1.00  0.00     0.029 A 
ATOM     62  C   UNL A   1      44.565  33.221  30.366  1.00  0.00     0.049 A 
ATOM     63  H   UNL A   1      43.718  31.359  29.850  1.00  0.00     0.167 HD
ATOM     64  C   UNL A   1      42.131  33.554  30.664  1.00  0.00     0.074 A 
ATOM     65  C   UNL A   1      40.976  34.341  31.043  1.00  0.00     0.031 C 
ATOM     66  C   UNL A   1      43.407  34.010  30.693  1.00  0.00     0.034 A 
BRANCH  53  67
ATOM     67  C   UNL A   1      47.622  29.746  29.217  1.00  0.00     0.023 A 
ATOM     68  C   UNL A   1      48.305  29.247  30.346  1.00  0.00     0.012 A 
ATOM     69  C   UNL A   1      48.297  29.827  27.984  1.00  0.00     0.148 A 
ATOM     70  C   UNL A   1      49.644  28.867  30.257  1.00  0.00     0.002 A 
ATOM     71  C   UNL A   1      49.618  29.401  27.892  1.00  0.00     0.091 A 
ATOM     72  F   UNL A   1      47.639  30.322  26.926  1.00  0.00    -0.205 F 
ATOM     73  C   UNL A   1      50.295  28.933  29.029  1.00  0.00     0.022 A 
BRANCH  71  74
ATOM     74  S   UNL A   1      50.518  29.367  26.337  1.00  0.00     0.127 S 
ATOM     75  O   UNL A   1      49.596  28.615  25.481  1.00  0.00    -0.237 OA
ATOM     76  O   UNL A   1      50.619  30.792  26.012  1.00  0.00    -0.237 OA
ATOM     77  O   UNL A   1      51.783  28.714  26.615  1.00  0.00    -0.744 OA
ENDBRANCH  71  74
ENDBRANCH  53  67
BRANCH  54  78
ATOM     78  C   UNL A   1      37.876  31.558  30.398  1.00  0.00     0.023 A 
ATOM     79  C   UNL A   1      37.326  31.379  31.683  1.00  0.00     0.012 A 
ATOM     80  C   UNL A   1      37.043  31.994  29.351  1.00  0.00     0.148 A 
ATOM     81  C   UNL A   1      35.965  31.587  31.911  1.00  0.00     0.002 A 
ATOM     82  C   UNL A   1      35.700  32.256  29.597  1.00  0.00     0.091 A 
ATOM     83  F   UNL A   1      37.580  32.148  28.132  1.00  0.00    -0.205 F 
ATOM     84  C   UNL A   1      35.154  32.033  30.871  1.00  0.00     0.022 A 
BRANCH  82  85
ATOM     85  S   UNL A   1      34.616  32.959  28.350  1.00  0.00     0.127 S 
ATOM     86  O   UNL A   1      34.174  31.766  27.630  1.00  0.00    -0.237 OA
ATOM     87  O   UNL A   1      33.586  33.599  29.171  1.00  0.00    -0.237 OA
ATOM     88  O   UNL A   1      35.439  33.889  27.593  1.00  0.00    -0.744 OA
ENDBRANCH  82  85
ENDBRANCH  54  78
BRANCH  66  89
ATOM     89  C   UNL A   1      43.624  35.442  31.113  1.00  0.00     0.023 A 
ATOM     90  C   UNL A   1      43.792  36.446  30.138  1.00  0.00     0.012 A 
ATOM     91  C   UNL A   1      43.615  35.798  32.476  1.00  0.00     0.148 A 
ATOM     92  C   UNL A   1      43.993  37.773  30.514  1.00  0.00     0.002 A 
ATOM     93  C   UNL A   1      43.762  37.131  32.841  1.00  0.00     0.091 A 
ATOM     94  F   UNL A   1      43.473  34.828  33.392  1.00  0.00    -0.205 F 
ATOM     95  C   UNL A   1      43.967  38.117  31.863  1.00  0.00     0.022 A 
BRANCH  93  96
ATOM     96  S   UNL A   1      43.639  37.676  34.548  1.00  0.00     0.127 S 
ATOM     97  O   UNL A   1      44.796  37.019  35.154  1.00  0.00    -0.237 OA
ATOM     98  O   UNL A   1      43.760  39.129  34.421  1.00  0.00    -0.237 OA
ATOM     99  O   UNL A   1      42.339  37.220  35.022  1.00  0.00    -0.744 OA
ENDBRANCH  93  96
ENDBRANCH  66  89
ENDBRANCH  40  41
ENDBRANCH  32  35
ENDBRANCH  30  31
ENDBRANCH  29  30
ENDBRANCH  28  29
ENDBRANCH   1  28
TORSDOF 22
ENDMDL
MODEL 3
REMARK VINA RESULT:     -10.0      1.580      3.482
REMARK SMILES Cn1cc(SCC[C@H]2CCC[C@]2([NH2+]C2CC2)C(=O)NCCCCCCNC(=O)c2ccc(-c3c4nc(c(-c5cccc(S(=O)(=O)[O-])c5F)c5ccc([nH]5)c(-c5cccc(S(=O)(=O)[O-])c5F)c5nc(c(-c6cccc(S(=O)(=O)[O-])c6F)c6ccc3[nH]6)C=C5)C=C4)cc2)cn1
REMARK SMILES IDX 22 1 21 2 20 3 19 4 17 5 18 6 12 8 8 9 9 10 10 11 11 12 7 13
REMARK SMILES IDX 6 14 5 15 4 16 1 17 2 18 3 19 93 20 92 21 13 22 14 25 15 26
REMARK SMILES IDX 16 27 23 28 24 29 25 30 26 31 27 32 28 34 29 35 30 36 91 37
REMARK SMILES IDX 31 38 90 39 32 40 33 41 34 42 84 43 35 44 89 45 83 46 85 47
REMARK SMILES IDX 36 48 88 49 82 50 81 51 37 53 69 54 49 55 68 56 50 57 53 58
REMARK SMILES IDX 67 59 86 60 51 61 52 62 66 64 87 65 54 66 38 67 39 68 47 69
REMARK SMILES IDX 40 70 42 71 48 72 41 73 43 74 44 75 45 76 46 77 70 78 71 79
REMARK SMILES IDX 79 80 72 81 74 82 80 83 73 84 75 85 76 86 77 87 78 88 55 89
REMARK SMILES IDX 56 90 64 91 57 92 59 93 65 94 58 95 60 96 61 97 62 98 63 99
REMARK H PARENT 19 7 13 23 13 24 26 33 85 52 53 63
REMARK Flexibility Score: inf
ROOT
ATOM      1  C   UNL A   1      36.725  23.059  23.523  1.00  0.00     0.002 C 
ENDROOT
BRANCH   1   2
ATOM      2  C   UNL A   1      35.217  23.218  23.299  1.00  0.00     0.021 C 
BRANCH   2   3
ATOM      3  C   UNL A   1      34.542  24.247  24.210  1.00  0.00     0.116 C 
BRANCH   3   4
ATOM      4  N   UNL A   1      34.341  23.714  25.550  1.00  0.00    -0.351 N 
ATOM      5  C   UNL A   1      33.229  23.144  26.112  1.00  0.00     0.281 C 
ATOM      6  O   UNL A   1      33.288  22.848  27.311  1.00  0.00    -0.268 OA
ATOM      7  H   UNL A   1      35.125  23.773  26.144  1.00  0.00     0.163 HD
BRANCH   5   8
ATOM      8  C   UNL A   1      31.912  22.960  25.271  1.00  0.00     0.178 C 
ATOM      9  C   UNL A   1      31.535  24.421  24.805  1.00  0.00     0.061 C 
ATOM     10  C   UNL A   1      30.856  24.936  26.075  1.00  0.00     0.011 C 
ATOM     11  C   UNL A   1      30.100  23.812  26.718  1.00  0.00     0.008 C 
ATOM     12  C   UNL A   1      30.679  22.558  26.118  1.00  0.00     0.079 C 
BRANCH   9  13
ATOM     13  C   UNL A   1      30.672  24.638  23.549  1.00  0.00     0.022 C 
BRANCH  13  14
ATOM     14  C   UNL A   1      30.718  26.047  22.888  1.00  0.00     0.075 C 
BRANCH  14  15
ATOM     15  S   UNL A   1      32.283  26.954  22.623  1.00  0.00    -0.123 SA
BRANCH  15  16
ATOM     16  C   UNL A   1      32.625  28.045  23.937  1.00  0.00     0.045 A 
ATOM     17  C   UNL A   1      32.043  29.935  26.879  1.00  0.00     0.173 C 
ATOM     18  N   UNL A   1      32.605  29.375  25.669  1.00  0.00    -0.275 N 
ATOM     19  C   UNL A   1      31.953  29.114  24.489  1.00  0.00     0.123 A 
ATOM     20  N   UNL A   1      33.849  28.868  25.691  1.00  0.00    -0.181 NA
ATOM     21  C   UNL A   1      33.855  28.050  24.633  1.00  0.00     0.150 A 
ENDBRANCH  15  16
ENDBRANCH  14  15
ENDBRANCH  13  14
ENDBRANCH   9  13
BRANCH   8  22
ATOM     22  N   UNL A   1      32.135  21.894  24.270  1.00  0.00    -0.331 N 
ATOM     23  H   UNL A   1      32.931  22.182  23.702  1.00  0.00     0.347 HD
ATOM     24  H   UNL A   1      31.235  21.817  23.796  1.00  0.00     0.347 HD
BRANCH  22  25
ATOM     25  C   UNL A   1      32.410  20.505  24.734  1.00  0.00     0.183 C 
ATOM     26  C   UNL A   1      32.629  19.287  23.871  1.00  0.00     0.071 C 
ATOM     27  C   UNL A   1      33.789  19.900  24.593  1.00  0.00     0.071 C 
ENDBRANCH  22  25
ENDBRANCH   8  22
ENDBRANCH   5   8
ENDBRANCH   3   4
ENDBRANCH   2   3
ENDBRANCH   1   2
BRANCH   1  28
ATOM     28  C   UNL A   1      37.151  21.738  24.171  1.00  0.00     0.002 C 
BRANCH  28  29
ATOM     29  C   UNL A   1      37.400  21.804  25.681  1.00  0.00     0.021 C 
BRANCH  29  30
ATOM     30  C   UNL A   1      38.562  22.699  26.102  1.00  0.00     0.116 C 
BRANCH  30  31
ATOM     31  N   UNL A   1      39.847  22.033  25.953  1.00  0.00    -0.352 N 
ATOM     32  C   UNL A   1      41.113  22.548  26.071  1.00  0.00     0.251 C 
ATOM     33  H   UNL A   1      39.803  21.074  25.737  1.00  0.00     0.163 HD
ATOM     34  O   UNL A   1      42.080  21.870  25.714  1.00  0.00    -0.269 OA
BRANCH  32  35
ATOM     35  C   UNL A   1      41.323  23.910  26.606  1.00  0.00     0.039 A 
ATOM     36  C   UNL A   1      41.520  24.070  27.980  1.00  0.00     0.014 A 
ATOM     37  C   UNL A   1      41.301  25.028  25.768  1.00  0.00     0.014 A 
ATOM     38  C   UNL A   1      41.738  25.346  28.505  1.00  0.00     0.010 A 
ATOM     39  C   UNL A   1      41.595  26.290  26.283  1.00  0.00     0.010 A 
ATOM     40  C   UNL A   1      41.803  26.466  27.658  1.00  0.00    -0.014 A 
BRANCH  40  41
ATOM     41  C   UNL A   1      42.097  27.816  28.207  1.00  0.00     0.031 A 
ATOM     42  C   UNL A   1      43.509  28.341  28.245  1.00  0.00     0.074 A 
ATOM     43  C   UNL A   1      41.092  28.553  28.723  1.00  0.00     0.049 A 
ATOM     44  N   UNL A   1      43.943  29.502  28.662  1.00  0.00    -0.248 NA
ATOM     45  C   UNL A   1      44.575  27.438  27.779  1.00  0.00     0.031 C 
ATOM     46  C   UNL A   1      39.696  28.123  28.829  1.00  0.00     0.029 A 
ATOM     47  N   UNL A   1      41.092  29.812  29.270  1.00  0.00    -0.354 N 
ATOM     48  C   UNL A   1      45.328  29.458  28.543  1.00  0.00     0.074 A 
ATOM     49  C   UNL A   1      45.665  28.143  28.045  1.00  0.00     0.031 C 
ATOM     50  C   UNL A   1      38.973  29.106  29.388  1.00  0.00     0.029 A 
ATOM     51  C   UNL A   1      39.855  30.225  29.704  1.00  0.00     0.049 A 
ATOM     52  H   UNL A   1      41.902  30.366  29.345  1.00  0.00     0.167 HD
ATOM     53  C   UNL A   1      46.235  30.431  28.800  1.00  0.00     0.034 A 
ATOM     54  C   UNL A   1      39.470  31.378  30.287  1.00  0.00     0.034 A 
ATOM     55  C   UNL A   1      45.891  31.752  29.253  1.00  0.00     0.049 A 
ATOM     56  C   UNL A   1      40.492  32.461  30.506  1.00  0.00     0.074 A 
ATOM     57  C   UNL A   1      46.727  32.841  29.438  1.00  0.00     0.029 A 
ATOM     58  N   UNL A   1      44.616  32.163  29.604  1.00  0.00    -0.354 N 
ATOM     59  N   UNL A   1      41.769  32.465  30.211  1.00  0.00    -0.248 NA
ATOM     60  C   UNL A   1      40.010  33.718  31.098  1.00  0.00     0.031 C 
ATOM     61  C   UNL A   1      45.960  33.901  29.936  1.00  0.00     0.029 A 
ATOM     62  C   UNL A   1      44.641  33.483  30.022  1.00  0.00     0.049 A 
ATOM     63  H   UNL A   1      43.810  31.600  29.563  1.00  0.00     0.167 HD
ATOM     64  C   UNL A   1      42.234  33.732  30.545  1.00  0.00     0.074 A 
ATOM     65  C   UNL A   1      41.095  34.477  31.038  1.00  0.00     0.031 C 
ATOM     66  C   UNL A   1      43.493  34.231  30.464  1.00  0.00     0.034 A 
BRANCH  53  67
ATOM     67  C   UNL A   1      47.690  30.122  28.557  1.00  0.00     0.023 A 
ATOM     68  C   UNL A   1      48.265  30.403  27.301  1.00  0.00     0.012 A 
ATOM     69  C   UNL A   1      48.506  29.627  29.594  1.00  0.00     0.148 A 
ATOM     70  C   UNL A   1      49.620  30.166  27.069  1.00  0.00     0.002 A 
ATOM     71  C   UNL A   1      49.865  29.439  29.370  1.00  0.00     0.091 A 
ATOM     72  F   UNL A   1      47.938  29.348  30.776  1.00  0.00    -0.205 F 
ATOM     73  C   UNL A   1      50.421  29.696  28.106  1.00  0.00     0.022 A 
BRANCH  71  74
ATOM     74  S   UNL A   1      50.996  28.919  30.666  1.00  0.00     0.127 S 
ATOM     75  O   UNL A   1      50.400  27.647  31.083  1.00  0.00    -0.237 OA
ATOM     76  O   UNL A   1      52.258  28.785  29.933  1.00  0.00    -0.237 OA
ATOM     77  O   UNL A   1      50.980  29.971  31.664  1.00  0.00    -0.744 OA
ENDBRANCH  71  74
ENDBRANCH  53  67
BRANCH  54  78
ATOM     78  C   UNL A   1      38.039  31.599  30.644  1.00  0.00     0.023 A 
ATOM     79  C   UNL A   1      37.558  31.148  31.888  1.00  0.00     0.012 A 
ATOM     80  C   UNL A   1      37.158  32.255  29.764  1.00  0.00     0.148 A 
ATOM     81  C   UNL A   1      36.214  31.306  32.232  1.00  0.00     0.002 A 
ATOM     82  C   UNL A   1      35.835  32.461  30.137  1.00  0.00     0.091 A 
ATOM     83  F   UNL A   1      37.631  32.667  28.580  1.00  0.00    -0.205 F 
ATOM     84  C   UNL A   1      35.355  31.969  31.360  1.00  0.00     0.022 A 
BRANCH  82  85
ATOM     85  S   UNL A   1      34.695  33.422  29.134  1.00  0.00     0.127 S 
ATOM     86  O   UNL A   1      34.254  32.433  28.151  1.00  0.00    -0.237 OA
ATOM     87  O   UNL A   1      33.679  33.808  30.116  1.00  0.00    -0.237 OA
ATOM     88  O   UNL A   1      35.473  34.534  28.611  1.00  0.00    -0.744 OA
ENDBRANCH  82  85
ENDBRANCH  54  78
BRANCH  66  89
ATOM     89  C   UNL A   1      43.702  35.665  30.880  1.00  0.00     0.023 A 
ATOM     90  C   UNL A   1      44.034  35.971  32.215  1.00  0.00     0.012 A 
ATOM     91  C   UNL A   1      43.614  36.706  29.934  1.00  0.00     0.148 A 
ATOM     92  C   UNL A   1      44.230  37.293  32.611  1.00  0.00     0.002 A 
ATOM     93  C   UNL A   1      43.865  38.015  30.325  1.00  0.00     0.091 A 
ATOM     94  F   UNL A   1      43.278  36.399  28.672  1.00  0.00    -0.205 F 
ATOM     95  C   UNL A   1      44.156  38.313  31.666  1.00  0.00     0.022 A 
BRANCH  93  96
ATOM     96  S   UNL A   1      43.891  39.377  29.154  1.00  0.00     0.127 S 
ATOM     97  O   UNL A   1      44.198  40.511  30.023  1.00  0.00    -0.237 OA
ATOM     98  O   UNL A   1      44.975  38.990  28.250  1.00  0.00    -0.237 OA
ATOM     99  O   UNL A   1      42.572  39.399  28.536  1.00  0.00    -0.744 OA
ENDBRANCH  93  96
ENDBRANCH  66  89
ENDBRANCH  40  41
ENDBRANCH  32  35
ENDBRANCH  30  31
ENDBRANCH  29  30
ENDBRANCH  28  29
ENDBRANCH   1  28
TORSDOF 22
ENDMDL
