MODEL 1
REMARK VINA RESULT:     -12.8      0.000      0.000
REMARK SMILES Cc1ccc(S(=O)(=O)n2cc(C(=O)C(=O)N[C@@H](Cc3c[nH]c4ccccc34)C(=O)NCCCCCCNC(=O)c3ccc(-c4c5nc(c(-c6cccc(S(=O)(=O)[O-])c6F)c6ccc([nH]6)c(-c6cccc(S(=O)(=O)[O-])c6F)c6nc(c(-c7cccc(S(=O)(=O)[O-])c7F)c7ccc4[nH]7)C=C6)C=C5)cc3)c3ccccc32)cc1
REMARK SMILES IDX 32 1 31 2 30 3 28 4 29 5 17 7 16 8 14 9 15 10 12 12 13 13
REMARK SMILES IDX 11 14 9 15 10 16 108 17 103 18 107 19 104 20 106 21 105 22
REMARK SMILES IDX 6 23 7 24 8 25 5 26 1 27 2 28 3 29 110 30 4 31 109 32 18 33
REMARK SMILES IDX 19 34 20 35 27 36 21 37 22 38 26 39 23 41 25 42 24 43 33 44
REMARK SMILES IDX 34 45 35 46 36 47 37 48 38 49 39 51 40 52 41 53 102 54 42 55
REMARK SMILES IDX 101 56 43 57 44 58 45 59 95 60 46 61 100 62 94 63 96 64
REMARK SMILES IDX 47 65 99 66 93 67 92 68 48 70 80 71 60 72 79 73 61 74 64 75
REMARK SMILES IDX 78 76 97 77 62 78 63 79 77 81 98 82 65 83 49 84 50 85 58 86
REMARK SMILES IDX 51 87 53 88 59 89 52 90 54 91 55 92 56 93 57 94 81 95 82 96
REMARK SMILES IDX 90 97 83 98 85 99 91 100 84 101 86 102 87 103 88 104 89 105
REMARK SMILES IDX 66 106 67 107 75 108 68 109 70 110 76 111 69 112 71 113
REMARK SMILES IDX 72 114 73 115 74 116
REMARK H PARENT 30 6 16 11 21 40 37 50 96 69 64 80
REMARK Flexibility Score: inf
ROOT
ATOM      1  C   UNL A   1      33.912  26.247  24.915  1.00  0.00     0.021 C 
ENDROOT
BRANCH   1   2
ATOM      2  C   UNL A   1      34.716  24.996  25.236  1.00  0.00     0.116 C 
BRANCH   2   3
ATOM      3  N   UNL A   1      34.373  24.289  26.446  1.00  0.00    -0.354 N 
ATOM      4  C   UNL A   1      34.409  22.932  26.642  1.00  0.00     0.242 C 
ATOM      5  O   UNL A   1      34.729  22.544  27.774  1.00  0.00    -0.273 OA
ATOM      6  H   UNL A   1      34.085  24.837  27.211  1.00  0.00     0.163 HD
BRANCH   4   7
ATOM      7  C   UNL A   1      34.216  21.891  25.494  1.00  0.00     0.176 C 
BRANCH   7   8
ATOM      8  N   UNL A   1      35.105  20.707  25.519  1.00  0.00    -0.337 N 
ATOM      9  C   UNL A   1      36.433  20.561  25.136  1.00  0.00     0.293 C 
ATOM     10  O   UNL A   1      36.948  19.449  25.082  1.00  0.00    -0.265 OA
ATOM     11  H   UNL A   1      34.685  19.887  25.863  1.00  0.00     0.164 HD
BRANCH   9  12
ATOM     12  C   UNL A   1      37.288  21.786  24.795  1.00  0.00     0.252 C 
ATOM     13  O   UNL A   1      37.142  22.235  23.657  1.00  0.00    -0.283 OA
BRANCH  12  14
ATOM     14  C   UNL A   1      38.320  22.334  25.704  1.00  0.00     0.054 A 
ATOM     15  N   UNL A   1      39.628  23.565  27.097  1.00  0.00    -0.240 N 
ATOM     16  C   UNL A   1      38.509  23.611  26.260  1.00  0.00     0.117 A 
ATOM     17  C   UNL A   1      40.010  22.216  27.209  1.00  0.00     0.065 A 
ATOM     18  C   UNL A   1      39.466  21.576  26.100  1.00  0.00     0.012 A 
ATOM     19  C   UNL A   1      41.005  21.601  27.996  1.00  0.00     0.028 A 
ATOM     20  C   UNL A   1      40.072  20.385  25.647  1.00  0.00     0.011 A 
ATOM     21  C   UNL A   1      41.637  20.467  27.486  1.00  0.00     0.002 A 
ATOM     22  C   UNL A   1      41.204  19.891  26.300  1.00  0.00     0.001 A 
BRANCH  15  23
ATOM     23  S   UNL A   1      41.039  24.602  27.042  1.00  0.00     0.268 S 
ATOM     24  O   UNL A   1      41.215  24.985  28.434  1.00  0.00    -0.201 OA
ATOM     25  O   UNL A   1      40.644  25.590  26.043  1.00  0.00    -0.201 OA
BRANCH  23  26
ATOM     26  C   UNL A   1      42.656  24.218  26.476  1.00  0.00     0.088 A 
ATOM     27  C   UNL A   1      46.083  22.443  24.521  1.00  0.00     0.044 C 
ATOM     28  C   UNL A   1      44.923  23.119  25.197  1.00  0.00    -0.051 A 
ATOM     29  C   UNL A   1      43.674  22.968  24.615  1.00  0.00     0.005 A 
ATOM     30  C   UNL A   1      45.030  23.843  26.407  1.00  0.00     0.005 A 
ATOM     31  C   UNL A   1      42.572  23.521  25.240  1.00  0.00     0.022 A 
ATOM     32  C   UNL A   1      43.895  24.395  27.062  1.00  0.00     0.022 A 
ENDBRANCH  23  26
ENDBRANCH  15  23
ENDBRANCH  12  14
ENDBRANCH   9  12
ENDBRANCH   7   8
BRANCH   7  33
ATOM     33  C   UNL A   1      32.714  21.554  25.224  1.00  0.00     0.072 C 
BRANCH  33  34
ATOM     34  C   UNL A   1      31.875  22.525  24.426  1.00  0.00    -0.020 A 
ATOM     35  C   UNL A   1      31.692  22.499  23.052  1.00  0.00     0.087 A 
ATOM     36  C   UNL A   1      31.118  23.650  24.905  1.00  0.00     0.003 A 
ATOM     37  N   UNL A   1      30.960  23.599  22.685  1.00  0.00    -0.361 N 
ATOM     38  C   UNL A   1      30.686  24.371  23.789  1.00  0.00     0.046 A 
ATOM     39  C   UNL A   1      30.840  24.182  26.181  1.00  0.00     0.010 A 
ATOM     40  H   UNL A   1      30.673  23.807  21.766  1.00  0.00     0.166 HD
ATOM     41  C   UNL A   1      30.106  25.642  23.881  1.00  0.00     0.026 A 
ATOM     42  C   UNL A   1      30.294  25.466  26.291  1.00  0.00     0.001 A 
ATOM     43  C   UNL A   1      29.956  26.193  25.155  1.00  0.00     0.002 A 
ENDBRANCH  33  34
ENDBRANCH   7  33
ENDBRANCH   4   7
ENDBRANCH   2   3
ENDBRANCH   1   2
BRANCH   1  44
ATOM     44  C   UNL A   1      33.651  27.243  26.049  1.00  0.00     0.002 C 
BRANCH  44  45
ATOM     45  C   UNL A   1      34.592  28.447  26.213  1.00  0.00     0.002 C 
BRANCH  45  46
ATOM     46  C   UNL A   1      34.283  29.460  27.314  1.00  0.00     0.021 C 
BRANCH  46  47
ATOM     47  C   UNL A   1      35.391  30.446  27.644  1.00  0.00     0.116 C 
BRANCH  47  48
ATOM     48  N   UNL A   1      34.923  31.798  27.909  1.00  0.00    -0.352 N 
ATOM     49  C   UNL A   1      35.441  32.744  28.776  1.00  0.00     0.251 C 
ATOM     50  H   UNL A   1      34.127  32.077  27.402  1.00  0.00     0.163 HD
ATOM     51  O   UNL A   1      34.802  33.774  28.991  1.00  0.00    -0.269 OA
BRANCH  49  52
ATOM     52  C   UNL A   1      36.808  32.564  29.321  1.00  0.00     0.039 A 
ATOM     53  C   UNL A   1      36.979  31.641  30.361  1.00  0.00     0.014 A 
ATOM     54  C   UNL A   1      37.827  33.459  29.006  1.00  0.00     0.014 A 
ATOM     55  C   UNL A   1      38.038  31.798  31.251  1.00  0.00     0.010 A 
ATOM     56  C   UNL A   1      38.820  33.681  29.935  1.00  0.00     0.010 A 
ATOM     57  C   UNL A   1      38.877  32.897  31.093  1.00  0.00    -0.014 A 
BRANCH  57  58
ATOM     58  C   UNL A   1      39.813  33.370  32.098  1.00  0.00     0.031 A 
ATOM     59  C   UNL A   1      39.319  34.027  33.317  1.00  0.00     0.074 A 
ATOM     60  C   UNL A   1      41.116  33.034  31.981  1.00  0.00     0.049 A 
ATOM     61  N   UNL A   1      40.061  34.709  34.118  1.00  0.00    -0.248 NA
ATOM     62  C   UNL A   1      37.919  33.986  33.708  1.00  0.00     0.031 C 
ATOM     63  C   UNL A   1      42.130  33.041  33.028  1.00  0.00     0.029 A 
ATOM     64  N   UNL A   1      41.841  32.837  30.803  1.00  0.00    -0.354 N 
ATOM     65  C   UNL A   1      39.324  34.952  35.256  1.00  0.00     0.074 A 
ATOM     66  C   UNL A   1      37.977  34.560  34.912  1.00  0.00     0.031 C 
ATOM     67  C   UNL A   1      43.338  33.154  32.455  1.00  0.00     0.029 A 
ATOM     68  C   UNL A   1      43.109  33.394  31.041  1.00  0.00     0.049 A 
ATOM     69  H   UNL A   1      41.529  32.400  29.978  1.00  0.00     0.167 HD
ATOM     70  C   UNL A   1      39.981  35.313  36.395  1.00  0.00     0.034 A 
ATOM     71  C   UNL A   1      43.630  34.429  30.320  1.00  0.00     0.034 A 
ATOM     72  C   UNL A   1      41.416  35.512  36.133  1.00  0.00     0.049 A 
ATOM     73  C   UNL A   1      44.038  35.615  31.174  1.00  0.00     0.074 A 
ATOM     74  C   UNL A   1      42.539  34.725  36.334  1.00  0.00     0.029 A 
ATOM     75  N   UNL A   1      41.820  36.568  35.326  1.00  0.00    -0.354 N 
ATOM     76  N   UNL A   1      43.774  35.745  32.444  1.00  0.00    -0.248 NA
ATOM     77  C   UNL A   1      44.753  36.770  30.644  1.00  0.00     0.031 C 
ATOM     78  C   UNL A   1      43.618  35.300  35.608  1.00  0.00     0.029 A 
ATOM     79  C   UNL A   1      43.158  36.446  34.982  1.00  0.00     0.049 A 
ATOM     80  H   UNL A   1      41.235  37.305  35.037  1.00  0.00     0.167 HD
ATOM     81  C   UNL A   1      44.138  36.999  32.880  1.00  0.00     0.074 A 
ATOM     82  C   UNL A   1      44.817  37.567  31.725  1.00  0.00     0.031 C 
ATOM     83  C   UNL A   1      43.788  37.454  34.130  1.00  0.00     0.034 A 
BRANCH  70  84
ATOM     84  C   UNL A   1      39.419  35.202  37.806  1.00  0.00     0.023 A 
ATOM     85  C   UNL A   1      39.413  36.377  38.594  1.00  0.00     0.012 A 
ATOM     86  C   UNL A   1      38.966  34.032  38.457  1.00  0.00     0.148 A 
ATOM     87  C   UNL A   1      39.096  36.375  39.957  1.00  0.00     0.002 A 
ATOM     88  C   UNL A   1      38.713  34.010  39.833  1.00  0.00     0.091 A 
ATOM     89  F   UNL A   1      38.685  32.940  37.744  1.00  0.00    -0.205 F 
ATOM     90  C   UNL A   1      38.784  35.182  40.588  1.00  0.00     0.022 A 
BRANCH  88  91
ATOM     91  S   UNL A   1      38.372  32.484  40.729  1.00  0.00     0.127 S 
ATOM     92  O   UNL A   1      37.596  32.969  41.875  1.00  0.00    -0.237 OA
ATOM     93  O   UNL A   1      37.601  31.711  39.758  1.00  0.00    -0.237 OA
ATOM     94  O   UNL A   1      39.669  31.924  41.090  1.00  0.00    -0.744 OA
ENDBRANCH  88  91
ENDBRANCH  70  84
BRANCH  71  95
ATOM     95  C   UNL A   1      43.114  34.504  28.920  1.00  0.00     0.023 A 
ATOM     96  C   UNL A   1      42.157  35.512  28.646  1.00  0.00     0.012 A 
ATOM     97  C   UNL A   1      43.805  33.917  27.847  1.00  0.00     0.148 A 
ATOM     98  C   UNL A   1      42.002  36.023  27.356  1.00  0.00     0.002 A 
ATOM     99  C   UNL A   1      43.635  34.425  26.559  1.00  0.00     0.091 A 
ATOM    100  F   UNL A   1      44.672  32.929  28.105  1.00  0.00    -0.205 F 
ATOM    101  C   UNL A   1      42.768  35.502  26.320  1.00  0.00     0.022 A 
BRANCH  99 102
ATOM    102  S   UNL A   1      44.612  33.817  25.177  1.00  0.00     0.127 S 
ATOM    103  O   UNL A   1      45.965  34.164  25.602  1.00  0.00    -0.237 OA
ATOM    104  O   UNL A   1      44.312  32.386  25.182  1.00  0.00    -0.237 OA
ATOM    105  O   UNL A   1      44.091  34.528  24.019  1.00  0.00    -0.744 OA
ENDBRANCH  99 102
ENDBRANCH  71  95
BRANCH  83 106
ATOM    106  C   UNL A   1      43.953  38.873  34.689  1.00  0.00     0.023 A 
ATOM    107  C   UNL A   1      44.578  39.155  35.917  1.00  0.00     0.012 A 
ATOM    108  C   UNL A   1      43.546  40.015  33.936  1.00  0.00     0.148 A 
ATOM    109  C   UNL A   1      44.798  40.463  36.374  1.00  0.00     0.002 A 
ATOM    110  C   UNL A   1      43.848  41.313  34.348  1.00  0.00     0.091 A 
ATOM    111  F   UNL A   1      42.818  39.864  32.822  1.00  0.00    -0.205 F 
ATOM    112  C   UNL A   1      44.461  41.543  35.577  1.00  0.00     0.022 A 
BRANCH 110 113
ATOM    113  S   UNL A   1      43.574  42.722  33.262  1.00  0.00     0.127 S 
ATOM    114  O   UNL A   1      42.121  42.862  33.308  1.00  0.00    -0.237 OA
ATOM    115  O   UNL A   1      44.310  43.791  33.941  1.00  0.00    -0.237 OA
ATOM    116  O   UNL A   1      44.146  42.329  31.981  1.00  0.00    -0.744 OA
ENDBRANCH 110 113
ENDBRANCH  83 106
ENDBRANCH  57  58
ENDBRANCH  49  52
ENDBRANCH  47  48
ENDBRANCH  46  47
ENDBRANCH  45  46
ENDBRANCH  44  45
ENDBRANCH   1  44
TORSDOF 23
ENDMDL
MODEL 2
REMARK VINA RESULT:     -12.3      6.404     13.726
REMARK SMILES Cc1ccc(S(=O)(=O)n2cc(C(=O)C(=O)N[C@@H](Cc3c[nH]c4ccccc34)C(=O)NCCCCCCNC(=O)c3ccc(-c4c5nc(c(-c6cccc(S(=O)(=O)[O-])c6F)c6ccc([nH]6)c(-c6cccc(S(=O)(=O)[O-])c6F)c6nc(c(-c7cccc(S(=O)(=O)[O-])c7F)c7ccc4[nH]7)C=C6)C=C5)cc3)c3ccccc32)cc1
REMARK SMILES IDX 32 1 31 2 30 3 28 4 29 5 17 7 16 8 14 9 15 10 12 12 13 13
REMARK SMILES IDX 11 14 9 15 10 16 108 17 103 18 107 19 104 20 106 21 105 22
REMARK SMILES IDX 6 23 7 24 8 25 5 26 1 27 2 28 3 29 110 30 4 31 109 32 18 33
REMARK SMILES IDX 19 34 20 35 27 36 21 37 22 38 26 39 23 41 25 42 24 43 33 44
REMARK SMILES IDX 34 45 35 46 36 47 37 48 38 49 39 51 40 52 41 53 102 54 42 55
REMARK SMILES IDX 101 56 43 57 44 58 45 59 95 60 46 61 100 62 94 63 96 64
REMARK SMILES IDX 47 65 99 66 93 67 92 68 48 70 80 71 60 72 79 73 61 74 64 75
REMARK SMILES IDX 78 76 97 77 62 78 63 79 77 81 98 82 65 83 49 84 50 85 58 86
REMARK SMILES IDX 51 87 53 88 59 89 52 90 54 91 55 92 56 93 57 94 81 95 82 96
REMARK SMILES IDX 90 97 83 98 85 99 91 100 84 101 86 102 87 103 88 104 89 105
REMARK SMILES IDX 66 106 67 107 75 108 68 109 70 110 76 111 69 112 71 113
REMARK SMILES IDX 72 114 73 115 74 116
REMARK H PARENT 30 6 16 11 21 40 37 50 96 69 64 80
REMARK Flexibility Score: inf
ROOT
ATOM      1  C   UNL A   1      34.775  23.273  25.963  1.00  0.00     0.021 C 
ENDROOT
BRANCH   1   2
ATOM      2  C   UNL A   1      33.901  24.515  25.860  1.00  0.00     0.116 C 
BRANCH   2   3
ATOM      3  N   UNL A   1      34.381  25.585  25.020  1.00  0.00    -0.354 N 
ATOM      4  C   UNL A   1      33.776  26.798  24.812  1.00  0.00     0.242 C 
ATOM      5  O   UNL A   1      34.527  27.771  24.653  1.00  0.00    -0.273 OA
ATOM      6  H   UNL A   1      35.230  25.429  24.547  1.00  0.00     0.163 HD
BRANCH   4   7
ATOM      7  C   UNL A   1      32.234  27.022  24.916  1.00  0.00     0.176 C 
BRANCH   7   8
ATOM      8  N   UNL A   1      31.687  27.243  26.273  1.00  0.00    -0.337 N 
ATOM      9  C   UNL A   1      31.875  28.290  27.169  1.00  0.00     0.293 C 
ATOM     10  O   UNL A   1      31.457  28.209  28.319  1.00  0.00    -0.265 OA
ATOM     11  H   UNL A   1      31.091  26.530  26.596  1.00  0.00     0.164 HD
BRANCH   9  12
ATOM     12  C   UNL A   1      32.587  29.574  26.732  1.00  0.00     0.252 C 
ATOM     13  O   UNL A   1      32.094  30.151  25.762  1.00  0.00    -0.283 OA
BRANCH  12  14
ATOM     14  C   UNL A   1      33.857  30.043  27.332  1.00  0.00     0.054 A 
ATOM     15  N   UNL A   1      35.933  30.301  28.220  1.00  0.00    -0.240 N 
ATOM     16  C   UNL A   1      34.996  29.358  27.787  1.00  0.00     0.117 A 
ATOM     17  C   UNL A   1      35.450  31.569  27.847  1.00  0.00     0.065 A 
ATOM     18  C   UNL A   1      34.080  31.414  27.670  1.00  0.00     0.012 A 
ATOM     19  C   UNL A   1      36.036  32.847  27.951  1.00  0.00     0.028 A 
ATOM     20  C   UNL A   1      33.251  32.549  27.806  1.00  0.00     0.011 A 
ATOM     21  C   UNL A   1      35.195  33.939  28.160  1.00  0.00     0.002 A 
ATOM     22  C   UNL A   1      33.817  33.784  28.132  1.00  0.00     0.001 A 
BRANCH  15  23
ATOM     23  S   UNL A   1      36.723  30.377  29.781  1.00  0.00     0.268 S 
ATOM     24  O   UNL A   1      38.134  30.410  29.430  1.00  0.00    -0.201 OA
ATOM     25  O   UNL A   1      36.151  29.219  30.461  1.00  0.00    -0.201 OA
BRANCH  23  26
ATOM     26  C   UNL A   1      36.546  31.592  31.037  1.00  0.00     0.088 A 
ATOM     27  C   UNL A   1      35.101  34.749  33.618  1.00  0.00     0.044 C 
ATOM     28  C   UNL A   1      35.636  33.627  32.773  1.00  0.00    -0.051 A 
ATOM     29  C   UNL A   1      34.711  32.839  32.105  1.00  0.00     0.005 A 
ATOM     30  C   UNL A   1      37.014  33.372  32.584  1.00  0.00     0.005 A 
ATOM     31  C   UNL A   1      35.165  31.837  31.268  1.00  0.00     0.022 A 
ATOM     32  C   UNL A   1      37.483  32.355  31.709  1.00  0.00     0.022 A 
ENDBRANCH  23  26
ENDBRANCH  15  23
ENDBRANCH  12  14
ENDBRANCH   9  12
ENDBRANCH   7   8
BRANCH   7  33
ATOM     33  C   UNL A   1      31.690  28.016  23.840  1.00  0.00     0.072 C 
BRANCH  33  34
ATOM     34  C   UNL A   1      30.197  28.156  23.656  1.00  0.00    -0.020 A 
ATOM     35  C   UNL A   1      29.298  27.112  23.504  1.00  0.00     0.087 A 
ATOM     36  C   UNL A   1      29.416  29.363  23.596  1.00  0.00     0.003 A 
ATOM     37  N   UNL A   1      28.055  27.634  23.254  1.00  0.00    -0.361 N 
ATOM     38  C   UNL A   1      28.123  29.006  23.204  1.00  0.00     0.046 A 
ATOM     39  C   UNL A   1      29.706  30.735  23.740  1.00  0.00     0.010 A 
ATOM     40  H   UNL A   1      27.234  27.105  23.128  1.00  0.00     0.166 HD
ATOM     41  C   UNL A   1      27.153  29.945  22.834  1.00  0.00     0.026 A 
ATOM     42  C   UNL A   1      28.761  31.687  23.342  1.00  0.00     0.001 A 
ATOM     43  C   UNL A   1      27.512  31.295  22.872  1.00  0.00     0.002 A 
ENDBRANCH  33  34
ENDBRANCH   7  33
ENDBRANCH   4   7
ENDBRANCH   2   3
ENDBRANCH   1   2
BRANCH   1  44
ATOM     44  C   UNL A   1      35.807  23.027  24.858  1.00  0.00     0.002 C 
BRANCH  44  45
ATOM     45  C   UNL A   1      37.294  23.263  25.162  1.00  0.00     0.002 C 
BRANCH  45  46
ATOM     46  C   UNL A   1      37.656  24.066  26.410  1.00  0.00     0.021 C 
BRANCH  46  47
ATOM     47  C   UNL A   1      39.140  24.221  26.697  1.00  0.00     0.116 C 
BRANCH  47  48
ATOM     48  N   UNL A   1      39.942  23.069  26.314  1.00  0.00    -0.352 N 
ATOM     49  C   UNL A   1      41.300  22.859  26.479  1.00  0.00     0.251 C 
ATOM     50  H   UNL A   1      39.449  22.337  25.877  1.00  0.00     0.163 HD
ATOM     51  O   UNL A   1      41.828  21.890  25.933  1.00  0.00    -0.269 OA
BRANCH  49  52
ATOM     52  C   UNL A   1      42.063  23.721  27.413  1.00  0.00     0.039 A 
ATOM     53  C   UNL A   1      42.293  25.050  27.034  1.00  0.00     0.014 A 
ATOM     54  C   UNL A   1      42.754  23.173  28.491  1.00  0.00     0.014 A 
ATOM     55  C   UNL A   1      43.397  25.729  27.545  1.00  0.00     0.010 A 
ATOM     56  C   UNL A   1      43.900  23.800  28.927  1.00  0.00     0.010 A 
ATOM     57  C   UNL A   1      44.257  25.044  28.396  1.00  0.00    -0.014 A 
BRANCH  57  58
ATOM     58  C   UNL A   1      45.591  25.495  28.756  1.00  0.00     0.031 A 
ATOM     59  C   UNL A   1      46.748  25.110  27.934  1.00  0.00     0.074 A 
ATOM     60  C   UNL A   1      45.724  26.412  29.738  1.00  0.00     0.049 A 
ATOM     61  N   UNL A   1      47.972  25.228  28.314  1.00  0.00    -0.248 NA
ATOM     62  C   UNL A   1      46.599  24.525  26.611  1.00  0.00     0.031 C 
ATOM     63  C   UNL A   1      46.866  27.283  29.989  1.00  0.00     0.029 A 
ATOM     64  N   UNL A   1      44.916  26.572  30.867  1.00  0.00    -0.354 N 
ATOM     65  C   UNL A   1      48.769  25.013  27.211  1.00  0.00     0.074 A 
ATOM     66  C   UNL A   1      47.872  24.494  26.206  1.00  0.00     0.031 C 
ATOM     67  C   UNL A   1      46.849  27.651  31.279  1.00  0.00     0.029 A 
ATOM     68  C   UNL A   1      45.793  26.886  31.919  1.00  0.00     0.049 A 
ATOM     69  H   UNL A   1      43.937  26.483  30.916  1.00  0.00     0.167 HD
ATOM     70  C   UNL A   1      50.062  25.446  27.245  1.00  0.00     0.034 A 
ATOM     71  C   UNL A   1      45.940  26.119  33.038  1.00  0.00     0.034 A 
ATOM     72  C   UNL A   1      50.406  25.967  28.578  1.00  0.00     0.049 A 
ATOM     73  C   UNL A   1      47.371  25.681  33.288  1.00  0.00     0.074 A 
ATOM     74  C   UNL A   1      50.493  27.246  29.107  1.00  0.00     0.029 A 
ATOM     75  N   UNL A   1      50.459  25.095  29.656  1.00  0.00    -0.354 N 
ATOM     76  N   UNL A   1      48.359  25.848  32.453  1.00  0.00    -0.248 NA
ATOM     77  C   UNL A   1      47.793  24.985  34.498  1.00  0.00     0.031 C 
ATOM     78  C   UNL A   1      50.562  27.134  30.523  1.00  0.00     0.029 A 
ATOM     79  C   UNL A   1      50.538  25.790  30.854  1.00  0.00     0.049 A 
ATOM     80  H   UNL A   1      50.444  24.113  29.582  1.00  0.00     0.167 HD
ATOM     81  C   UNL A   1      49.484  25.199  32.909  1.00  0.00     0.074 A 
ATOM     82  C   UNL A   1      49.088  24.743  34.232  1.00  0.00     0.031 C 
ATOM     83  C   UNL A   1      50.601  25.060  32.120  1.00  0.00     0.034 A 
BRANCH  70  84
ATOM     84  C   UNL A   1      50.938  25.689  26.023  1.00  0.00     0.023 A 
ATOM     85  C   UNL A   1      52.170  24.997  25.965  1.00  0.00     0.012 A 
ATOM     86  C   UNL A   1      50.698  26.594  24.965  1.00  0.00     0.148 A 
ATOM     87  C   UNL A   1      53.145  25.264  24.996  1.00  0.00     0.002 A 
ATOM     88  C   UNL A   1      51.693  26.914  24.035  1.00  0.00     0.091 A 
ATOM     89  F   UNL A   1      49.476  27.097  24.782  1.00  0.00    -0.205 F 
ATOM     90  C   UNL A   1      52.923  26.253  24.052  1.00  0.00     0.022 A 
BRANCH  88  91
ATOM     91  S   UNL A   1      51.499  28.238  22.827  1.00  0.00     0.127 S 
ATOM     92  O   UNL A   1      50.334  27.785  22.061  1.00  0.00    -0.237 OA
ATOM     93  O   UNL A   1      51.253  29.404  23.671  1.00  0.00    -0.237 OA
ATOM     94  O   UNL A   1      52.736  28.271  22.055  1.00  0.00    -0.744 OA
ENDBRANCH  88  91
ENDBRANCH  70  84
BRANCH  71  95
ATOM     95  C   UNL A   1      44.719  25.335  33.392  1.00  0.00     0.023 A 
ATOM     96  C   UNL A   1      44.767  23.938  33.158  1.00  0.00     0.012 A 
ATOM     97  C   UNL A   1      43.747  25.841  34.271  1.00  0.00     0.148 A 
ATOM     98  C   UNL A   1      43.968  23.060  33.892  1.00  0.00     0.002 A 
ATOM     99  C   UNL A   1      42.944  24.956  34.992  1.00  0.00     0.091 A 
ATOM    100  F   UNL A   1      43.671  27.165  34.452  1.00  0.00    -0.205 F 
ATOM    101  C   UNL A   1      43.082  23.568  34.834  1.00  0.00     0.022 A 
BRANCH  99 102
ATOM    102  S   UNL A   1      41.796  25.543  36.246  1.00  0.00     0.127 S 
ATOM    103  O   UNL A   1      40.830  26.278  35.435  1.00  0.00    -0.237 OA
ATOM    104  O   UNL A   1      41.295  24.298  36.825  1.00  0.00    -0.237 OA
ATOM    105  O   UNL A   1      42.617  26.331  37.153  1.00  0.00    -0.744 OA
ENDBRANCH  99 102
ENDBRANCH  71  95
BRANCH  83 106
ATOM    106  C   UNL A   1      51.850  24.216  32.406  1.00  0.00     0.023 A 
ATOM    107  C   UNL A   1      53.163  24.687  32.226  1.00  0.00     0.012 A 
ATOM    108  C   UNL A   1      51.743  22.907  32.965  1.00  0.00     0.148 A 
ATOM    109  C   UNL A   1      54.293  23.933  32.574  1.00  0.00     0.002 A 
ATOM    110  C   UNL A   1      52.865  22.198  33.397  1.00  0.00     0.091 A 
ATOM    111  F   UNL A   1      50.550  22.305  33.051  1.00  0.00    -0.205 F 
ATOM    112  C   UNL A   1      54.146  22.701  33.188  1.00  0.00     0.022 A 
BRANCH 110 113
ATOM    113  S   UNL A   1      52.697  20.676  34.343  1.00  0.00     0.127 S 
ATOM    114  O   UNL A   1      52.022  19.799  33.390  1.00  0.00    -0.237 OA
ATOM    115  O   UNL A   1      54.091  20.320  34.617  1.00  0.00    -0.237 OA
ATOM    116  O   UNL A   1      51.936  21.050  35.528  1.00  0.00    -0.744 OA
ENDBRANCH 110 113
ENDBRANCH  83 106
ENDBRANCH  57  58
ENDBRANCH  49  52
ENDBRANCH  47  48
ENDBRANCH  46  47
ENDBRANCH  45  46
ENDBRANCH  44  45
ENDBRANCH   1  44
TORSDOF 23
ENDMDL
MODEL 3
REMARK VINA RESULT:     -11.6      5.163      9.564
REMARK SMILES Cc1ccc(S(=O)(=O)n2cc(C(=O)C(=O)N[C@@H](Cc3c[nH]c4ccccc34)C(=O)NCCCCCCNC(=O)c3ccc(-c4c5nc(c(-c6cccc(S(=O)(=O)[O-])c6F)c6ccc([nH]6)c(-c6cccc(S(=O)(=O)[O-])c6F)c6nc(c(-c7cccc(S(=O)(=O)[O-])c7F)c7ccc4[nH]7)C=C6)C=C5)cc3)c3ccccc32)cc1
REMARK SMILES IDX 32 1 31 2 30 3 28 4 29 5 17 7 16 8 14 9 15 10 12 12 13 13
REMARK SMILES IDX 11 14 9 15 10 16 108 17 103 18 107 19 104 20 106 21 105 22
REMARK SMILES IDX 6 23 7 24 8 25 5 26 1 27 2 28 3 29 110 30 4 31 109 32 18 33
REMARK SMILES IDX 19 34 20 35 27 36 21 37 22 38 26 39 23 41 25 42 24 43 33 44
REMARK SMILES IDX 34 45 35 46 36 47 37 48 38 49 39 51 40 52 41 53 102 54 42 55
REMARK SMILES IDX 101 56 43 57 44 58 45 59 95 60 46 61 100 62 94 63 96 64
REMARK SMILES IDX 47 65 99 66 93 67 92 68 48 70 80 71 60 72 79 73 61 74 64 75
REMARK SMILES IDX 78 76 97 77 62 78 63 79 77 81 98 82 65 83 49 84 50 85 58 86
REMARK SMILES IDX 51 87 53 88 59 89 52 90 54 91 55 92 56 93 57 94 81 95 82 96
REMARK SMILES IDX 90 97 83 98 85 99 91 100 84 101 86 102 87 103 88 104 89 105
REMARK SMILES IDX 66 106 67 107 75 108 68 109 70 110 76 111 69 112 71 113
REMARK SMILES IDX 72 114 73 115 74 116
REMARK H PARENT 30 6 16 11 21 40 37 50 96 69 64 80
REMARK Flexibility Score: inf
ROOT
ATOM      1  C   UNL A   1      46.073  28.942  26.831  1.00  0.00     0.021 C 
ENDROOT
BRANCH   1   2
ATOM      2  C   UNL A   1      45.685  27.973  25.724  1.00  0.00     0.116 C 
BRANCH   2   3
ATOM      3  N   UNL A   1      46.761  27.305  25.031  1.00  0.00    -0.354 N 
ATOM      4  C   UNL A   1      47.055  25.967  25.072  1.00  0.00     0.242 C 
ATOM      5  O   UNL A   1      47.501  25.466  24.029  1.00  0.00    -0.273 OA
ATOM      6  H   UNL A   1      47.343  27.868  24.471  1.00  0.00     0.163 HD
BRANCH   4   7
ATOM      7  C   UNL A   1      46.721  25.047  26.288  1.00  0.00     0.176 C 
BRANCH   7   8
ATOM      8  N   UNL A   1      46.785  23.587  26.052  1.00  0.00    -0.337 N 
ATOM      9  C   UNL A   1      45.863  22.719  25.479  1.00  0.00     0.293 C 
ATOM     10  O   UNL A   1      46.039  21.506  25.521  1.00  0.00    -0.265 OA
ATOM     11  H   UNL A   1      47.620  23.160  26.350  1.00  0.00     0.164 HD
BRANCH   9  12
ATOM     12  C   UNL A   1      44.619  23.259  24.765  1.00  0.00     0.252 C 
ATOM     13  O   UNL A   1      44.607  23.120  23.541  1.00  0.00    -0.283 OA
BRANCH  12  14
ATOM     14  C   UNL A   1      43.551  24.016  25.456  1.00  0.00     0.054 A 
ATOM     15  N   UNL A   1      42.146  25.562  26.352  1.00  0.00    -0.240 N 
ATOM     16  C   UNL A   1      43.360  25.390  25.680  1.00  0.00     0.117 A 
ATOM     17  C   UNL A   1      41.497  24.313  26.364  1.00  0.00     0.065 A 
ATOM     18  C   UNL A   1      42.496  23.367  26.169  1.00  0.00     0.012 A 
ATOM     19  C   UNL A   1      40.215  23.945  26.822  1.00  0.00     0.028 A 
ATOM     20  C   UNL A   1      42.277  22.052  26.635  1.00  0.00     0.011 A 
ATOM     21  C   UNL A   1      40.050  22.663  27.345  1.00  0.00     0.002 A 
ATOM     22  C   UNL A   1      41.085  21.740  27.294  1.00  0.00     0.001 A 
BRANCH  15  23
ATOM     23  S   UNL A   1      41.875  26.412  27.858  1.00  0.00     0.268 S 
ATOM     24  O   UNL A   1      42.959  27.382  27.884  1.00  0.00    -0.201 OA
ATOM     25  O   UNL A   1      41.837  25.314  28.818  1.00  0.00    -0.201 OA
BRANCH  23  26
ATOM     26  C   UNL A   1      40.456  27.315  28.363  1.00  0.00     0.088 A 
ATOM     27  C   UNL A   1      37.456  30.368  28.997  1.00  0.00     0.044 C 
ATOM     28  C   UNL A   1      38.450  29.261  28.781  1.00  0.00    -0.051 A 
ATOM     29  C   UNL A   1      39.241  29.332  27.644  1.00  0.00     0.005 A 
ATOM     30  C   UNL A   1      38.654  28.198  29.689  1.00  0.00     0.005 A 
ATOM     31  C   UNL A   1      40.211  28.368  27.441  1.00  0.00     0.022 A 
ATOM     32  C   UNL A   1      39.664  27.216  29.492  1.00  0.00     0.022 A 
ENDBRANCH  23  26
ENDBRANCH  15  23
ENDBRANCH  12  14
ENDBRANCH   9  12
ENDBRANCH   7   8
BRANCH   7  33
ATOM     33  C   UNL A   1      47.416  25.509  27.610  1.00  0.00     0.072 C 
BRANCH  33  34
ATOM     34  C   UNL A   1      46.583  25.681  28.858  1.00  0.00    -0.020 A 
ATOM     35  C   UNL A   1      46.692  26.720  29.770  1.00  0.00     0.087 A 
ATOM     36  C   UNL A   1      45.536  24.827  29.354  1.00  0.00     0.003 A 
ATOM     37  N   UNL A   1      45.848  26.473  30.822  1.00  0.00    -0.361 N 
ATOM     38  C   UNL A   1      45.208  25.271  30.638  1.00  0.00     0.046 A 
ATOM     39  C   UNL A   1      44.905  23.660  28.879  1.00  0.00     0.010 A 
ATOM     40  H   UNL A   1      45.720  27.068  31.595  1.00  0.00     0.166 HD
ATOM     41  C   UNL A   1      44.382  24.546  31.506  1.00  0.00     0.026 A 
ATOM     42  C   UNL A   1      44.105  22.905  29.743  1.00  0.00     0.001 A 
ATOM     43  C   UNL A   1      43.869  23.331  31.045  1.00  0.00     0.002 A 
ENDBRANCH  33  34
ENDBRANCH   7  33
ENDBRANCH   4   7
ENDBRANCH   2   3
ENDBRANCH   1   2
BRANCH   1  44
ATOM     44  C   UNL A   1      47.562  29.238  27.038  1.00  0.00     0.002 C 
BRANCH  44  45
ATOM     45  C   UNL A   1      48.058  29.607  28.445  1.00  0.00     0.002 C 
BRANCH  45  46
ATOM     46  C   UNL A   1      47.095  30.337  29.381  1.00  0.00     0.021 C 
BRANCH  46  47
ATOM     47  C   UNL A   1      47.426  31.791  29.676  1.00  0.00     0.116 C 
BRANCH  47  48
ATOM     48  N   UNL A   1      47.772  32.572  28.498  1.00  0.00    -0.352 N 
ATOM     49  C   UNL A   1      46.934  33.165  27.570  1.00  0.00     0.251 C 
ATOM     50  H   UNL A   1      48.736  32.695  28.340  1.00  0.00     0.163 HD
ATOM     51  O   UNL A   1      47.418  33.640  26.543  1.00  0.00    -0.269 OA
BRANCH  49  52
ATOM     52  C   UNL A   1      45.497  33.338  27.890  1.00  0.00     0.039 A 
ATOM     53  C   UNL A   1      45.153  34.300  28.849  1.00  0.00     0.014 A 
ATOM     54  C   UNL A   1      44.552  32.407  27.465  1.00  0.00     0.014 A 
ATOM     55  C   UNL A   1      43.973  34.158  29.573  1.00  0.00     0.010 A 
ATOM     56  C   UNL A   1      43.432  32.203  28.241  1.00  0.00     0.010 A 
ATOM     57  C   UNL A   1      43.186  33.035  29.340  1.00  0.00    -0.014 A 
BRANCH  57  58
ATOM     58  C   UNL A   1      42.114  32.585  30.211  1.00  0.00     0.031 A 
ATOM     59  C   UNL A   1      40.915  33.415  30.398  1.00  0.00     0.074 A 
ATOM     60  C   UNL A   1      42.156  31.324  30.694  1.00  0.00     0.049 A 
ATOM     61  N   UNL A   1      40.055  33.236  31.338  1.00  0.00    -0.248 NA
ATOM     62  C   UNL A   1      40.614  34.548  29.536  1.00  0.00     0.031 C 
ATOM     63  C   UNL A   1      41.047  30.542  31.228  1.00  0.00     0.029 A 
ATOM     64  N   UNL A   1      43.290  30.573  31.014  1.00  0.00    -0.354 N 
ATOM     65  C   UNL A   1      38.961  34.022  31.051  1.00  0.00     0.074 A 
ATOM     66  C   UNL A   1      39.397  34.879  29.974  1.00  0.00     0.031 C 
ATOM     67  C   UNL A   1      41.541  29.601  32.046  1.00  0.00     0.029 A 
ATOM     68  C   UNL A   1      42.961  29.870  32.186  1.00  0.00     0.049 A 
ATOM     69  H   UNL A   1      44.141  30.542  30.521  1.00  0.00     0.167 HD
ATOM     70  C   UNL A   1      37.775  33.740  31.664  1.00  0.00     0.034 A 
ATOM     71  C   UNL A   1      43.626  30.016  33.368  1.00  0.00     0.034 A 
ATOM     72  C   UNL A   1      37.943  32.676  32.667  1.00  0.00     0.049 A 
ATOM     73  C   UNL A   1      42.724  30.403  34.526  1.00  0.00     0.074 A 
ATOM     74  C   UNL A   1      37.687  31.313  32.661  1.00  0.00     0.029 A 
ATOM     75  N   UNL A   1      38.701  32.925  33.803  1.00  0.00    -0.354 N 
ATOM     76  N   UNL A   1      41.470  30.744  34.412  1.00  0.00    -0.248 NA
ATOM     77  C   UNL A   1      43.183  30.467  35.908  1.00  0.00     0.031 C 
ATOM     78  C   UNL A   1      38.332  30.738  33.790  1.00  0.00     0.029 A 
ATOM     79  C   UNL A   1      38.962  31.751  34.493  1.00  0.00     0.049 A 
ATOM     80  H   UNL A   1      39.011  33.817  34.082  1.00  0.00     0.167 HD
ATOM     81  C   UNL A   1      40.986  31.189  35.621  1.00  0.00     0.074 A 
ATOM     82  C   UNL A   1      42.084  30.919  36.537  1.00  0.00     0.031 C 
ATOM     83  C   UNL A   1      39.752  31.786  35.723  1.00  0.00     0.034 A 
BRANCH  70  84
ATOM     84  C   UNL A   1      36.405  34.190  31.173  1.00  0.00     0.023 A 
ATOM     85  C   UNL A   1      35.547  34.795  32.122  1.00  0.00     0.012 A 
ATOM     86  C   UNL A   1      35.853  34.002  29.886  1.00  0.00     0.148 A 
ATOM     87  C   UNL A   1      34.205  35.087  31.851  1.00  0.00     0.002 A 
ATOM     88  C   UNL A   1      34.496  34.229  29.631  1.00  0.00     0.091 A 
ATOM     89  F   UNL A   1      36.646  33.687  28.861  1.00  0.00    -0.205 F 
ATOM     90  C   UNL A   1      33.667  34.767  30.617  1.00  0.00     0.022 A 
BRANCH  88  91
ATOM     91  S   UNL A   1      33.716  33.770  28.072  1.00  0.00     0.127 S 
ATOM     92  O   UNL A   1      32.339  34.231  28.272  1.00  0.00    -0.237 OA
ATOM     93  O   UNL A   1      34.479  34.542  27.096  1.00  0.00    -0.237 OA
ATOM     94  O   UNL A   1      33.842  32.320  27.964  1.00  0.00    -0.744 OA
ENDBRANCH  88  91
ENDBRANCH  70  84
BRANCH  71  95
ATOM     95  C   UNL A   1      45.053  30.425  33.208  1.00  0.00     0.023 A 
ATOM     96  C   UNL A   1      45.320  31.816  33.179  1.00  0.00     0.012 A 
ATOM     97  C   UNL A   1      46.110  29.539  33.479  1.00  0.00     0.148 A 
ATOM     98  C   UNL A   1      46.567  32.316  33.558  1.00  0.00     0.002 A 
ATOM     99  C   UNL A   1      47.357  30.046  33.844  1.00  0.00     0.091 A 
ATOM    100  F   UNL A   1      45.865  28.222  33.455  1.00  0.00    -0.205 F 
ATOM    101  C   UNL A   1      47.574  31.431  33.924  1.00  0.00     0.022 A 
BRANCH  99 102
ATOM    102  S   UNL A   1      48.695  28.960  34.356  1.00  0.00     0.127 S 
ATOM    103  O   UNL A   1      49.694  29.923  34.810  1.00  0.00    -0.237 OA
ATOM    104  O   UNL A   1      48.074  28.169  35.418  1.00  0.00    -0.237 OA
ATOM    105  O   UNL A   1      49.023  28.195  33.163  1.00  0.00    -0.744 OA
ENDBRANCH  99 102
ENDBRANCH  71  95
BRANCH  83 106
ATOM    106  C   UNL A   1      39.153  32.495  36.946  1.00  0.00     0.023 A 
ATOM    107  C   UNL A   1      38.209  31.900  37.802  1.00  0.00     0.012 A 
ATOM    108  C   UNL A   1      39.597  33.793  37.336  1.00  0.00     0.148 A 
ATOM    109  C   UNL A   1      37.737  32.528  38.964  1.00  0.00     0.002 A 
ATOM    110  C   UNL A   1      39.197  34.377  38.539  1.00  0.00     0.091 A 
ATOM    111  F   UNL A   1      40.386  34.509  36.525  1.00  0.00    -0.205 F 
ATOM    112  C   UNL A   1      38.253  33.754  39.350  1.00  0.00     0.022 A 
BRANCH 110 113
ATOM    113  S   UNL A   1      39.972  35.884  39.146  1.00  0.00     0.127 S 
ATOM    114  O   UNL A   1      39.542  36.866  38.154  1.00  0.00    -0.237 OA
ATOM    115  O   UNL A   1      39.357  36.044  40.466  1.00  0.00    -0.237 OA
ATOM    116  O   UNL A   1      41.397  35.586  39.187  1.00  0.00    -0.744 OA
ENDBRANCH 110 113
ENDBRANCH  83 106
ENDBRANCH  57  58
ENDBRANCH  49  52
ENDBRANCH  47  48
ENDBRANCH  46  47
ENDBRANCH  45  46
ENDBRANCH  44  45
ENDBRANCH   1  44
TORSDOF 23
ENDMDL
