MODEL 1
REMARK VINA RESULT:     -11.7      0.000      0.000
REMARK SMILES O=C(NCCCCCCNC(=O)c1ccc(-c2c3nc(c(-c4cccc(S(=O)(=O)[O-])c4F)c4ccc([nH]4)c(-c4cccc(S(=O)(=O)[O-])c4F)c4nc(c(-c5cccc(S(=O)(=O)[O-])c5F)c5ccc2[nH]5)C=C4)C=C3)cc1)C1=Cc2cc(Cl)cc(Cl)c2O[C@@H]1C(F)(F)F
REMARK SMILES IDX 7 1 6 2 5 3 4 4 3 5 1 6 2 7 76 9 77 10 87 11 78 12 86 13
REMARK SMILES IDX 79 14 85 15 80 16 83 17 81 18 82 19 84 20 88 21 89 22 90 23
REMARK SMILES IDX 91 24 8 25 9 26 10 27 11 28 12 30 13 31 14 32 75 33 15 34
REMARK SMILES IDX 74 35 16 36 17 37 18 38 68 39 19 40 73 41 67 42 69 43 20 44
REMARK SMILES IDX 72 45 66 46 65 47 21 49 53 50 33 51 52 52 34 53 37 54 51 55
REMARK SMILES IDX 70 56 35 57 36 58 50 60 71 61 38 62 22 63 23 64 31 65 24 66
REMARK SMILES IDX 26 67 32 68 25 69 27 70 28 71 29 72 30 73 54 74 55 75 63 76
REMARK SMILES IDX 56 77 58 78 64 79 57 80 59 81 60 82 61 83 62 84 39 85 40 86
REMARK SMILES IDX 48 87 41 88 43 89 49 90 42 91 44 92 45 93 46 94 47 95
REMARK H PARENT 3 8 10 29 69 48 37 59
REMARK Flexibility Score: inf
ROOT
ATOM      1  C   UNL A   1      33.718  27.679  23.950  1.00  0.00     0.002 C 
ENDROOT
BRANCH   1   2
ATOM      2  C   UNL A   1      33.246  27.724  22.491  1.00  0.00     0.002 C 
BRANCH   2   3
ATOM      3  C   UNL A   1      31.764  27.452  22.240  1.00  0.00     0.021 C 
BRANCH   3   4
ATOM      4  C   UNL A   1      31.349  25.990  22.144  1.00  0.00     0.116 C 
BRANCH   4   5
ATOM      5  N   UNL A   1      32.366  25.074  21.663  1.00  0.00    -0.352 N 
ATOM      6  O   UNL A   1      33.664  23.246  21.623  1.00  0.00    -0.270 OA
ATOM      7  C   UNL A   1      32.903  23.970  22.264  1.00  0.00     0.251 C 
ATOM      8  H   UNL A   1      32.725  25.279  20.769  1.00  0.00     0.163 HD
BRANCH   7   9
ATOM      9  C   UNL A   1      32.540  23.543  23.653  1.00  0.00     0.067 C 
ATOM     10  C   UNL A   1      31.871  22.408  23.929  1.00  0.00     0.025 C 
ATOM     11  C   UNL A   1      33.521  24.056  24.685  1.00  0.00     0.314 C 
ATOM     12  C   UNL A   1      32.802  21.370  24.460  1.00  0.00     0.020 A 
ATOM     13  O   UNL A   1      34.496  23.033  25.020  1.00  0.00    -0.474 OA
ATOM     14  C   UNL A   1      32.457  20.026  24.272  1.00  0.00     0.032 A 
ATOM     15  C   UNL A   1      34.104  21.722  24.858  1.00  0.00     0.146 A 
ATOM     16  C   UNL A   1      33.443  19.047  24.371  1.00  0.00     0.043 A 
ATOM     17  C   UNL A   1      35.076  20.720  24.974  1.00  0.00     0.085 A 
ATOM     18  Cl  UNL A   1      33.070  17.431  23.917  1.00  0.00    -0.084 Cl
ATOM     19  C   UNL A   1      34.752  19.387  24.710  1.00  0.00     0.045 A 
ATOM     20  Cl  UNL A   1      36.727  21.117  25.288  1.00  0.00    -0.080 Cl
BRANCH  11  21
ATOM     21  C   UNL A   1      32.833  24.620  25.938  1.00  0.00     0.429 C 
ATOM     22  F   UNL A   1      32.707  23.676  26.901  1.00  0.00    -0.167 F 
ATOM     23  F   UNL A   1      33.543  25.638  26.481  1.00  0.00    -0.167 F 
ATOM     24  F   UNL A   1      31.593  25.098  25.679  1.00  0.00    -0.167 F 
ENDBRANCH  11  21
ENDBRANCH   7   9
ENDBRANCH   4   5
ENDBRANCH   3   4
ENDBRANCH   2   3
ENDBRANCH   1   2
BRANCH   1  25
ATOM     25  C   UNL A   1      33.232  28.800  24.874  1.00  0.00     0.021 C 
BRANCH  25  26
ATOM     26  C   UNL A   1      33.954  28.937  26.212  1.00  0.00     0.116 C 
BRANCH  26  27
ATOM     27  N   UNL A   1      33.810  30.258  26.799  1.00  0.00    -0.352 N 
ATOM     28  C   UNL A   1      34.577  30.900  27.741  1.00  0.00     0.251 C 
ATOM     29  H   UNL A   1      33.040  30.775  26.470  1.00  0.00     0.163 HD
ATOM     30  O   UNL A   1      34.186  31.965  28.208  1.00  0.00    -0.269 OA
BRANCH  28  31
ATOM     31  C   UNL A   1      35.857  30.315  28.211  1.00  0.00     0.039 A 
ATOM     32  C   UNL A   1      36.984  30.428  27.391  1.00  0.00     0.014 A 
ATOM     33  C   UNL A   1      35.949  29.627  29.423  1.00  0.00     0.014 A 
ATOM     34  C   UNL A   1      38.208  29.898  27.809  1.00  0.00     0.010 A 
ATOM     35  C   UNL A   1      37.187  29.170  29.875  1.00  0.00     0.010 A 
ATOM     36  C   UNL A   1      38.329  29.289  29.068  1.00  0.00    -0.014 A 
BRANCH  36  37
ATOM     37  C   UNL A   1      39.639  28.771  29.551  1.00  0.00     0.031 A 
ATOM     38  C   UNL A   1      40.387  29.489  30.645  1.00  0.00     0.074 A 
ATOM     39  C   UNL A   1      40.189  27.692  28.960  1.00  0.00     0.049 A 
ATOM     40  N   UNL A   1      41.559  29.217  31.158  1.00  0.00    -0.248 NA
ATOM     41  C   UNL A   1      39.745  30.682  31.222  1.00  0.00     0.031 C 
ATOM     42  C   UNL A   1      39.604  26.951  27.840  1.00  0.00     0.029 A 
ATOM     43  N   UNL A   1      41.377  27.044  29.199  1.00  0.00    -0.354 N 
ATOM     44  C   UNL A   1      41.808  30.216  32.092  1.00  0.00     0.074 A 
ATOM     45  C   UNL A   1      40.683  31.123  32.048  1.00  0.00     0.031 C 
ATOM     46  C   UNL A   1      40.432  25.954  27.490  1.00  0.00     0.029 A 
ATOM     47  C   UNL A   1      41.621  26.002  28.335  1.00  0.00     0.049 A 
ATOM     48  H   UNL A   1      41.994  27.301  29.921  1.00  0.00     0.167 HD
ATOM     49  C   UNL A   1      42.860  30.349  32.935  1.00  0.00     0.034 A 
ATOM     50  C   UNL A   1      42.688  25.186  28.223  1.00  0.00     0.034 A 
ATOM     51  C   UNL A   1      43.962  29.428  33.003  1.00  0.00     0.049 A 
ATOM     52  C   UNL A   1      43.832  25.340  29.188  1.00  0.00     0.074 A 
ATOM     53  C   UNL A   1      45.041  29.438  33.870  1.00  0.00     0.029 A 
ATOM     54  N   UNL A   1      44.134  28.335  32.167  1.00  0.00    -0.354 N 
ATOM     55  N   UNL A   1      43.978  26.206  30.162  1.00  0.00    -0.248 NA
ATOM     56  C   UNL A   1      44.940  24.381  29.066  1.00  0.00     0.031 C 
ATOM     57  C   UNL A   1      45.878  28.367  33.540  1.00  0.00     0.029 A 
ATOM     58  C   UNL A   1      45.302  27.667  32.493  1.00  0.00     0.049 A 
ATOM     59  H   UNL A   1      43.515  28.072  31.448  1.00  0.00     0.167 HD
ATOM     60  C   UNL A   1      45.173  25.873  30.791  1.00  0.00     0.074 A 
ATOM     61  C   UNL A   1      45.700  24.713  30.102  1.00  0.00     0.031 C 
ATOM     62  C   UNL A   1      45.788  26.483  31.834  1.00  0.00     0.034 A 
BRANCH  49  63
ATOM     63  C   UNL A   1      42.846  31.511  33.897  1.00  0.00     0.023 A 
ATOM     64  C   UNL A   1      43.287  32.778  33.461  1.00  0.00     0.012 A 
ATOM     65  C   UNL A   1      42.336  31.370  35.203  1.00  0.00     0.148 A 
ATOM     66  C   UNL A   1      43.254  33.877  34.318  1.00  0.00     0.002 A 
ATOM     67  C   UNL A   1      42.263  32.481  36.036  1.00  0.00     0.091 A 
ATOM     68  F   UNL A   1      41.937  30.156  35.605  1.00  0.00    -0.205 F 
ATOM     69  C   UNL A   1      42.733  33.730  35.600  1.00  0.00     0.022 A 
BRANCH  67  70
ATOM     70  S   UNL A   1      41.536  32.419  37.678  1.00  0.00     0.127 S 
ATOM     71  O   UNL A   1      41.690  33.804  38.121  1.00  0.00    -0.237 OA
ATOM     72  O   UNL A   1      40.159  32.021  37.387  1.00  0.00    -0.237 OA
ATOM     73  O   UNL A   1      42.309  31.438  38.425  1.00  0.00    -0.744 OA
ENDBRANCH  67  70
ENDBRANCH  49  63
BRANCH  50  74
ATOM     74  C   UNL A   1      42.709  24.122  27.177  1.00  0.00     0.023 A 
ATOM     75  C   UNL A   1      43.371  24.355  25.956  1.00  0.00     0.012 A 
ATOM     76  C   UNL A   1      42.085  22.878  27.394  1.00  0.00     0.148 A 
ATOM     77  C   UNL A   1      43.378  23.384  24.954  1.00  0.00     0.002 A 
ATOM     78  C   UNL A   1      42.147  21.893  26.415  1.00  0.00     0.091 A 
ATOM     79  F   UNL A   1      41.451  22.679  28.557  1.00  0.00    -0.205 F 
ATOM     80  C   UNL A   1      42.775  22.151  25.187  1.00  0.00     0.022 A 
BRANCH  78  81
ATOM     81  S   UNL A   1      41.517  20.233  26.683  1.00  0.00     0.127 S 
ATOM     82  O   UNL A   1      40.083  20.473  26.809  1.00  0.00    -0.237 OA
ATOM     83  O   UNL A   1      41.924  19.554  25.452  1.00  0.00    -0.237 OA
ATOM     84  O   UNL A   1      42.186  19.747  27.882  1.00  0.00    -0.744 OA
ENDBRANCH  78  81
ENDBRANCH  50  74
BRANCH  62  85
ATOM     85  C   UNL A   1      47.078  25.885  32.334  1.00  0.00     0.023 A 
ATOM     86  C   UNL A   1      48.306  26.285  31.769  1.00  0.00     0.012 A 
ATOM     87  C   UNL A   1      47.075  24.979  33.413  1.00  0.00     0.148 A 
ATOM     88  C   UNL A   1      49.507  25.764  32.249  1.00  0.00     0.002 A 
ATOM     89  C   UNL A   1      48.278  24.507  33.919  1.00  0.00     0.091 A 
ATOM     90  F   UNL A   1      45.895  24.600  33.925  1.00  0.00    -0.205 F 
ATOM     91  C   UNL A   1      49.495  24.886  33.330  1.00  0.00     0.022 A 
BRANCH  89  92
ATOM     92  S   UNL A   1      48.367  23.451  35.371  1.00  0.00     0.127 S 
ATOM     93  O   UNL A   1      47.783  22.208  34.870  1.00  0.00    -0.237 OA
ATOM     94  O   UNL A   1      49.807  23.391  35.622  1.00  0.00    -0.237 OA
ATOM     95  O   UNL A   1      47.599  24.127  36.408  1.00  0.00    -0.744 OA
ENDBRANCH  89  92
ENDBRANCH  62  85
ENDBRANCH  36  37
ENDBRANCH  28  31
ENDBRANCH  26  27
ENDBRANCH  25  26
ENDBRANCH   1  25
TORSDOF 17
ENDMDL
MODEL 2
REMARK VINA RESULT:     -11.7      2.026      2.770
REMARK SMILES O=C(NCCCCCCNC(=O)c1ccc(-c2c3nc(c(-c4cccc(S(=O)(=O)[O-])c4F)c4ccc([nH]4)c(-c4cccc(S(=O)(=O)[O-])c4F)c4nc(c(-c5cccc(S(=O)(=O)[O-])c5F)c5ccc2[nH]5)C=C4)C=C3)cc1)C1=Cc2cc(Cl)cc(Cl)c2O[C@@H]1C(F)(F)F
REMARK SMILES IDX 7 1 6 2 5 3 4 4 3 5 1 6 2 7 76 9 77 10 87 11 78 12 86 13
REMARK SMILES IDX 79 14 85 15 80 16 83 17 81 18 82 19 84 20 88 21 89 22 90 23
REMARK SMILES IDX 91 24 8 25 9 26 10 27 11 28 12 30 13 31 14 32 75 33 15 34
REMARK SMILES IDX 74 35 16 36 17 37 18 38 68 39 19 40 73 41 67 42 69 43 20 44
REMARK SMILES IDX 72 45 66 46 65 47 21 49 53 50 33 51 52 52 34 53 37 54 51 55
REMARK SMILES IDX 70 56 35 57 36 58 50 60 71 61 38 62 22 63 23 64 31 65 24 66
REMARK SMILES IDX 26 67 32 68 25 69 27 70 28 71 29 72 30 73 54 74 55 75 63 76
REMARK SMILES IDX 56 77 58 78 64 79 57 80 59 81 60 82 61 83 62 84 39 85 40 86
REMARK SMILES IDX 48 87 41 88 43 89 49 90 42 91 44 92 45 93 46 94 47 95
REMARK H PARENT 3 8 10 29 69 48 37 59
REMARK Flexibility Score: inf
ROOT
ATOM      1  C   UNL A   1      30.892  29.285  24.194  1.00  0.00     0.002 C 
ENDROOT
BRANCH   1   2
ATOM      2  C   UNL A   1      31.401  28.796  22.831  1.00  0.00     0.002 C 
BRANCH   2   3
ATOM      3  C   UNL A   1      32.169  27.477  22.818  1.00  0.00     0.021 C 
BRANCH   3   4
ATOM      4  C   UNL A   1      31.566  26.348  21.993  1.00  0.00     0.116 C 
BRANCH   4   5
ATOM      5  N   UNL A   1      32.496  25.331  21.538  1.00  0.00    -0.352 N 
ATOM      6  O   UNL A   1      33.613  23.387  21.541  1.00  0.00    -0.270 OA
ATOM      7  C   UNL A   1      32.918  24.191  22.162  1.00  0.00     0.251 C 
ATOM      8  H   UNL A   1      32.882  25.486  20.645  1.00  0.00     0.163 HD
BRANCH   7   9
ATOM      9  C   UNL A   1      32.502  23.823  23.553  1.00  0.00     0.067 C 
ATOM     10  C   UNL A   1      31.797  22.716  23.847  1.00  0.00     0.025 C 
ATOM     11  C   UNL A   1      33.463  24.350  24.597  1.00  0.00     0.314 C 
ATOM     12  C   UNL A   1      32.684  21.675  24.444  1.00  0.00     0.020 A 
ATOM     13  O   UNL A   1      34.401  23.317  24.999  1.00  0.00    -0.474 OA
ATOM     14  C   UNL A   1      32.311  20.335  24.293  1.00  0.00     0.032 A 
ATOM     15  C   UNL A   1      33.981  22.011  24.872  1.00  0.00     0.146 A 
ATOM     16  C   UNL A   1      33.269  19.337  24.459  1.00  0.00     0.043 A 
ATOM     17  C   UNL A   1      34.924  20.990  25.053  1.00  0.00     0.085 A 
ATOM     18  Cl  UNL A   1      32.870  17.714  24.051  1.00  0.00    -0.084 Cl
ATOM     19  C   UNL A   1      34.575  19.657  24.827  1.00  0.00     0.045 A 
ATOM     20  Cl  UNL A   1      36.574  21.359  25.406  1.00  0.00    -0.080 Cl
BRANCH  11  21
ATOM     21  C   UNL A   1      32.751  24.975  25.806  1.00  0.00     0.429 C 
ATOM     22  F   UNL A   1      32.565  24.069  26.795  1.00  0.00    -0.167 F 
ATOM     23  F   UNL A   1      33.473  25.991  26.339  1.00  0.00    -0.167 F 
ATOM     24  F   UNL A   1      31.534  25.479  25.489  1.00  0.00    -0.167 F 
ENDBRANCH  11  21
ENDBRANCH   7   9
ENDBRANCH   4   5
ENDBRANCH   3   4
ENDBRANCH   2   3
ENDBRANCH   1   2
BRANCH   1  25
ATOM     25  C   UNL A   1      31.671  28.830  25.432  1.00  0.00     0.021 C 
BRANCH  25  26
ATOM     26  C   UNL A   1      32.951  29.598  25.748  1.00  0.00     0.116 C 
BRANCH  26  27
ATOM     27  N   UNL A   1      32.701  30.959  26.189  1.00  0.00    -0.352 N 
ATOM     28  C   UNL A   1      33.311  31.702  27.171  1.00  0.00     0.251 C 
ATOM     29  H   UNL A   1      31.979  31.423  25.708  1.00  0.00     0.163 HD
ATOM     30  O   UNL A   1      32.838  32.791  27.480  1.00  0.00    -0.269 OA
BRANCH  28  31
ATOM     31  C   UNL A   1      34.518  31.198  27.870  1.00  0.00     0.039 A 
ATOM     32  C   UNL A   1      35.616  32.053  28.010  1.00  0.00     0.014 A 
ATOM     33  C   UNL A   1      34.596  29.889  28.351  1.00  0.00     0.014 A 
ATOM     34  C   UNL A   1      36.765  31.613  28.674  1.00  0.00     0.010 A 
ATOM     35  C   UNL A   1      35.710  29.477  29.082  1.00  0.00     0.010 A 
ATOM     36  C   UNL A   1      36.813  30.330  29.242  1.00  0.00    -0.014 A 
BRANCH  36  37
ATOM     37  C   UNL A   1      38.007  29.869  30.002  1.00  0.00     0.031 A 
ATOM     38  C   UNL A   1      38.285  30.400  31.384  1.00  0.00     0.074 A 
ATOM     39  C   UNL A   1      38.880  29.020  29.422  1.00  0.00     0.049 A 
ATOM     40  N   UNL A   1      39.297  30.153  32.174  1.00  0.00    -0.248 NA
ATOM     41  C   UNL A   1      37.309  31.351  31.943  1.00  0.00     0.031 C 
ATOM     42  C   UNL A   1      38.767  28.491  28.061  1.00  0.00     0.029 A 
ATOM     43  N   UNL A   1      40.049  28.473  29.893  1.00  0.00    -0.354 N 
ATOM     44  C   UNL A   1      39.099  30.936  33.306  1.00  0.00     0.074 A 
ATOM     45  C   UNL A   1      37.890  31.697  33.084  1.00  0.00     0.031 C 
ATOM     46  C   UNL A   1      39.822  27.700  27.807  1.00  0.00     0.029 A 
ATOM     47  C   UNL A   1      40.702  27.689  28.971  1.00  0.00     0.049 A 
ATOM     48  H   UNL A   1      40.387  28.629  30.804  1.00  0.00     0.167 HD
ATOM     49  C   UNL A   1      39.836  30.993  34.441  1.00  0.00     0.034 A 
ATOM     50  C   UNL A   1      41.885  27.046  29.046  1.00  0.00     0.034 A 
ATOM     51  C   UNL A   1      41.020  30.211  34.675  1.00  0.00     0.049 A 
ATOM     52  C   UNL A   1      42.670  27.106  30.327  1.00  0.00     0.074 A 
ATOM     53  C   UNL A   1      41.796  30.147  35.819  1.00  0.00     0.029 A 
ATOM     54  N   UNL A   1      41.605  29.362  33.748  1.00  0.00    -0.354 N 
ATOM     55  N   UNL A   1      42.387  27.739  31.440  1.00  0.00    -0.248 NA
ATOM     56  C   UNL A   1      43.920  26.331  30.380  1.00  0.00     0.031 C 
ATOM     57  C   UNL A   1      42.866  29.280  35.573  1.00  0.00     0.029 A 
ATOM     58  C   UNL A   1      42.735  28.775  34.290  1.00  0.00     0.049 A 
ATOM     59  H   UNL A   1      41.266  29.201  32.838  1.00  0.00     0.167 HD
ATOM     60  C   UNL A   1      43.400  27.410  32.334  1.00  0.00     0.074 A 
ATOM     61  C   UNL A   1      44.292  26.504  31.641  1.00  0.00     0.031 C 
ATOM     62  C   UNL A   1      43.585  27.833  33.609  1.00  0.00     0.034 A 
BRANCH  49  63
ATOM     63  C   UNL A   1      39.352  31.898  35.547  1.00  0.00     0.023 A 
ATOM     64  C   UNL A   1      38.489  31.385  36.537  1.00  0.00     0.012 A 
ATOM     65  C   UNL A   1      39.803  33.229  35.648  1.00  0.00     0.148 A 
ATOM     66  C   UNL A   1      38.053  32.188  37.589  1.00  0.00     0.002 A 
ATOM     67  C   UNL A   1      39.401  34.011  36.726  1.00  0.00     0.091 A 
ATOM     68  F   UNL A   1      40.610  33.706  34.691  1.00  0.00    -0.205 F 
ATOM     69  C   UNL A   1      38.517  33.497  37.688  1.00  0.00     0.022 A 
BRANCH  67  70
ATOM     70  S   UNL A   1      40.002  35.683  36.993  1.00  0.00     0.127 S 
ATOM     71  O   UNL A   1      39.319  36.048  38.233  1.00  0.00    -0.237 OA
ATOM     72  O   UNL A   1      41.443  35.471  37.128  1.00  0.00    -0.237 OA
ATOM     73  O   UNL A   1      39.606  36.446  35.818  1.00  0.00    -0.744 OA
ENDBRANCH  67  70
ENDBRANCH  49  63
BRANCH  50  74
ATOM     74  C   UNL A   1      42.380  26.255  27.882  1.00  0.00     0.023 A 
ATOM     75  C   UNL A   1      43.310  26.829  26.993  1.00  0.00     0.012 A 
ATOM     76  C   UNL A   1      41.943  24.935  27.660  1.00  0.00     0.148 A 
ATOM     77  C   UNL A   1      43.765  26.117  25.882  1.00  0.00     0.002 A 
ATOM     78  C   UNL A   1      42.445  24.210  26.586  1.00  0.00     0.091 A 
ATOM     79  F   UNL A   1      41.049  24.411  28.510  1.00  0.00    -0.205 F 
ATOM     80  C   UNL A   1      43.340  24.806  25.683  1.00  0.00     0.022 A 
BRANCH  78  81
ATOM     81  S   UNL A   1      42.057  22.475  26.333  1.00  0.00     0.127 S 
ATOM     82  O   UNL A   1      42.744  22.195  25.076  1.00  0.00    -0.237 OA
ATOM     83  O   UNL A   1      42.657  21.857  27.516  1.00  0.00    -0.237 OA
ATOM     84  O   UNL A   1      40.603  22.399  26.292  1.00  0.00    -0.744 OA
ENDBRANCH  78  81
ENDBRANCH  50  74
BRANCH  62  85
ATOM     85  C   UNL A   1      44.770  27.288  34.363  1.00  0.00     0.023 A 
ATOM     86  C   UNL A   1      46.008  27.958  34.312  1.00  0.00     0.012 A 
ATOM     87  C   UNL A   1      44.633  26.148  35.181  1.00  0.00     0.148 A 
ATOM     88  C   UNL A   1      47.101  27.481  35.035  1.00  0.00     0.002 A 
ATOM     89  C   UNL A   1      45.711  25.711  35.939  1.00  0.00     0.091 A 
ATOM     90  F   UNL A   1      43.451  25.516  35.203  1.00  0.00    -0.205 F 
ATOM     91  C   UNL A   1      46.950  26.367  35.857  1.00  0.00     0.022 A 
BRANCH  89  92
ATOM     92  S   UNL A   1      45.584  24.346  37.101  1.00  0.00     0.127 S 
ATOM     93  O   UNL A   1      46.971  24.197  37.537  1.00  0.00    -0.237 OA
ATOM     94  O   UNL A   1      44.679  24.887  38.115  1.00  0.00    -0.237 OA
ATOM     95  O   UNL A   1      45.044  23.224  36.345  1.00  0.00    -0.744 OA
ENDBRANCH  89  92
ENDBRANCH  62  85
ENDBRANCH  36  37
ENDBRANCH  28  31
ENDBRANCH  26  27
ENDBRANCH  25  26
ENDBRANCH   1  25
TORSDOF 17
ENDMDL
MODEL 3
REMARK VINA RESULT:     -11.6      5.356      9.792
REMARK SMILES O=C(NCCCCCCNC(=O)c1ccc(-c2c3nc(c(-c4cccc(S(=O)(=O)[O-])c4F)c4ccc([nH]4)c(-c4cccc(S(=O)(=O)[O-])c4F)c4nc(c(-c5cccc(S(=O)(=O)[O-])c5F)c5ccc2[nH]5)C=C4)C=C3)cc1)C1=Cc2cc(Cl)cc(Cl)c2O[C@@H]1C(F)(F)F
REMARK SMILES IDX 7 1 6 2 5 3 4 4 3 5 1 6 2 7 76 9 77 10 87 11 78 12 86 13
REMARK SMILES IDX 79 14 85 15 80 16 83 17 81 18 82 19 84 20 88 21 89 22 90 23
REMARK SMILES IDX 91 24 8 25 9 26 10 27 11 28 12 30 13 31 14 32 75 33 15 34
REMARK SMILES IDX 74 35 16 36 17 37 18 38 68 39 19 40 73 41 67 42 69 43 20 44
REMARK SMILES IDX 72 45 66 46 65 47 21 49 53 50 33 51 52 52 34 53 37 54 51 55
REMARK SMILES IDX 70 56 35 57 36 58 50 60 71 61 38 62 22 63 23 64 31 65 24 66
REMARK SMILES IDX 26 67 32 68 25 69 27 70 28 71 29 72 30 73 54 74 55 75 63 76
REMARK SMILES IDX 56 77 58 78 64 79 57 80 59 81 60 82 61 83 62 84 39 85 40 86
REMARK SMILES IDX 48 87 41 88 43 89 49 90 42 91 44 92 45 93 46 94 47 95
REMARK H PARENT 3 8 10 29 69 48 37 59
REMARK Flexibility Score: inf
ROOT
ATOM      1  C   UNL A   1      34.455  22.916  27.040  1.00  0.00     0.002 C 
ENDROOT
BRANCH   1   2
ATOM      2  C   UNL A   1      32.946  22.684  27.195  1.00  0.00     0.002 C 
BRANCH   2   3
ATOM      3  C   UNL A   1      32.279  21.788  26.154  1.00  0.00     0.021 C 
BRANCH   3   4
ATOM      4  C   UNL A   1      30.980  22.303  25.548  1.00  0.00     0.116 C 
BRANCH   4   5
ATOM      5  N   UNL A   1      30.381  23.445  26.213  1.00  0.00    -0.352 N 
ATOM      6  O   UNL A   1      29.769  25.579  26.529  1.00  0.00    -0.270 OA
ATOM      7  C   UNL A   1      30.471  24.776  25.914  1.00  0.00     0.251 C 
ATOM      8  H   UNL A   1      29.826  23.229  26.998  1.00  0.00     0.163 HD
BRANCH   7   9
ATOM      9  C   UNL A   1      31.327  25.305  24.805  1.00  0.00     0.067 C 
ATOM     10  C   UNL A   1      30.837  25.717  23.622  1.00  0.00     0.025 C 
ATOM     11  C   UNL A   1      32.586  25.968  25.320  1.00  0.00     0.314 C 
ATOM     12  C   UNL A   1      30.816  27.207  23.556  1.00  0.00     0.020 A 
ATOM     13  O   UNL A   1      32.419  27.409  25.383  1.00  0.00    -0.474 OA
ATOM     14  C   UNL A   1      29.870  27.811  22.719  1.00  0.00     0.032 A 
ATOM     15  C   UNL A   1      31.507  27.969  24.515  1.00  0.00     0.146 A 
ATOM     16  C   UNL A   1      29.535  29.148  22.919  1.00  0.00     0.043 A 
ATOM     17  C   UNL A   1      31.170  29.318  24.687  1.00  0.00     0.085 A 
ATOM     18  Cl  UNL A   1      28.215  29.822  22.046  1.00  0.00    -0.084 Cl
ATOM     19  C   UNL A   1      30.171  29.902  23.904  1.00  0.00     0.045 A 
ATOM     20  Cl  UNL A   1      31.862  30.250  25.965  1.00  0.00    -0.080 Cl
BRANCH  11  21
ATOM     21  C   UNL A   1      33.840  25.574  24.523  1.00  0.00     0.429 C 
ATOM     22  F   UNL A   1      33.718  24.336  23.989  1.00  0.00    -0.167 F 
ATOM     23  F   UNL A   1      34.061  26.424  23.490  1.00  0.00    -0.167 F 
ATOM     24  F   UNL A   1      34.961  25.576  25.283  1.00  0.00    -0.167 F 
ENDBRANCH  11  21
ENDBRANCH   7   9
ENDBRANCH   4   5
ENDBRANCH   3   4
ENDBRANCH   2   3
ENDBRANCH   1   2
BRANCH   1  25
ATOM     25  C   UNL A   1      35.231  21.907  26.189  1.00  0.00     0.021 C 
BRANCH  25  26
ATOM     26  C   UNL A   1      36.588  22.365  25.661  1.00  0.00     0.116 C 
BRANCH  26  27
ATOM     27  N   UNL A   1      37.628  21.366  25.833  1.00  0.00    -0.352 N 
ATOM     28  C   UNL A   1      38.951  21.510  26.175  1.00  0.00     0.251 C 
ATOM     29  H   UNL A   1      37.339  20.438  25.680  1.00  0.00     0.163 HD
ATOM     30  O   UNL A   1      39.695  20.536  26.118  1.00  0.00    -0.269 OA
BRANCH  28  31
ATOM     31  C   UNL A   1      39.492  22.827  26.593  1.00  0.00     0.039 A 
ATOM     32  C   UNL A   1      40.480  22.859  27.583  1.00  0.00     0.014 A 
ATOM     33  C   UNL A   1      39.014  24.023  26.054  1.00  0.00     0.014 A 
ATOM     34  C   UNL A   1      41.020  24.083  27.992  1.00  0.00     0.010 A 
ATOM     35  C   UNL A   1      39.608  25.235  26.404  1.00  0.00     0.010 A 
ATOM     36  C   UNL A   1      40.610  25.281  27.386  1.00  0.00    -0.014 A 
BRANCH  36  37
ATOM     37  C   UNL A   1      41.217  26.585  27.770  1.00  0.00     0.031 A 
ATOM     38  C   UNL A   1      42.660  26.879  27.450  1.00  0.00     0.074 A 
ATOM     39  C   UNL A   1      40.488  27.481  28.465  1.00  0.00     0.049 A 
ATOM     40  N   UNL A   1      43.372  27.934  27.749  1.00  0.00    -0.248 NA
ATOM     41  C   UNL A   1      43.408  25.841  26.720  1.00  0.00     0.031 C 
ATOM     42  C   UNL A   1      39.104  27.288  28.903  1.00  0.00     0.029 A 
ATOM     43  N   UNL A   1      40.818  28.724  28.951  1.00  0.00    -0.354 N 
ATOM     44  C   UNL A   1      44.653  27.679  27.273  1.00  0.00     0.074 A 
ATOM     45  C   UNL A   1      44.631  26.352  26.700  1.00  0.00     0.031 C 
ATOM     46  C   UNL A   1      38.705  28.369  29.592  1.00  0.00     0.029 A 
ATOM     47  C   UNL A   1      39.810  29.318  29.674  1.00  0.00     0.049 A 
ATOM     48  H   UNL A   1      41.692  29.148  28.795  1.00  0.00     0.167 HD
ATOM     49  C   UNL A   1      45.741  28.486  27.280  1.00  0.00     0.034 A 
ATOM     50  C   UNL A   1      39.782  30.489  30.342  1.00  0.00     0.034 A 
ATOM     51  C   UNL A   1      45.753  29.819  27.820  1.00  0.00     0.049 A 
ATOM     52  C   UNL A   1      40.995  31.377  30.313  1.00  0.00     0.074 A 
ATOM     53  C   UNL A   1      46.785  30.741  27.812  1.00  0.00     0.029 A 
ATOM     54  N   UNL A   1      44.686  30.420  28.470  1.00  0.00    -0.354 N 
ATOM     55  N   UNL A   1      42.152  31.176  29.728  1.00  0.00    -0.248 NA
ATOM     56  C   UNL A   1      40.889  32.673  31.000  1.00  0.00     0.031 C 
ATOM     57  C   UNL A   1      46.350  31.890  28.482  1.00  0.00     0.029 A 
ATOM     58  C   UNL A   1      45.036  31.697  28.874  1.00  0.00     0.049 A 
ATOM     59  H   UNL A   1      43.808  30.001  28.622  1.00  0.00     0.167 HD
ATOM     60  C   UNL A   1      42.895  32.331  29.946  1.00  0.00     0.074 A 
ATOM     61  C   UNL A   1      42.050  33.237  30.695  1.00  0.00     0.031 C 
ATOM     62  C   UNL A   1      44.168  32.610  29.573  1.00  0.00     0.034 A 
BRANCH  49  63
ATOM     63  C   UNL A   1      47.003  27.970  26.635  1.00  0.00     0.023 A 
ATOM     64  C   UNL A   1      47.974  27.326  27.429  1.00  0.00     0.012 A 
ATOM     65  C   UNL A   1      47.198  28.058  25.243  1.00  0.00     0.148 A 
ATOM     66  C   UNL A   1      49.135  26.809  26.856  1.00  0.00     0.002 A 
ATOM     67  C   UNL A   1      48.336  27.499  24.672  1.00  0.00     0.091 A 
ATOM     68  F   UNL A   1      46.273  28.686  24.506  1.00  0.00    -0.205 F 
ATOM     69  C   UNL A   1      49.310  26.887  25.477  1.00  0.00     0.022 A 
BRANCH  67  70
ATOM     70  S   UNL A   1      48.622  27.472  22.898  1.00  0.00     0.127 S 
ATOM     71  O   UNL A   1      48.579  26.039  22.613  1.00  0.00    -0.237 OA
ATOM     72  O   UNL A   1      47.476  28.230  22.393  1.00  0.00    -0.237 OA
ATOM     73  O   UNL A   1      49.914  28.109  22.688  1.00  0.00    -0.744 OA
ENDBRANCH  67  70
ENDBRANCH  49  63
BRANCH  50  74
ATOM     74  C   UNL A   1      38.546  30.906  31.066  1.00  0.00     0.023 A 
ATOM     75  C   UNL A   1      38.430  30.664  32.448  1.00  0.00     0.012 A 
ATOM     76  C   UNL A   1      37.492  31.552  30.391  1.00  0.00     0.148 A 
ATOM     77  C   UNL A   1      37.271  31.021  33.138  1.00  0.00     0.002 A 
ATOM     78  C   UNL A   1      36.365  31.960  31.096  1.00  0.00     0.091 A 
ATOM     79  F   UNL A   1      37.616  31.764  29.073  1.00  0.00    -0.205 F 
ATOM     80  C   UNL A   1      36.243  31.677  32.465  1.00  0.00     0.022 A 
BRANCH  78  81
ATOM     81  S   UNL A   1      35.056  32.928  30.338  1.00  0.00     0.127 S 
ATOM     82  O   UNL A   1      34.551  32.008  29.325  1.00  0.00    -0.237 OA
ATOM     83  O   UNL A   1      34.157  33.157  31.469  1.00  0.00    -0.237 OA
ATOM     84  O   UNL A   1      35.701  34.134  29.835  1.00  0.00    -0.744 OA
ENDBRANCH  78  81
ENDBRANCH  50  74
BRANCH  62  85
ATOM     85  C   UNL A   1      44.720  33.968  29.923  1.00  0.00     0.023 A 
ATOM     86  C   UNL A   1      45.469  34.141  31.104  1.00  0.00     0.012 A 
ATOM     87  C   UNL A   1      44.553  35.056  29.043  1.00  0.00     0.148 A 
ATOM     88  C   UNL A   1      46.013  35.386  31.420  1.00  0.00     0.002 A 
ATOM     89  C   UNL A   1      45.142  36.277  29.339  1.00  0.00     0.091 A 
ATOM     90  F   UNL A   1      43.822  34.874  27.933  1.00  0.00    -0.205 F 
ATOM     91  C   UNL A   1      45.861  36.450  30.533  1.00  0.00     0.022 A 
BRANCH  89  92
ATOM     92  S   UNL A   1      45.084  37.675  28.211  1.00  0.00     0.127 S 
ATOM     93  O   UNL A   1      45.421  37.043  26.936  1.00  0.00    -0.237 OA
ATOM     94  O   UNL A   1      43.692  38.109  28.328  1.00  0.00    -0.237 OA
ATOM     95  O   UNL A   1      46.060  38.635  28.708  1.00  0.00    -0.744 OA
ENDBRANCH  89  92
ENDBRANCH  62  85
ENDBRANCH  36  37
ENDBRANCH  28  31
ENDBRANCH  26  27
ENDBRANCH  25  26
ENDBRANCH   1  25
TORSDOF 17
ENDMDL
