MODEL 1
REMARK VINA RESULT:     -12.3      0.000      0.000
REMARK SMILES O=C(CC1CCN(C(=O)c2ccc3[nH]ccc3c2)CC1)NCCCCCCNC(=O)c1ccc(-c2c3nc(c(-c4cccc(S(=O)(=O)[O-])c4F)c4ccc([nH]4)c(-c4cccc(S(=O)(=O)[O-])c4F)c4nc(c(-c5cccc(S(=O)(=O)[O-])c5F)c5ccc2[nH]5)C=C4)C=C3)cc1
REMARK SMILES IDX 25 1 24 2 23 3 22 4 21 5 1 6 2 7 3 9 4 10 5 11 20 12 6 13
REMARK SMILES IDX 19 14 7 15 8 16 9 17 10 18 11 19 18 20 12 21 17 22 13 23
REMARK SMILES IDX 16 24 14 25 15 26 26 28 27 29 28 30 29 31 30 33 31 34 32 35
REMARK SMILES IDX 93 36 33 37 92 38 34 39 35 40 36 41 86 42 37 43 91 44 85 45
REMARK SMILES IDX 87 46 38 47 90 48 84 49 83 50 39 52 71 53 51 54 70 55 52 56
REMARK SMILES IDX 55 57 69 58 88 59 53 60 54 61 68 63 89 64 56 65 40 66 41 67
REMARK SMILES IDX 49 68 42 69 44 70 50 71 43 72 45 73 46 74 47 75 48 76 72 77
REMARK SMILES IDX 73 78 81 79 74 80 76 81 82 82 75 83 77 84 78 85 79 86 80 87
REMARK SMILES IDX 57 88 58 89 66 90 59 91 61 92 67 93 60 94 62 95 63 96 64 97
REMARK SMILES IDX 65 98
REMARK H PARENT 21 8 14 27 28 32 87 51 55 62
REMARK Flexibility Score: inf
ROOT
ATOM      1  C   UNL A   1      31.050  30.759  25.602  1.00  0.00     0.002 C 
ENDROOT
BRANCH   1   2
ATOM      2  C   UNL A   1      32.264  29.862  25.854  1.00  0.00     0.002 C 
BRANCH   2   3
ATOM      3  C   UNL A   1      33.001  29.373  24.594  1.00  0.00     0.021 C 
BRANCH   3   4
ATOM      4  C   UNL A   1      32.114  28.709  23.536  1.00  0.00     0.116 C 
BRANCH   4   5
ATOM      5  N   UNL A   1      32.482  27.319  23.376  1.00  0.00    -0.356 N 
ATOM      6  O   UNL A   1      33.997  27.525  21.653  1.00  0.00    -0.275 OA
ATOM      7  C   UNL A   1      33.414  26.844  22.485  1.00  0.00     0.220 C 
ATOM      8  H   UNL A   1      32.029  26.660  23.950  1.00  0.00     0.163 HD
BRANCH   7   9
ATOM      9  C   UNL A   1      33.675  25.359  22.678  1.00  0.00     0.103 C 
BRANCH   9  10
ATOM     10  C   UNL A   1      33.650  24.919  24.155  1.00  0.00     0.002 C 
ATOM     11  C   UNL A   1      35.078  24.683  24.685  1.00  0.00     0.026 C 
ATOM     12  C   UNL A   1      32.808  23.668  24.459  1.00  0.00     0.026 C 
ATOM     13  C   UNL A   1      35.697  23.367  24.197  1.00  0.00     0.120 C 
ATOM     14  C   UNL A   1      33.436  22.384  23.934  1.00  0.00     0.120 C 
ATOM     15  N   UNL A   1      34.808  22.224  24.403  1.00  0.00    -0.339 N 
ATOM     16  C   UNL A   1      35.331  21.037  24.920  1.00  0.00     0.253 C 
ATOM     17  O   UNL A   1      36.481  20.916  25.335  1.00  0.00    -0.269 OA
BRANCH  16  18
ATOM     18  C   UNL A   1      34.446  19.853  24.991  1.00  0.00     0.040 A 
ATOM     19  C   UNL A   1      33.180  19.951  25.582  1.00  0.00     0.016 A 
ATOM     20  C   UNL A   1      34.920  18.639  24.480  1.00  0.00     0.024 A 
ATOM     21  C   UNL A   1      32.375  18.818  25.729  1.00  0.00     0.027 A 
ATOM     22  C   UNL A   1      34.120  17.490  24.617  1.00  0.00     0.000 A 
ATOM     23  C   UNL A   1      32.877  17.602  25.246  1.00  0.00     0.045 A 
ATOM     24  C   UNL A   1      34.281  16.126  24.248  1.00  0.00     0.028 A 
ATOM     25  N   UNL A   1      32.322  16.340  25.271  1.00  0.00    -0.361 N 
ATOM     26  C   UNL A   1      33.160  15.443  24.664  1.00  0.00     0.083 A 
ATOM     27  H   UNL A   1      31.449  16.117  25.668  1.00  0.00     0.166 HD
ENDBRANCH  16  18
ENDBRANCH   9  10
ENDBRANCH   7   9
ENDBRANCH   4   5
ENDBRANCH   3   4
ENDBRANCH   2   3
ENDBRANCH   1   2
BRANCH   1  28
ATOM     28  C   UNL A   1      31.152  32.159  26.207  1.00  0.00     0.021 C 
BRANCH  28  29
ATOM     29  C   UNL A   1      32.384  32.396  27.076  1.00  0.00     0.116 C 
BRANCH  29  30
ATOM     30  N   UNL A   1      32.535  33.790  27.465  1.00  0.00    -0.352 N 
ATOM     31  C   UNL A   1      33.469  34.351  28.304  1.00  0.00     0.251 C 
ATOM     32  H   UNL A   1      31.881  34.415  27.076  1.00  0.00     0.163 HD
ATOM     33  O   UNL A   1      33.348  35.521  28.661  1.00  0.00    -0.269 OA
BRANCH  31  34
ATOM     34  C   UNL A   1      34.600  33.529  28.793  1.00  0.00     0.039 A 
ATOM     35  C   UNL A   1      35.908  33.950  28.537  1.00  0.00     0.014 A 
ATOM     36  C   UNL A   1      34.371  32.361  29.524  1.00  0.00     0.014 A 
ATOM     37  C   UNL A   1      36.983  33.235  29.070  1.00  0.00     0.010 A 
ATOM     38  C   UNL A   1      35.439  31.693  30.118  1.00  0.00     0.010 A 
ATOM     39  C   UNL A   1      36.758  32.120  29.896  1.00  0.00    -0.014 A 
BRANCH  39  40
ATOM     40  C   UNL A   1      37.883  31.393  30.543  1.00  0.00     0.031 A 
ATOM     41  C   UNL A   1      38.265  31.701  31.967  1.00  0.00     0.074 A 
ATOM     42  C   UNL A   1      38.620  30.523  29.823  1.00  0.00     0.049 A 
ATOM     43  N   UNL A   1      39.257  31.227  32.676  1.00  0.00    -0.248 NA
ATOM     44  C   UNL A   1      37.441  32.690  32.681  1.00  0.00     0.031 C 
ATOM     45  C   UNL A   1      38.404  30.192  28.414  1.00  0.00     0.029 A 
ATOM     46  N   UNL A   1      39.722  29.780  30.171  1.00  0.00    -0.354 N 
ATOM     47  C   UNL A   1      39.201  31.885  33.899  1.00  0.00     0.074 A 
ATOM     48  C   UNL A   1      38.096  32.816  33.826  1.00  0.00     0.031 C 
ATOM     49  C   UNL A   1      39.339  29.314  28.018  1.00  0.00     0.029 A 
ATOM     50  C   UNL A   1      40.243  29.044  29.131  1.00  0.00     0.049 A 
ATOM     51  H   UNL A   1      40.103  29.774  31.078  1.00  0.00     0.167 HD
ATOM     52  C   UNL A   1      39.979  31.712  34.994  1.00  0.00     0.034 A 
ATOM     53  C   UNL A   1      41.331  28.250  29.075  1.00  0.00     0.034 A 
ATOM     54  C   UNL A   1      41.050  30.757  35.080  1.00  0.00     0.049 A 
ATOM     55  C   UNL A   1      42.159  28.052  30.318  1.00  0.00     0.074 A 
ATOM     56  C   UNL A   1      41.838  30.446  36.174  1.00  0.00     0.029 A 
ATOM     57  N   UNL A   1      41.492  29.964  34.032  1.00  0.00    -0.354 N 
ATOM     58  N   UNL A   1      41.992  28.567  31.511  1.00  0.00    -0.248 NA
ATOM     59  C   UNL A   1      43.303  27.135  30.214  1.00  0.00     0.031 C 
ATOM     60  C   UNL A   1      42.775  29.486  35.779  1.00  0.00     0.029 A 
ATOM     61  C   UNL A   1      42.547  29.173  34.450  1.00  0.00     0.049 A 
ATOM     62  H   UNL A   1      41.111  29.965  33.124  1.00  0.00     0.167 HD
ATOM     63  C   UNL A   1      42.981  28.005  32.311  1.00  0.00     0.074 A 
ATOM     64  C   UNL A   1      43.732  27.097  31.470  1.00  0.00     0.031 C 
ATOM     65  C   UNL A   1      43.249  28.228  33.620  1.00  0.00     0.034 A 
BRANCH  52  66
ATOM     66  C   UNL A   1      39.671  32.543  36.213  1.00  0.00     0.023 A 
ATOM     67  C   UNL A   1      40.300  33.793  36.382  1.00  0.00     0.012 A 
ATOM     68  C   UNL A   1      38.709  32.122  37.153  1.00  0.00     0.148 A 
ATOM     69  C   UNL A   1      40.005  34.596  37.483  1.00  0.00     0.002 A 
ATOM     70  C   UNL A   1      38.386  32.949  38.223  1.00  0.00     0.091 A 
ATOM     71  F   UNL A   1      38.135  30.922  36.987  1.00  0.00    -0.205 F 
ATOM     72  C   UNL A   1      39.041  34.179  38.396  1.00  0.00     0.022 A 
BRANCH  70  73
ATOM     73  S   UNL A   1      37.101  32.542  39.410  1.00  0.00     0.127 S 
ATOM     74  O   UNL A   1      37.271  33.601  40.404  1.00  0.00    -0.237 OA
ATOM     75  O   UNL A   1      35.888  32.655  38.600  1.00  0.00    -0.237 OA
ATOM     76  O   UNL A   1      37.397  31.195  39.878  1.00  0.00    -0.744 OA
ENDBRANCH  70  73
ENDBRANCH  52  66
BRANCH  53  77
ATOM     77  C   UNL A   1      41.675  27.538  27.811  1.00  0.00     0.023 A 
ATOM     78  C   UNL A   1      42.147  28.274  26.706  1.00  0.00     0.012 A 
ATOM     79  C   UNL A   1      41.548  26.140  27.700  1.00  0.00     0.148 A 
ATOM     80  C   UNL A   1      42.448  27.637  25.502  1.00  0.00     0.002 A 
ATOM     81  C   UNL A   1      41.906  25.504  26.517  1.00  0.00     0.091 A 
ATOM     82  F   UNL A   1      41.088  25.457  28.759  1.00  0.00    -0.205 F 
ATOM     83  C   UNL A   1      42.336  26.253  25.409  1.00  0.00     0.022 A 
BRANCH  81  84
ATOM     84  S   UNL A   1      41.920  23.716  26.351  1.00  0.00     0.127 S 
ATOM     85  O   UNL A   1      40.493  23.402  26.372  1.00  0.00    -0.237 OA
ATOM     86  O   UNL A   1      42.572  23.538  25.053  1.00  0.00    -0.237 OA
ATOM     87  O   UNL A   1      42.695  23.224  27.483  1.00  0.00    -0.744 OA
ENDBRANCH  81  84
ENDBRANCH  53  77
BRANCH  65  88
ATOM     88  C   UNL A   1      44.370  27.444  34.253  1.00  0.00     0.023 A 
ATOM     89  C   UNL A   1      45.638  28.033  34.422  1.00  0.00     0.012 A 
ATOM     90  C   UNL A   1      44.137  26.147  34.753  1.00  0.00     0.148 A 
ATOM     91  C   UNL A   1      46.667  27.332  35.050  1.00  0.00     0.002 A 
ATOM     92  C   UNL A   1      45.151  25.474  35.424  1.00  0.00     0.091 A 
ATOM     93  F   UNL A   1      42.928  25.597  34.567  1.00  0.00    -0.205 F 
ATOM     94  C   UNL A   1      46.420  26.060  35.562  1.00  0.00     0.022 A 
BRANCH  92  95
ATOM     95  S   UNL A   1      44.896  23.876  36.203  1.00  0.00     0.127 S 
ATOM     96  O   UNL A   1      46.177  23.217  35.956  1.00  0.00    -0.237 OA
ATOM     97  O   UNL A   1      44.659  24.247  37.599  1.00  0.00    -0.237 OA
ATOM     98  O   UNL A   1      43.747  23.281  35.533  1.00  0.00    -0.744 OA
ENDBRANCH  92  95
ENDBRANCH  65  88
ENDBRANCH  39  40
ENDBRANCH  31  34
ENDBRANCH  29  30
ENDBRANCH  28  29
ENDBRANCH   1  28
TORSDOF 18
ENDMDL
MODEL 2
REMARK VINA RESULT:     -12.2      2.263      8.053
REMARK SMILES O=C(CC1CCN(C(=O)c2ccc3[nH]ccc3c2)CC1)NCCCCCCNC(=O)c1ccc(-c2c3nc(c(-c4cccc(S(=O)(=O)[O-])c4F)c4ccc([nH]4)c(-c4cccc(S(=O)(=O)[O-])c4F)c4nc(c(-c5cccc(S(=O)(=O)[O-])c5F)c5ccc2[nH]5)C=C4)C=C3)cc1
REMARK SMILES IDX 25 1 24 2 23 3 22 4 21 5 1 6 2 7 3 9 4 10 5 11 20 12 6 13
REMARK SMILES IDX 19 14 7 15 8 16 9 17 10 18 11 19 18 20 12 21 17 22 13 23
REMARK SMILES IDX 16 24 14 25 15 26 26 28 27 29 28 30 29 31 30 33 31 34 32 35
REMARK SMILES IDX 93 36 33 37 92 38 34 39 35 40 36 41 86 42 37 43 91 44 85 45
REMARK SMILES IDX 87 46 38 47 90 48 84 49 83 50 39 52 71 53 51 54 70 55 52 56
REMARK SMILES IDX 55 57 69 58 88 59 53 60 54 61 68 63 89 64 56 65 40 66 41 67
REMARK SMILES IDX 49 68 42 69 44 70 50 71 43 72 45 73 46 74 47 75 48 76 72 77
REMARK SMILES IDX 73 78 81 79 74 80 76 81 82 82 75 83 77 84 78 85 79 86 80 87
REMARK SMILES IDX 57 88 58 89 66 90 59 91 61 92 67 93 60 94 62 95 63 96 64 97
REMARK SMILES IDX 65 98
REMARK H PARENT 21 8 14 27 28 32 87 51 55 62
REMARK Flexibility Score: inf
ROOT
ATOM      1  C   UNL A   1      34.799  30.805  28.068  1.00  0.00     0.002 C 
ENDROOT
BRANCH   1   2
ATOM      2  C   UNL A   1      35.129  29.555  27.250  1.00  0.00     0.002 C 
BRANCH   2   3
ATOM      3  C   UNL A   1      33.918  28.730  26.778  1.00  0.00     0.021 C 
BRANCH   3   4
ATOM      4  C   UNL A   1      33.754  28.624  25.259  1.00  0.00     0.116 C 
BRANCH   4   5
ATOM      5  N   UNL A   1      32.356  28.481  24.915  1.00  0.00    -0.356 N 
ATOM      6  O   UNL A   1      32.549  28.283  22.628  1.00  0.00    -0.275 OA
ATOM      7  C   UNL A   1      31.870  28.284  23.646  1.00  0.00     0.220 C 
ATOM      8  H   UNL A   1      31.701  28.529  25.648  1.00  0.00     0.163 HD
BRANCH   7   9
ATOM      9  C   UNL A   1      30.373  28.020  23.649  1.00  0.00     0.103 C 
BRANCH   9  10
ATOM     10  C   UNL A   1      30.013  26.527  23.516  1.00  0.00     0.002 C 
ATOM     11  C   UNL A   1      29.317  26.010  24.791  1.00  0.00     0.026 C 
ATOM     12  C   UNL A   1      31.188  25.589  23.193  1.00  0.00     0.026 C 
ATOM     13  C   UNL A   1      30.285  25.779  25.959  1.00  0.00     0.120 C 
ATOM     14  C   UNL A   1      32.145  25.405  24.363  1.00  0.00     0.120 C 
ATOM     15  N   UNL A   1      31.445  24.978  25.570  1.00  0.00    -0.339 N 
ATOM     16  C   UNL A   1      31.875  23.947  26.408  1.00  0.00     0.253 C 
ATOM     17  O   UNL A   1      31.268  23.577  27.409  1.00  0.00    -0.269 OA
BRANCH  16  18
ATOM     18  C   UNL A   1      33.130  23.241  26.063  1.00  0.00     0.040 A 
ATOM     19  C   UNL A   1      33.095  21.912  25.624  1.00  0.00     0.016 A 
ATOM     20  C   UNL A   1      34.340  23.928  26.215  1.00  0.00     0.024 A 
ATOM     21  C   UNL A   1      34.282  21.214  25.380  1.00  0.00     0.027 A 
ATOM     22  C   UNL A   1      35.543  23.240  25.970  1.00  0.00     0.000 A 
ATOM     23  C   UNL A   1      35.487  21.902  25.572  1.00  0.00     0.045 A 
ATOM     24  C   UNL A   1      36.917  23.599  26.040  1.00  0.00     0.028 A 
ATOM     25  N   UNL A   1      36.788  21.469  25.428  1.00  0.00    -0.361 N 
ATOM     26  C   UNL A   1      37.659  22.490  25.702  1.00  0.00     0.083 A 
ATOM     27  H   UNL A   1      37.053  20.557  25.167  1.00  0.00     0.166 HD
ENDBRANCH  16  18
ENDBRANCH   9  10
ENDBRANCH   7   9
ENDBRANCH   4   5
ENDBRANCH   3   4
ENDBRANCH   2   3
ENDBRANCH   1   2
BRANCH   1  28
ATOM     28  C   UNL A   1      34.186  31.952  27.265  1.00  0.00     0.021 C 
BRANCH  28  29
ATOM     29  C   UNL A   1      32.757  32.321  27.657  1.00  0.00     0.116 C 
BRANCH  29  30
ATOM     30  N   UNL A   1      32.564  33.758  27.783  1.00  0.00    -0.352 N 
ATOM     31  C   UNL A   1      33.200  34.638  28.626  1.00  0.00     0.251 C 
ATOM     32  H   UNL A   1      31.889  34.152  27.185  1.00  0.00     0.163 HD
ATOM     33  O   UNL A   1      32.793  35.794  28.726  1.00  0.00    -0.269 OA
BRANCH  31  34
ATOM     34  C   UNL A   1      34.354  34.176  29.431  1.00  0.00     0.039 A 
ATOM     35  C   UNL A   1      34.121  33.425  30.587  1.00  0.00     0.014 A 
ATOM     36  C   UNL A   1      35.663  34.461  29.033  1.00  0.00     0.014 A 
ATOM     37  C   UNL A   1      35.202  32.906  31.305  1.00  0.00     0.010 A 
ATOM     38  C   UNL A   1      36.734  33.879  29.705  1.00  0.00     0.010 A 
ATOM     39  C   UNL A   1      36.518  33.097  30.851  1.00  0.00    -0.014 A 
BRANCH  39  40
ATOM     40  C   UNL A   1      37.678  32.484  31.551  1.00  0.00     0.031 A 
ATOM     41  C   UNL A   1      38.428  31.341  30.917  1.00  0.00     0.074 A 
ATOM     42  C   UNL A   1      38.001  32.891  32.795  1.00  0.00     0.049 A 
ATOM     43  N   UNL A   1      39.414  30.632  31.402  1.00  0.00    -0.248 NA
ATOM     44  C   UNL A   1      37.995  30.922  29.574  1.00  0.00     0.031 C 
ATOM     45  C   UNL A   1      37.308  33.935  33.551  1.00  0.00     0.029 A 
ATOM     46  N   UNL A   1      38.978  32.453  33.656  1.00  0.00    -0.354 N 
ATOM     47  C   UNL A   1      39.695  29.663  30.447  1.00  0.00     0.074 A 
ATOM     48  C   UNL A   1      38.753  29.854  29.365  1.00  0.00     0.031 C 
ATOM     49  C   UNL A   1      37.880  34.058  34.760  1.00  0.00     0.029 A 
ATOM     50  C   UNL A   1      38.957  33.082  34.881  1.00  0.00     0.049 A 
ATOM     51  H   UNL A   1      39.631  31.756  33.420  1.00  0.00     0.167 HD
ATOM     52  C   UNL A   1      40.665  28.718  30.452  1.00  0.00     0.034 A 
ATOM     53  C   UNL A   1      39.711  32.886  35.981  1.00  0.00     0.034 A 
ATOM     54  C   UNL A   1      41.627  28.556  31.509  1.00  0.00     0.049 A 
ATOM     55  C   UNL A   1      40.803  31.849  35.947  1.00  0.00     0.074 A 
ATOM     56  C   UNL A   1      42.701  27.686  31.566  1.00  0.00     0.029 A 
ATOM     57  N   UNL A   1      41.628  29.272  32.696  1.00  0.00    -0.354 N 
ATOM     58  N   UNL A   1      41.152  31.050  34.969  1.00  0.00    -0.248 NA
ATOM     59  C   UNL A   1      41.629  31.715  37.156  1.00  0.00     0.031 C 
ATOM     60  C   UNL A   1      43.335  27.855  32.800  1.00  0.00     0.029 A 
ATOM     61  C   UNL A   1      42.678  28.856  33.496  1.00  0.00     0.049 A 
ATOM     62  H   UNL A   1      40.979  29.972  32.934  1.00  0.00     0.167 HD
ATOM     63  C   UNL A   1      42.261  30.348  35.427  1.00  0.00     0.074 A 
ATOM     64  C   UNL A   1      42.538  30.831  36.764  1.00  0.00     0.031 C 
ATOM     65  C   UNL A   1      42.980  29.385  34.801  1.00  0.00     0.034 A 
BRANCH  52  66
ATOM     66  C   UNL A   1      40.768  27.809  29.254  1.00  0.00     0.023 A 
ATOM     67  C   UNL A   1      39.949  26.664  29.177  1.00  0.00     0.012 A 
ATOM     68  C   UNL A   1      41.618  28.124  28.177  1.00  0.00     0.148 A 
ATOM     69  C   UNL A   1      40.001  25.827  28.062  1.00  0.00     0.002 A 
ATOM     70  C   UNL A   1      41.629  27.311  27.049  1.00  0.00     0.091 A 
ATOM     71  F   UNL A   1      42.403  29.207  28.276  1.00  0.00    -0.205 F 
ATOM     72  C   UNL A   1      40.832  26.157  26.996  1.00  0.00     0.022 A 
BRANCH  70  73
ATOM     73  S   UNL A   1      42.603  27.691  25.588  1.00  0.00     0.127 S 
ATOM     74  O   UNL A   1      43.953  27.765  26.144  1.00  0.00    -0.237 OA
ATOM     75  O   UNL A   1      42.355  26.524  24.742  1.00  0.00    -0.237 OA
ATOM     76  O   UNL A   1      42.074  28.945  25.067  1.00  0.00    -0.744 OA
ENDBRANCH  70  73
ENDBRANCH  52  66
BRANCH  53  77
ATOM     77  C   UNL A   1      39.497  33.725  37.195  1.00  0.00     0.023 A 
ATOM     78  C   UNL A   1      40.023  35.032  37.236  1.00  0.00     0.012 A 
ATOM     79  C   UNL A   1      38.772  33.243  38.301  1.00  0.00     0.148 A 
ATOM     80  C   UNL A   1      39.864  35.829  38.370  1.00  0.00     0.002 A 
ATOM     81  C   UNL A   1      38.567  34.062  39.405  1.00  0.00     0.091 A 
ATOM     82  F   UNL A   1      38.288  31.993  38.248  1.00  0.00    -0.205 F 
ATOM     83  C   UNL A   1      39.129  35.348  39.450  1.00  0.00     0.022 A 
BRANCH  81  84
ATOM     84  S   UNL A   1      37.523  33.577  40.784  1.00  0.00     0.127 S 
ATOM     85  O   UNL A   1      38.343  32.558  41.435  1.00  0.00    -0.237 OA
ATOM     86  O   UNL A   1      37.396  34.833  41.523  1.00  0.00    -0.237 OA
ATOM     87  O   UNL A   1      36.281  33.105  40.187  1.00  0.00    -0.744 OA
ENDBRANCH  81  84
ENDBRANCH  53  77
BRANCH  65  88
ATOM     88  C   UNL A   1      44.174  28.815  35.524  1.00  0.00     0.023 A 
ATOM     89  C   UNL A   1      45.458  29.350  35.300  1.00  0.00     0.012 A 
ATOM     90  C   UNL A   1      44.005  27.799  36.486  1.00  0.00     0.148 A 
ATOM     91  C   UNL A   1      46.560  28.861  36.000  1.00  0.00     0.002 A 
ATOM     92  C   UNL A   1      45.099  27.353  37.217  1.00  0.00     0.091 A 
ATOM     93  F   UNL A   1      42.778  27.291  36.671  1.00  0.00    -0.205 F 
ATOM     94  C   UNL A   1      46.379  27.874  36.966  1.00  0.00     0.022 A 
BRANCH  92  95
ATOM     95  S   UNL A   1      44.946  26.158  38.548  1.00  0.00     0.127 S 
ATOM     96  O   UNL A   1      44.438  24.985  37.839  1.00  0.00    -0.237 OA
ATOM     97  O   UNL A   1      46.328  26.037  39.016  1.00  0.00    -0.237 OA
ATOM     98  O   UNL A   1      44.031  26.748  39.515  1.00  0.00    -0.744 OA
ENDBRANCH  92  95
ENDBRANCH  65  88
ENDBRANCH  39  40
ENDBRANCH  31  34
ENDBRANCH  29  30
ENDBRANCH  28  29
ENDBRANCH   1  28
TORSDOF 18
ENDMDL
MODEL 3
REMARK VINA RESULT:     -12.0      5.171      9.274
REMARK SMILES O=C(CC1CCN(C(=O)c2ccc3[nH]ccc3c2)CC1)NCCCCCCNC(=O)c1ccc(-c2c3nc(c(-c4cccc(S(=O)(=O)[O-])c4F)c4ccc([nH]4)c(-c4cccc(S(=O)(=O)[O-])c4F)c4nc(c(-c5cccc(S(=O)(=O)[O-])c5F)c5ccc2[nH]5)C=C4)C=C3)cc1
REMARK SMILES IDX 25 1 24 2 23 3 22 4 21 5 1 6 2 7 3 9 4 10 5 11 20 12 6 13
REMARK SMILES IDX 19 14 7 15 8 16 9 17 10 18 11 19 18 20 12 21 17 22 13 23
REMARK SMILES IDX 16 24 14 25 15 26 26 28 27 29 28 30 29 31 30 33 31 34 32 35
REMARK SMILES IDX 93 36 33 37 92 38 34 39 35 40 36 41 86 42 37 43 91 44 85 45
REMARK SMILES IDX 87 46 38 47 90 48 84 49 83 50 39 52 71 53 51 54 70 55 52 56
REMARK SMILES IDX 55 57 69 58 88 59 53 60 54 61 68 63 89 64 56 65 40 66 41 67
REMARK SMILES IDX 49 68 42 69 44 70 50 71 43 72 45 73 46 74 47 75 48 76 72 77
REMARK SMILES IDX 73 78 81 79 74 80 76 81 82 82 75 83 77 84 78 85 79 86 80 87
REMARK SMILES IDX 57 88 58 89 66 90 59 91 61 92 67 93 60 94 62 95 63 96 64 97
REMARK SMILES IDX 65 98
REMARK H PARENT 21 8 14 27 28 32 87 51 55 62
REMARK Flexibility Score: inf
ROOT
ATOM      1  C   UNL A   1      35.337  22.807  24.003  1.00  0.00     0.002 C 
ENDROOT
BRANCH   1   2
ATOM      2  C   UNL A   1      34.127  21.882  23.852  1.00  0.00     0.002 C 
BRANCH   2   3
ATOM      3  C   UNL A   1      34.118  20.645  24.769  1.00  0.00     0.021 C 
BRANCH   3   4
ATOM      4  C   UNL A   1      33.323  20.804  26.068  1.00  0.00     0.116 C 
BRANCH   4   5
ATOM      5  N   UNL A   1      32.602  22.058  26.064  1.00  0.00    -0.356 N 
ATOM      6  O   UNL A   1      32.734  22.577  28.305  1.00  0.00    -0.275 OA
ATOM      7  C   UNL A   1      32.400  22.858  27.162  1.00  0.00     0.220 C 
ATOM      8  H   UNL A   1      32.226  22.362  25.207  1.00  0.00     0.163 HD
BRANCH   7   9
ATOM      9  C   UNL A   1      31.740  24.175  26.787  1.00  0.00     0.103 C 
BRANCH   9  10
ATOM     10  C   UNL A   1      32.238  24.751  25.447  1.00  0.00     0.002 C 
ATOM     11  C   UNL A   1      33.530  25.570  25.642  1.00  0.00     0.026 C 
ATOM     12  C   UNL A   1      31.226  25.621  24.683  1.00  0.00     0.026 C 
ATOM     13  C   UNL A   1      33.285  26.951  26.262  1.00  0.00     0.120 C 
ATOM     14  C   UNL A   1      30.984  26.972  25.341  1.00  0.00     0.120 C 
ATOM     15  N   UNL A   1      32.232  27.692  25.570  1.00  0.00    -0.339 N 
ATOM     16  C   UNL A   1      32.428  29.042  25.273  1.00  0.00     0.253 C 
ATOM     17  O   UNL A   1      33.489  29.636  25.446  1.00  0.00    -0.269 OA
BRANCH  16  18
ATOM     18  C   UNL A   1      31.298  29.806  24.697  1.00  0.00     0.040 A 
ATOM     19  C   UNL A   1      30.844  30.974  25.320  1.00  0.00     0.016 A 
ATOM     20  C   UNL A   1      30.688  29.311  23.538  1.00  0.00     0.024 A 
ATOM     21  C   UNL A   1      29.724  31.651  24.828  1.00  0.00     0.027 A 
ATOM     22  C   UNL A   1      29.561  29.984  23.030  1.00  0.00     0.000 A 
ATOM     23  C   UNL A   1      29.099  31.125  23.690  1.00  0.00     0.045 A 
ATOM     24  C   UNL A   1      28.699  29.765  21.920  1.00  0.00     0.028 A 
ATOM     25  N   UNL A   1      27.984  31.564  23.008  1.00  0.00    -0.361 N 
ATOM     26  C   UNL A   1      27.739  30.751  21.932  1.00  0.00     0.083 A 
ATOM     27  H   UNL A   1      27.443  32.347  23.257  1.00  0.00     0.166 HD
ENDBRANCH  16  18
ENDBRANCH   9  10
ENDBRANCH   7   9
ENDBRANCH   4   5
ENDBRANCH   3   4
ENDBRANCH   2   3
ENDBRANCH   1   2
BRANCH   1  28
ATOM     28  C   UNL A   1      36.677  22.089  24.165  1.00  0.00     0.021 C 
BRANCH  28  29
ATOM     29  C   UNL A   1      37.184  21.990  25.601  1.00  0.00     0.116 C 
BRANCH  29  30
ATOM     30  N   UNL A   1      38.184  20.946  25.771  1.00  0.00    -0.352 N 
ATOM     31  C   UNL A   1      39.483  21.064  26.204  1.00  0.00     0.251 C 
ATOM     32  H   UNL A   1      37.889  20.034  25.546  1.00  0.00     0.163 HD
ATOM     33  O   UNL A   1      40.245  20.102  26.125  1.00  0.00    -0.269 OA
BRANCH  31  34
ATOM     34  C   UNL A   1      39.962  22.360  26.737  1.00  0.00     0.039 A 
ATOM     35  C   UNL A   1      40.901  22.365  27.771  1.00  0.00     0.014 A 
ATOM     36  C   UNL A   1      39.505  23.566  26.200  1.00  0.00     0.014 A 
ATOM     37  C   UNL A   1      41.430  23.578  28.221  1.00  0.00     0.010 A 
ATOM     38  C   UNL A   1      40.088  24.767  26.596  1.00  0.00     0.010 A 
ATOM     39  C   UNL A   1      41.056  24.789  27.613  1.00  0.00    -0.014 A 
BRANCH  39  40
ATOM     40  C   UNL A   1      41.667  26.083  28.017  1.00  0.00     0.031 A 
ATOM     41  C   UNL A   1      40.832  27.135  28.700  1.00  0.00     0.074 A 
ATOM     42  C   UNL A   1      42.947  26.350  27.688  1.00  0.00     0.049 A 
ATOM     43  N   UNL A   1      41.166  28.347  29.060  1.00  0.00    -0.248 NA
ATOM     44  C   UNL A   1      39.431  26.789  28.992  1.00  0.00     0.031 C 
ATOM     45  C   UNL A   1      43.841  25.448  26.961  1.00  0.00     0.029 A 
ATOM     46  N   UNL A   1      43.710  27.473  27.898  1.00  0.00    -0.354 N 
ATOM     47  C   UNL A   1      40.014  28.921  29.584  1.00  0.00     0.074 A 
ATOM     48  C   UNL A   1      38.962  27.935  29.465  1.00  0.00     0.031 C 
ATOM     49  C   UNL A   1      45.028  26.051  26.785  1.00  0.00     0.029 A 
ATOM     50  C   UNL A   1      44.973  27.392  27.356  1.00  0.00     0.049 A 
ATOM     51  H   UNL A   1      43.385  28.261  28.390  1.00  0.00     0.167 HD
ATOM     52  C   UNL A   1      39.850  30.145  30.139  1.00  0.00     0.034 A 
ATOM     53  C   UNL A   1      45.969  28.299  27.311  1.00  0.00     0.034 A 
ATOM     54  C   UNL A   1      40.907  31.108  30.294  1.00  0.00     0.049 A 
ATOM     55  C   UNL A   1      45.769  29.641  27.965  1.00  0.00     0.074 A 
ATOM     56  C   UNL A   1      40.860  32.340  30.922  1.00  0.00     0.029 A 
ATOM     57  N   UNL A   1      42.197  30.955  29.811  1.00  0.00    -0.354 N 
ATOM     58  N   UNL A   1      44.718  30.104  28.595  1.00  0.00    -0.248 NA
ATOM     59  C   UNL A   1      46.907  30.572  27.934  1.00  0.00     0.031 C 
ATOM     60  C   UNL A   1      42.115  32.944  30.793  1.00  0.00     0.029 A 
ATOM     61  C   UNL A   1      42.952  32.073  30.117  1.00  0.00     0.049 A 
ATOM     62  H   UNL A   1      42.526  30.167  29.321  1.00  0.00     0.167 HD
ATOM     63  C   UNL A   1      45.079  31.359  29.071  1.00  0.00     0.074 A 
ATOM     64  C   UNL A   1      46.454  31.577  28.672  1.00  0.00     0.031 C 
ATOM     65  C   UNL A   1      44.337  32.254  29.767  1.00  0.00     0.034 A 
BRANCH  52  66
ATOM     66  C   UNL A   1      38.484  30.500  30.667  1.00  0.00     0.023 A 
ATOM     67  C   UNL A   1      38.162  30.221  32.011  1.00  0.00     0.012 A 
ATOM     68  C   UNL A   1      37.547  31.173  29.859  1.00  0.00     0.148 A 
ATOM     69  C   UNL A   1      36.917  30.572  32.532  1.00  0.00     0.002 A 
ATOM     70  C   UNL A   1      36.326  31.562  30.399  1.00  0.00     0.091 A 
ATOM     71  F   UNL A   1      37.863  31.414  28.578  1.00  0.00    -0.205 F 
ATOM     72  C   UNL A   1      36.006  31.252  31.730  1.00  0.00     0.022 A 
BRANCH  70  73
ATOM     73  S   UNL A   1      35.115  32.514  29.474  1.00  0.00     0.127 S 
ATOM     74  O   UNL A   1      35.963  33.498  28.803  1.00  0.00    -0.237 OA
ATOM     75  O   UNL A   1      34.539  31.501  28.590  1.00  0.00    -0.237 OA
ATOM     76  O   UNL A   1      34.192  33.057  30.461  1.00  0.00    -0.744 OA
ENDBRANCH  70  73
ENDBRANCH  52  66
BRANCH  53  77
ATOM     77  C   UNL A   1      47.270  27.953  26.670  1.00  0.00     0.023 A 
ATOM     78  C   UNL A   1      48.391  27.677  27.478  1.00  0.00     0.012 A 
ATOM     79  C   UNL A   1      47.401  27.885  25.269  1.00  0.00     0.148 A 
ATOM     80  C   UNL A   1      49.627  27.379  26.905  1.00  0.00     0.002 A 
ATOM     81  C   UNL A   1      48.621  27.531  24.705  1.00  0.00     0.091 A 
ATOM     82  F   UNL A   1      46.327  28.161  24.516  1.00  0.00    -0.205 F 
ATOM     83  C   UNL A   1      49.741  27.298  25.520  1.00  0.00     0.022 A 
BRANCH  81  84
ATOM     84  S   UNL A   1      48.826  27.272  22.939  1.00  0.00     0.127 S 
ATOM     85  O   UNL A   1      48.073  28.394  22.383  1.00  0.00    -0.237 OA
ATOM     86  O   UNL A   1      50.278  27.367  22.787  1.00  0.00    -0.237 OA
ATOM     87  O   UNL A   1      48.281  25.948  22.672  1.00  0.00    -0.744 OA
ENDBRANCH  81  84
ENDBRANCH  53  77
BRANCH  65  88
ATOM     88  C   UNL A   1      45.001  33.538  30.196  1.00  0.00     0.023 A 
ATOM     89  C   UNL A   1      45.710  33.595  31.412  1.00  0.00     0.012 A 
ATOM     90  C   UNL A   1      44.987  34.664  29.348  1.00  0.00     0.148 A 
ATOM     91  C   UNL A   1      46.368  34.764  31.793  1.00  0.00     0.002 A 
ATOM     92  C   UNL A   1      45.688  35.808  29.710  1.00  0.00     0.091 A 
ATOM     93  F   UNL A   1      44.292  34.595  28.203  1.00  0.00    -0.205 F 
ATOM     94  C   UNL A   1      46.367  35.864  30.938  1.00  0.00     0.022 A 
BRANCH  92  95
ATOM     95  S   UNL A   1      45.827  37.235  28.629  1.00  0.00     0.127 S 
ATOM     96  O   UNL A   1      44.444  37.708  28.581  1.00  0.00    -0.237 OA
ATOM     97  O   UNL A   1      46.742  38.100  29.375  1.00  0.00    -0.237 OA
ATOM     98  O   UNL A   1      46.360  36.735  27.370  1.00  0.00    -0.744 OA
ENDBRANCH  92  95
ENDBRANCH  65  88
ENDBRANCH  39  40
ENDBRANCH  31  34
ENDBRANCH  29  30
ENDBRANCH  28  29
ENDBRANCH   1  28
TORSDOF 18
ENDMDL
