MODEL 1
REMARK VINA RESULT:      -9.5      0.000      0.000
REMARK SMILES Cc1ccc(S(=O)(=O)n2cc(C(=O)C(=O)N[C@H](Cc3c[nH]c4ccccc34)C(=O)NCC(=O)NCCCCCCNC(=O)c3ccc(-c4c5nc(c(-c6cccc(S(=O)(=O)[O-])c6F)c6ccc([nH]6)c(-c6cccc(S(=O)(=O)[O-])c6F)c6nc(c(-c7cccc(S(=O)(=O)[O-])c7F)c7ccc4[nH]7)C=C6)C=C5)cc3)c3ccccc32)cc1
REMARK SMILES IDX 35 1 34 2 32 3 33 4 31 6 30 7 28 8 29 9 17 11 16 12 14 13
REMARK SMILES IDX 15 14 12 16 13 17 11 18 9 19 10 20 112 21 107 22 111 23
REMARK SMILES IDX 108 24 110 25 109 26 6 27 7 28 8 29 5 30 1 31 2 32 3 33
REMARK SMILES IDX 114 34 4 35 113 36 18 37 19 38 20 39 27 40 21 41 22 42 26 43
REMARK SMILES IDX 23 45 25 46 24 47 36 48 37 49 38 50 39 51 40 52 41 53 42 54
REMARK SMILES IDX 43 56 44 57 45 58 106 59 46 60 105 61 47 62 48 63 49 64
REMARK SMILES IDX 99 65 50 66 104 67 98 68 100 69 51 70 103 71 97 72 96 73
REMARK SMILES IDX 52 75 84 76 64 77 83 78 65 79 68 80 82 81 101 82 66 83 67 84
REMARK SMILES IDX 81 86 102 87 69 88 53 89 54 90 62 91 55 92 57 93 63 94 56 95
REMARK SMILES IDX 58 96 59 97 60 98 61 99 85 100 86 101 94 102 87 103 89 104
REMARK SMILES IDX 95 105 88 106 90 107 91 108 92 109 93 110 70 111 71 112
REMARK SMILES IDX 79 113 72 114 74 115 80 116 73 117 75 118 76 119 77 120
REMARK SMILES IDX 78 121
REMARK H PARENT 34 5 30 10 16 15 21 44 41 55 100 74 68 85
REMARK Flexibility Score: inf
ROOT
ATOM      1  C   UNL A   1      41.711  26.217  26.721  1.00  0.00     0.116 C 
ENDROOT
BRANCH   1   2
ATOM      2  N   UNL A   1      40.510  25.405  26.869  1.00  0.00    -0.355 N 
ATOM      3  C   UNL A   1      40.370  24.075  27.153  1.00  0.00     0.239 C 
ATOM      4  O   UNL A   1      39.248  23.689  27.503  1.00  0.00    -0.273 OA
ATOM      5  H   UNL A   1      39.663  25.892  26.745  1.00  0.00     0.163 HD
BRANCH   3   6
ATOM      6  C   UNL A   1      41.557  23.096  27.224  1.00  0.00     0.216 C 
BRANCH   6   7
ATOM      7  N   UNL A   1      42.105  22.840  28.532  1.00  0.00    -0.345 N 
ATOM      8  C   UNL A   1      43.242  23.194  29.164  1.00  0.00     0.243 C 
ATOM      9  O   UNL A   1      43.220  22.973  30.384  1.00  0.00    -0.273 OA
ATOM     10  H   UNL A   1      41.516  22.282  29.090  1.00  0.00     0.164 HD
BRANCH   8  11
ATOM     11  C   UNL A   1      44.546  23.774  28.526  1.00  0.00     0.176 C 
BRANCH  11  12
ATOM     12  N   UNL A   1      45.343  23.002  27.508  1.00  0.00    -0.337 N 
ATOM     13  C   UNL A   1      45.816  23.240  26.224  1.00  0.00     0.293 C 
ATOM     14  O   UNL A   1      46.368  22.336  25.603  1.00  0.00    -0.265 OA
ATOM     15  H   UNL A   1      45.588  22.105  27.833  1.00  0.00     0.164 HD
BRANCH  13  16
ATOM     16  C   UNL A   1      45.690  24.618  25.582  1.00  0.00     0.252 C 
ATOM     17  O   UNL A   1      44.559  24.891  25.176  1.00  0.00    -0.283 OA
BRANCH  16  18
ATOM     18  C   UNL A   1      46.767  25.612  25.390  1.00  0.00     0.054 A 
ATOM     19  N   UNL A   1      48.146  27.372  25.000  1.00  0.00    -0.240 N 
ATOM     20  C   UNL A   1      47.089  26.601  24.450  1.00  0.00     0.117 A 
ATOM     21  C   UNL A   1      48.167  27.042  26.367  1.00  0.00     0.065 A 
ATOM     22  C   UNL A   1      47.834  25.698  26.326  1.00  0.00     0.012 A 
ATOM     23  C   UNL A   1      48.845  27.601  27.460  1.00  0.00     0.028 A 
ATOM     24  C   UNL A   1      48.489  24.816  27.191  1.00  0.00     0.011 A 
ATOM     25  C   UNL A   1      49.464  26.697  28.335  1.00  0.00     0.002 A 
ATOM     26  C   UNL A   1      49.357  25.323  28.149  1.00  0.00     0.001 A 
BRANCH  19  27
ATOM     27  S   UNL A   1      49.810  27.344  24.342  1.00  0.00     0.268 S 
ATOM     28  O   UNL A   1      50.387  26.105  24.827  1.00  0.00    -0.201 OA
ATOM     29  O   UNL A   1      50.342  28.639  24.748  1.00  0.00    -0.201 OA
BRANCH  27  30
ATOM     30  C   UNL A   1      50.076  27.388  22.602  1.00  0.00     0.088 A 
ATOM     31  C   UNL A   1      51.499  27.461  18.531  1.00  0.00     0.044 C 
ATOM     32  C   UNL A   1      50.970  27.388  19.934  1.00  0.00    -0.051 A 
ATOM     33  C   UNL A   1      51.897  27.317  20.966  1.00  0.00     0.005 A 
ATOM     34  C   UNL A   1      49.595  27.439  20.249  1.00  0.00     0.005 A 
ATOM     35  C   UNL A   1      51.450  27.302  22.274  1.00  0.00     0.022 A 
ATOM     36  C   UNL A   1      49.135  27.440  21.587  1.00  0.00     0.022 A 
ENDBRANCH  27  30
ENDBRANCH  19  27
ENDBRANCH  16  18
ENDBRANCH  13  16
ENDBRANCH  11  12
BRANCH  11  37
ATOM     37  C   UNL A   1      45.363  24.783  29.395  1.00  0.00     0.072 C 
BRANCH  37  38
ATOM     38  C   UNL A   1      44.710  26.086  29.771  1.00  0.00    -0.020 A 
ATOM     39  C   UNL A   1      44.083  26.325  30.977  1.00  0.00     0.087 A 
ATOM     40  C   UNL A   1      44.622  27.319  29.028  1.00  0.00     0.003 A 
ATOM     41  N   UNL A   1      43.524  27.569  30.939  1.00  0.00    -0.361 N 
ATOM     42  C   UNL A   1      43.815  28.192  29.757  1.00  0.00     0.046 A 
ATOM     43  C   UNL A   1      45.107  27.774  27.785  1.00  0.00     0.010 A 
ATOM     44  H   UNL A   1      42.984  27.963  31.662  1.00  0.00     0.166 HD
ATOM     45  C   UNL A   1      43.415  29.449  29.293  1.00  0.00     0.026 A 
ATOM     46  C   UNL A   1      44.736  29.045  27.313  1.00  0.00     0.001 A 
ATOM     47  C   UNL A   1      43.886  29.863  28.050  1.00  0.00     0.002 A 
ENDBRANCH  37  38
ENDBRANCH  11  37
ENDBRANCH   8  11
ENDBRANCH   6   7
ENDBRANCH   3   6
ENDBRANCH   1   2
BRANCH   1  48
ATOM     48  C   UNL A   1      41.426  27.719  26.652  1.00  0.00     0.021 C 
BRANCH  48  49
ATOM     49  C   UNL A   1      40.277  28.269  27.510  1.00  0.00     0.002 C 
BRANCH  49  50
ATOM     50  C   UNL A   1      39.326  29.340  26.948  1.00  0.00     0.002 C 
BRANCH  50  51
ATOM     51  C   UNL A   1      38.043  29.747  27.680  1.00  0.00     0.021 C 
BRANCH  51  52
ATOM     52  C   UNL A   1      37.701  29.043  28.989  1.00  0.00     0.116 C 
BRANCH  52  53
ATOM     53  N   UNL A   1      36.787  29.761  29.866  1.00  0.00    -0.352 N 
ATOM     54  C   UNL A   1      37.074  30.690  30.857  1.00  0.00     0.251 C 
ATOM     55  H   UNL A   1      35.832  29.560  29.738  1.00  0.00     0.163 HD
ATOM     56  O   UNL A   1      36.172  31.060  31.607  1.00  0.00    -0.269 OA
BRANCH  54  57
ATOM     57  C   UNL A   1      38.419  31.323  30.911  1.00  0.00     0.039 A 
ATOM     58  C   UNL A   1      39.443  30.641  31.581  1.00  0.00     0.014 A 
ATOM     59  C   UNL A   1      38.601  32.650  30.545  1.00  0.00     0.014 A 
ATOM     60  C   UNL A   1      40.504  31.360  32.135  1.00  0.00     0.010 A 
ATOM     61  C   UNL A   1      39.580  33.380  31.181  1.00  0.00     0.010 A 
ATOM     62  C   UNL A   1      40.486  32.747  32.035  1.00  0.00    -0.014 A 
BRANCH  62  63
ATOM     63  C   UNL A   1      41.330  33.661  32.788  1.00  0.00     0.031 A 
ATOM     64  C   UNL A   1      40.796  34.343  33.981  1.00  0.00     0.074 A 
ATOM     65  C   UNL A   1      42.650  33.711  32.503  1.00  0.00     0.049 A 
ATOM     66  N   UNL A   1      41.419  35.271  34.617  1.00  0.00    -0.248 NA
ATOM     67  C   UNL A   1      39.489  34.030  34.540  1.00  0.00     0.031 C 
ATOM     68  C   UNL A   1      43.725  34.238  33.339  1.00  0.00     0.029 A 
ATOM     69  N   UNL A   1      43.262  33.502  31.264  1.00  0.00    -0.354 N 
ATOM     70  C   UNL A   1      40.731  35.524  35.783  1.00  0.00     0.074 A 
ATOM     71  C   UNL A   1      39.508  34.765  35.656  1.00  0.00     0.031 C 
ATOM     72  C   UNL A   1      44.743  34.602  32.545  1.00  0.00     0.029 A 
ATOM     73  C   UNL A   1      44.273  34.480  31.177  1.00  0.00     0.049 A 
ATOM     74  H   UNL A   1      43.036  32.816  30.594  1.00  0.00     0.167 HD
ATOM     75  C   UNL A   1      41.344  36.266  36.749  1.00  0.00     0.034 A 
ATOM     76  C   UNL A   1      44.258  35.483  30.249  1.00  0.00     0.034 A 
ATOM     77  C   UNL A   1      42.604  36.837  36.249  1.00  0.00     0.049 A 
ATOM     78  C   UNL A   1      44.256  36.883  30.856  1.00  0.00     0.074 A 
ATOM     79  C   UNL A   1      43.947  36.511  36.348  1.00  0.00     0.029 A 
ATOM     80  N   UNL A   1      42.520  37.803  35.265  1.00  0.00    -0.354 N 
ATOM     81  N   UNL A   1      44.292  37.140  32.136  1.00  0.00    -0.248 NA
ATOM     82  C   UNL A   1      44.120  38.103  30.058  1.00  0.00     0.031 C 
ATOM     83  C   UNL A   1      44.658  37.271  35.366  1.00  0.00     0.029 A 
ATOM     84  C   UNL A   1      43.750  38.071  34.695  1.00  0.00     0.049 A 
ATOM     85  H   UNL A   1      41.683  38.249  35.002  1.00  0.00     0.167 HD
ATOM     86  C   UNL A   1      44.028  38.471  32.344  1.00  0.00     0.074 A 
ATOM     87  C   UNL A   1      43.974  39.041  31.009  1.00  0.00     0.031 C 
ATOM     88  C   UNL A   1      43.797  39.007  33.581  1.00  0.00     0.034 A 
BRANCH  75  89
ATOM     89  C   UNL A   1      40.933  36.357  38.210  1.00  0.00     0.023 A 
ATOM     90  C   UNL A   1      39.684  36.959  38.488  1.00  0.00     0.012 A 
ATOM     91  C   UNL A   1      41.688  35.964  39.338  1.00  0.00     0.148 A 
ATOM     92  C   UNL A   1      39.249  37.233  39.791  1.00  0.00     0.002 A 
ATOM     93  C   UNL A   1      41.287  36.288  40.637  1.00  0.00     0.091 A 
ATOM     94  F   UNL A   1      42.772  35.205  39.184  1.00  0.00    -0.205 F 
ATOM     95  C   UNL A   1      40.065  36.926  40.866  1.00  0.00     0.022 A 
BRANCH  93  96
ATOM     96  S   UNL A   1      42.327  35.985  42.078  1.00  0.00     0.127 S 
ATOM     97  O   UNL A   1      41.530  36.576  43.156  1.00  0.00    -0.237 OA
ATOM     98  O   UNL A   1      42.403  34.526  42.111  1.00  0.00    -0.237 OA
ATOM     99  O   UNL A   1      43.589  36.670  41.827  1.00  0.00    -0.744 OA
ENDBRANCH  93  96
ENDBRANCH  75  89
BRANCH  76 100
ATOM    100  C   UNL A   1      43.573  35.091  28.977  1.00  0.00     0.023 A 
ATOM    101  C   UNL A   1      42.401  35.812  28.632  1.00  0.00     0.012 A 
ATOM    102  C   UNL A   1      44.229  34.357  27.975  1.00  0.00     0.148 A 
ATOM    103  C   UNL A   1      41.996  35.930  27.303  1.00  0.00     0.002 A 
ATOM    104  C   UNL A   1      43.799  34.456  26.653  1.00  0.00     0.091 A 
ATOM    105  F   UNL A   1      45.307  33.634  28.305  1.00  0.00    -0.205 F 
ATOM    106  C   UNL A   1      42.718  35.280  26.308  1.00  0.00     0.022 A 
BRANCH 104 107
ATOM    107  S   UNL A   1      44.678  33.619  25.326  1.00  0.00     0.127 S 
ATOM    108  O   UNL A   1      44.249  32.238  25.521  1.00  0.00    -0.237 OA
ATOM    109  O   UNL A   1      44.142  34.269  24.131  1.00  0.00    -0.237 OA
ATOM    110  O   UNL A   1      46.082  33.907  25.580  1.00  0.00    -0.744 OA
ENDBRANCH 104 107
ENDBRANCH  76 100
BRANCH  88 111
ATOM    111  C   UNL A   1      43.578  40.487  33.826  1.00  0.00     0.023 A 
ATOM    112  C   UNL A   1      42.424  41.126  33.333  1.00  0.00     0.012 A 
ATOM    113  C   UNL A   1      44.571  41.316  34.410  1.00  0.00     0.148 A 
ATOM    114  C   UNL A   1      42.238  42.508  33.455  1.00  0.00     0.002 A 
ATOM    115  C   UNL A   1      44.427  42.700  34.438  1.00  0.00     0.091 A 
ATOM    116  F   UNL A   1      45.643  40.765  34.989  1.00  0.00    -0.205 F 
ATOM    117  C   UNL A   1      43.249  43.297  33.988  1.00  0.00     0.022 A 
BRANCH 115 118
ATOM    118  S   UNL A   1      45.770  43.795  34.925  1.00  0.00     0.127 S 
ATOM    119  O   UNL A   1      45.265  45.100  34.490  1.00  0.00    -0.237 OA
ATOM    120  O   UNL A   1      45.800  43.606  36.373  1.00  0.00    -0.237 OA
ATOM    121  O   UNL A   1      46.944  43.335  34.197  1.00  0.00    -0.744 OA
ENDBRANCH 115 118
ENDBRANCH  88 111
ENDBRANCH  62  63
ENDBRANCH  54  57
ENDBRANCH  52  53
ENDBRANCH  51  52
ENDBRANCH  50  51
ENDBRANCH  49  50
ENDBRANCH  48  49
ENDBRANCH   1  48
TORSDOF 25
ENDMDL
MODEL 2
REMARK VINA RESULT:      -9.4      5.359     10.057
REMARK SMILES Cc1ccc(S(=O)(=O)n2cc(C(=O)C(=O)N[C@H](Cc3c[nH]c4ccccc34)C(=O)NCC(=O)NCCCCCCNC(=O)c3ccc(-c4c5nc(c(-c6cccc(S(=O)(=O)[O-])c6F)c6ccc([nH]6)c(-c6cccc(S(=O)(=O)[O-])c6F)c6nc(c(-c7cccc(S(=O)(=O)[O-])c7F)c7ccc4[nH]7)C=C6)C=C5)cc3)c3ccccc32)cc1
REMARK SMILES IDX 35 1 34 2 32 3 33 4 31 6 30 7 28 8 29 9 17 11 16 12 14 13
REMARK SMILES IDX 15 14 12 16 13 17 11 18 9 19 10 20 112 21 107 22 111 23
REMARK SMILES IDX 108 24 110 25 109 26 6 27 7 28 8 29 5 30 1 31 2 32 3 33
REMARK SMILES IDX 114 34 4 35 113 36 18 37 19 38 20 39 27 40 21 41 22 42 26 43
REMARK SMILES IDX 23 45 25 46 24 47 36 48 37 49 38 50 39 51 40 52 41 53 42 54
REMARK SMILES IDX 43 56 44 57 45 58 106 59 46 60 105 61 47 62 48 63 49 64
REMARK SMILES IDX 99 65 50 66 104 67 98 68 100 69 51 70 103 71 97 72 96 73
REMARK SMILES IDX 52 75 84 76 64 77 83 78 65 79 68 80 82 81 101 82 66 83 67 84
REMARK SMILES IDX 81 86 102 87 69 88 53 89 54 90 62 91 55 92 57 93 63 94 56 95
REMARK SMILES IDX 58 96 59 97 60 98 61 99 85 100 86 101 94 102 87 103 89 104
REMARK SMILES IDX 95 105 88 106 90 107 91 108 92 109 93 110 70 111 71 112
REMARK SMILES IDX 79 113 72 114 74 115 80 116 73 117 75 118 76 119 77 120
REMARK SMILES IDX 78 121
REMARK H PARENT 34 5 30 10 16 15 21 44 41 55 100 74 68 85
REMARK Flexibility Score: inf
ROOT
ATOM      1  C   UNL A   1      49.388  31.548  28.675  1.00  0.00     0.116 C 
ENDROOT
BRANCH   1   2
ATOM      2  N   UNL A   1      49.669  30.176  29.082  1.00  0.00    -0.355 N 
ATOM      3  C   UNL A   1      49.401  28.993  28.450  1.00  0.00     0.239 C 
ATOM      4  O   UNL A   1      49.990  27.988  28.867  1.00  0.00    -0.273 OA
ATOM      5  H   UNL A   1      50.123  30.088  29.951  1.00  0.00     0.163 HD
BRANCH   3   6
ATOM      6  C   UNL A   1      48.557  28.892  27.167  1.00  0.00     0.216 C 
BRANCH   6   7
ATOM      7  N   UNL A   1      47.137  28.718  27.340  1.00  0.00    -0.345 N 
ATOM      8  C   UNL A   1      46.362  27.736  27.844  1.00  0.00     0.243 C 
ATOM      9  O   UNL A   1      45.189  28.084  28.041  1.00  0.00    -0.273 OA
ATOM     10  H   UNL A   1      46.616  29.489  27.020  1.00  0.00     0.164 HD
BRANCH   8  11
ATOM     11  C   UNL A   1      46.769  26.254  28.132  1.00  0.00     0.176 C 
BRANCH  11  12
ATOM     12  N   UNL A   1      47.738  25.896  29.227  1.00  0.00    -0.337 N 
ATOM     13  C   UNL A   1      47.787  26.056  30.606  1.00  0.00     0.293 C 
ATOM     14  O   UNL A   1      48.799  25.730  31.220  1.00  0.00    -0.265 OA
ATOM     15  H   UNL A   1      48.536  25.436  28.879  1.00  0.00     0.164 HD
BRANCH  13  16
ATOM     16  C   UNL A   1      46.589  26.601  31.378  1.00  0.00     0.252 C 
ATOM     17  O   UNL A   1      46.412  27.815  31.255  1.00  0.00    -0.283 OA
BRANCH  16  18
ATOM     18  C   UNL A   1      45.666  25.838  32.245  1.00  0.00     0.054 A 
ATOM     19  N   UNL A   1      44.076  24.577  33.258  1.00  0.00    -0.240 N 
ATOM     20  C   UNL A   1      44.283  25.629  32.331  1.00  0.00     0.117 A 
ATOM     21  C   UNL A   1      45.336  23.972  33.414  1.00  0.00     0.065 A 
ATOM     22  C   UNL A   1      46.176  25.070  33.328  1.00  0.00     0.012 A 
ATOM     23  C   UNL A   1      45.740  22.783  34.038  1.00  0.00     0.028 A 
ATOM     24  C   UNL A   1      47.283  25.139  34.178  1.00  0.00     0.011 A 
ATOM     25  C   UNL A   1      46.875  22.866  34.857  1.00  0.00     0.002 A 
ATOM     26  C   UNL A   1      47.584  24.054  34.991  1.00  0.00     0.001 A 
BRANCH  19  27
ATOM     27  S   UNL A   1      43.322  24.832  34.862  1.00  0.00     0.268 S 
ATOM     28  O   UNL A   1      42.671  23.575  35.177  1.00  0.00    -0.201 OA
ATOM     29  O   UNL A   1      42.557  26.057  34.670  1.00  0.00    -0.201 OA
BRANCH  27  30
ATOM     30  C   UNL A   1      44.318  25.257  36.251  1.00  0.00     0.088 A 
ATOM     31  C   UNL A   1      46.614  25.549  39.891  1.00  0.00     0.044 C 
ATOM     32  C   UNL A   1      45.863  25.465  38.594  1.00  0.00    -0.051 A 
ATOM     33  C   UNL A   1      45.233  24.264  38.295  1.00  0.00     0.005 A 
ATOM     34  C   UNL A   1      45.728  26.551  37.702  1.00  0.00     0.005 A 
ATOM     35  C   UNL A   1      44.488  24.164  37.134  1.00  0.00     0.022 A 
ATOM     36  C   UNL A   1      44.953  26.457  36.522  1.00  0.00     0.022 A 
ENDBRANCH  27  30
ENDBRANCH  19  27
ENDBRANCH  16  18
ENDBRANCH  13  16
ENDBRANCH  11  12
BRANCH  11  37
ATOM     37  C   UNL A   1      46.728  25.267  26.921  1.00  0.00     0.072 C 
BRANCH  37  38
ATOM     38  C   UNL A   1      45.761  24.115  26.979  1.00  0.00    -0.020 A 
ATOM     39  C   UNL A   1      45.873  22.965  26.223  1.00  0.00     0.087 A 
ATOM     40  C   UNL A   1      44.592  23.935  27.803  1.00  0.00     0.003 A 
ATOM     41  N   UNL A   1      44.780  22.182  26.458  1.00  0.00    -0.361 N 
ATOM     42  C   UNL A   1      43.970  22.754  27.399  1.00  0.00     0.046 A 
ATOM     43  C   UNL A   1      43.967  24.676  28.828  1.00  0.00     0.010 A 
ATOM     44  H   UNL A   1      44.599  21.324  26.010  1.00  0.00     0.166 HD
ATOM     45  C   UNL A   1      42.742  22.312  27.902  1.00  0.00     0.026 A 
ATOM     46  C   UNL A   1      42.745  24.234  29.363  1.00  0.00     0.001 A 
ATOM     47  C   UNL A   1      42.133  23.078  28.892  1.00  0.00     0.002 A 
ENDBRANCH  37  38
ENDBRANCH  11  37
ENDBRANCH   8  11
ENDBRANCH   6   7
ENDBRANCH   3   6
ENDBRANCH   1   2
BRANCH   1  48
ATOM     48  C   UNL A   1      48.021  32.053  29.141  1.00  0.00     0.021 C 
BRANCH  48  49
ATOM     49  C   UNL A   1      47.984  33.314  30.017  1.00  0.00     0.002 C 
BRANCH  49  50
ATOM     50  C   UNL A   1      48.599  34.632  29.516  1.00  0.00     0.002 C 
BRANCH  50  51
ATOM     51  C   UNL A   1      48.325  35.168  28.107  1.00  0.00     0.021 C 
BRANCH  51  52
ATOM     52  C   UNL A   1      47.301  36.286  27.943  1.00  0.00     0.116 C 
BRANCH  52  53
ATOM     53  N   UNL A   1      46.336  36.099  26.869  1.00  0.00    -0.352 N 
ATOM     54  C   UNL A   1      45.380  35.104  26.714  1.00  0.00     0.251 C 
ATOM     55  H   UNL A   1      46.365  36.773  26.152  1.00  0.00     0.163 HD
ATOM     56  O   UNL A   1      44.770  35.022  25.649  1.00  0.00    -0.269 OA
BRANCH  54  57
ATOM     57  C   UNL A   1      45.011  34.246  27.871  1.00  0.00     0.039 A 
ATOM     58  C   UNL A   1      44.764  32.888  27.636  1.00  0.00     0.014 A 
ATOM     59  C   UNL A   1      44.666  34.806  29.096  1.00  0.00     0.014 A 
ATOM     60  C   UNL A   1      43.920  32.180  28.494  1.00  0.00     0.010 A 
ATOM     61  C   UNL A   1      43.745  34.150  29.883  1.00  0.00     0.010 A 
ATOM     62  C   UNL A   1      43.316  32.866  29.541  1.00  0.00    -0.014 A 
BRANCH  62  63
ATOM     63  C   UNL A   1      42.202  32.380  30.341  1.00  0.00     0.031 A 
ATOM     64  C   UNL A   1      40.943  33.144  30.392  1.00  0.00     0.074 A 
ATOM     65  C   UNL A   1      42.269  31.133  30.858  1.00  0.00     0.049 A 
ATOM     66  N   UNL A   1      39.967  32.867  31.183  1.00  0.00    -0.248 NA
ATOM     67  C   UNL A   1      40.700  34.306  29.550  1.00  0.00     0.031 C 
ATOM     68  C   UNL A   1      41.169  30.309  31.347  1.00  0.00     0.029 A 
ATOM     69  N   UNL A   1      43.413  30.441  31.267  1.00  0.00    -0.354 N 
ATOM     70  C   UNL A   1      38.889  33.642  30.814  1.00  0.00     0.074 A 
ATOM     71  C   UNL A   1      39.418  34.560  29.832  1.00  0.00     0.031 C 
ATOM     72  C   UNL A   1      41.656  29.428  32.233  1.00  0.00     0.029 A 
ATOM     73  C   UNL A   1      43.046  29.786  32.460  1.00  0.00     0.049 A 
ATOM     74  H   UNL A   1      44.289  30.416  30.818  1.00  0.00     0.167 HD
ATOM     75  C   UNL A   1      37.663  33.329  31.322  1.00  0.00     0.034 A 
ATOM     76  C   UNL A   1      43.604  30.081  33.672  1.00  0.00     0.034 A 
ATOM     77  C   UNL A   1      37.776  32.295  32.362  1.00  0.00     0.049 A 
ATOM     78  C   UNL A   1      42.593  30.545  34.717  1.00  0.00     0.074 A 
ATOM     79  C   UNL A   1      37.597  30.921  32.417  1.00  0.00     0.029 A 
ATOM     80  N   UNL A   1      38.407  32.642  33.541  1.00  0.00    -0.354 N 
ATOM     81  N   UNL A   1      41.306  30.638  34.520  1.00  0.00    -0.248 NA
ATOM     82  C   UNL A   1      42.978  31.028  36.045  1.00  0.00     0.031 C 
ATOM     83  C   UNL A   1      38.180  30.450  33.635  1.00  0.00     0.029 A 
ATOM     84  C   UNL A   1      38.686  31.538  34.324  1.00  0.00     0.049 A 
ATOM     85  H   UNL A   1      38.632  33.566  33.793  1.00  0.00     0.167 HD
ATOM     86  C   UNL A   1      40.729  31.314  35.566  1.00  0.00     0.074 A 
ATOM     87  C   UNL A   1      41.810  31.495  36.518  1.00  0.00     0.031 C 
ATOM     88  C   UNL A   1      39.431  31.746  35.558  1.00  0.00     0.034 A 
BRANCH  75  89
ATOM     89  C   UNL A   1      36.321  33.801  30.788  1.00  0.00     0.023 A 
ATOM     90  C   UNL A   1      36.107  33.684  29.394  1.00  0.00     0.012 A 
ATOM     91  C   UNL A   1      35.273  34.407  31.518  1.00  0.00     0.148 A 
ATOM     92  C   UNL A   1      34.978  34.208  28.755  1.00  0.00     0.002 A 
ATOM     93  C   UNL A   1      34.172  34.984  30.878  1.00  0.00     0.091 A 
ATOM     94  F   UNL A   1      35.283  34.373  32.849  1.00  0.00    -0.205 F 
ATOM     95  C   UNL A   1      34.023  34.887  29.493  1.00  0.00     0.022 A 
BRANCH  93  96
ATOM     96  S   UNL A   1      32.928  35.942  31.764  1.00  0.00     0.127 S 
ATOM     97  O   UNL A   1      32.086  36.429  30.669  1.00  0.00    -0.237 OA
ATOM     98  O   UNL A   1      32.296  34.933  32.612  1.00  0.00    -0.237 OA
ATOM     99  O   UNL A   1      33.646  36.993  32.474  1.00  0.00    -0.744 OA
ENDBRANCH  93  96
ENDBRANCH  75  89
BRANCH  76 100
ATOM    100  C   UNL A   1      45.016  30.562  33.562  1.00  0.00     0.023 A 
ATOM    101  C   UNL A   1      45.205  31.945  33.311  1.00  0.00     0.012 A 
ATOM    102  C   UNL A   1      46.096  29.817  34.067  1.00  0.00     0.148 A 
ATOM    103  C   UNL A   1      46.376  32.593  33.706  1.00  0.00     0.002 A 
ATOM    104  C   UNL A   1      47.273  30.468  34.431  1.00  0.00     0.091 A 
ATOM    105  F   UNL A   1      45.939  28.501  34.259  1.00  0.00    -0.205 F 
ATOM    106  C   UNL A   1      47.396  31.859  34.300  1.00  0.00     0.022 A 
BRANCH 104 107
ATOM    107  S   UNL A   1      48.637  29.568  35.181  1.00  0.00     0.127 S 
ATOM    108  O   UNL A   1      48.024  29.090  36.417  1.00  0.00    -0.237 OA
ATOM    109  O   UNL A   1      48.916  28.530  34.190  1.00  0.00    -0.237 OA
ATOM    110  O   UNL A   1      49.695  30.557  35.319  1.00  0.00    -0.744 OA
ENDBRANCH 104 107
ENDBRANCH  76 100
BRANCH  88 111
ATOM    111  C   UNL A   1      38.766  32.428  36.737  1.00  0.00     0.023 A 
ATOM    112  C   UNL A   1      39.112  33.749  37.082  1.00  0.00     0.012 A 
ATOM    113  C   UNL A   1      37.903  31.737  37.627  1.00  0.00     0.148 A 
ATOM    114  C   UNL A   1      38.592  34.372  38.222  1.00  0.00     0.002 A 
ATOM    115  C   UNL A   1      37.469  32.325  38.811  1.00  0.00     0.091 A 
ATOM    116  F   UNL A   1      37.454  30.518  37.307  1.00  0.00    -0.205 F 
ATOM    117  C   UNL A   1      37.788  33.653  39.098  1.00  0.00     0.022 A 
BRANCH 115 118
ATOM    118  S   UNL A   1      36.597  31.396  40.082  1.00  0.00     0.127 S 
ATOM    119  O   UNL A   1      37.354  30.143  40.109  1.00  0.00    -0.237 OA
ATOM    120  O   UNL A   1      36.785  32.245  41.256  1.00  0.00    -0.237 OA
ATOM    121  O   UNL A   1      35.228  31.258  39.606  1.00  0.00    -0.744 OA
ENDBRANCH 115 118
ENDBRANCH  88 111
ENDBRANCH  62  63
ENDBRANCH  54  57
ENDBRANCH  52  53
ENDBRANCH  51  52
ENDBRANCH  50  51
ENDBRANCH  49  50
ENDBRANCH  48  49
ENDBRANCH   1  48
TORSDOF 25
ENDMDL
MODEL 3
REMARK VINA RESULT:      -9.2      5.245     12.551
REMARK SMILES Cc1ccc(S(=O)(=O)n2cc(C(=O)C(=O)N[C@H](Cc3c[nH]c4ccccc34)C(=O)NCC(=O)NCCCCCCNC(=O)c3ccc(-c4c5nc(c(-c6cccc(S(=O)(=O)[O-])c6F)c6ccc([nH]6)c(-c6cccc(S(=O)(=O)[O-])c6F)c6nc(c(-c7cccc(S(=O)(=O)[O-])c7F)c7ccc4[nH]7)C=C6)C=C5)cc3)c3ccccc32)cc1
REMARK SMILES IDX 35 1 34 2 32 3 33 4 31 6 30 7 28 8 29 9 17 11 16 12 14 13
REMARK SMILES IDX 15 14 12 16 13 17 11 18 9 19 10 20 112 21 107 22 111 23
REMARK SMILES IDX 108 24 110 25 109 26 6 27 7 28 8 29 5 30 1 31 2 32 3 33
REMARK SMILES IDX 114 34 4 35 113 36 18 37 19 38 20 39 27 40 21 41 22 42 26 43
REMARK SMILES IDX 23 45 25 46 24 47 36 48 37 49 38 50 39 51 40 52 41 53 42 54
REMARK SMILES IDX 43 56 44 57 45 58 106 59 46 60 105 61 47 62 48 63 49 64
REMARK SMILES IDX 99 65 50 66 104 67 98 68 100 69 51 70 103 71 97 72 96 73
REMARK SMILES IDX 52 75 84 76 64 77 83 78 65 79 68 80 82 81 101 82 66 83 67 84
REMARK SMILES IDX 81 86 102 87 69 88 53 89 54 90 62 91 55 92 57 93 63 94 56 95
REMARK SMILES IDX 58 96 59 97 60 98 61 99 85 100 86 101 94 102 87 103 89 104
REMARK SMILES IDX 95 105 88 106 90 107 91 108 92 109 93 110 70 111 71 112
REMARK SMILES IDX 79 113 72 114 74 115 80 116 73 117 75 118 76 119 77 120
REMARK SMILES IDX 78 121
REMARK H PARENT 34 5 30 10 16 15 21 44 41 55 100 74 68 85
REMARK Flexibility Score: inf
ROOT
ATOM      1  C   UNL A   1      48.085  33.579  30.274  1.00  0.00     0.116 C 
ENDROOT
BRANCH   1   2
ATOM      2  N   UNL A   1      47.117  32.500  30.432  1.00  0.00    -0.355 N 
ATOM      3  C   UNL A   1      47.296  31.201  30.821  1.00  0.00     0.239 C 
ATOM      4  O   UNL A   1      46.285  30.568  31.147  1.00  0.00    -0.273 OA
ATOM      5  H   UNL A   1      46.187  32.745  30.224  1.00  0.00     0.163 HD
BRANCH   3   6
ATOM      6  C   UNL A   1      48.682  30.565  31.034  1.00  0.00     0.216 C 
BRANCH   6   7
ATOM      7  N   UNL A   1      48.975  30.086  32.361  1.00  0.00    -0.345 N 
ATOM      8  C   UNL A   1      48.638  28.984  33.061  1.00  0.00     0.243 C 
ATOM      9  O   UNL A   1      49.307  28.830  34.093  1.00  0.00    -0.273 OA
ATOM     10  H   UNL A   1      49.553  30.699  32.870  1.00  0.00     0.164 HD
BRANCH   8  11
ATOM     11  C   UNL A   1      47.497  27.964  32.742  1.00  0.00     0.176 C 
BRANCH  11  12
ATOM     12  N   UNL A   1      46.069  28.218  33.147  1.00  0.00    -0.337 N 
ATOM     13  C   UNL A   1      45.365  28.258  34.343  1.00  0.00     0.293 C 
ATOM     14  O   UNL A   1      44.145  28.399  34.325  1.00  0.00    -0.265 OA
ATOM     15  H   UNL A   1      45.492  28.400  32.370  1.00  0.00     0.164 HD
BRANCH  13  16
ATOM     16  C   UNL A   1      46.085  28.162  35.684  1.00  0.00     0.252 C 
ATOM     17  O   UNL A   1      46.336  29.249  36.209  1.00  0.00    -0.283 OA
BRANCH  16  18
ATOM     18  C   UNL A   1      46.514  26.928  36.377  1.00  0.00     0.054 A 
ATOM     19  N   UNL A   1      47.519  25.161  37.385  1.00  0.00    -0.240 N 
ATOM     20  C   UNL A   1      47.512  25.957  36.211  1.00  0.00     0.117 A 
ATOM     21  C   UNL A   1      46.785  25.898  38.332  1.00  0.00     0.065 A 
ATOM     22  C   UNL A   1      45.816  26.479  37.531  1.00  0.00     0.012 A 
ATOM     23  C   UNL A   1      46.601  25.737  39.713  1.00  0.00     0.028 A 
ATOM     24  C   UNL A   1      44.508  26.570  38.017  1.00  0.00     0.011 A 
ATOM     25  C   UNL A   1      45.287  25.869  40.184  1.00  0.00     0.002 A 
ATOM     26  C   UNL A   1      44.242  26.197  39.327  1.00  0.00     0.001 A 
BRANCH  19  27
ATOM     27  S   UNL A   1      46.987  23.451  37.400  1.00  0.00     0.268 S 
ATOM     28  O   UNL A   1      45.547  23.503  37.235  1.00  0.00    -0.201 OA
ATOM     29  O   UNL A   1      47.593  22.934  38.620  1.00  0.00    -0.201 OA
BRANCH  27  30
ATOM     30  C   UNL A   1      47.602  22.322  36.198  1.00  0.00     0.088 A 
ATOM     31  C   UNL A   1      48.339  19.387  33.125  1.00  0.00     0.044 C 
ATOM     32  C   UNL A   1      48.115  20.448  34.163  1.00  0.00    -0.051 A 
ATOM     33  C   UNL A   1      46.802  20.727  34.520  1.00  0.00     0.005 A 
ATOM     34  C   UNL A   1      49.164  21.127  34.819  1.00  0.00     0.005 A 
ATOM     35  C   UNL A   1      46.557  21.660  35.510  1.00  0.00     0.022 A 
ATOM     36  C   UNL A   1      48.917  22.070  35.844  1.00  0.00     0.022 A 
ENDBRANCH  27  30
ENDBRANCH  19  27
ENDBRANCH  16  18
ENDBRANCH  13  16
ENDBRANCH  11  12
BRANCH  11  37
ATOM     37  C   UNL A   1      47.910  26.460  32.638  1.00  0.00     0.072 C 
BRANCH  37  38
ATOM     38  C   UNL A   1      48.626  26.006  31.394  1.00  0.00    -0.020 A 
ATOM     39  C   UNL A   1      49.997  25.899  31.279  1.00  0.00     0.087 A 
ATOM     40  C   UNL A   1      48.086  25.570  30.130  1.00  0.00     0.003 A 
ATOM     41  N   UNL A   1      50.300  25.554  29.994  1.00  0.00    -0.361 N 
ATOM     42  C   UNL A   1      49.160  25.367  29.263  1.00  0.00     0.046 A 
ATOM     43  C   UNL A   1      46.791  25.368  29.611  1.00  0.00     0.010 A 
ATOM     44  H   UNL A   1      51.214  25.454  29.641  1.00  0.00     0.166 HD
ATOM     45  C   UNL A   1      49.014  25.045  27.909  1.00  0.00     0.026 A 
ATOM     46  C   UNL A   1      46.626  25.019  28.260  1.00  0.00     0.001 A 
ATOM     47  C   UNL A   1      47.723  24.879  27.417  1.00  0.00     0.002 A 
ENDBRANCH  37  38
ENDBRANCH  11  37
ENDBRANCH   8  11
ENDBRANCH   6   7
ENDBRANCH   3   6
ENDBRANCH   1   2
BRANCH   1  48
ATOM     48  C   UNL A   1      47.438  34.953  30.086  1.00  0.00     0.021 C 
BRANCH  48  49
ATOM     49  C   UNL A   1      47.866  35.785  28.868  1.00  0.00     0.002 C 
BRANCH  49  50
ATOM     50  C   UNL A   1      46.992  35.824  27.603  1.00  0.00     0.002 C 
BRANCH  50  51
ATOM     51  C   UNL A   1      46.233  37.087  27.183  1.00  0.00     0.021 C 
BRANCH  51  52
ATOM     52  C   UNL A   1      44.878  36.926  26.501  1.00  0.00     0.116 C 
BRANCH  52  53
ATOM     53  N   UNL A   1      43.924  38.000  26.742  1.00  0.00    -0.352 N 
ATOM     54  C   UNL A   1      42.742  37.973  27.470  1.00  0.00     0.251 C 
ATOM     55  H   UNL A   1      44.149  38.866  26.332  1.00  0.00     0.163 HD
ATOM     56  O   UNL A   1      41.986  38.941  27.415  1.00  0.00    -0.269 OA
BRANCH  54  57
ATOM     57  C   UNL A   1      42.473  36.847  28.404  1.00  0.00     0.039 A 
ATOM     58  C   UNL A   1      43.393  36.608  29.433  1.00  0.00     0.014 A 
ATOM     59  C   UNL A   1      41.494  35.903  28.123  1.00  0.00     0.014 A 
ATOM     60  C   UNL A   1      43.514  35.324  29.966  1.00  0.00     0.010 A 
ATOM     61  C   UNL A   1      41.681  34.611  28.561  1.00  0.00     0.010 A 
ATOM     62  C   UNL A   1      42.736  34.307  29.424  1.00  0.00    -0.014 A 
BRANCH  62  63
ATOM     63  C   UNL A   1      42.934  32.882  29.641  1.00  0.00     0.031 A 
ATOM     64  C   UNL A   1      43.732  32.095  28.685  1.00  0.00     0.074 A 
ATOM     65  C   UNL A   1      42.556  32.347  30.824  1.00  0.00     0.049 A 
ATOM     66  N   UNL A   1      43.835  30.813  28.719  1.00  0.00    -0.248 NA
ATOM     67  C   UNL A   1      44.470  32.709  27.591  1.00  0.00     0.031 C 
ATOM     68  C   UNL A   1      42.983  31.079  31.406  1.00  0.00     0.029 A 
ATOM     69  N   UNL A   1      41.499  32.754  31.644  1.00  0.00    -0.354 N 
ATOM     70  C   UNL A   1      44.813  30.441  27.824  1.00  0.00     0.074 A 
ATOM     71  C   UNL A   1      45.133  31.654  27.108  1.00  0.00     0.031 C 
ATOM     72  C   UNL A   1      42.035  30.661  32.259  1.00  0.00     0.029 A 
ATOM     73  C   UNL A   1      40.907  31.562  32.106  1.00  0.00     0.049 A 
ATOM     74  H   UNL A   1      41.228  33.676  31.854  1.00  0.00     0.167 HD
ATOM     75  C   UNL A   1      45.295  29.166  27.884  1.00  0.00     0.034 A 
ATOM     76  C   UNL A   1      39.632  31.192  31.781  1.00  0.00     0.034 A 
ATOM     77  C   UNL A   1      44.497  28.349  28.811  1.00  0.00     0.049 A 
ATOM     78  C   UNL A   1      39.546  29.851  31.058  1.00  0.00     0.074 A 
ATOM     79  C   UNL A   1      44.628  27.929  30.125  1.00  0.00     0.029 A 
ATOM     80  N   UNL A   1      43.194  28.063  28.451  1.00  0.00    -0.354 N 
ATOM     81  N   UNL A   1      40.568  29.087  30.780  1.00  0.00    -0.248 NA
ATOM     82  C   UNL A   1      38.299  29.314  30.509  1.00  0.00     0.031 C 
ATOM     83  C   UNL A   1      43.359  27.429  30.557  1.00  0.00     0.029 A 
ATOM     84  C   UNL A   1      42.473  27.524  29.499  1.00  0.00     0.049 A 
ATOM     85  H   UNL A   1      42.824  28.224  27.553  1.00  0.00     0.167 HD
ATOM     86  C   UNL A   1      40.178  28.093  29.918  1.00  0.00     0.074 A 
ATOM     87  C   UNL A   1      38.738  28.250  29.815  1.00  0.00     0.031 C 
ATOM     88  C   UNL A   1      41.057  27.257  29.287  1.00  0.00     0.034 A 
BRANCH  75  89
ATOM     89  C   UNL A   1      46.586  28.662  27.261  1.00  0.00     0.023 A 
ATOM     90  C   UNL A   1      47.786  28.942  27.955  1.00  0.00     0.012 A 
ATOM     91  C   UNL A   1      46.736  27.993  26.025  1.00  0.00     0.148 A 
ATOM     92  C   UNL A   1      49.051  28.660  27.425  1.00  0.00     0.002 A 
ATOM     93  C   UNL A   1      47.997  27.764  25.464  1.00  0.00     0.091 A 
ATOM     94  F   UNL A   1      45.669  27.500  25.399  1.00  0.00    -0.205 F 
ATOM     95  C   UNL A   1      49.158  28.099  26.164  1.00  0.00     0.022 A 
BRANCH  93  96
ATOM     96  S   UNL A   1      48.213  27.103  23.801  1.00  0.00     0.127 S 
ATOM     97  O   UNL A   1      47.450  28.059  22.995  1.00  0.00    -0.237 OA
ATOM     98  O   UNL A   1      49.661  27.174  23.618  1.00  0.00    -0.237 OA
ATOM     99  O   UNL A   1      47.652  25.758  23.816  1.00  0.00    -0.744 OA
ENDBRANCH  93  96
ENDBRANCH  75  89
BRANCH  76 100
ATOM    100  C   UNL A   1      38.727  32.360  31.546  1.00  0.00     0.023 A 
ATOM    101  C   UNL A   1      38.829  33.008  30.289  1.00  0.00     0.012 A 
ATOM    102  C   UNL A   1      37.573  32.574  32.320  1.00  0.00     0.148 A 
ATOM    103  C   UNL A   1      37.749  33.708  29.752  1.00  0.00     0.002 A 
ATOM    104  C   UNL A   1      36.510  33.301  31.787  1.00  0.00     0.091 A 
ATOM    105  F   UNL A   1      37.492  32.006  33.529  1.00  0.00    -0.205 F 
ATOM    106  C   UNL A   1      36.576  33.824  30.487  1.00  0.00     0.022 A 
BRANCH 104 107
ATOM    107  S   UNL A   1      34.976  33.505  32.702  1.00  0.00     0.127 S 
ATOM    108  O   UNL A   1      34.233  32.317  32.290  1.00  0.00    -0.237 OA
ATOM    109  O   UNL A   1      35.430  33.497  34.091  1.00  0.00    -0.237 OA
ATOM    110  O   UNL A   1      34.452  34.787  32.254  1.00  0.00    -0.744 OA
ENDBRANCH 104 107
ENDBRANCH  76 100
BRANCH  88 111
ATOM    111  C   UNL A   1      40.630  26.111  28.391  1.00  0.00     0.023 A 
ATOM    112  C   UNL A   1      39.364  26.126  27.773  1.00  0.00     0.012 A 
ATOM    113  C   UNL A   1      41.394  24.923  28.260  1.00  0.00     0.148 A 
ATOM    114  C   UNL A   1      38.899  25.041  27.021  1.00  0.00     0.002 A 
ATOM    115  C   UNL A   1      40.886  23.809  27.598  1.00  0.00     0.091 A 
ATOM    116  F   UNL A   1      42.644  24.879  28.734  1.00  0.00    -0.205 F 
ATOM    117  C   UNL A   1      39.650  23.874  26.952  1.00  0.00     0.022 A 
BRANCH 115 118
ATOM    118  S   UNL A   1      41.709  22.209  27.638  1.00  0.00     0.127 S 
ATOM    119  O   UNL A   1      40.583  21.299  27.859  1.00  0.00    -0.237 OA
ATOM    120  O   UNL A   1      42.294  22.140  26.301  1.00  0.00    -0.237 OA
ATOM    121  O   UNL A   1      42.652  22.274  28.745  1.00  0.00    -0.744 OA
ENDBRANCH 115 118
ENDBRANCH  88 111
ENDBRANCH  62  63
ENDBRANCH  54  57
ENDBRANCH  52  53
ENDBRANCH  51  52
ENDBRANCH  50  51
ENDBRANCH  49  50
ENDBRANCH  48  49
ENDBRANCH   1  48
TORSDOF 25
ENDMDL
