MODEL 1
REMARK VINA RESULT:     -11.7      0.000      0.000
REMARK SMILES C[C@H](C(=O)NCCCCCCNC(=O)c1ccc(-c2c3nc(c(-c4cccc(S(=O)(=O)[O-])c4F)c4ccc([nH]4)c(-c4cccc(S(=O)(=O)[O-])c4F)c4nc(c(-c5cccc(S(=O)(=O)[O-])c5F)c5ccc2[nH]5)C=C4)C=C3)cc1)[C@H](C)[N@@H+]1CC[C@H]([NH+]2CCCCC2)C1
REMARK SMILES IDX 8 1 7 2 6 3 5 4 3 5 4 6 2 8 1 9 78 10 79 11 80 12 81 13
REMARK SMILES IDX 90 14 82 16 83 17 84 18 85 19 89 20 86 22 88 23 87 24 9 25
REMARK SMILES IDX 10 26 11 27 12 28 13 29 14 31 15 32 16 33 77 34 17 35 76 36
REMARK SMILES IDX 18 37 19 38 20 39 70 40 21 41 75 42 69 43 71 44 22 45 74 46
REMARK SMILES IDX 68 47 67 48 23 50 55 51 35 52 54 53 36 54 39 55 53 56 72 57
REMARK SMILES IDX 37 58 38 59 52 61 73 62 40 63 24 64 25 65 33 66 26 67 28 68
REMARK SMILES IDX 34 69 27 70 29 71 30 72 31 73 32 74 56 75 57 76 65 77 58 78
REMARK SMILES IDX 60 79 66 80 59 81 61 82 62 83 63 84 64 85 41 86 42 87 50 88
REMARK SMILES IDX 43 89 45 90 51 91 44 92 46 93 47 94 48 95 49 96
REMARK H PARENT 5 7 80 15 84 21 12 30 71 49 39 60
REMARK Flexibility Score: inf
ROOT
ATOM      1  C   UNL A   1      33.881  21.850  23.910  1.00  0.00     0.002 C 
ENDROOT
BRANCH   1   2
ATOM      2  C   UNL A   1      32.976  22.256  25.081  1.00  0.00     0.021 C 
BRANCH   2   3
ATOM      3  C   UNL A   1      33.252  23.648  25.630  1.00  0.00     0.116 C 
BRANCH   3   4
ATOM      4  N   UNL A   1      32.069  24.264  26.223  1.00  0.00    -0.356 N 
ATOM      5  C   UNL A   1      30.994  24.904  25.673  1.00  0.00     0.228 C 
ATOM      6  O   UNL A   1      30.118  25.286  26.461  1.00  0.00    -0.275 OA
ATOM      7  H   UNL A   1      32.040  24.209  27.206  1.00  0.00     0.163 HD
BRANCH   5   8
ATOM      8  C   UNL A   1      30.835  25.224  24.177  1.00  0.00     0.133 C 
ATOM      9  C   UNL A   1      30.326  24.037  23.360  1.00  0.00     0.024 C 
BRANCH   8  10
ATOM     10  C   UNL A   1      30.296  26.638  23.672  1.00  0.00     0.193 C 
ATOM     11  C   UNL A   1      28.747  26.697  23.715  1.00  0.00     0.076 C 
BRANCH  10  12
ATOM     12  N   UNL A   1      30.936  27.443  22.598  1.00  0.00    -0.327 N 
ATOM     13  C   UNL A   1      32.146  26.922  21.949  1.00  0.00     0.269 C 
ATOM     14  C   UNL A   1      31.289  28.820  22.892  1.00  0.00     0.328 C 
ATOM     15  H   UNL A   1      30.124  27.375  21.983  1.00  0.00     0.348 HD
ATOM     16  C   UNL A   1      33.344  27.622  22.607  1.00  0.00     0.132 C 
ATOM     17  C   UNL A   1      32.802  28.958  23.119  1.00  0.00     0.245 C 
BRANCH  17  18
ATOM     18  N   UNL A   1      33.070  29.410  24.506  1.00  0.00    -0.328 N 
ATOM     19  C   UNL A   1      31.898  29.835  25.271  1.00  0.00     0.262 C 
ATOM     20  C   UNL A   1      33.932  28.506  25.267  1.00  0.00     0.262 C 
ATOM     21  H   UNL A   1      33.604  30.267  24.358  1.00  0.00     0.348 HD
ATOM     22  C   UNL A   1      32.277  30.492  26.597  1.00  0.00     0.062 C 
ATOM     23  C   UNL A   1      34.332  29.102  26.625  1.00  0.00     0.062 C 
ATOM     24  C   UNL A   1      33.119  29.546  27.434  1.00  0.00     0.012 C 
ENDBRANCH  17  18
ENDBRANCH  10  12
ENDBRANCH   8  10
ENDBRANCH   5   8
ENDBRANCH   3   4
ENDBRANCH   2   3
ENDBRANCH   1   2
BRANCH   1  25
ATOM     25  C   UNL A   1      35.022  22.814  23.554  1.00  0.00     0.002 C 
BRANCH  25  26
ATOM     26  C   UNL A   1      36.439  22.361  23.916  1.00  0.00     0.021 C 
BRANCH  26  27
ATOM     27  C   UNL A   1      36.663  21.989  25.377  1.00  0.00     0.116 C 
BRANCH  27  28
ATOM     28  N   UNL A   1      37.649  20.937  25.556  1.00  0.00    -0.352 N 
ATOM     29  C   UNL A   1      38.940  21.038  26.007  1.00  0.00     0.251 C 
ATOM     30  H   UNL A   1      37.349  20.030  25.322  1.00  0.00     0.163 HD
ATOM     31  O   UNL A   1      39.667  20.046  26.009  1.00  0.00    -0.269 OA
BRANCH  29  32
ATOM     32  C   UNL A   1      39.464  22.345  26.457  1.00  0.00     0.039 A 
ATOM     33  C   UNL A   1      40.492  22.359  27.402  1.00  0.00     0.014 A 
ATOM     34  C   UNL A   1      38.962  23.545  25.947  1.00  0.00     0.014 A 
ATOM     35  C   UNL A   1      41.047  23.576  27.800  1.00  0.00     0.010 A 
ATOM     36  C   UNL A   1      39.569  24.752  26.286  1.00  0.00     0.010 A 
ATOM     37  C   UNL A   1      40.612  24.781  27.224  1.00  0.00    -0.014 A 
BRANCH  37  38
ATOM     38  C   UNL A   1      41.245  26.070  27.598  1.00  0.00     0.031 A 
ATOM     39  C   UNL A   1      42.666  26.367  27.202  1.00  0.00     0.074 A 
ATOM     40  C   UNL A   1      40.550  26.958  28.338  1.00  0.00     0.049 A 
ATOM     41  N   UNL A   1      43.381  27.436  27.441  1.00  0.00    -0.248 NA
ATOM     42  C   UNL A   1      43.388  25.321  26.459  1.00  0.00     0.031 C 
ATOM     43  C   UNL A   1      39.196  26.750  28.856  1.00  0.00     0.029 A 
ATOM     44  N   UNL A   1      40.892  28.205  28.799  1.00  0.00    -0.354 N 
ATOM     45  C   UNL A   1      44.634  27.187  26.895  1.00  0.00     0.074 A 
ATOM     46  C   UNL A   1      44.601  25.845  26.358  1.00  0.00     0.031 C 
ATOM     47  C   UNL A   1      38.820  27.833  29.555  1.00  0.00     0.029 A 
ATOM     48  C   UNL A   1      39.913  28.800  29.560  1.00  0.00     0.049 A 
ATOM     49  H   UNL A   1      41.756  28.633  28.602  1.00  0.00     0.167 HD
ATOM     50  C   UNL A   1      45.705  28.012  26.812  1.00  0.00     0.034 A 
ATOM     51  C   UNL A   1      39.900  29.987  30.197  1.00  0.00     0.034 A 
ATOM     52  C   UNL A   1      45.728  29.355  27.326  1.00  0.00     0.049 A 
ATOM     53  C   UNL A   1      41.094  30.895  30.067  1.00  0.00     0.074 A 
ATOM     54  C   UNL A   1      46.744  30.291  27.245  1.00  0.00     0.029 A 
ATOM     55  N   UNL A   1      44.689  29.953  28.022  1.00  0.00    -0.354 N 
ATOM     56  N   UNL A   1      42.216  30.696  29.418  1.00  0.00    -0.248 NA
ATOM     57  C   UNL A   1      41.005  32.207  30.723  1.00  0.00     0.031 C 
ATOM     58  C   UNL A   1      46.326  31.448  27.911  1.00  0.00     0.029 A 
ATOM     59  C   UNL A   1      45.038  31.244  28.377  1.00  0.00     0.049 A 
ATOM     60  H   UNL A   1      43.829  29.522  28.232  1.00  0.00     0.167 HD
ATOM     61  C   UNL A   1      42.948  31.869  29.555  1.00  0.00     0.074 A 
ATOM     62  C   UNL A   1      42.131  32.783  30.325  1.00  0.00     0.031 C 
ATOM     63  C   UNL A   1      44.192  32.160  29.100  1.00  0.00     0.034 A 
BRANCH  50  64
ATOM     64  C   UNL A   1      46.924  27.505  26.082  1.00  0.00     0.023 A 
ATOM     65  C   UNL A   1      47.824  26.651  26.753  1.00  0.00     0.012 A 
ATOM     66  C   UNL A   1      47.148  27.814  24.727  1.00  0.00     0.148 A 
ATOM     67  C   UNL A   1      48.946  26.142  26.099  1.00  0.00     0.002 A 
ATOM     68  C   UNL A   1      48.243  27.266  24.068  1.00  0.00     0.091 A 
ATOM     69  F   UNL A   1      46.291  28.641  24.110  1.00  0.00    -0.205 F 
ATOM     70  C   UNL A   1      49.148  26.440  24.755  1.00  0.00     0.022 A 
BRANCH  68  71
ATOM     71  S   UNL A   1      48.553  27.521  22.318  1.00  0.00     0.127 S 
ATOM     72  O   UNL A   1      48.721  26.147  21.846  1.00  0.00    -0.237 OA
ATOM     73  O   UNL A   1      47.318  28.170  21.878  1.00  0.00    -0.237 OA
ATOM     74  O   UNL A   1      49.745  28.355  22.235  1.00  0.00    -0.744 OA
ENDBRANCH  68  71
ENDBRANCH  50  64
BRANCH  51  75
ATOM     75  C   UNL A   1      38.702  30.409  30.977  1.00  0.00     0.023 A 
ATOM     76  C   UNL A   1      38.596  30.064  32.339  1.00  0.00     0.012 A 
ATOM     77  C   UNL A   1      37.668  31.152  30.376  1.00  0.00     0.148 A 
ATOM     78  C   UNL A   1      37.461  30.411  33.074  1.00  0.00     0.002 A 
ATOM     79  C   UNL A   1      36.569  31.546  31.129  1.00  0.00     0.091 A 
ATOM     80  F   UNL A   1      37.781  31.461  29.077  1.00  0.00    -0.205 F 
ATOM     81  C   UNL A   1      36.453  31.158  32.472  1.00  0.00     0.022 A 
BRANCH  79  82
ATOM     82  S   UNL A   1      35.293  32.625  30.470  1.00  0.00     0.127 S 
ATOM     83  O   UNL A   1      34.368  32.716  31.596  1.00  0.00    -0.237 OA
ATOM     84  O   UNL A   1      36.045  33.848  30.187  1.00  0.00    -0.237 OA
ATOM     85  O   UNL A   1      34.785  31.949  29.283  1.00  0.00    -0.744 OA
ENDBRANCH  79  82
ENDBRANCH  51  75
BRANCH  63  86
ATOM     86  C   UNL A   1      44.731  33.538  29.383  1.00  0.00     0.023 A 
ATOM     87  C   UNL A   1      45.422  33.791  30.585  1.00  0.00     0.012 A 
ATOM     88  C   UNL A   1      44.600  34.568  28.432  1.00  0.00     0.148 A 
ATOM     89  C   UNL A   1      45.936  35.059  30.854  1.00  0.00     0.002 A 
ATOM     90  C   UNL A   1      45.160  35.814  28.682  1.00  0.00     0.091 A 
ATOM     91  F   UNL A   1      43.924  34.313  27.301  1.00  0.00    -0.205 F 
ATOM     92  C   UNL A   1      45.814  36.067  29.899  1.00  0.00     0.022 A 
BRANCH  90  93
ATOM     93  S   UNL A   1      45.140  37.141  27.473  1.00  0.00     0.127 S 
ATOM     94  O   UNL A   1      45.608  38.276  28.268  1.00  0.00    -0.237 OA
ATOM     95  O   UNL A   1      46.093  36.663  26.471  1.00  0.00    -0.237 OA
ATOM     96  O   UNL A   1      43.764  37.234  27.001  1.00  0.00    -0.744 OA
ENDBRANCH  90  93
ENDBRANCH  63  86
ENDBRANCH  37  38
ENDBRANCH  29  32
ENDBRANCH  27  28
ENDBRANCH  26  27
ENDBRANCH  25  26
ENDBRANCH   1  25
TORSDOF 19
ENDMDL
MODEL 2
REMARK VINA RESULT:     -11.7      4.987      9.911
REMARK SMILES C[C@H](C(=O)NCCCCCCNC(=O)c1ccc(-c2c3nc(c(-c4cccc(S(=O)(=O)[O-])c4F)c4ccc([nH]4)c(-c4cccc(S(=O)(=O)[O-])c4F)c4nc(c(-c5cccc(S(=O)(=O)[O-])c5F)c5ccc2[nH]5)C=C4)C=C3)cc1)[C@H](C)[N@@H+]1CC[C@H]([NH+]2CCCCC2)C1
REMARK SMILES IDX 8 1 7 2 6 3 5 4 3 5 4 6 2 8 1 9 78 10 79 11 80 12 81 13
REMARK SMILES IDX 90 14 82 16 83 17 84 18 85 19 89 20 86 22 88 23 87 24 9 25
REMARK SMILES IDX 10 26 11 27 12 28 13 29 14 31 15 32 16 33 77 34 17 35 76 36
REMARK SMILES IDX 18 37 19 38 20 39 70 40 21 41 75 42 69 43 71 44 22 45 74 46
REMARK SMILES IDX 68 47 67 48 23 50 55 51 35 52 54 53 36 54 39 55 53 56 72 57
REMARK SMILES IDX 37 58 38 59 52 61 73 62 40 63 24 64 25 65 33 66 26 67 28 68
REMARK SMILES IDX 34 69 27 70 29 71 30 72 31 73 32 74 56 75 57 76 65 77 58 78
REMARK SMILES IDX 60 79 66 80 59 81 61 82 62 83 63 84 64 85 41 86 42 87 50 88
REMARK SMILES IDX 43 89 45 90 51 91 44 92 46 93 47 94 48 95 49 96
REMARK H PARENT 5 7 80 15 84 21 12 30 71 49 39 60
REMARK Flexibility Score: inf
ROOT
ATOM      1  C   UNL A   1      32.766  28.911  22.975  1.00  0.00     0.002 C 
ENDROOT
BRANCH   1   2
ATOM      2  C   UNL A   1      31.334  28.515  23.362  1.00  0.00     0.021 C 
BRANCH   2   3
ATOM      3  C   UNL A   1      30.750  27.388  22.523  1.00  0.00     0.116 C 
BRANCH   3   4
ATOM      4  N   UNL A   1      31.741  26.762  21.653  1.00  0.00    -0.356 N 
ATOM      5  C   UNL A   1      32.510  25.641  21.796  1.00  0.00     0.228 C 
ATOM      6  O   UNL A   1      33.240  25.348  20.839  1.00  0.00    -0.275 OA
ATOM      7  H   UNL A   1      31.882  27.237  20.802  1.00  0.00     0.163 HD
BRANCH   5   8
ATOM      8  C   UNL A   1      32.569  24.774  23.065  1.00  0.00     0.133 C 
ATOM      9  C   UNL A   1      31.416  23.777  23.165  1.00  0.00     0.024 C 
BRANCH   8  10
ATOM     10  C   UNL A   1      33.950  24.227  23.647  1.00  0.00     0.193 C 
ATOM     11  C   UNL A   1      34.419  22.960  22.887  1.00  0.00     0.076 C 
BRANCH  10  12
ATOM     12  N   UNL A   1      34.338  24.291  25.081  1.00  0.00    -0.327 N 
ATOM     13  C   UNL A   1      35.765  24.267  25.430  1.00  0.00     0.269 C 
ATOM     14  C   UNL A   1      33.763  23.316  25.990  1.00  0.00     0.328 C 
ATOM     15  H   UNL A   1      33.938  25.220  25.208  1.00  0.00     0.348 HD
ATOM     16  C   UNL A   1      36.104  22.826  25.837  1.00  0.00     0.132 C 
ATOM     17  C   UNL A   1      34.789  22.229  26.343  1.00  0.00     0.245 C 
BRANCH  17  18
ATOM     18  N   UNL A   1      34.317  20.907  25.865  1.00  0.00    -0.328 N 
ATOM     19  C   UNL A   1      32.942  20.868  25.368  1.00  0.00     0.262 C 
ATOM     20  C   UNL A   1      35.251  20.234  24.965  1.00  0.00     0.262 C 
ATOM     21  H   UNL A   1      34.293  20.357  26.725  1.00  0.00     0.348 HD
ATOM     22  C   UNL A   1      32.457  19.443  25.106  1.00  0.00     0.062 C 
ATOM     23  C   UNL A   1      34.809  18.799  24.644  1.00  0.00     0.062 C 
ATOM     24  C   UNL A   1      33.378  18.745  24.122  1.00  0.00     0.012 C 
ENDBRANCH  17  18
ENDBRANCH  10  12
ENDBRANCH   8  10
ENDBRANCH   5   8
ENDBRANCH   3   4
ENDBRANCH   2   3
ENDBRANCH   1   2
BRANCH   1  25
ATOM     25  C   UNL A   1      33.877  28.536  23.966  1.00  0.00     0.002 C 
BRANCH  25  26
ATOM     26  C   UNL A   1      33.457  27.713  25.187  1.00  0.00     0.021 C 
BRANCH  26  27
ATOM     27  C   UNL A   1      34.014  28.182  26.527  1.00  0.00     0.116 C 
BRANCH  27  28
ATOM     28  N   UNL A   1      33.686  29.564  26.831  1.00  0.00    -0.352 N 
ATOM     29  C   UNL A   1      34.416  30.483  27.540  1.00  0.00     0.251 C 
ATOM     30  H   UNL A   1      32.824  29.883  26.481  1.00  0.00     0.163 HD
ATOM     31  O   UNL A   1      33.938  31.591  27.779  1.00  0.00    -0.269 OA
BRANCH  29  32
ATOM     32  C   UNL A   1      35.759  30.128  28.045  1.00  0.00     0.039 A 
ATOM     33  C   UNL A   1      35.866  29.592  29.329  1.00  0.00     0.014 A 
ATOM     34  C   UNL A   1      36.903  30.308  27.261  1.00  0.00     0.014 A 
ATOM     35  C   UNL A   1      37.113  29.192  29.809  1.00  0.00     0.010 A 
ATOM     36  C   UNL A   1      38.134  29.837  27.711  1.00  0.00     0.010 A 
ATOM     37  C   UNL A   1      38.254  29.283  28.994  1.00  0.00    -0.014 A 
BRANCH  37  38
ATOM     38  C   UNL A   1      39.571  28.800  29.479  1.00  0.00     0.031 A 
ATOM     39  C   UNL A   1      40.289  29.522  30.588  1.00  0.00     0.074 A 
ATOM     40  C   UNL A   1      40.143  27.731  28.887  1.00  0.00     0.049 A 
ATOM     41  N   UNL A   1      41.443  29.245  31.138  1.00  0.00    -0.248 NA
ATOM     42  C   UNL A   1      39.639  30.724  31.136  1.00  0.00     0.031 C 
ATOM     43  C   UNL A   1      39.586  26.999  27.747  1.00  0.00     0.029 A 
ATOM     44  N   UNL A   1      41.326  27.087  29.148  1.00  0.00    -0.354 N 
ATOM     45  C   UNL A   1      41.663  30.241  32.082  1.00  0.00     0.074 A 
ATOM     46  C   UNL A   1      40.550  31.159  31.994  1.00  0.00     0.031 C 
ATOM     47  C   UNL A   1      40.422  26.002  27.413  1.00  0.00     0.029 A 
ATOM     48  C   UNL A   1      41.585  26.041  28.294  1.00  0.00     0.049 A 
ATOM     49  H   UNL A   1      41.932  27.349  29.879  1.00  0.00     0.167 HD
ATOM     50  C   UNL A   1      42.680  30.362  32.969  1.00  0.00     0.034 A 
ATOM     51  C   UNL A   1      42.645  25.212  28.221  1.00  0.00     0.034 A 
ATOM     52  C   UNL A   1      43.774  29.434  33.069  1.00  0.00     0.049 A 
ATOM     53  C   UNL A   1      43.748  25.352  29.235  1.00  0.00     0.074 A 
ATOM     54  C   UNL A   1      44.826  29.436  33.969  1.00  0.00     0.029 A 
ATOM     55  N   UNL A   1      43.963  28.340  32.238  1.00  0.00    -0.354 N 
ATOM     56  N   UNL A   1      43.863  26.214  30.217  1.00  0.00    -0.248 NA
ATOM     57  C   UNL A   1      44.848  24.381  29.159  1.00  0.00     0.031 C 
ATOM     58  C   UNL A   1      45.661  28.355  33.668  1.00  0.00     0.029 A 
ATOM     59  C   UNL A   1      45.112  27.661  32.603  1.00  0.00     0.049 A 
ATOM     60  H   UNL A   1      43.366  28.084  31.499  1.00  0.00     0.167 HD
ATOM     61  C   UNL A   1      45.025  25.866  30.895  1.00  0.00     0.074 A 
ATOM     62  C   UNL A   1      45.562  24.698  30.230  1.00  0.00     0.031 C 
ATOM     63  C   UNL A   1      45.606  26.468  31.962  1.00  0.00     0.034 A 
BRANCH  50  64
ATOM     64  C   UNL A   1      42.623  31.509  33.946  1.00  0.00     0.023 A 
ATOM     65  C   UNL A   1      43.308  32.705  33.646  1.00  0.00     0.012 A 
ATOM     66  C   UNL A   1      41.850  31.434  35.120  1.00  0.00     0.148 A 
ATOM     67  C   UNL A   1      43.253  33.795  34.515  1.00  0.00     0.002 A 
ATOM     68  C   UNL A   1      41.762  32.540  35.958  1.00  0.00     0.091 A 
ATOM     69  F   UNL A   1      41.220  30.283  35.397  1.00  0.00    -0.205 F 
ATOM     70  C   UNL A   1      42.472  33.716  35.663  1.00  0.00     0.022 A 
BRANCH  68  71
ATOM     71  S   UNL A   1      40.721  32.572  37.421  1.00  0.00     0.127 S 
ATOM     72  O   UNL A   1      41.603  31.974  38.423  1.00  0.00    -0.237 OA
ATOM     73  O   UNL A   1      40.483  34.004  37.596  1.00  0.00    -0.237 OA
ATOM     74  O   UNL A   1      39.536  31.792  37.092  1.00  0.00    -0.744 OA
ENDBRANCH  68  71
ENDBRANCH  50  64
BRANCH  51  75
ATOM     75  C   UNL A   1      42.693  24.144  27.183  1.00  0.00     0.023 A 
ATOM     76  C   UNL A   1      43.371  24.378  25.970  1.00  0.00     0.012 A 
ATOM     77  C   UNL A   1      42.075  22.897  27.392  1.00  0.00     0.148 A 
ATOM     78  C   UNL A   1      43.390  23.407  24.966  1.00  0.00     0.002 A 
ATOM     79  C   UNL A   1      42.149  21.912  26.414  1.00  0.00     0.091 A 
ATOM     80  F   UNL A   1      41.425  22.696  28.547  1.00  0.00    -0.205 F 
ATOM     81  C   UNL A   1      42.787  22.173  25.192  1.00  0.00     0.022 A 
BRANCH  79  82
ATOM     82  S   UNL A   1      41.519  20.251  26.676  1.00  0.00     0.127 S 
ATOM     83  O   UNL A   1      41.919  19.581  25.442  1.00  0.00    -0.237 OA
ATOM     84  O   UNL A   1      42.252  19.833  27.872  1.00  0.00    -0.237 OA
ATOM     85  O   UNL A   1      40.084  20.405  26.880  1.00  0.00    -0.744 OA
ENDBRANCH  79  82
ENDBRANCH  51  75
BRANCH  63  86
ATOM     86  C   UNL A   1      46.867  25.850  32.508  1.00  0.00     0.023 A 
ATOM     87  C   UNL A   1      48.124  26.291  32.048  1.00  0.00     0.012 A 
ATOM     88  C   UNL A   1      46.805  24.869  33.517  1.00  0.00     0.148 A 
ATOM     89  C   UNL A   1      49.299  25.735  32.554  1.00  0.00     0.002 A 
ATOM     90  C   UNL A   1      47.979  24.357  34.054  1.00  0.00     0.091 A 
ATOM     91  F   UNL A   1      45.599  24.449  33.929  1.00  0.00    -0.205 F 
ATOM     92  C   UNL A   1      49.227  24.777  33.563  1.00  0.00     0.022 A 
BRANCH  90  93
ATOM     93  S   UNL A   1      47.988  23.194  35.422  1.00  0.00     0.127 S 
ATOM     94  O   UNL A   1      47.306  23.959  36.467  1.00  0.00    -0.237 OA
ATOM     95  O   UNL A   1      47.215  22.075  34.883  1.00  0.00    -0.237 OA
ATOM     96  O   UNL A   1      49.389  22.891  35.683  1.00  0.00    -0.744 OA
ENDBRANCH  90  93
ENDBRANCH  63  86
ENDBRANCH  37  38
ENDBRANCH  29  32
ENDBRANCH  27  28
ENDBRANCH  26  27
ENDBRANCH  25  26
ENDBRANCH   1  25
TORSDOF 19
ENDMDL
MODEL 3
REMARK VINA RESULT:     -11.4      2.002      2.651
REMARK SMILES C[C@H](C(=O)NCCCCCCNC(=O)c1ccc(-c2c3nc(c(-c4cccc(S(=O)(=O)[O-])c4F)c4ccc([nH]4)c(-c4cccc(S(=O)(=O)[O-])c4F)c4nc(c(-c5cccc(S(=O)(=O)[O-])c5F)c5ccc2[nH]5)C=C4)C=C3)cc1)[C@H](C)[N@@H+]1CC[C@H]([NH+]2CCCCC2)C1
REMARK SMILES IDX 8 1 7 2 6 3 5 4 3 5 4 6 2 8 1 9 78 10 79 11 80 12 81 13
REMARK SMILES IDX 90 14 82 16 83 17 84 18 85 19 89 20 86 22 88 23 87 24 9 25
REMARK SMILES IDX 10 26 11 27 12 28 13 29 14 31 15 32 16 33 77 34 17 35 76 36
REMARK SMILES IDX 18 37 19 38 20 39 70 40 21 41 75 42 69 43 71 44 22 45 74 46
REMARK SMILES IDX 68 47 67 48 23 50 55 51 35 52 54 53 36 54 39 55 53 56 72 57
REMARK SMILES IDX 37 58 38 59 52 61 73 62 40 63 24 64 25 65 33 66 26 67 28 68
REMARK SMILES IDX 34 69 27 70 29 71 30 72 31 73 32 74 56 75 57 76 65 77 58 78
REMARK SMILES IDX 60 79 66 80 59 81 61 82 62 83 63 84 64 85 41 86 42 87 50 88
REMARK SMILES IDX 43 89 45 90 51 91 44 92 46 93 47 94 48 95 49 96
REMARK H PARENT 5 7 80 15 84 21 12 30 71 49 39 60
REMARK Flexibility Score: inf
ROOT
ATOM      1  C   UNL A   1      34.102  22.338  25.287  1.00  0.00     0.002 C 
ENDROOT
BRANCH   1   2
ATOM      2  C   UNL A   1      32.951  22.714  26.231  1.00  0.00     0.021 C 
BRANCH   2   3
ATOM      3  C   UNL A   1      32.837  24.204  26.515  1.00  0.00     0.116 C 
BRANCH   3   4
ATOM      4  N   UNL A   1      31.465  24.622  26.785  1.00  0.00    -0.356 N 
ATOM      5  C   UNL A   1      30.476  25.103  25.974  1.00  0.00     0.228 C 
ATOM      6  O   UNL A   1      29.384  25.333  26.513  1.00  0.00    -0.275 OA
ATOM      7  H   UNL A   1      31.202  24.543  27.731  1.00  0.00     0.163 HD
BRANCH   5   8
ATOM      8  C   UNL A   1      30.646  25.426  24.480  1.00  0.00     0.133 C 
ATOM      9  C   UNL A   1      30.524  24.196  23.582  1.00  0.00     0.024 C 
BRANCH   8  10
ATOM     10  C   UNL A   1      30.055  26.760  23.835  1.00  0.00     0.193 C 
ATOM     11  C   UNL A   1      28.507  26.717  23.772  1.00  0.00     0.076 C 
BRANCH  10  12
ATOM     12  N   UNL A   1      30.717  27.529  22.747  1.00  0.00    -0.327 N 
ATOM     13  C   UNL A   1      31.813  26.897  22.000  1.00  0.00     0.269 C 
ATOM     14  C   UNL A   1      31.250  28.841  23.062  1.00  0.00     0.328 C 
ATOM     15  H   UNL A   1      29.865  27.581  22.187  1.00  0.00     0.348 HD
ATOM     16  C   UNL A   1      33.125  27.425  22.598  1.00  0.00     0.132 C 
ATOM     17  C   UNL A   1      32.779  28.792  23.190  1.00  0.00     0.245 C 
BRANCH  17  18
ATOM     18  N   UNL A   1      33.188  29.153  24.569  1.00  0.00    -0.328 N 
ATOM     19  C   UNL A   1      32.210  29.923  25.338  1.00  0.00     0.262 C 
ATOM     20  C   UNL A   1      33.740  28.037  25.334  1.00  0.00     0.262 C 
ATOM     21  H   UNL A   1      33.956  29.805  24.408  1.00  0.00     0.348 HD
ATOM     22  C   UNL A   1      32.785  30.445  26.654  1.00  0.00     0.062 C 
ATOM     23  C   UNL A   1      34.317  28.493  26.682  1.00  0.00     0.062 C 
ATOM     24  C   UNL A   1      33.307  29.294  27.495  1.00  0.00     0.012 C 
ENDBRANCH  17  18
ENDBRANCH  10  12
ENDBRANCH   8  10
ENDBRANCH   5   8
ENDBRANCH   3   4
ENDBRANCH   2   3
ENDBRANCH   1   2
BRANCH   1  25
ATOM     25  C   UNL A   1      34.537  23.406  24.272  1.00  0.00     0.002 C 
BRANCH  25  26
ATOM     26  C   UNL A   1      35.950  23.972  24.436  1.00  0.00     0.021 C 
BRANCH  26  27
ATOM     27  C   UNL A   1      36.584  23.785  25.810  1.00  0.00     0.116 C 
BRANCH  27  28
ATOM     28  N   UNL A   1      37.563  22.713  25.848  1.00  0.00    -0.352 N 
ATOM     29  C   UNL A   1      38.863  22.753  26.283  1.00  0.00     0.251 C 
ATOM     30  H   UNL A   1      37.251  21.841  25.518  1.00  0.00     0.163 HD
ATOM     31  O   UNL A   1      39.581  21.762  26.157  1.00  0.00    -0.269 OA
BRANCH  29  32
ATOM     32  C   UNL A   1      39.407  23.996  26.869  1.00  0.00     0.039 A 
ATOM     33  C   UNL A   1      40.004  24.927  26.016  1.00  0.00     0.014 A 
ATOM     34  C   UNL A   1      39.322  24.252  28.241  1.00  0.00     0.014 A 
ATOM     35  C   UNL A   1      40.473  26.135  26.533  1.00  0.00     0.010 A 
ATOM     36  C   UNL A   1      39.719  25.490  28.741  1.00  0.00     0.010 A 
ATOM     37  C   UNL A   1      40.308  26.441  27.894  1.00  0.00    -0.014 A 
BRANCH  37  38
ATOM     38  C   UNL A   1      40.748  27.752  28.434  1.00  0.00     0.031 A 
ATOM     39  C   UNL A   1      42.212  28.053  28.611  1.00  0.00     0.074 A 
ATOM     40  C   UNL A   1      39.822  28.658  28.808  1.00  0.00     0.049 A 
ATOM     41  N   UNL A   1      42.779  29.139  29.066  1.00  0.00    -0.248 NA
ATOM     42  C   UNL A   1      43.163  26.988  28.251  1.00  0.00     0.031 C 
ATOM     43  C   UNL A   1      38.372  28.452  28.765  1.00  0.00     0.029 A 
ATOM     44  N   UNL A   1      39.960  29.926  29.314  1.00  0.00    -0.354 N 
ATOM     45  C   UNL A   1      44.146  28.886  29.062  1.00  0.00     0.074 A 
ATOM     46  C   UNL A   1      44.321  27.524  28.609  1.00  0.00     0.031 C 
ATOM     47  C   UNL A   1      37.756  29.556  29.218  1.00  0.00     0.029 A 
ATOM     48  C   UNL A   1      38.763  30.537  29.609  1.00  0.00     0.049 A 
ATOM     49  H   UNL A   1      40.834  30.358  29.453  1.00  0.00     0.167 HD
ATOM     50  C   UNL A   1      45.167  29.722  29.370  1.00  0.00     0.034 A 
ATOM     51  C   UNL A   1      38.506  31.746  30.143  1.00  0.00     0.034 A 
ATOM     52  C   UNL A   1      44.991  31.083  29.798  1.00  0.00     0.049 A 
ATOM     53  C   UNL A   1      39.658  32.665  30.452  1.00  0.00     0.074 A 
ATOM     54  C   UNL A   1      45.960  32.029  30.082  1.00  0.00     0.029 A 
ATOM     55  N   UNL A   1      43.763  31.693  30.009  1.00  0.00    -0.354 N 
ATOM     56  N   UNL A   1      40.944  32.456  30.300  1.00  0.00    -0.248 NA
ATOM     57  C   UNL A   1      39.325  33.999  30.967  1.00  0.00     0.031 C 
ATOM     58  C   UNL A   1      45.318  33.205  30.485  1.00  0.00     0.029 A 
ATOM     59  C   UNL A   1      43.950  33.002  30.420  1.00  0.00     0.049 A 
ATOM     60  H   UNL A   1      42.889  31.260  29.884  1.00  0.00     0.167 HD
ATOM     61  C   UNL A   1      41.568  33.644  30.664  1.00  0.00     0.074 A 
ATOM     62  C   UNL A   1      40.518  34.575  31.017  1.00  0.00     0.031 C 
ATOM     63  C   UNL A   1      42.891  33.933  30.719  1.00  0.00     0.034 A 
BRANCH  50  64
ATOM     64  C   UNL A   1      46.572  29.204  29.194  1.00  0.00     0.023 A 
ATOM     65  C   UNL A   1      47.215  28.570  30.279  1.00  0.00     0.012 A 
ATOM     66  C   UNL A   1      47.231  29.282  27.952  1.00  0.00     0.148 A 
ATOM     67  C   UNL A   1      48.504  28.055  30.142  1.00  0.00     0.002 A 
ATOM     68  C   UNL A   1      48.498  28.725  27.810  1.00  0.00     0.091 A 
ATOM     69  F   UNL A   1      46.612  29.902  26.938  1.00  0.00    -0.205 F 
ATOM     70  C   UNL A   1      49.139  28.123  28.905  1.00  0.00     0.022 A 
BRANCH  68  71
ATOM     71  S   UNL A   1      49.373  28.686  26.242  1.00  0.00     0.127 S 
ATOM     72  O   UNL A   1      49.848  30.065  26.136  1.00  0.00    -0.237 OA
ATOM     73  O   UNL A   1      50.421  27.699  26.501  1.00  0.00    -0.237 OA
ATOM     74  O   UNL A   1      48.392  28.288  25.242  1.00  0.00    -0.744 OA
ENDBRANCH  68  71
ENDBRANCH  50  64
BRANCH  51  75
ATOM     75  C   UNL A   1      37.099  32.182  30.376  1.00  0.00     0.023 A 
ATOM     76  C   UNL A   1      36.474  31.898  31.606  1.00  0.00     0.012 A 
ATOM     77  C   UNL A   1      36.381  32.877  29.386  1.00  0.00     0.148 A 
ATOM     78  C   UNL A   1      35.143  32.257  31.827  1.00  0.00     0.002 A 
ATOM     79  C   UNL A   1      35.075  33.286  29.634  1.00  0.00     0.091 A 
ATOM     80  F   UNL A   1      36.988  33.129  28.218  1.00  0.00    -0.205 F 
ATOM     81  C   UNL A   1      34.447  32.958  30.845  1.00  0.00     0.022 A 
BRANCH  79  82
ATOM     82  S   UNL A   1      34.156  34.309  28.480  1.00  0.00     0.127 S 
ATOM     83  O   UNL A   1      34.969  35.521  28.442  1.00  0.00    -0.237 OA
ATOM     84  O   UNL A   1      34.194  33.501  27.260  1.00  0.00    -0.237 OA
ATOM     85  O   UNL A   1      32.826  34.453  29.060  1.00  0.00    -0.744 OA
ENDBRANCH  79  82
ENDBRANCH  51  75
BRANCH  63  86
ATOM     86  C   UNL A   1      43.281  35.328  31.133  1.00  0.00     0.023 A 
ATOM     87  C   UNL A   1      43.574  35.606  32.484  1.00  0.00     0.012 A 
ATOM     88  C   UNL A   1      43.410  36.351  30.175  1.00  0.00     0.148 A 
ATOM     89  C   UNL A   1      43.947  36.890  32.879  1.00  0.00     0.002 A 
ATOM     90  C   UNL A   1      43.833  37.614  30.566  1.00  0.00     0.091 A 
ATOM     91  F   UNL A   1      43.110  36.072  28.897  1.00  0.00    -0.205 F 
ATOM     92  C   UNL A   1      44.087  37.891  31.920  1.00  0.00     0.022 A 
BRANCH  90  93
ATOM     93  S   UNL A   1      44.137  38.938  29.391  1.00  0.00     0.127 S 
ATOM     94  O   UNL A   1      42.781  39.259  28.947  1.00  0.00    -0.237 OA
ATOM     95  O   UNL A   1      44.763  39.960  30.229  1.00  0.00    -0.237 OA
ATOM     96  O   UNL A   1      45.011  38.375  28.369  1.00  0.00    -0.744 OA
ENDBRANCH  90  93
ENDBRANCH  63  86
ENDBRANCH  37  38
ENDBRANCH  29  32
ENDBRANCH  27  28
ENDBRANCH  26  27
ENDBRANCH  25  26
ENDBRANCH   1  25
TORSDOF 19
ENDMDL
