MODEL 1
REMARK VINA RESULT:     -11.6      0.000      0.000
REMARK SMILES CC[C@H](C)[C@@H](Nc1nc(C(F)(F)F)nc2ccccc12)C(=O)NCCCCCCNC(=O)c1ccc(-c2c3nc(c(-c4cccc(S(=O)(=O)[O-])c4F)c4ccc([nH]4)c(-c4cccc(S(=O)(=O)[O-])c4F)c4nc(c(-c5cccc(S(=O)(=O)[O-])c5F)c5ccc2[nH]5)C=C4)C=C3)cc1
REMARK SMILES IDX 26 1 25 2 24 3 23 4 21 5 22 6 5 8 3 9 4 10 2 11 1 12 6 13
REMARK SMILES IDX 7 15 8 16 20 17 9 18 15 19 19 20 14 21 16 22 18 23 17 24
REMARK SMILES IDX 10 25 11 26 12 27 13 28 27 29 28 30 29 31 30 32 31 33 32 35
REMARK SMILES IDX 33 36 34 37 95 38 35 39 94 40 36 41 37 42 38 43 88 44 39 45
REMARK SMILES IDX 93 46 87 47 89 48 40 49 92 50 86 51 85 52 41 54 73 55 53 56
REMARK SMILES IDX 72 57 54 58 57 59 71 60 90 61 55 62 56 63 70 65 91 66 58 67
REMARK SMILES IDX 42 68 43 69 51 70 44 71 46 72 52 73 45 74 47 75 48 76 49 77
REMARK SMILES IDX 50 78 74 79 75 80 83 81 76 82 78 83 84 84 77 85 79 86 80 87
REMARK SMILES IDX 81 88 82 89 59 90 60 91 68 92 61 93 63 94 69 95 62 96 64 97
REMARK SMILES IDX 65 98 66 99 67 100
REMARK H PARENT 23 7 6 14 30 34 89 53 57 64
REMARK Flexibility Score: inf
ROOT
ATOM      1  C   UNL A   1      32.495  29.990  26.067  1.00  0.00     0.002 C 
ENDROOT
BRANCH   1   2
ATOM      2  C   UNL A   1      32.211  28.610  26.670  1.00  0.00     0.021 C 
BRANCH   2   3
ATOM      3  C   UNL A   1      33.244  27.569  26.261  1.00  0.00     0.116 C 
BRANCH   3   4
ATOM      4  N   UNL A   1      33.253  27.432  24.819  1.00  0.00    -0.354 N 
ATOM      5  C   UNL A   1      33.197  26.310  24.053  1.00  0.00     0.242 C 
ATOM      6  O   UNL A   1      33.385  26.432  22.837  1.00  0.00    -0.273 OA
ATOM      7  H   UNL A   1      33.310  28.278  24.319  1.00  0.00     0.163 HD
BRANCH   5   8
ATOM      8  C   UNL A   1      32.928  24.918  24.677  1.00  0.00     0.173 C 
BRANCH   8   9
ATOM      9  C   UNL A   1      31.393  24.722  24.919  1.00  0.00     0.018 C 
ATOM     10  C   UNL A   1      30.726  23.985  23.752  1.00  0.00     0.010 C 
BRANCH   9  11
ATOM     11  C   UNL A   1      31.157  24.010  26.278  1.00  0.00     0.002 C 
ATOM     12  C   UNL A   1      30.506  22.636  26.189  1.00  0.00     0.004 C 
ENDBRANCH   9  11
ENDBRANCH   8   9
BRANCH   8  13
ATOM     13  N   UNL A   1      33.543  23.793  23.932  1.00  0.00    -0.358 N 
ATOM     14  H   UNL A   1      33.475  23.816  22.951  1.00  0.00     0.162 HD
BRANCH  13  15
ATOM     15  C   UNL A   1      34.202  22.715  24.490  1.00  0.00     0.138 A 
ATOM     16  N   UNL A   1      33.490  21.582  24.362  1.00  0.00    -0.207 NA
ATOM     17  C   UNL A   1      35.505  22.714  25.013  1.00  0.00     0.043 A 
ATOM     18  C   UNL A   1      34.098  20.404  24.632  1.00  0.00     0.237 A 
ATOM     19  C   UNL A   1      36.071  21.446  25.191  1.00  0.00     0.076 A 
ATOM     20  C   UNL A   1      36.284  23.856  25.330  1.00  0.00     0.014 A 
ATOM     21  N   UNL A   1      35.394  20.313  25.001  1.00  0.00    -0.224 NA
ATOM     22  C   UNL A   1      37.410  21.348  25.546  1.00  0.00     0.029 A 
ATOM     23  C   UNL A   1      37.627  23.737  25.684  1.00  0.00     0.001 A 
ATOM     24  C   UNL A   1      38.199  22.477  25.771  1.00  0.00     0.002 A 
BRANCH  18  25
ATOM     25  C   UNL A   1      33.308  19.109  24.400  1.00  0.00     0.451 C 
ATOM     26  F   UNL A   1      32.202  19.010  25.191  1.00  0.00    -0.163 F 
ATOM     27  F   UNL A   1      32.869  18.997  23.109  1.00  0.00    -0.163 F 
ATOM     28  F   UNL A   1      34.037  17.975  24.635  1.00  0.00    -0.163 F 
ENDBRANCH  18  25
ENDBRANCH  13  15
ENDBRANCH   8  13
ENDBRANCH   5   8
ENDBRANCH   3   4
ENDBRANCH   2   3
ENDBRANCH   1   2
BRANCH   1  29
ATOM     29  C   UNL A   1      31.240  30.811  25.750  1.00  0.00     0.002 C 
BRANCH  29  30
ATOM     30  C   UNL A   1      31.224  32.210  26.370  1.00  0.00     0.021 C 
BRANCH  30  31
ATOM     31  C   UNL A   1      32.471  32.543  27.183  1.00  0.00     0.116 C 
BRANCH  31  32
ATOM     32  N   UNL A   1      32.477  33.932  27.615  1.00  0.00    -0.352 N 
ATOM     33  C   UNL A   1      33.257  34.536  28.564  1.00  0.00     0.251 C 
ATOM     34  H   UNL A   1      31.830  34.520  27.160  1.00  0.00     0.163 HD
ATOM     35  O   UNL A   1      32.983  35.667  28.962  1.00  0.00    -0.269 OA
BRANCH  33  36
ATOM     36  C   UNL A   1      34.417  33.812  29.117  1.00  0.00     0.039 A 
ATOM     37  C   UNL A   1      35.703  34.263  28.814  1.00  0.00     0.014 A 
ATOM     38  C   UNL A   1      34.232  32.703  29.950  1.00  0.00     0.014 A 
ATOM     39  C   UNL A   1      36.805  33.636  29.397  1.00  0.00     0.010 A 
ATOM     40  C   UNL A   1      35.328  32.128  30.586  1.00  0.00     0.010 A 
ATOM     41  C   UNL A   1      36.626  32.590  30.319  1.00  0.00    -0.014 A 
BRANCH  41  42
ATOM     42  C   UNL A   1      37.782  32.005  31.044  1.00  0.00     0.031 A 
ATOM     43  C   UNL A   1      38.564  30.866  30.447  1.00  0.00     0.074 A 
ATOM     44  C   UNL A   1      38.073  32.450  32.282  1.00  0.00     0.049 A 
ATOM     45  N   UNL A   1      39.575  30.210  30.956  1.00  0.00    -0.248 NA
ATOM     46  C   UNL A   1      38.148  30.387  29.118  1.00  0.00     0.031 C 
ATOM     47  C   UNL A   1      37.336  33.493  33.003  1.00  0.00     0.029 A 
ATOM     48  N   UNL A   1      39.048  32.065  33.170  1.00  0.00    -0.354 N 
ATOM     49  C   UNL A   1      39.892  29.222  30.032  1.00  0.00     0.074 A 
ATOM     50  C   UNL A   1      38.955  29.349  28.938  1.00  0.00     0.031 C 
ATOM     51  C   UNL A   1      37.884  33.664  34.216  1.00  0.00     0.029 A 
ATOM     52  C   UNL A   1      38.985  32.721  34.378  1.00  0.00     0.049 A 
ATOM     53  H   UNL A   1      39.728  31.385  32.960  1.00  0.00     0.167 HD
ATOM     54  C   UNL A   1      40.887  28.306  30.082  1.00  0.00     0.034 A 
ATOM     55  C   UNL A   1      39.718  32.567  35.498  1.00  0.00     0.034 A 
ATOM     56  C   UNL A   1      41.842  28.208  31.154  1.00  0.00     0.049 A 
ATOM     57  C   UNL A   1      40.835  31.558  35.507  1.00  0.00     0.074 A 
ATOM     58  C   UNL A   1      42.948  27.382  31.243  1.00  0.00     0.029 A 
ATOM     59  N   UNL A   1      41.796  28.942  32.328  1.00  0.00    -0.354 N 
ATOM     60  N   UNL A   1      41.233  30.759  34.548  1.00  0.00    -0.248 NA
ATOM     61  C   UNL A   1      41.626  31.454  36.742  1.00  0.00     0.031 C 
ATOM     62  C   UNL A   1      43.547  27.586  32.489  1.00  0.00     0.029 A 
ATOM     63  C   UNL A   1      42.839  28.570  33.158  1.00  0.00     0.049 A 
ATOM     64  H   UNL A   1      41.121  29.627  32.540  1.00  0.00     0.167 HD
ATOM     65  C   UNL A   1      42.338  30.083  35.051  1.00  0.00     0.074 A 
ATOM     66  C   UNL A   1      42.566  30.589  36.388  1.00  0.00     0.031 C 
ATOM     67  C   UNL A   1      43.087  29.116  34.467  1.00  0.00     0.034 A 
BRANCH  54  68
ATOM     68  C   UNL A   1      41.037  27.351  28.927  1.00  0.00     0.023 A 
ATOM     69  C   UNL A   1      40.182  26.235  28.827  1.00  0.00     0.012 A 
ATOM     70  C   UNL A   1      41.947  27.622  27.887  1.00  0.00     0.148 A 
ATOM     71  C   UNL A   1      40.241  25.395  27.716  1.00  0.00     0.002 A 
ATOM     72  C   UNL A   1      41.968  26.807  26.762  1.00  0.00     0.091 A 
ATOM     73  F   UNL A   1      42.763  28.679  28.011  1.00  0.00    -0.205 F 
ATOM     74  C   UNL A   1      41.123  25.689  26.679  1.00  0.00     0.022 A 
BRANCH  72  75
ATOM     75  S   UNL A   1      43.006  27.145  25.335  1.00  0.00     0.127 S 
ATOM     76  O   UNL A   1      42.894  25.894  24.587  1.00  0.00    -0.237 OA
ATOM     77  O   UNL A   1      42.322  28.284  24.724  1.00  0.00    -0.237 OA
ATOM     78  O   UNL A   1      44.333  27.437  25.859  1.00  0.00    -0.744 OA
ENDBRANCH  72  75
ENDBRANCH  54  68
BRANCH  55  79
ATOM     79  C   UNL A   1      39.442  33.403  36.702  1.00  0.00     0.023 A 
ATOM     80  C   UNL A   1      39.908  34.731  36.750  1.00  0.00     0.012 A 
ATOM     81  C   UNL A   1      38.736  32.884  37.803  1.00  0.00     0.148 A 
ATOM     82  C   UNL A   1      39.719  35.510  37.893  1.00  0.00     0.002 A 
ATOM     83  C   UNL A   1      38.498  33.683  38.913  1.00  0.00     0.091 A 
ATOM     84  F   UNL A   1      38.311  31.613  37.745  1.00  0.00    -0.205 F 
ATOM     85  C   UNL A   1      39.007  34.990  38.970  1.00  0.00     0.022 A 
BRANCH  83  86
ATOM     86  S   UNL A   1      37.480  33.137  40.288  1.00  0.00     0.127 S 
ATOM     87  O   UNL A   1      36.207  32.865  39.628  1.00  0.00    -0.237 OA
ATOM     88  O   UNL A   1      38.203  31.950  40.748  1.00  0.00    -0.237 OA
ATOM     89  O   UNL A   1      37.482  34.243  41.236  1.00  0.00    -0.744 OA
ENDBRANCH  83  86
ENDBRANCH  55  79
BRANCH  67  90
ATOM     90  C   UNL A   1      44.249  28.564  35.250  1.00  0.00     0.023 A 
ATOM     91  C   UNL A   1      45.528  29.141  35.114  1.00  0.00     0.012 A 
ATOM     92  C   UNL A   1      44.059  27.514  36.171  1.00  0.00     0.148 A 
ATOM     93  C   UNL A   1      46.606  28.657  35.852  1.00  0.00     0.002 A 
ATOM     94  C   UNL A   1      45.126  27.074  36.943  1.00  0.00     0.091 A 
ATOM     95  F   UNL A   1      42.838  26.969  36.275  1.00  0.00    -0.205 F 
ATOM     96  C   UNL A   1      46.404  27.632  36.774  1.00  0.00     0.022 A 
BRANCH  94  97
ATOM     97  S   UNL A   1      44.941  25.829  38.224  1.00  0.00     0.127 S 
ATOM     98  O   UNL A   1      43.963  26.456  39.111  1.00  0.00    -0.237 OA
ATOM     99  O   UNL A   1      44.433  24.683  37.468  1.00  0.00    -0.237 OA
ATOM    100  O   UNL A   1      46.267  25.637  38.795  1.00  0.00    -0.744 OA
ENDBRANCH  94  97
ENDBRANCH  67  90
ENDBRANCH  41  42
ENDBRANCH  33  36
ENDBRANCH  31  32
ENDBRANCH  30  31
ENDBRANCH  29  30
ENDBRANCH   1  29
TORSDOF 21
ENDMDL
MODEL 2
REMARK VINA RESULT:     -11.3      2.145      7.628
REMARK SMILES CC[C@H](C)[C@@H](Nc1nc(C(F)(F)F)nc2ccccc12)C(=O)NCCCCCCNC(=O)c1ccc(-c2c3nc(c(-c4cccc(S(=O)(=O)[O-])c4F)c4ccc([nH]4)c(-c4cccc(S(=O)(=O)[O-])c4F)c4nc(c(-c5cccc(S(=O)(=O)[O-])c5F)c5ccc2[nH]5)C=C4)C=C3)cc1
REMARK SMILES IDX 26 1 25 2 24 3 23 4 21 5 22 6 5 8 3 9 4 10 2 11 1 12 6 13
REMARK SMILES IDX 7 15 8 16 20 17 9 18 15 19 19 20 14 21 16 22 18 23 17 24
REMARK SMILES IDX 10 25 11 26 12 27 13 28 27 29 28 30 29 31 30 32 31 33 32 35
REMARK SMILES IDX 33 36 34 37 95 38 35 39 94 40 36 41 37 42 38 43 88 44 39 45
REMARK SMILES IDX 93 46 87 47 89 48 40 49 92 50 86 51 85 52 41 54 73 55 53 56
REMARK SMILES IDX 72 57 54 58 57 59 71 60 90 61 55 62 56 63 70 65 91 66 58 67
REMARK SMILES IDX 42 68 43 69 51 70 44 71 46 72 52 73 45 74 47 75 48 76 49 77
REMARK SMILES IDX 50 78 74 79 75 80 83 81 76 82 78 83 84 84 77 85 79 86 80 87
REMARK SMILES IDX 81 88 82 89 59 90 60 91 68 92 61 93 63 94 69 95 62 96 64 97
REMARK SMILES IDX 65 98 66 99 67 100
REMARK H PARENT 23 7 6 14 30 34 89 53 57 64
REMARK Flexibility Score: inf
ROOT
ATOM      1  C   UNL A   1      32.694  28.234  22.447  1.00  0.00     0.002 C 
ENDROOT
BRANCH   1   2
ATOM      2  C   UNL A   1      32.016  26.863  22.349  1.00  0.00     0.021 C 
BRANCH   2   3
ATOM      3  C   UNL A   1      33.008  25.712  22.431  1.00  0.00     0.116 C 
BRANCH   3   4
ATOM      4  N   UNL A   1      32.294  24.451  22.403  1.00  0.00    -0.354 N 
ATOM      5  C   UNL A   1      32.079  23.552  23.400  1.00  0.00     0.242 C 
ATOM      6  O   UNL A   1      31.578  22.464  23.097  1.00  0.00    -0.273 OA
ATOM      7  H   UNL A   1      31.908  24.208  21.530  1.00  0.00     0.163 HD
BRANCH   5   8
ATOM      8  C   UNL A   1      32.465  23.866  24.867  1.00  0.00     0.173 C 
BRANCH   8   9
ATOM      9  C   UNL A   1      31.442  24.875  25.492  1.00  0.00     0.018 C 
ATOM     10  C   UNL A   1      30.373  24.156  26.323  1.00  0.00     0.010 C 
BRANCH   9  11
ATOM     11  C   UNL A   1      32.197  25.957  26.310  1.00  0.00     0.002 C 
ATOM     12  C   UNL A   1      33.662  26.146  25.943  1.00  0.00     0.004 C 
ENDBRANCH   9  11
ENDBRANCH   8   9
BRANCH   8  13
ATOM     13  N   UNL A   1      32.673  22.662  25.708  1.00  0.00    -0.358 N 
ATOM     14  H   UNL A   1      32.008  22.487  26.411  1.00  0.00     0.162 HD
BRANCH  13  15
ATOM     15  C   UNL A   1      33.717  21.764  25.594  1.00  0.00     0.138 A 
ATOM     16  N   UNL A   1      33.276  20.537  25.267  1.00  0.00    -0.207 NA
ATOM     17  C   UNL A   1      35.087  22.064  25.663  1.00  0.00     0.043 A 
ATOM     18  C   UNL A   1      34.182  19.610  24.878  1.00  0.00     0.237 A 
ATOM     19  C   UNL A   1      35.937  21.066  25.172  1.00  0.00     0.076 A 
ATOM     20  C   UNL A   1      35.659  23.271  26.139  1.00  0.00     0.014 A 
ATOM     21  N   UNL A   1      35.504  19.867  24.781  1.00  0.00    -0.224 NA
ATOM     22  C   UNL A   1      37.294  21.337  25.047  1.00  0.00     0.029 A 
ATOM     23  C   UNL A   1      37.024  23.524  26.004  1.00  0.00     0.001 A 
ATOM     24  C   UNL A   1      37.841  22.561  25.435  1.00  0.00     0.002 A 
BRANCH  18  25
ATOM     25  C   UNL A   1      33.666  18.237  24.422  1.00  0.00     0.451 C 
ATOM     26  F   UNL A   1      32.626  18.323  23.545  1.00  0.00    -0.163 F 
ATOM     27  F   UNL A   1      34.636  17.504  23.797  1.00  0.00    -0.163 F 
ATOM     28  F   UNL A   1      33.222  17.452  25.450  1.00  0.00    -0.163 F 
ENDBRANCH  18  25
ENDBRANCH  13  15
ENDBRANCH   8  13
ENDBRANCH   5   8
ENDBRANCH   3   4
ENDBRANCH   2   3
ENDBRANCH   1   2
BRANCH   1  29
ATOM     29  C   UNL A   1      33.121  28.626  23.867  1.00  0.00     0.002 C 
BRANCH  29  30
ATOM     30  C   UNL A   1      32.101  29.481  24.623  1.00  0.00     0.021 C 
BRANCH  30  31
ATOM     31  C   UNL A   1      32.502  29.800  26.059  1.00  0.00     0.116 C 
BRANCH  31  32
ATOM     32  N   UNL A   1      32.331  31.213  26.364  1.00  0.00    -0.352 N 
ATOM     33  C   UNL A   1      33.057  32.006  27.211  1.00  0.00     0.251 C 
ATOM     34  H   UNL A   1      31.590  31.661  25.894  1.00  0.00     0.163 HD
ATOM     35  O   UNL A   1      32.644  33.123  27.520  1.00  0.00    -0.269 OA
BRANCH  33  36
ATOM     36  C   UNL A   1      34.330  31.503  27.764  1.00  0.00     0.039 A 
ATOM     37  C   UNL A   1      35.360  32.408  28.023  1.00  0.00     0.014 A 
ATOM     38  C   UNL A   1      34.495  30.142  28.042  1.00  0.00     0.014 A 
ATOM     39  C   UNL A   1      36.536  31.956  28.622  1.00  0.00     0.010 A 
ATOM     40  C   UNL A   1      35.639  29.708  28.705  1.00  0.00     0.010 A 
ATOM     41  C   UNL A   1      36.670  30.610  29.004  1.00  0.00    -0.014 A 
BRANCH  41  42
ATOM     42  C   UNL A   1      37.862  30.146  29.758  1.00  0.00     0.031 A 
ATOM     43  C   UNL A   1      38.120  30.631  31.159  1.00  0.00     0.074 A 
ATOM     44  C   UNL A   1      38.758  29.349  29.142  1.00  0.00     0.049 A 
ATOM     45  N   UNL A   1      39.127  30.361  31.948  1.00  0.00    -0.248 NA
ATOM     46  C   UNL A   1      37.132  31.553  31.744  1.00  0.00     0.031 C 
ATOM     47  C   UNL A   1      38.662  28.878  27.757  1.00  0.00     0.029 A 
ATOM     48  N   UNL A   1      39.941  28.814  29.589  1.00  0.00    -0.354 N 
ATOM     49  C   UNL A   1      38.917  31.103  33.104  1.00  0.00     0.074 A 
ATOM     50  C   UNL A   1      37.695  31.853  32.908  1.00  0.00     0.031 C 
ATOM     51  C   UNL A   1      39.736  28.127  27.471  1.00  0.00     0.029 A 
ATOM     52  C   UNL A   1      40.617  28.091  28.633  1.00  0.00     0.049 A 
ATOM     53  H   UNL A   1      40.273  28.935  30.508  1.00  0.00     0.167 HD
ATOM     54  C   UNL A   1      39.663  31.141  34.232  1.00  0.00     0.034 A 
ATOM     55  C   UNL A   1      41.819  27.484  28.679  1.00  0.00     0.034 A 
ATOM     56  C   UNL A   1      40.856  30.363  34.438  1.00  0.00     0.049 A 
ATOM     57  C   UNL A   1      42.608  27.523  29.960  1.00  0.00     0.074 A 
ATOM     58  C   UNL A   1      41.620  30.255  35.586  1.00  0.00     0.029 A 
ATOM     59  N   UNL A   1      41.469  29.580  33.474  1.00  0.00    -0.354 N 
ATOM     60  N   UNL A   1      42.297  28.083  31.104  1.00  0.00    -0.248 NA
ATOM     61  C   UNL A   1      43.897  26.816  29.968  1.00  0.00     0.031 C 
ATOM     62  C   UNL A   1      42.719  29.440  35.305  1.00  0.00     0.029 A 
ATOM     63  C   UNL A   1      42.617  29.006  33.993  1.00  0.00     0.049 A 
ATOM     64  H   UNL A   1      41.138  29.452  32.555  1.00  0.00     0.167 HD
ATOM     65  C   UNL A   1      43.335  27.768  31.975  1.00  0.00     0.074 A 
ATOM     66  C   UNL A   1      44.266  26.944  31.235  1.00  0.00     0.031 C 
ATOM     67  C   UNL A   1      43.511  28.145  33.265  1.00  0.00     0.034 A 
BRANCH  54  68
ATOM     68  C   UNL A   1      39.199  32.017  35.366  1.00  0.00     0.023 A 
ATOM     69  C   UNL A   1      38.341  31.491  36.352  1.00  0.00     0.012 A 
ATOM     70  C   UNL A   1      39.704  33.324  35.513  1.00  0.00     0.148 A 
ATOM     71  C   UNL A   1      37.979  32.256  37.459  1.00  0.00     0.002 A 
ATOM     72  C   UNL A   1      39.376  34.065  36.642  1.00  0.00     0.091 A 
ATOM     73  F   UNL A   1      40.505  33.811  34.554  1.00  0.00    -0.205 F 
ATOM     74  C   UNL A   1      38.508  33.536  37.611  1.00  0.00     0.022 A 
BRANCH  72  75
ATOM     75  S   UNL A   1      40.068  35.689  36.974  1.00  0.00     0.127 S 
ATOM     76  O   UNL A   1      39.653  36.434  35.787  1.00  0.00    -0.237 OA
ATOM     77  O   UNL A   1      39.374  36.069  38.205  1.00  0.00    -0.237 OA
ATOM     78  O   UNL A   1      41.504  35.497  37.114  1.00  0.00    -0.744 OA
ENDBRANCH  72  75
ENDBRANCH  54  68
BRANCH  55  79
ATOM     79  C   UNL A   1      42.348  26.764  27.485  1.00  0.00     0.023 A 
ATOM     80  C   UNL A   1      43.026  27.481  26.481  1.00  0.00     0.012 A 
ATOM     81  C   UNL A   1      42.167  25.376  27.334  1.00  0.00     0.148 A 
ATOM     82  C   UNL A   1      43.471  26.838  25.325  1.00  0.00     0.002 A 
ATOM     83  C   UNL A   1      42.666  24.731  26.209  1.00  0.00     0.091 A 
ATOM     84  F   UNL A   1      41.507  24.711  28.294  1.00  0.00    -0.205 F 
ATOM     85  C   UNL A   1      43.299  25.464  25.193  1.00  0.00     0.022 A 
BRANCH  83  86
ATOM     86  S   UNL A   1      42.602  22.946  26.020  1.00  0.00     0.127 S 
ATOM     87  O   UNL A   1      41.174  22.681  26.163  1.00  0.00    -0.237 OA
ATOM     88  O   UNL A   1      43.131  22.766  24.667  1.00  0.00    -0.237 OA
ATOM     89  O   UNL A   1      43.457  22.414  27.073  1.00  0.00    -0.744 OA
ENDBRANCH  83  86
ENDBRANCH  55  79
BRANCH  67  90
ATOM     90  C   UNL A   1      44.737  27.639  33.979  1.00  0.00     0.023 A 
ATOM     91  C   UNL A   1      45.916  28.412  33.987  1.00  0.00     0.012 A 
ATOM     92  C   UNL A   1      44.699  26.427  34.697  1.00  0.00     0.148 A 
ATOM     93  C   UNL A   1      47.049  27.968  34.665  1.00  0.00     0.002 A 
ATOM     94  C   UNL A   1      45.815  26.018  35.416  1.00  0.00     0.091 A 
ATOM     95  F   UNL A   1      43.573  25.700  34.664  1.00  0.00    -0.205 F 
ATOM     96  C   UNL A   1      46.996  26.778  35.389  1.00  0.00     0.022 A 
BRANCH  94  97
ATOM     97  S   UNL A   1      45.809  24.553  36.455  1.00  0.00     0.127 S 
ATOM     98  O   UNL A   1      47.171  24.560  36.988  1.00  0.00    -0.237 OA
ATOM     99  O   UNL A   1      44.769  24.874  37.434  1.00  0.00    -0.237 OA
ATOM    100  O   UNL A   1      45.490  23.437  35.577  1.00  0.00    -0.744 OA
ENDBRANCH  94  97
ENDBRANCH  67  90
ENDBRANCH  41  42
ENDBRANCH  33  36
ENDBRANCH  31  32
ENDBRANCH  30  31
ENDBRANCH  29  30
ENDBRANCH   1  29
TORSDOF 21
ENDMDL
MODEL 3
REMARK VINA RESULT:     -11.3      3.217      8.253
REMARK SMILES CC[C@H](C)[C@@H](Nc1nc(C(F)(F)F)nc2ccccc12)C(=O)NCCCCCCNC(=O)c1ccc(-c2c3nc(c(-c4cccc(S(=O)(=O)[O-])c4F)c4ccc([nH]4)c(-c4cccc(S(=O)(=O)[O-])c4F)c4nc(c(-c5cccc(S(=O)(=O)[O-])c5F)c5ccc2[nH]5)C=C4)C=C3)cc1
REMARK SMILES IDX 26 1 25 2 24 3 23 4 21 5 22 6 5 8 3 9 4 10 2 11 1 12 6 13
REMARK SMILES IDX 7 15 8 16 20 17 9 18 15 19 19 20 14 21 16 22 18 23 17 24
REMARK SMILES IDX 10 25 11 26 12 27 13 28 27 29 28 30 29 31 30 32 31 33 32 35
REMARK SMILES IDX 33 36 34 37 95 38 35 39 94 40 36 41 37 42 38 43 88 44 39 45
REMARK SMILES IDX 93 46 87 47 89 48 40 49 92 50 86 51 85 52 41 54 73 55 53 56
REMARK SMILES IDX 72 57 54 58 57 59 71 60 90 61 55 62 56 63 70 65 91 66 58 67
REMARK SMILES IDX 42 68 43 69 51 70 44 71 46 72 52 73 45 74 47 75 48 76 49 77
REMARK SMILES IDX 50 78 74 79 75 80 83 81 76 82 78 83 84 84 77 85 79 86 80 87
REMARK SMILES IDX 81 88 82 89 59 90 60 91 68 92 61 93 63 94 69 95 62 96 64 97
REMARK SMILES IDX 65 98 66 99 67 100
REMARK H PARENT 23 7 6 14 30 34 89 53 57 64
REMARK Flexibility Score: inf
ROOT
ATOM      1  C   UNL A   1      32.551  27.402  23.089  1.00  0.00     0.002 C 
ENDROOT
BRANCH   1   2
ATOM      2  C   UNL A   1      32.923  26.233  22.170  1.00  0.00     0.021 C 
BRANCH   2   3
ATOM      3  C   UNL A   1      33.704  25.145  22.893  1.00  0.00     0.116 C 
BRANCH   3   4
ATOM      4  N   UNL A   1      33.129  23.850  22.589  1.00  0.00    -0.354 N 
ATOM      5  C   UNL A   1      32.550  22.941  23.419  1.00  0.00     0.242 C 
ATOM      6  O   UNL A   1      32.277  21.829  22.955  1.00  0.00    -0.273 OA
ATOM      7  H   UNL A   1      33.164  23.588  21.641  1.00  0.00     0.163 HD
BRANCH   5   8
ATOM      8  C   UNL A   1      32.258  23.274  24.903  1.00  0.00     0.173 C 
BRANCH   8   9
ATOM      9  C   UNL A   1      30.736  23.592  25.097  1.00  0.00     0.018 C 
ATOM     10  C   UNL A   1      30.252  23.210  26.501  1.00  0.00     0.010 C 
BRANCH   9  11
ATOM     11  C   UNL A   1      30.460  25.083  24.763  1.00  0.00     0.002 C 
ATOM     12  C   UNL A   1      30.035  25.946  25.943  1.00  0.00     0.004 C 
ENDBRANCH   9  11
ENDBRANCH   8   9
BRANCH   8  13
ATOM     13  N   UNL A   1      32.761  22.258  25.860  1.00  0.00    -0.358 N 
ATOM     14  H   UNL A   1      32.266  22.155  26.704  1.00  0.00     0.162 HD
BRANCH  13  15
ATOM     15  C   UNL A   1      33.860  21.443  25.674  1.00  0.00     0.138 A 
ATOM     16  N   UNL A   1      33.496  20.190  25.352  1.00  0.00    -0.207 NA
ATOM     17  C   UNL A   1      35.206  21.845  25.673  1.00  0.00     0.043 A 
ATOM     18  C   UNL A   1      34.445  19.339  24.899  1.00  0.00     0.237 A 
ATOM     19  C   UNL A   1      36.100  20.920  25.120  1.00  0.00     0.076 A 
ATOM     20  C   UNL A   1      35.712  23.086  26.137  1.00  0.00     0.014 A 
ATOM     21  N   UNL A   1      35.736  19.697  24.734  1.00  0.00    -0.224 NA
ATOM     22  C   UNL A   1      37.423  21.295  24.925  1.00  0.00     0.029 A 
ATOM     23  C   UNL A   1      37.044  23.444  25.931  1.00  0.00     0.001 A 
ATOM     24  C   UNL A   1      37.898  22.552  25.302  1.00  0.00     0.002 A 
BRANCH  18  25
ATOM     25  C   UNL A   1      34.009  17.937  24.450  1.00  0.00     0.451 C 
ATOM     26  F   UNL A   1      34.077  17.012  25.448  1.00  0.00    -0.163 F 
ATOM     27  F   UNL A   1      32.719  17.919  23.996  1.00  0.00    -0.163 F 
ATOM     28  F   UNL A   1      34.762  17.434  23.424  1.00  0.00    -0.163 F 
ENDBRANCH  18  25
ENDBRANCH  13  15
ENDBRANCH   8  13
ENDBRANCH   5   8
ENDBRANCH   3   4
ENDBRANCH   2   3
ENDBRANCH   1   2
BRANCH   1  29
ATOM     29  C   UNL A   1      33.627  27.758  24.123  1.00  0.00     0.002 C 
BRANCH  29  30
ATOM     30  C   UNL A   1      33.277  27.372  25.562  1.00  0.00     0.021 C 
BRANCH  30  31
ATOM     31  C   UNL A   1      34.160  28.034  26.614  1.00  0.00     0.116 C 
BRANCH  31  32
ATOM     32  N   UNL A   1      33.855  29.450  26.757  1.00  0.00    -0.352 N 
ATOM     33  C   UNL A   1      34.502  30.399  27.502  1.00  0.00     0.251 C 
ATOM     34  H   UNL A   1      33.077  29.770  26.246  1.00  0.00     0.163 HD
ATOM     35  O   UNL A   1      33.985  31.500  27.685  1.00  0.00    -0.269 OA
BRANCH  33  36
ATOM     36  C   UNL A   1      35.815  30.084  28.097  1.00  0.00     0.039 A 
ATOM     37  C   UNL A   1      35.861  29.517  29.372  1.00  0.00     0.014 A 
ATOM     38  C   UNL A   1      36.995  30.330  27.388  1.00  0.00     0.014 A 
ATOM     39  C   UNL A   1      37.092  29.139  29.911  1.00  0.00     0.010 A 
ATOM     40  C   UNL A   1      38.211  29.886  27.897  1.00  0.00     0.010 A 
ATOM     41  C   UNL A   1      38.272  29.283  29.162  1.00  0.00    -0.014 A 
BRANCH  41  42
ATOM     42  C   UNL A   1      39.567  28.764  29.672  1.00  0.00     0.031 A 
ATOM     43  C   UNL A   1      40.296  29.477  30.778  1.00  0.00     0.074 A 
ATOM     44  C   UNL A   1      40.125  27.693  29.074  1.00  0.00     0.049 A 
ATOM     45  N   UNL A   1      41.452  29.188  31.318  1.00  0.00    -0.248 NA
ATOM     46  C   UNL A   1      39.658  30.680  31.339  1.00  0.00     0.031 C 
ATOM     47  C   UNL A   1      39.556  26.965  27.936  1.00  0.00     0.029 A 
ATOM     48  N   UNL A   1      41.310  27.043  29.319  1.00  0.00    -0.354 N 
ATOM     49  C   UNL A   1      41.698  30.187  32.252  1.00  0.00     0.074 A 
ATOM     50  C   UNL A   1      40.580  31.104  32.194  1.00  0.00     0.031 C 
ATOM     51  C   UNL A   1      40.388  25.973  27.585  1.00  0.00     0.029 A 
ATOM     52  C   UNL A   1      41.567  26.013  28.443  1.00  0.00     0.049 A 
ATOM     53  H   UNL A   1      41.917  27.290  30.054  1.00  0.00     0.167 HD
ATOM     54  C   UNL A   1      42.749  30.317  33.095  1.00  0.00     0.034 A 
ATOM     55  C   UNL A   1      42.639  25.205  28.329  1.00  0.00     0.034 A 
ATOM     56  C   UNL A   1      43.839  29.382  33.176  1.00  0.00     0.049 A 
ATOM     57  C   UNL A   1      43.776  25.360  29.302  1.00  0.00     0.074 A 
ATOM     58  C   UNL A   1      44.894  29.373  34.071  1.00  0.00     0.029 A 
ATOM     59  N   UNL A   1      44.026  28.305  32.326  1.00  0.00    -0.354 N 
ATOM     60  N   UNL A   1      43.901  26.201  30.299  1.00  0.00    -0.248 NA
ATOM     61  C   UNL A   1      44.906  24.431  29.157  1.00  0.00     0.031 C 
ATOM     62  C   UNL A   1      45.743  28.315  33.735  1.00  0.00     0.029 A 
ATOM     63  C   UNL A   1      45.194  27.640  32.657  1.00  0.00     0.049 A 
ATOM     64  H   UNL A   1      43.420  28.051  31.593  1.00  0.00     0.167 HD
ATOM     65  C   UNL A   1      45.104  25.882  30.918  1.00  0.00     0.074 A 
ATOM     66  C   UNL A   1      45.655  24.751  30.203  1.00  0.00     0.031 C 
ATOM     67  C   UNL A   1      45.708  26.483  31.972  1.00  0.00     0.034 A 
BRANCH  54  68
ATOM     68  C   UNL A   1      42.766  31.490  34.039  1.00  0.00     0.023 A 
ATOM     69  C   UNL A   1      43.287  32.727  33.609  1.00  0.00     0.012 A 
ATOM     70  C   UNL A   1      42.162  31.396  35.309  1.00  0.00     0.148 A 
ATOM     71  C   UNL A   1      43.223  33.848  34.435  1.00  0.00     0.002 A 
ATOM     72  C   UNL A   1      42.061  32.529  36.107  1.00  0.00     0.091 A 
ATOM     73  F   UNL A   1      41.688  30.206  35.704  1.00  0.00    -0.205 F 
ATOM     74  C   UNL A   1      42.598  33.753  35.676  1.00  0.00     0.022 A 
BRANCH  72  75
ATOM     75  S   UNL A   1      41.202  32.533  37.685  1.00  0.00     0.127 S 
ATOM     76  O   UNL A   1      39.901  31.982  37.313  1.00  0.00    -0.237 OA
ATOM     77  O   UNL A   1      42.036  31.638  38.488  1.00  0.00    -0.237 OA
ATOM     78  O   UNL A   1      41.183  33.918  38.132  1.00  0.00    -0.744 OA
ENDBRANCH  72  75
ENDBRANCH  54  68
BRANCH  55  79
ATOM     79  C   UNL A   1      42.685  24.156  27.271  1.00  0.00     0.023 A 
ATOM     80  C   UNL A   1      43.286  24.443  26.030  1.00  0.00     0.012 A 
ATOM     81  C   UNL A   1      42.123  22.882  27.483  1.00  0.00     0.148 A 
ATOM     82  C   UNL A   1      43.281  23.498  25.002  1.00  0.00     0.002 A 
ATOM     83  C   UNL A   1      42.176  21.925  26.477  1.00  0.00     0.091 A 
ATOM     84  F   UNL A   1      41.544  22.631  28.666  1.00  0.00    -0.205 F 
ATOM     85  C   UNL A   1      42.735  22.238  25.228  1.00  0.00     0.022 A 
BRANCH  83  86
ATOM     86  S   UNL A   1      41.613  20.239  26.728  1.00  0.00     0.127 S 
ATOM     87  O   UNL A   1      42.412  19.825  27.877  1.00  0.00    -0.237 OA
ATOM     88  O   UNL A   1      40.189  20.432  27.003  1.00  0.00    -0.237 OA
ATOM     89  O   UNL A   1      41.892  19.547  25.476  1.00  0.00    -0.744 OA
ENDBRANCH  83  86
ENDBRANCH  55  79
BRANCH  67  90
ATOM     90  C   UNL A   1      47.018  25.910  32.446  1.00  0.00     0.023 A 
ATOM     91  C   UNL A   1      48.232  26.408  31.931  1.00  0.00     0.012 A 
ATOM     92  C   UNL A   1      47.046  24.923  33.451  1.00  0.00     0.148 A 
ATOM     93  C   UNL A   1      49.451  25.904  32.380  1.00  0.00     0.002 A 
ATOM     94  C   UNL A   1      48.266  24.465  33.933  1.00  0.00     0.091 A 
ATOM     95  F   UNL A   1      45.880  24.452  33.917  1.00  0.00    -0.205 F 
ATOM     96  C   UNL A   1      49.469  24.942  33.388  1.00  0.00     0.022 A 
BRANCH  94  97
ATOM     97  S   UNL A   1      48.390  23.302  35.296  1.00  0.00     0.127 S 
ATOM     98  O   UNL A   1      49.827  23.033  35.329  1.00  0.00    -0.237 OA
ATOM     99  O   UNL A   1      47.890  24.091  36.421  1.00  0.00    -0.237 OA
ATOM    100  O   UNL A   1      47.553  22.166  34.934  1.00  0.00    -0.744 OA
ENDBRANCH  94  97
ENDBRANCH  67  90
ENDBRANCH  41  42
ENDBRANCH  33  36
ENDBRANCH  31  32
ENDBRANCH  30  31
ENDBRANCH  29  30
ENDBRANCH   1  29
TORSDOF 21
ENDMDL
