MODEL 1
REMARK VINA RESULT:     -11.9      0.000      0.000
REMARK SMILES C[C@H]1OCC[C@@H]1C(=O)Nc1sc2c(c1C(=O)NCCCCCCNC(=O)c1ccc(-c3c4nc(c(-c5cccc(S(=O)(=O)[O-])c5F)c5ccc([nH]5)c(-c5cccc(S(=O)(=O)[O-])c5F)c5nc(c(-c6cccc(S(=O)(=O)[O-])c6F)c6ccc3[nH]6)C=C5)C=C4)cc1)CCC2
REMARK SMILES IDX 21 1 20 2 19 3 18 4 17 5 15 6 16 7 14 9 10 10 11 11 12 12
REMARK SMILES IDX 13 13 92 14 90 15 91 16 9 17 7 18 8 19 6 21 1 22 2 23 3 24
REMARK SMILES IDX 4 25 5 26 22 27 23 28 24 29 25 30 26 32 27 33 28 34 89 35
REMARK SMILES IDX 29 36 88 37 30 38 31 39 32 40 82 41 33 42 87 43 81 44 83 45
REMARK SMILES IDX 34 46 86 47 80 48 79 49 35 51 67 52 47 53 66 54 48 55 51 56
REMARK SMILES IDX 65 57 84 58 49 59 50 60 64 62 85 63 52 64 36 65 37 66 45 67
REMARK SMILES IDX 38 68 40 69 46 70 39 71 41 72 42 73 43 74 44 75 68 76 69 77
REMARK SMILES IDX 77 78 70 79 72 80 78 81 71 82 73 83 74 84 75 85 76 86 53 87
REMARK SMILES IDX 54 88 62 89 55 90 57 91 63 92 56 93 58 94 59 95 60 96 61 97
REMARK H PARENT 17 8 9 20 24 31 83 50 51 61
REMARK Flexibility Score: inf
ROOT
ATOM      1  C   UNL A   1      32.588  30.191  27.274  1.00  0.00     0.002 C 
ENDROOT
BRANCH   1   2
ATOM      2  C   UNL A   1      33.662  29.199  26.794  1.00  0.00     0.002 C 
BRANCH   2   3
ATOM      3  C   UNL A   1      33.156  27.772  26.554  1.00  0.00     0.021 C 
BRANCH   3   4
ATOM      4  C   UNL A   1      31.650  27.618  26.744  1.00  0.00     0.116 C 
BRANCH   4   5
ATOM      5  N   UNL A   1      31.210  26.269  26.967  1.00  0.00    -0.352 N 
ATOM      6  C   UNL A   1      31.590  25.065  26.438  1.00  0.00     0.254 C 
ATOM      7  O   UNL A   1      31.322  24.103  27.170  1.00  0.00    -0.269 OA
ATOM      8  H   UNL A   1      30.490  26.196  27.635  1.00  0.00     0.163 HD
BRANCH   6   9
ATOM      9  C   UNL A   1      32.254  24.855  25.142  1.00  0.00     0.078 A 
ATOM     10  C   UNL A   1      33.408  24.057  25.083  1.00  0.00     0.108 A 
ATOM     11  S   UNL A   1      34.388  24.356  23.708  1.00  0.00    -0.122 S 
ATOM     12  C   UNL A   1      33.149  25.217  23.014  1.00  0.00     0.011 A 
ATOM     13  C   UNL A   1      32.049  25.395  23.819  1.00  0.00    -0.019 A 
ATOM     14  C   UNL A   1      33.079  25.872  21.686  1.00  0.00     0.047 C 
ATOM     15  C   UNL A   1      31.051  26.209  23.061  1.00  0.00     0.038 C 
ATOM     16  C   UNL A   1      31.571  26.187  21.596  1.00  0.00     0.010 C 
BRANCH  10  17
ATOM     17  N   UNL A   1      34.045  23.206  25.954  1.00  0.00    -0.317 N 
ATOM     18  C   UNL A   1      34.215  21.858  25.925  1.00  0.00     0.230 C 
ATOM     19  O   UNL A   1      34.785  21.362  26.913  1.00  0.00    -0.274 OA
ATOM     20  H   UNL A   1      34.449  23.650  26.734  1.00  0.00     0.170 HD
BRANCH  18  21
ATOM     21  C   UNL A   1      33.897  20.931  24.753  1.00  0.00     0.110 C 
ATOM     22  C   UNL A   1      32.103  20.986  22.969  1.00  0.00     0.039 C 
ATOM     23  C   UNL A   1      32.413  20.775  24.451  1.00  0.00     0.127 C 
ATOM     24  O   UNL A   1      32.092  19.425  24.809  1.00  0.00    -0.378 OA
ATOM     25  C   UNL A   1      33.257  18.631  24.601  1.00  0.00     0.161 C 
ATOM     26  C   UNL A   1      34.452  19.529  24.826  1.00  0.00     0.044 C 
ENDBRANCH  18  21
ENDBRANCH  10  17
ENDBRANCH   6   9
ENDBRANCH   4   5
ENDBRANCH   3   4
ENDBRANCH   2   3
ENDBRANCH   1   2
BRANCH   1  27
ATOM     27  C   UNL A   1      32.992  31.675  27.239  1.00  0.00     0.021 C 
BRANCH  27  28
ATOM     28  C   UNL A   1      34.389  31.927  27.785  1.00  0.00     0.116 C 
BRANCH  28  29
ATOM     29  N   UNL A   1      34.326  32.400  29.161  1.00  0.00    -0.352 N 
ATOM     30  C   UNL A   1      35.087  32.020  30.241  1.00  0.00     0.251 C 
ATOM     31  H   UNL A   1      33.644  33.085  29.342  1.00  0.00     0.163 HD
ATOM     32  O   UNL A   1      34.683  32.230  31.376  1.00  0.00    -0.269 OA
BRANCH  30  33
ATOM     33  C   UNL A   1      36.385  31.358  30.020  1.00  0.00     0.039 A 
ATOM     34  C   UNL A   1      37.541  32.137  29.907  1.00  0.00     0.014 A 
ATOM     35  C   UNL A   1      36.444  29.969  29.894  1.00  0.00     0.014 A 
ATOM     36  C   UNL A   1      38.767  31.506  29.732  1.00  0.00     0.010 A 
ATOM     37  C   UNL A   1      37.667  29.339  29.811  1.00  0.00     0.010 A 
ATOM     38  C   UNL A   1      38.825  30.106  29.705  1.00  0.00    -0.014 A 
BRANCH  38  39
ATOM     39  C   UNL A   1      40.119  29.434  29.748  1.00  0.00     0.031 A 
ATOM     40  C   UNL A   1      40.641  29.215  31.125  1.00  0.00     0.074 A 
ATOM     41  C   UNL A   1      40.692  28.866  28.665  1.00  0.00     0.049 A 
ATOM     42  N   UNL A   1      41.700  29.734  31.649  1.00  0.00    -0.248 NA
ATOM     43  C   UNL A   1      39.813  28.464  32.081  1.00  0.00     0.031 C 
ATOM     44  C   UNL A   1      40.137  28.780  27.311  1.00  0.00     0.029 A 
ATOM     45  N   UNL A   1      41.819  28.103  28.582  1.00  0.00    -0.354 N 
ATOM     46  C   UNL A   1      41.808  29.172  32.918  1.00  0.00     0.074 A 
ATOM     47  C   UNL A   1      40.524  28.592  33.204  1.00  0.00     0.031 C 
ATOM     48  C   UNL A   1      40.778  27.808  26.629  1.00  0.00     0.029 A 
ATOM     49  C   UNL A   1      41.870  27.303  27.441  1.00  0.00     0.049 A 
ATOM     50  H   UNL A   1      42.529  28.115  29.263  1.00  0.00     0.167 HD
ATOM     51  C   UNL A   1      43.027  28.998  33.503  1.00  0.00     0.034 A 
ATOM     52  C   UNL A   1      42.708  26.262  27.208  1.00  0.00     0.034 A 
ATOM     53  C   UNL A   1      44.041  29.757  32.810  1.00  0.00     0.049 A 
ATOM     54  C   UNL A   1      43.871  26.432  28.106  1.00  0.00     0.074 A 
ATOM     55  C   UNL A   1      44.219  31.087  32.484  1.00  0.00     0.029 A 
ATOM     56  N   UNL A   1      44.891  29.047  31.995  1.00  0.00    -0.354 N 
ATOM     57  N   UNL A   1      44.744  27.389  27.968  1.00  0.00    -0.248 NA
ATOM     58  C   UNL A   1      43.846  25.791  29.410  1.00  0.00     0.031 C 
ATOM     59  C   UNL A   1      44.806  31.070  31.185  1.00  0.00     0.029 A 
ATOM     60  C   UNL A   1      45.028  29.740  30.825  1.00  0.00     0.049 A 
ATOM     61  H   UNL A   1      45.324  28.191  32.215  1.00  0.00     0.167 HD
ATOM     62  C   UNL A   1      44.999  27.797  29.269  1.00  0.00     0.074 A 
ATOM     63  C   UNL A   1      44.539  26.694  30.110  1.00  0.00     0.031 C 
ATOM     64  C   UNL A   1      45.261  29.110  29.545  1.00  0.00     0.034 A 
BRANCH  51  65
ATOM     65  C   UNL A   1      43.414  27.853  34.421  1.00  0.00     0.023 A 
ATOM     66  C   UNL A   1      43.982  28.206  35.669  1.00  0.00     0.012 A 
ATOM     67  C   UNL A   1      43.537  26.500  34.030  1.00  0.00     0.148 A 
ATOM     68  C   UNL A   1      44.721  27.295  36.431  1.00  0.00     0.002 A 
ATOM     69  C   UNL A   1      44.210  25.578  34.827  1.00  0.00     0.091 A 
ATOM     70  F   UNL A   1      43.118  26.103  32.828  1.00  0.00    -0.205 F 
ATOM     71  C   UNL A   1      44.838  25.979  36.007  1.00  0.00     0.022 A 
BRANCH  69  72
ATOM     72  S   UNL A   1      44.351  23.849  34.353  1.00  0.00     0.127 S 
ATOM     73  O   UNL A   1      45.216  23.327  35.407  1.00  0.00    -0.237 OA
ATOM     74  O   UNL A   1      42.957  23.409  34.418  1.00  0.00    -0.237 OA
ATOM     75  O   UNL A   1      44.914  23.850  33.009  1.00  0.00    -0.744 OA
ENDBRANCH  69  72
ENDBRANCH  51  65
BRANCH  52  76
ATOM     76  C   UNL A   1      42.515  25.026  26.412  1.00  0.00     0.023 A 
ATOM     77  C   UNL A   1      43.456  24.687  25.417  1.00  0.00     0.012 A 
ATOM     78  C   UNL A   1      41.588  24.038  26.809  1.00  0.00     0.148 A 
ATOM     79  C   UNL A   1      43.507  23.396  24.877  1.00  0.00     0.002 A 
ATOM     80  C   UNL A   1      41.640  22.756  26.266  1.00  0.00     0.091 A 
ATOM     81  F   UNL A   1      40.721  24.316  27.791  1.00  0.00    -0.205 F 
ATOM     82  C   UNL A   1      42.608  22.427  25.310  1.00  0.00     0.022 A 
BRANCH  80  83
ATOM     83  S   UNL A   1      40.535  21.451  26.820  1.00  0.00     0.127 S 
ATOM     84  O   UNL A   1      40.787  21.425  28.261  1.00  0.00    -0.237 OA
ATOM     85  O   UNL A   1      39.230  21.980  26.433  1.00  0.00    -0.237 OA
ATOM     86  O   UNL A   1      40.965  20.247  26.118  1.00  0.00    -0.744 OA
ENDBRANCH  80  83
ENDBRANCH  52  76
BRANCH  64  87
ATOM     87  C   UNL A   1      45.553  30.038  28.393  1.00  0.00     0.023 A 
ATOM     88  C   UNL A   1      44.536  30.707  27.680  1.00  0.00     0.012 A 
ATOM     89  C   UNL A   1      46.892  30.386  28.151  1.00  0.00     0.148 A 
ATOM     90  C   UNL A   1      44.849  31.683  26.731  1.00  0.00     0.002 A 
ATOM     91  C   UNL A   1      47.196  31.396  27.249  1.00  0.00     0.091 A 
ATOM     92  F   UNL A   1      47.849  29.741  28.837  1.00  0.00    -0.205 F 
ATOM     93  C   UNL A   1      46.178  32.039  26.528  1.00  0.00     0.022 A 
BRANCH  91  94
ATOM     94  S   UNL A   1      48.876  31.994  27.056  1.00  0.00     0.127 S 
ATOM     95  O   UNL A   1      48.717  33.026  26.034  1.00  0.00    -0.237 OA
ATOM     96  O   UNL A   1      49.187  32.500  28.394  1.00  0.00    -0.237 OA
ATOM     97  O   UNL A   1      49.668  30.835  26.663  1.00  0.00    -0.744 OA
ENDBRANCH  91  94
ENDBRANCH  64  87
ENDBRANCH  38  39
ENDBRANCH  30  33
ENDBRANCH  28  29
ENDBRANCH  27  28
ENDBRANCH   1  27
TORSDOF 18
ENDMDL
MODEL 2
REMARK VINA RESULT:     -11.9      3.484      7.724
REMARK SMILES C[C@H]1OCC[C@@H]1C(=O)Nc1sc2c(c1C(=O)NCCCCCCNC(=O)c1ccc(-c3c4nc(c(-c5cccc(S(=O)(=O)[O-])c5F)c5ccc([nH]5)c(-c5cccc(S(=O)(=O)[O-])c5F)c5nc(c(-c6cccc(S(=O)(=O)[O-])c6F)c6ccc3[nH]6)C=C5)C=C4)cc1)CCC2
REMARK SMILES IDX 21 1 20 2 19 3 18 4 17 5 15 6 16 7 14 9 10 10 11 11 12 12
REMARK SMILES IDX 13 13 92 14 90 15 91 16 9 17 7 18 8 19 6 21 1 22 2 23 3 24
REMARK SMILES IDX 4 25 5 26 22 27 23 28 24 29 25 30 26 32 27 33 28 34 89 35
REMARK SMILES IDX 29 36 88 37 30 38 31 39 32 40 82 41 33 42 87 43 81 44 83 45
REMARK SMILES IDX 34 46 86 47 80 48 79 49 35 51 67 52 47 53 66 54 48 55 51 56
REMARK SMILES IDX 65 57 84 58 49 59 50 60 64 62 85 63 52 64 36 65 37 66 45 67
REMARK SMILES IDX 38 68 40 69 46 70 39 71 41 72 42 73 43 74 44 75 68 76 69 77
REMARK SMILES IDX 77 78 70 79 72 80 78 81 71 82 73 83 74 84 75 85 76 86 53 87
REMARK SMILES IDX 54 88 62 89 55 90 57 91 63 92 56 93 58 94 59 95 60 96 61 97
REMARK H PARENT 17 8 9 20 24 31 83 50 51 61
REMARK Flexibility Score: inf
ROOT
ATOM      1  C   UNL A   1      31.797  30.825  26.805  1.00  0.00     0.002 C 
ENDROOT
BRANCH   1   2
ATOM      2  C   UNL A   1      33.217  30.438  26.356  1.00  0.00     0.002 C 
BRANCH   2   3
ATOM      3  C   UNL A   1      33.947  29.471  27.296  1.00  0.00     0.021 C 
BRANCH   3   4
ATOM      4  C   UNL A   1      33.784  28.005  26.909  1.00  0.00     0.116 C 
BRANCH   4   5
ATOM      5  N   UNL A   1      32.423  27.562  26.801  1.00  0.00    -0.352 N 
ATOM      6  C   UNL A   1      31.853  26.404  26.343  1.00  0.00     0.254 C 
ATOM      7  O   UNL A   1      30.724  26.197  26.805  1.00  0.00    -0.269 OA
ATOM      8  H   UNL A   1      31.767  28.223  27.120  1.00  0.00     0.163 HD
BRANCH   6   9
ATOM      9  C   UNL A   1      32.459  25.452  25.398  1.00  0.00     0.078 A 
ATOM     10  C   UNL A   1      32.956  25.924  24.171  1.00  0.00     0.108 A 
ATOM     11  S   UNL A   1      33.083  24.713  22.964  1.00  0.00    -0.122 S 
ATOM     12  C   UNL A   1      32.871  23.540  24.120  1.00  0.00     0.011 A 
ATOM     13  C   UNL A   1      32.591  24.014  25.379  1.00  0.00    -0.019 A 
ATOM     14  C   UNL A   1      32.875  22.063  23.983  1.00  0.00     0.047 C 
ATOM     15  C   UNL A   1      32.398  22.839  26.282  1.00  0.00     0.038 C 
ATOM     16  C   UNL A   1      32.939  21.634  25.464  1.00  0.00     0.010 C 
BRANCH  10  17
ATOM     17  N   UNL A   1      33.205  27.165  23.638  1.00  0.00    -0.317 N 
ATOM     18  C   UNL A   1      32.371  28.201  23.354  1.00  0.00     0.230 C 
ATOM     19  O   UNL A   1      32.896  29.183  22.800  1.00  0.00    -0.274 OA
ATOM     20  H   UNL A   1      34.150  27.335  23.425  1.00  0.00     0.170 HD
BRANCH  18  21
ATOM     21  C   UNL A   1      30.905  28.321  23.766  1.00  0.00     0.110 C 
ATOM     22  C   UNL A   1      28.976  26.683  23.715  1.00  0.00     0.039 C 
ATOM     23  C   UNL A   1      29.933  27.544  22.889  1.00  0.00     0.127 C 
ATOM     24  O   UNL A   1      29.179  28.537  22.183  1.00  0.00    -0.378 OA
ATOM     25  C   UNL A   1      29.093  29.691  23.016  1.00  0.00     0.161 C 
ATOM     26  C   UNL A   1      30.340  29.718  23.868  1.00  0.00     0.044 C 
ENDBRANCH  18  21
ENDBRANCH  10  17
ENDBRANCH   6   9
ENDBRANCH   4   5
ENDBRANCH   3   4
ENDBRANCH   2   3
ENDBRANCH   1   2
BRANCH   1  27
ATOM     27  C   UNL A   1      31.504  32.334  26.856  1.00  0.00     0.021 C 
BRANCH  27  28
ATOM     28  C   UNL A   1      32.752  33.178  27.063  1.00  0.00     0.116 C 
BRANCH  28  29
ATOM     29  N   UNL A   1      32.480  34.282  27.973  1.00  0.00    -0.352 N 
ATOM     30  C   UNL A   1      33.097  34.595  29.161  1.00  0.00     0.251 C 
ATOM     31  H   UNL A   1      31.754  34.887  27.700  1.00  0.00     0.163 HD
ATOM     32  O   UNL A   1      32.532  35.316  29.971  1.00  0.00    -0.269 OA
BRANCH  30  33
ATOM     33  C   UNL A   1      34.437  34.054  29.449  1.00  0.00     0.039 A 
ATOM     34  C   UNL A   1      34.582  33.068  30.431  1.00  0.00     0.014 A 
ATOM     35  C   UNL A   1      35.549  34.550  28.767  1.00  0.00     0.014 A 
ATOM     36  C   UNL A   1      35.842  32.536  30.675  1.00  0.00     0.010 A 
ATOM     37  C   UNL A   1      36.783  33.962  28.945  1.00  0.00     0.010 A 
ATOM     38  C   UNL A   1      36.935  32.975  29.915  1.00  0.00    -0.014 A 
BRANCH  38  39
ATOM     39  C   UNL A   1      38.209  32.269  30.007  1.00  0.00     0.031 A 
ATOM     40  C   UNL A   1      38.185  30.899  29.426  1.00  0.00     0.074 A 
ATOM     41  C   UNL A   1      39.359  32.871  30.379  1.00  0.00     0.049 A 
ATOM     42  N   UNL A   1      38.342  29.783  30.056  1.00  0.00    -0.248 NA
ATOM     43  C   UNL A   1      37.783  30.736  28.021  1.00  0.00     0.031 C 
ATOM     44  C   UNL A   1      39.555  34.286  30.707  1.00  0.00     0.029 A 
ATOM     45  N   UNL A   1      40.631  32.377  30.385  1.00  0.00    -0.354 N 
ATOM     46  C   UNL A   1      38.312  28.791  29.078  1.00  0.00     0.074 A 
ATOM     47  C   UNL A   1      37.748  29.406  27.908  1.00  0.00     0.031 C 
ATOM     48  C   UNL A   1      40.868  34.585  30.620  1.00  0.00     0.029 A 
ATOM     49  C   UNL A   1      41.614  33.366  30.369  1.00  0.00     0.049 A 
ATOM     50  H   UNL A   1      40.836  31.415  30.399  1.00  0.00     0.167 HD
ATOM     51  C   UNL A   1      39.009  27.631  29.242  1.00  0.00     0.034 A 
ATOM     52  C   UNL A   1      42.935  33.203  30.105  1.00  0.00     0.034 A 
ATOM     53  C   UNL A   1      39.430  27.473  30.614  1.00  0.00     0.049 A 
ATOM     54  C   UNL A   1      43.252  31.778  30.345  1.00  0.00     0.074 A 
ATOM     55  C   UNL A   1      38.791  27.439  31.837  1.00  0.00     0.029 A 
ATOM     56  N   UNL A   1      40.756  27.718  30.882  1.00  0.00    -0.354 N 
ATOM     57  N   UNL A   1      43.244  31.236  31.530  1.00  0.00    -0.248 NA
ATOM     58  C   UNL A   1      43.175  30.848  29.231  1.00  0.00     0.031 C 
ATOM     59  C   UNL A   1      39.668  28.125  32.728  1.00  0.00     0.029 A 
ATOM     60  C   UNL A   1      40.823  28.467  32.022  1.00  0.00     0.049 A 
ATOM     61  H   UNL A   1      41.522  27.408  30.347  1.00  0.00     0.167 HD
ATOM     62  C   UNL A   1      42.660  29.995  31.324  1.00  0.00     0.074 A 
ATOM     63  C   UNL A   1      42.774  29.755  29.887  1.00  0.00     0.031 C 
ATOM     64  C   UNL A   1      41.865  29.435  32.283  1.00  0.00     0.034 A 
BRANCH  51  65
ATOM     65  C   UNL A   1      39.676  26.835  28.135  1.00  0.00     0.023 A 
ATOM     66  C   UNL A   1      39.419  25.442  28.112  1.00  0.00     0.012 A 
ATOM     67  C   UNL A   1      40.743  27.294  27.330  1.00  0.00     0.148 A 
ATOM     68  C   UNL A   1      40.241  24.549  27.417  1.00  0.00     0.002 A 
ATOM     69  C   UNL A   1      41.513  26.410  26.580  1.00  0.00     0.091 A 
ATOM     70  F   UNL A   1      41.116  28.574  27.366  1.00  0.00    -0.205 F 
ATOM     71  C   UNL A   1      41.292  25.034  26.652  1.00  0.00     0.022 A 
BRANCH  69  72
ATOM     72  S   UNL A   1      42.857  26.985  25.531  1.00  0.00     0.127 S 
ATOM     73  O   UNL A   1      43.796  27.507  26.521  1.00  0.00    -0.237 OA
ATOM     74  O   UNL A   1      43.271  25.746  24.874  1.00  0.00    -0.237 OA
ATOM     75  O   UNL A   1      42.266  27.969  24.633  1.00  0.00    -0.744 OA
ENDBRANCH  69  72
ENDBRANCH  51  65
BRANCH  52  76
ATOM     76  C   UNL A   1      43.918  34.124  29.485  1.00  0.00     0.023 A 
ATOM     77  C   UNL A   1      44.668  34.993  30.306  1.00  0.00     0.012 A 
ATOM     78  C   UNL A   1      44.332  33.958  28.147  1.00  0.00     0.148 A 
ATOM     79  C   UNL A   1      45.819  35.631  29.825  1.00  0.00     0.002 A 
ATOM     80  C   UNL A   1      45.475  34.597  27.672  1.00  0.00     0.091 A 
ATOM     81  F   UNL A   1      43.671  33.095  27.363  1.00  0.00    -0.205 F 
ATOM     82  C   UNL A   1      46.230  35.423  28.512  1.00  0.00     0.022 A 
BRANCH  80  83
ATOM     83  S   UNL A   1      46.080  34.330  26.000  1.00  0.00     0.127 S 
ATOM     84  O   UNL A   1      47.208  35.260  25.930  1.00  0.00    -0.237 OA
ATOM     85  O   UNL A   1      46.450  32.918  26.037  1.00  0.00    -0.237 OA
ATOM     86  O   UNL A   1      44.970  34.673  25.120  1.00  0.00    -0.744 OA
ENDBRANCH  80  83
ENDBRANCH  52  76
BRANCH  64  87
ATOM     87  C   UNL A   1      41.871  30.045  33.662  1.00  0.00     0.023 A 
ATOM     88  C   UNL A   1      42.864  29.748  34.620  1.00  0.00     0.012 A 
ATOM     89  C   UNL A   1      40.963  31.082  33.928  1.00  0.00     0.148 A 
ATOM     90  C   UNL A   1      42.933  30.453  35.823  1.00  0.00     0.002 A 
ATOM     91  C   UNL A   1      41.070  31.818  35.099  1.00  0.00     0.091 A 
ATOM     92  F   UNL A   1      40.023  31.354  33.008  1.00  0.00    -0.205 F 
ATOM     93  C   UNL A   1      42.047  31.500  36.056  1.00  0.00     0.022 A 
BRANCH  91  94
ATOM     94  S   UNL A   1      40.051  33.267  35.384  1.00  0.00     0.127 S 
ATOM     95  O   UNL A   1      40.350  34.086  34.211  1.00  0.00    -0.237 OA
ATOM     96  O   UNL A   1      38.700  32.703  35.410  1.00  0.00    -0.237 OA
ATOM     97  O   UNL A   1      40.487  33.815  36.662  1.00  0.00    -0.744 OA
ENDBRANCH  91  94
ENDBRANCH  64  87
ENDBRANCH  38  39
ENDBRANCH  30  33
ENDBRANCH  28  29
ENDBRANCH  27  28
ENDBRANCH   1  27
TORSDOF 18
ENDMDL
MODEL 3
REMARK VINA RESULT:     -11.9      3.189      7.120
REMARK SMILES C[C@H]1OCC[C@@H]1C(=O)Nc1sc2c(c1C(=O)NCCCCCCNC(=O)c1ccc(-c3c4nc(c(-c5cccc(S(=O)(=O)[O-])c5F)c5ccc([nH]5)c(-c5cccc(S(=O)(=O)[O-])c5F)c5nc(c(-c6cccc(S(=O)(=O)[O-])c6F)c6ccc3[nH]6)C=C5)C=C4)cc1)CCC2
REMARK SMILES IDX 21 1 20 2 19 3 18 4 17 5 15 6 16 7 14 9 10 10 11 11 12 12
REMARK SMILES IDX 13 13 92 14 90 15 91 16 9 17 7 18 8 19 6 21 1 22 2 23 3 24
REMARK SMILES IDX 4 25 5 26 22 27 23 28 24 29 25 30 26 32 27 33 28 34 89 35
REMARK SMILES IDX 29 36 88 37 30 38 31 39 32 40 82 41 33 42 87 43 81 44 83 45
REMARK SMILES IDX 34 46 86 47 80 48 79 49 35 51 67 52 47 53 66 54 48 55 51 56
REMARK SMILES IDX 65 57 84 58 49 59 50 60 64 62 85 63 52 64 36 65 37 66 45 67
REMARK SMILES IDX 38 68 40 69 46 70 39 71 41 72 42 73 43 74 44 75 68 76 69 77
REMARK SMILES IDX 77 78 70 79 72 80 78 81 71 82 73 83 74 84 75 85 76 86 53 87
REMARK SMILES IDX 54 88 62 89 55 90 57 91 63 92 56 93 58 94 59 95 60 96 61 97
REMARK H PARENT 17 8 9 20 24 31 83 50 51 61
REMARK Flexibility Score: inf
ROOT
ATOM      1  C   UNL A   1      33.459  31.209  27.734  1.00  0.00     0.002 C 
ENDROOT
BRANCH   1   2
ATOM      2  C   UNL A   1      33.328  29.922  26.902  1.00  0.00     0.002 C 
BRANCH   2   3
ATOM      3  C   UNL A   1      32.301  28.915  27.434  1.00  0.00     0.021 C 
BRANCH   3   4
ATOM      4  C   UNL A   1      31.662  28.061  26.344  1.00  0.00     0.116 C 
BRANCH   4   5
ATOM      5  N   UNL A   1      31.274  26.744  26.765  1.00  0.00    -0.352 N 
ATOM      6  C   UNL A   1      31.665  25.489  26.381  1.00  0.00     0.254 C 
ATOM      7  O   UNL A   1      31.461  24.627  27.245  1.00  0.00    -0.269 OA
ATOM      8  H   UNL A   1      30.589  26.743  27.472  1.00  0.00     0.163 HD
BRANCH   6   9
ATOM      9  C   UNL A   1      32.274  25.125  25.092  1.00  0.00     0.078 A 
ATOM     10  C   UNL A   1      33.358  24.232  25.072  1.00  0.00     0.108 A 
ATOM     11  S   UNL A   1      34.321  24.341  23.657  1.00  0.00    -0.122 S 
ATOM     12  C   UNL A   1      33.136  25.244  22.923  1.00  0.00     0.011 A 
ATOM     13  C   UNL A   1      32.076  25.574  23.734  1.00  0.00    -0.019 A 
ATOM     14  C   UNL A   1      33.082  25.798  21.548  1.00  0.00     0.047 C 
ATOM     15  C   UNL A   1      31.127  26.407  22.935  1.00  0.00     0.038 C 
ATOM     16  C   UNL A   1      31.602  26.227  21.466  1.00  0.00     0.010 C 
BRANCH  10  17
ATOM     17  N   UNL A   1      33.949  23.402  25.995  1.00  0.00    -0.317 N 
ATOM     18  C   UNL A   1      34.124  22.054  26.004  1.00  0.00     0.230 C 
ATOM     19  O   UNL A   1      34.640  21.582  27.032  1.00  0.00    -0.274 OA
ATOM     20  H   UNL A   1      34.307  23.864  26.786  1.00  0.00     0.170 HD
BRANCH  18  21
ATOM     21  C   UNL A   1      33.875  21.103  24.835  1.00  0.00     0.110 C 
ATOM     22  C   UNL A   1      32.081  21.019  23.052  1.00  0.00     0.039 C 
ATOM     23  C   UNL A   1      32.406  20.837  24.535  1.00  0.00     0.127 C 
ATOM     24  O   UNL A   1      32.184  19.469  24.898  1.00  0.00    -0.378 OA
ATOM     25  C   UNL A   1      33.404  18.761  24.694  1.00  0.00     0.161 C 
ATOM     26  C   UNL A   1      34.530  19.744  24.915  1.00  0.00     0.044 C 
ENDBRANCH  18  21
ENDBRANCH  10  17
ENDBRANCH   6   9
ENDBRANCH   4   5
ENDBRANCH   3   4
ENDBRANCH   2   3
ENDBRANCH   1   2
BRANCH   1  27
ATOM     27  C   UNL A   1      32.331  32.239  27.546  1.00  0.00     0.021 C 
BRANCH  27  28
ATOM     28  C   UNL A   1      32.844  33.629  27.202  1.00  0.00     0.116 C 
BRANCH  28  29
ATOM     29  N   UNL A   1      32.528  34.572  28.266  1.00  0.00    -0.352 N 
ATOM     30  C   UNL A   1      33.118  34.714  29.499  1.00  0.00     0.251 C 
ATOM     31  H   UNL A   1      31.788  35.192  28.076  1.00  0.00     0.163 HD
ATOM     32  O   UNL A   1      32.521  35.285  30.400  1.00  0.00    -0.269 OA
BRANCH  30  33
ATOM     33  C   UNL A   1      34.469  34.170  29.725  1.00  0.00     0.039 A 
ATOM     34  C   UNL A   1      34.691  33.314  30.809  1.00  0.00     0.014 A 
ATOM     35  C   UNL A   1      35.517  34.537  28.879  1.00  0.00     0.014 A 
ATOM     36  C   UNL A   1      35.958  32.777  30.999  1.00  0.00     0.010 A 
ATOM     37  C   UNL A   1      36.750  33.936  29.013  1.00  0.00     0.010 A 
ATOM     38  C   UNL A   1      36.979  33.077  30.085  1.00  0.00    -0.014 A 
BRANCH  38  39
ATOM     39  C   UNL A   1      38.241  32.347  30.146  1.00  0.00     0.031 A 
ATOM     40  C   UNL A   1      38.176  30.979  29.564  1.00  0.00     0.074 A 
ATOM     41  C   UNL A   1      39.411  32.926  30.490  1.00  0.00     0.049 A 
ATOM     42  N   UNL A   1      38.327  29.859  30.188  1.00  0.00    -0.248 NA
ATOM     43  C   UNL A   1      37.738  30.825  28.168  1.00  0.00     0.031 C 
ATOM     44  C   UNL A   1      39.641  34.337  30.816  1.00  0.00     0.029 A 
ATOM     45  N   UNL A   1      40.673  32.408  30.465  1.00  0.00    -0.354 N 
ATOM     46  C   UNL A   1      38.255  28.869  29.210  1.00  0.00     0.074 A 
ATOM     47  C   UNL A   1      37.675  29.497  28.055  1.00  0.00     0.031 C 
ATOM     48  C   UNL A   1      40.957  34.611  30.697  1.00  0.00     0.029 A 
ATOM     49  C   UNL A   1      41.674  33.379  30.427  1.00  0.00     0.049 A 
ATOM     50  H   UNL A   1      40.859  31.443  30.473  1.00  0.00     0.167 HD
ATOM     51  C   UNL A   1      38.933  27.695  29.355  1.00  0.00     0.034 A 
ATOM     52  C   UNL A   1      42.985  33.190  30.131  1.00  0.00     0.034 A 
ATOM     53  C   UNL A   1      39.384  27.528  30.717  1.00  0.00     0.049 A 
ATOM     54  C   UNL A   1      43.281  31.759  30.362  1.00  0.00     0.074 A 
ATOM     55  C   UNL A   1      38.774  27.503  31.955  1.00  0.00     0.029 A 
ATOM     56  N   UNL A   1      40.721  27.747  30.953  1.00  0.00    -0.354 N 
ATOM     57  N   UNL A   1      43.291  31.215  31.545  1.00  0.00    -0.248 NA
ATOM     58  C   UNL A   1      43.158  30.833  29.248  1.00  0.00     0.031 C 
ATOM     59  C   UNL A   1      39.685  28.171  32.825  1.00  0.00     0.029 A 
ATOM     60  C   UNL A   1      40.829  28.492  32.092  1.00  0.00     0.049 A 
ATOM     61  H   UNL A   1      41.468  27.423  30.399  1.00  0.00     0.167 HD
ATOM     62  C   UNL A   1      42.678  29.986  31.352  1.00  0.00     0.074 A 
ATOM     63  C   UNL A   1      42.753  29.747  29.912  1.00  0.00     0.031 C 
ATOM     64  C   UNL A   1      41.895  29.439  32.330  1.00  0.00     0.034 A 
BRANCH  51  65
ATOM     65  C   UNL A   1      39.558  26.889  28.232  1.00  0.00     0.023 A 
ATOM     66  C   UNL A   1      39.297  25.497  28.229  1.00  0.00     0.012 A 
ATOM     67  C   UNL A   1      40.597  27.339  27.385  1.00  0.00     0.148 A 
ATOM     68  C   UNL A   1      40.091  24.596  27.512  1.00  0.00     0.002 A 
ATOM     69  C   UNL A   1      41.337  26.446  26.616  1.00  0.00     0.091 A 
ATOM     70  F   UNL A   1      40.974  28.618  27.398  1.00  0.00    -0.205 F 
ATOM     71  C   UNL A   1      41.116  25.071  26.706  1.00  0.00     0.022 A 
BRANCH  69  72
ATOM     72  S   UNL A   1      42.644  27.009  25.515  1.00  0.00     0.127 S 
ATOM     73  O   UNL A   1      43.718  27.299  26.462  1.00  0.00    -0.237 OA
ATOM     74  O   UNL A   1      42.856  25.828  24.678  1.00  0.00    -0.237 OA
ATOM     75  O   UNL A   1      42.097  28.156  24.802  1.00  0.00    -0.744 OA
ENDBRANCH  69  72
ENDBRANCH  51  65
BRANCH  52  76
ATOM     76  C   UNL A   1      43.970  34.094  29.489  1.00  0.00     0.023 A 
ATOM     77  C   UNL A   1      44.774  34.928  30.293  1.00  0.00     0.012 A 
ATOM     78  C   UNL A   1      44.330  33.937  28.134  1.00  0.00     0.148 A 
ATOM     79  C   UNL A   1      45.924  35.542  29.780  1.00  0.00     0.002 A 
ATOM     80  C   UNL A   1      45.472  34.552  27.626  1.00  0.00     0.091 A 
ATOM     81  F   UNL A   1      43.617  33.105  27.362  1.00  0.00    -0.205 F 
ATOM     82  C   UNL A   1      46.280  35.343  28.450  1.00  0.00     0.022 A 
BRANCH  80  83
ATOM     83  S   UNL A   1      46.008  34.295  25.929  1.00  0.00     0.127 S 
ATOM     84  O   UNL A   1      46.437  32.895  25.951  1.00  0.00    -0.237 OA
ATOM     85  O   UNL A   1      44.778  34.548  25.185  1.00  0.00    -0.237 OA
ATOM     86  O   UNL A   1      47.090  35.247  25.710  1.00  0.00    -0.744 OA
ENDBRANCH  80  83
ENDBRANCH  52  76
BRANCH  64  87
ATOM     87  C   UNL A   1      41.947  30.047  33.709  1.00  0.00     0.023 A 
ATOM     88  C   UNL A   1      42.940  29.707  34.651  1.00  0.00     0.012 A 
ATOM     89  C   UNL A   1      41.086  31.121  33.988  1.00  0.00     0.148 A 
ATOM     90  C   UNL A   1      43.055  30.408  35.855  1.00  0.00     0.002 A 
ATOM     91  C   UNL A   1      41.240  31.850  35.158  1.00  0.00     0.091 A 
ATOM     92  F   UNL A   1      40.145  31.432  33.082  1.00  0.00    -0.205 F 
ATOM     93  C   UNL A   1      42.216  31.490  36.101  1.00  0.00     0.022 A 
BRANCH  91  94
ATOM     94  S   UNL A   1      40.286  33.339  35.458  1.00  0.00     0.127 S 
ATOM     95  O   UNL A   1      38.951  32.802  35.708  1.00  0.00    -0.237 OA
ATOM     96  O   UNL A   1      40.948  33.908  36.633  1.00  0.00    -0.237 OA
ATOM     97  O   UNL A   1      40.424  34.149  34.253  1.00  0.00    -0.744 OA
ENDBRANCH  91  94
ENDBRANCH  64  87
ENDBRANCH  38  39
ENDBRANCH  30  33
ENDBRANCH  28  29
ENDBRANCH  27  28
ENDBRANCH   1  27
TORSDOF 18
ENDMDL
