MODEL 1
REMARK VINA RESULT:     -11.3      0.000      0.000
REMARK SMILES CCC[NH2+]CC(=O)N1[C@@H](C(=O)NCCCCCCNC(=O)c2ccc(-c3c4nc(c(-c5cccc(S(=O)(=O)[O-])c5F)c5ccc([nH]5)c(-c5cccc(S(=O)(=O)[O-])c5F)c5nc(c(-c6cccc(S(=O)(=O)[O-])c6F)c6ccc3[nH]6)C=C5)C=C4)cc2)CC[C@@H]2CCCC[C@@H]21
REMARK SMILES IDX 14 1 13 2 12 3 10 4 11 5 9 7 8 8 92 9 85 10 87 11 91 12
REMARK SMILES IDX 86 13 88 14 90 15 89 16 6 17 7 18 5 19 4 20 3 23 2 24 1 25
REMARK SMILES IDX 15 26 16 27 17 28 18 29 19 30 20 31 21 33 22 34 23 35 84 36
REMARK SMILES IDX 24 37 83 38 25 39 26 40 27 41 77 42 28 43 82 44 76 45 78 46
REMARK SMILES IDX 29 47 81 48 75 49 74 50 30 52 62 53 42 54 61 55 43 56 46 57
REMARK SMILES IDX 60 58 79 59 44 60 45 61 59 63 80 64 47 65 31 66 32 67 40 68
REMARK SMILES IDX 33 69 35 70 41 71 34 72 36 73 37 74 38 75 39 76 63 77 64 78
REMARK SMILES IDX 72 79 65 80 67 81 73 82 66 83 68 84 69 85 70 86 71 87 48 88
REMARK SMILES IDX 49 89 57 90 50 91 52 92 58 93 51 94 53 95 54 96 55 97 56 98
REMARK H PARENT 12 6 4 21 4 22 19 32 78 51 46 62
REMARK Flexibility Score: inf
ROOT
ATOM      1  C   UNL A   1      30.502  26.370  25.376  1.00  0.00     0.021 C 
ENDROOT
BRANCH   1   2
ATOM      2  C   UNL A   1      30.608  25.131  24.488  1.00  0.00     0.116 C 
BRANCH   2   3
ATOM      3  N   UNL A   1      30.386  23.965  25.325  1.00  0.00    -0.354 N 
ATOM      4  C   UNL A   1      31.165  22.873  25.526  1.00  0.00     0.242 C 
ATOM      5  O   UNL A   1      30.601  21.808  25.797  1.00  0.00    -0.273 OA
ATOM      6  H   UNL A   1      29.538  23.967  25.824  1.00  0.00     0.163 HD
BRANCH   4   7
ATOM      7  C   UNL A   1      32.673  22.901  25.299  1.00  0.00     0.175 C 
ATOM      8  N   UNL A   1      33.253  21.989  24.295  1.00  0.00    -0.323 N 
ATOM      9  C   UNL A   1      34.724  21.813  24.351  1.00  0.00     0.089 C 
ATOM     10  C   UNL A   1      33.204  22.604  26.721  1.00  0.00     0.036 C 
ATOM     11  C   UNL A   1      35.240  21.525  25.765  1.00  0.00     0.012 C 
ATOM     12  C   UNL A   1      35.460  22.990  23.652  1.00  0.00     0.025 C 
ATOM     13  C   UNL A   1      34.708  22.522  26.795  1.00  0.00     0.008 C 
ATOM     14  C   UNL A   1      36.768  21.496  25.752  1.00  0.00     0.006 C 
ATOM     15  C   UNL A   1      36.595  23.684  24.415  1.00  0.00     0.002 C 
ATOM     16  C   UNL A   1      37.369  22.861  25.444  1.00  0.00     0.000 C 
BRANCH   8  17
ATOM     17  C   UNL A   1      32.659  21.607  23.086  1.00  0.00     0.278 C 
ATOM     18  O   UNL A   1      32.451  22.461  22.215  1.00  0.00    -0.268 OA
BRANCH  17  19
ATOM     19  C   UNL A   1      32.065  20.196  22.899  1.00  0.00     0.362 C 
BRANCH  19  20
ATOM     20  N   UNL A   1      32.692  19.104  23.668  1.00  0.00    -0.338 N 
ATOM     21  H   UNL A   1      33.625  19.395  23.962  1.00  0.00     0.346 HD
ATOM     22  H   UNL A   1      32.112  18.901  24.483  1.00  0.00     0.346 HD
BRANCH  20  23
ATOM     23  C   UNL A   1      32.801  17.893  22.854  1.00  0.00     0.260 C 
BRANCH  23  24
ATOM     24  C   UNL A   1      34.000  16.970  23.124  1.00  0.00     0.058 C 
ATOM     25  C   UNL A   1      34.849  17.222  24.360  1.00  0.00     0.010 C 
ENDBRANCH  23  24
ENDBRANCH  20  23
ENDBRANCH  19  20
ENDBRANCH  17  19
ENDBRANCH   8  17
ENDBRANCH   4   7
ENDBRANCH   2   3
ENDBRANCH   1   2
BRANCH   1  26
ATOM     26  C   UNL A   1      31.588  26.437  26.464  1.00  0.00     0.002 C 
BRANCH  26  27
ATOM     27  C   UNL A   1      31.838  27.840  27.023  1.00  0.00     0.002 C 
BRANCH  27  28
ATOM     28  C   UNL A   1      31.691  28.959  25.992  1.00  0.00     0.021 C 
BRANCH  28  29
ATOM     29  C   UNL A   1      32.903  29.876  25.896  1.00  0.00     0.116 C 
BRANCH  29  30
ATOM     30  N   UNL A   1      32.597  31.237  26.301  1.00  0.00    -0.352 N 
ATOM     31  C   UNL A   1      33.244  32.006  27.244  1.00  0.00     0.251 C 
ATOM     32  H   UNL A   1      31.835  31.662  25.847  1.00  0.00     0.163 HD
ATOM     33  O   UNL A   1      32.791  33.075  27.598  1.00  0.00    -0.269 OA
BRANCH  31  34
ATOM     34  C   UNL A   1      34.493  31.475  27.832  1.00  0.00     0.039 A 
ATOM     35  C   UNL A   1      35.584  32.333  27.983  1.00  0.00     0.014 A 
ATOM     36  C   UNL A   1      34.557  30.152  28.278  1.00  0.00     0.014 A 
ATOM     37  C   UNL A   1      36.731  31.872  28.629  1.00  0.00     0.010 A 
ATOM     38  C   UNL A   1      35.671  29.719  28.986  1.00  0.00     0.010 A 
ATOM     39  C   UNL A   1      36.774  30.571  29.159  1.00  0.00    -0.014 A 
BRANCH  39  40
ATOM     40  C   UNL A   1      37.968  30.077  29.889  1.00  0.00     0.031 A 
ATOM     41  C   UNL A   1      38.260  30.582  31.276  1.00  0.00     0.074 A 
ATOM     42  C   UNL A   1      38.824  29.235  29.278  1.00  0.00     0.049 A 
ATOM     43  N   UNL A   1      39.279  30.318  32.052  1.00  0.00    -0.248 NA
ATOM     44  C   UNL A   1      37.294  31.531  31.858  1.00  0.00     0.031 C 
ATOM     45  C   UNL A   1      38.687  28.732  27.909  1.00  0.00     0.029 A 
ATOM     46  N   UNL A   1      39.994  28.672  29.721  1.00  0.00    -0.354 N 
ATOM     47  C   UNL A   1      39.091  31.083  33.197  1.00  0.00     0.074 A 
ATOM     48  C   UNL A   1      37.886  31.857  32.997  1.00  0.00     0.031 C 
ATOM     49  C   UNL A   1      39.727  27.932  27.627  1.00  0.00     0.029 A 
ATOM     50  C   UNL A   1      40.620  27.887  28.781  1.00  0.00     0.049 A 
ATOM     51  H   UNL A   1      40.352  28.817  30.627  1.00  0.00     0.167 HD
ATOM     52  C   UNL A   1      39.834  31.112  34.328  1.00  0.00     0.034 A 
ATOM     53  C   UNL A   1      41.784  27.211  28.844  1.00  0.00     0.034 A 
ATOM     54  C   UNL A   1      41.008  30.311  34.539  1.00  0.00     0.049 A 
ATOM     55  C   UNL A   1      42.578  27.242  30.123  1.00  0.00     0.074 A 
ATOM     56  C   UNL A   1      41.796  30.220  35.673  1.00  0.00     0.029 A 
ATOM     57  N   UNL A   1      41.565  29.462  33.595  1.00  0.00    -0.354 N 
ATOM     58  N   UNL A   1      42.306  27.859  31.248  1.00  0.00    -0.248 NA
ATOM     59  C   UNL A   1      43.818  26.454  30.156  1.00  0.00     0.031 C 
ATOM     60  C   UNL A   1      42.839  29.326  35.408  1.00  0.00     0.029 A 
ATOM     61  C   UNL A   1      42.686  28.843  34.118  1.00  0.00     0.049 A 
ATOM     62  H   UNL A   1      41.214  29.321  32.686  1.00  0.00     0.167 HD
ATOM     63  C   UNL A   1      43.317  27.500  32.132  1.00  0.00     0.074 A 
ATOM     64  C   UNL A   1      44.195  26.597  31.419  1.00  0.00     0.031 C 
ATOM     65  C   UNL A   1      43.512  27.896  33.415  1.00  0.00     0.034 A 
BRANCH  52  66
ATOM     66  C   UNL A   1      39.355  31.991  35.455  1.00  0.00     0.023 A 
ATOM     67  C   UNL A   1      38.454  31.467  36.405  1.00  0.00     0.012 A 
ATOM     68  C   UNL A   1      39.833  33.307  35.610  1.00  0.00     0.148 A 
ATOM     69  C   UNL A   1      38.007  32.248  37.470  1.00  0.00     0.002 A 
ATOM     70  C   UNL A   1      39.419  34.065  36.700  1.00  0.00     0.091 A 
ATOM     71  F   UNL A   1      40.673  33.795  34.686  1.00  0.00    -0.205 F 
ATOM     72  C   UNL A   1      38.498  33.540  37.623  1.00  0.00     0.022 A 
BRANCH  70  73
ATOM     73  S   UNL A   1      40.049  35.714  37.032  1.00  0.00     0.127 S 
ATOM     74  O   UNL A   1      41.485  35.463  37.146  1.00  0.00    -0.237 OA
ATOM     75  O   UNL A   1      39.651  36.444  35.828  1.00  0.00    -0.237 OA
ATOM     76  O   UNL A   1      39.394  36.155  38.256  1.00  0.00    -0.744 OA
ENDBRANCH  70  73
ENDBRANCH  52  66
BRANCH  53  77
ATOM     77  C   UNL A   1      42.241  26.390  27.685  1.00  0.00     0.023 A 
ATOM     78  C   UNL A   1      43.043  26.986  26.692  1.00  0.00     0.012 A 
ATOM     79  C   UNL A   1      41.893  25.031  27.563  1.00  0.00     0.148 A 
ATOM     80  C   UNL A   1      43.455  26.255  25.577  1.00  0.00     0.002 A 
ATOM     81  C   UNL A   1      42.353  24.295  26.477  1.00  0.00     0.091 A 
ATOM     82  F   UNL A   1      41.119  24.484  28.511  1.00  0.00    -0.205 F 
ATOM     83  C   UNL A   1      43.118  24.908  25.474  1.00  0.00     0.022 A 
BRANCH  81  84
ATOM     84  S   UNL A   1      42.071  22.527  26.330  1.00  0.00     0.127 S 
ATOM     85  O   UNL A   1      40.613  22.455  26.345  1.00  0.00    -0.237 OA
ATOM     86  O   UNL A   1      42.689  22.226  25.038  1.00  0.00    -0.237 OA
ATOM     87  O   UNL A   1      42.748  21.927  27.471  1.00  0.00    -0.744 OA
ENDBRANCH  81  84
ENDBRANCH  53  77
BRANCH  65  88
ATOM     88  C   UNL A   1      44.692  27.319  34.152  1.00  0.00     0.023 A 
ATOM     89  C   UNL A   1      45.948  27.950  34.069  1.00  0.00     0.012 A 
ATOM     90  C   UNL A   1      44.534  26.195  34.987  1.00  0.00     0.148 A 
ATOM     91  C   UNL A   1      47.038  27.451  34.781  1.00  0.00     0.002 A 
ATOM     92  C   UNL A   1      45.612  25.734  35.732  1.00  0.00     0.091 A 
ATOM     93  F   UNL A   1      43.335  25.598  35.037  1.00  0.00    -0.205 F 
ATOM     94  C   UNL A   1      46.868  26.353  35.620  1.00  0.00     0.022 A 
BRANCH  92  95
ATOM     95  S   UNL A   1      45.463  24.388  36.911  1.00  0.00     0.127 S 
ATOM     96  O   UNL A   1      44.318  24.817  37.711  1.00  0.00    -0.237 OA
ATOM     97  O   UNL A   1      45.204  23.240  36.041  1.00  0.00    -0.237 OA
ATOM     98  O   UNL A   1      46.735  24.333  37.620  1.00  0.00    -0.744 OA
ENDBRANCH  92  95
ENDBRANCH  65  88
ENDBRANCH  39  40
ENDBRANCH  31  34
ENDBRANCH  29  30
ENDBRANCH  28  29
ENDBRANCH  27  28
ENDBRANCH  26  27
ENDBRANCH   1  26
TORSDOF 21
ENDMDL
MODEL 2
REMARK VINA RESULT:     -11.0      5.411      8.908
REMARK SMILES CCC[NH2+]CC(=O)N1[C@@H](C(=O)NCCCCCCNC(=O)c2ccc(-c3c4nc(c(-c5cccc(S(=O)(=O)[O-])c5F)c5ccc([nH]5)c(-c5cccc(S(=O)(=O)[O-])c5F)c5nc(c(-c6cccc(S(=O)(=O)[O-])c6F)c6ccc3[nH]6)C=C5)C=C4)cc2)CC[C@@H]2CCCC[C@@H]21
REMARK SMILES IDX 14 1 13 2 12 3 10 4 11 5 9 7 8 8 92 9 85 10 87 11 91 12
REMARK SMILES IDX 86 13 88 14 90 15 89 16 6 17 7 18 5 19 4 20 3 23 2 24 1 25
REMARK SMILES IDX 15 26 16 27 17 28 18 29 19 30 20 31 21 33 22 34 23 35 84 36
REMARK SMILES IDX 24 37 83 38 25 39 26 40 27 41 77 42 28 43 82 44 76 45 78 46
REMARK SMILES IDX 29 47 81 48 75 49 74 50 30 52 62 53 42 54 61 55 43 56 46 57
REMARK SMILES IDX 60 58 79 59 44 60 45 61 59 63 80 64 47 65 31 66 32 67 40 68
REMARK SMILES IDX 33 69 35 70 41 71 34 72 36 73 37 74 38 75 39 76 63 77 64 78
REMARK SMILES IDX 72 79 65 80 67 81 73 82 66 83 68 84 69 85 70 86 71 87 48 88
REMARK SMILES IDX 49 89 57 90 50 91 52 92 58 93 51 94 53 95 54 96 55 97 56 98
REMARK H PARENT 12 6 4 21 4 22 19 32 78 51 46 62
REMARK Flexibility Score: inf
ROOT
ATOM      1  C   UNL A   1      36.568  23.408  24.841  1.00  0.00     0.021 C 
ENDROOT
BRANCH   1   2
ATOM      2  C   UNL A   1      35.125  23.905  24.909  1.00  0.00     0.116 C 
BRANCH   2   3
ATOM      3  N   UNL A   1      34.771  24.418  23.596  1.00  0.00    -0.354 N 
ATOM      4  C   UNL A   1      33.822  25.318  23.238  1.00  0.00     0.242 C 
ATOM      5  O   UNL A   1      33.320  25.206  22.115  1.00  0.00    -0.273 OA
ATOM      6  H   UNL A   1      35.302  24.056  22.852  1.00  0.00     0.163 HD
BRANCH   4   7
ATOM      7  C   UNL A   1      33.278  26.356  24.215  1.00  0.00     0.175 C 
ATOM      8  N   UNL A   1      31.825  26.399  24.464  1.00  0.00    -0.323 N 
ATOM      9  C   UNL A   1      31.319  27.616  25.143  1.00  0.00     0.089 C 
ATOM     10  C   UNL A   1      33.793  27.670  23.585  1.00  0.00     0.036 C 
ATOM     11  C   UNL A   1      31.839  28.913  24.514  1.00  0.00     0.012 C 
ATOM     12  C   UNL A   1      31.542  27.540  26.679  1.00  0.00     0.025 C 
ATOM     13  C   UNL A   1      33.358  28.905  24.333  1.00  0.00     0.008 C 
ATOM     14  C   UNL A   1      31.382  30.104  25.355  1.00  0.00     0.006 C 
ATOM     15  C   UNL A   1      32.205  28.737  27.370  1.00  0.00     0.002 C 
ATOM     16  C   UNL A   1      32.022  30.116  26.736  1.00  0.00     0.000 C 
BRANCH   8  17
ATOM     17  C   UNL A   1      30.963  25.296  24.509  1.00  0.00     0.278 C 
ATOM     18  O   UNL A   1      30.221  25.066  23.546  1.00  0.00    -0.268 OA
BRANCH  17  19
ATOM     19  C   UNL A   1      30.763  24.491  25.809  1.00  0.00     0.362 C 
BRANCH  19  20
ATOM     20  N   UNL A   1      30.361  23.078  25.661  1.00  0.00    -0.338 N 
ATOM     21  H   UNL A   1      29.773  22.813  26.452  1.00  0.00     0.346 HD
ATOM     22  H   UNL A   1      29.845  22.974  24.786  1.00  0.00     0.346 HD
BRANCH  20  23
ATOM     23  C   UNL A   1      31.535  22.207  25.621  1.00  0.00     0.260 C 
BRANCH  23  24
ATOM     24  C   UNL A   1      32.101  21.853  24.236  1.00  0.00     0.058 C 
ATOM     25  C   UNL A   1      33.202  20.809  24.145  1.00  0.00     0.010 C 
ENDBRANCH  23  24
ENDBRANCH  20  23
ENDBRANCH  19  20
ENDBRANCH  17  19
ENDBRANCH   8  17
ENDBRANCH   4   7
ENDBRANCH   2   3
ENDBRANCH   1   2
BRANCH   1  26
ATOM     26  C   UNL A   1      36.835  22.184  25.733  1.00  0.00     0.002 C 
BRANCH  26  27
ATOM     27  C   UNL A   1      36.746  20.839  25.007  1.00  0.00     0.002 C 
BRANCH  27  28
ATOM     28  C   UNL A   1      38.098  20.166  24.771  1.00  0.00     0.021 C 
BRANCH  28  29
ATOM     29  C   UNL A   1      39.098  20.372  25.900  1.00  0.00     0.116 C 
BRANCH  29  30
ATOM     30  N   UNL A   1      40.065  19.289  25.985  1.00  0.00    -0.352 N 
ATOM     31  C   UNL A   1      41.428  19.383  26.153  1.00  0.00     0.251 C 
ATOM     32  H   UNL A   1      39.700  18.378  25.913  1.00  0.00     0.163 HD
ATOM     33  O   UNL A   1      42.140  18.404  26.052  1.00  0.00    -0.269 OA
BRANCH  31  34
ATOM     34  C   UNL A   1      42.003  20.717  26.432  1.00  0.00     0.039 A 
ATOM     35  C   UNL A   1      42.235  21.585  25.364  1.00  0.00     0.014 A 
ATOM     36  C   UNL A   1      42.256  21.116  27.747  1.00  0.00     0.014 A 
ATOM     37  C   UNL A   1      42.681  22.882  25.623  1.00  0.00     0.010 A 
ATOM     38  C   UNL A   1      42.628  22.429  28.005  1.00  0.00     0.010 A 
ATOM     39  C   UNL A   1      42.855  23.322  26.946  1.00  0.00    -0.014 A 
BRANCH  39  40
ATOM     40  C   UNL A   1      43.285  24.711  27.244  1.00  0.00     0.031 A 
ATOM     41  C   UNL A   1      42.296  25.697  27.806  1.00  0.00     0.074 A 
ATOM     42  C   UNL A   1      44.537  25.103  26.940  1.00  0.00     0.049 A 
ATOM     43  N   UNL A   1      42.461  26.965  28.077  1.00  0.00    -0.248 NA
ATOM     44  C   UNL A   1      40.936  25.199  28.075  1.00  0.00     0.031 C 
ATOM     45  C   UNL A   1      45.564  24.259  26.323  1.00  0.00     0.029 A 
ATOM     46  N   UNL A   1      45.154  26.321  27.085  1.00  0.00    -0.354 N 
ATOM     47  C   UNL A   1      41.225  27.421  28.520  1.00  0.00     0.074 A 
ATOM     48  C   UNL A   1      40.307  26.306  28.440  1.00  0.00     0.031 C 
ATOM     49  C   UNL A   1      46.682  24.981  26.150  1.00  0.00     0.029 A 
ATOM     50  C   UNL A   1      46.446  26.345  26.614  1.00  0.00     0.049 A 
ATOM     51  H   UNL A   1      44.712  27.103  27.489  1.00  0.00     0.167 HD
ATOM     52  C   UNL A   1      40.892  28.647  28.989  1.00  0.00     0.034 A 
ATOM     53  C   UNL A   1      47.336  27.355  26.559  1.00  0.00     0.034 A 
ATOM     54  C   UNL A   1      41.815  29.741  29.106  1.00  0.00     0.049 A 
ATOM     55  C   UNL A   1      46.945  28.702  27.108  1.00  0.00     0.074 A 
ATOM     56  C   UNL A   1      41.594  31.004  29.625  1.00  0.00     0.029 A 
ATOM     57  N   UNL A   1      43.140  29.703  28.696  1.00  0.00    -0.354 N 
ATOM     58  N   UNL A   1      45.814  29.072  27.658  1.00  0.00    -0.248 NA
ATOM     59  C   UNL A   1      47.966  29.759  27.065  1.00  0.00     0.031 C 
ATOM     60  C   UNL A   1      42.782  31.735  29.517  1.00  0.00     0.029 A 
ATOM     61  C   UNL A   1      43.748  30.919  28.951  1.00  0.00     0.049 A 
ATOM     62  H   UNL A   1      43.582  28.925  28.286  1.00  0.00     0.167 HD
ATOM     63  C   UNL A   1      46.001  30.389  28.063  1.00  0.00     0.074 A 
ATOM     64  C   UNL A   1      47.360  30.744  27.713  1.00  0.00     0.031 C 
ATOM     65  C   UNL A   1      45.122  31.235  28.655  1.00  0.00     0.034 A 
BRANCH  52  66
ATOM     66  C   UNL A   1      39.479  28.847  29.476  1.00  0.00     0.023 A 
ATOM     67  C   UNL A   1      39.148  28.489  30.799  1.00  0.00     0.012 A 
ATOM     68  C   UNL A   1      38.498  29.436  28.654  1.00  0.00     0.148 A 
ATOM     69  C   UNL A   1      37.856  28.681  31.287  1.00  0.00     0.002 A 
ATOM     70  C   UNL A   1      37.225  29.666  29.161  1.00  0.00     0.091 A 
ATOM     71  F   UNL A   1      38.826  29.751  27.393  1.00  0.00    -0.205 F 
ATOM     72  C   UNL A   1      36.900  29.278  30.472  1.00  0.00     0.022 A 
BRANCH  70  73
ATOM     73  S   UNL A   1      35.940  30.499  28.221  1.00  0.00     0.127 S 
ATOM     74  O   UNL A   1      35.613  29.492  27.213  1.00  0.00    -0.237 OA
ATOM     75  O   UNL A   1      34.905  30.708  29.234  1.00  0.00    -0.237 OA
ATOM     76  O   UNL A   1      36.546  31.721  27.709  1.00  0.00    -0.744 OA
ENDBRANCH  70  73
ENDBRANCH  52  66
BRANCH  53  77
ATOM     77  C   UNL A   1      48.708  27.120  26.024  1.00  0.00     0.023 A 
ATOM     78  C   UNL A   1      49.696  26.580  26.871  1.00  0.00     0.012 A 
ATOM     79  C   UNL A   1      49.040  27.423  24.689  1.00  0.00     0.148 A 
ATOM     80  C   UNL A   1      50.999  26.384  26.412  1.00  0.00     0.002 A 
ATOM     81  C   UNL A   1      50.326  27.174  24.223  1.00  0.00     0.091 A 
ATOM     82  F   UNL A   1      48.091  27.948  23.901  1.00  0.00    -0.205 F 
ATOM     83  C   UNL A   1      51.311  26.672  25.087  1.00  0.00     0.022 A 
BRANCH  81  84
ATOM     84  S   UNL A   1      50.780  27.399  22.500  1.00  0.00     0.127 S 
ATOM     85  O   UNL A   1      50.723  28.851  22.363  1.00  0.00    -0.237 OA
ATOM     86  O   UNL A   1      52.128  26.828  22.463  1.00  0.00    -0.237 OA
ATOM     87  O   UNL A   1      49.793  26.649  21.735  1.00  0.00    -0.744 OA
ENDBRANCH  81  84
ENDBRANCH  53  77
BRANCH  65  88
ATOM     88  C   UNL A   1      45.612  32.614  29.012  1.00  0.00     0.023 A 
ATOM     89  C   UNL A   1      46.296  32.823  30.225  1.00  0.00     0.012 A 
ATOM     90  C   UNL A   1      45.459  33.684  28.108  1.00  0.00     0.148 A 
ATOM     91  C   UNL A   1      46.792  34.086  30.548  1.00  0.00     0.002 A 
ATOM     92  C   UNL A   1      46.000  34.926  28.414  1.00  0.00     0.091 A 
ATOM     93  F   UNL A   1      44.789  33.467  26.967  1.00  0.00    -0.205 F 
ATOM     94  C   UNL A   1      46.656  35.132  29.639  1.00  0.00     0.022 A 
BRANCH  92  95
ATOM     95  S   UNL A   1      45.958  36.305  27.264  1.00  0.00     0.127 S 
ATOM     96  O   UNL A   1      46.698  37.329  27.999  1.00  0.00    -0.237 OA
ATOM     97  O   UNL A   1      46.660  35.760  26.101  1.00  0.00    -0.237 OA
ATOM     98  O   UNL A   1      44.549  36.595  27.037  1.00  0.00    -0.744 OA
ENDBRANCH  92  95
ENDBRANCH  65  88
ENDBRANCH  39  40
ENDBRANCH  31  34
ENDBRANCH  29  30
ENDBRANCH  28  29
ENDBRANCH  27  28
ENDBRANCH  26  27
ENDBRANCH   1  26
TORSDOF 21
ENDMDL
MODEL 3
REMARK VINA RESULT:     -11.0      4.980     10.196
REMARK SMILES CCC[NH2+]CC(=O)N1[C@@H](C(=O)NCCCCCCNC(=O)c2ccc(-c3c4nc(c(-c5cccc(S(=O)(=O)[O-])c5F)c5ccc([nH]5)c(-c5cccc(S(=O)(=O)[O-])c5F)c5nc(c(-c6cccc(S(=O)(=O)[O-])c6F)c6ccc3[nH]6)C=C5)C=C4)cc2)CC[C@@H]2CCCC[C@@H]21
REMARK SMILES IDX 14 1 13 2 12 3 10 4 11 5 9 7 8 8 92 9 85 10 87 11 91 12
REMARK SMILES IDX 86 13 88 14 90 15 89 16 6 17 7 18 5 19 4 20 3 23 2 24 1 25
REMARK SMILES IDX 15 26 16 27 17 28 18 29 19 30 20 31 21 33 22 34 23 35 84 36
REMARK SMILES IDX 24 37 83 38 25 39 26 40 27 41 77 42 28 43 82 44 76 45 78 46
REMARK SMILES IDX 29 47 81 48 75 49 74 50 30 52 62 53 42 54 61 55 43 56 46 57
REMARK SMILES IDX 60 58 79 59 44 60 45 61 59 63 80 64 47 65 31 66 32 67 40 68
REMARK SMILES IDX 33 69 35 70 41 71 34 72 36 73 37 74 38 75 39 76 63 77 64 78
REMARK SMILES IDX 72 79 65 80 67 81 73 82 66 83 68 84 69 85 70 86 71 87 48 88
REMARK SMILES IDX 49 89 57 90 50 91 52 92 58 93 51 94 53 95 54 96 55 97 56 98
REMARK H PARENT 12 6 4 21 4 22 19 32 78 51 46 62
REMARK Flexibility Score: inf
ROOT
ATOM      1  C   UNL A   1      35.212  24.238  24.826  1.00  0.00     0.021 C 
ENDROOT
BRANCH   1   2
ATOM      2  C   UNL A   1      34.149  23.671  23.885  1.00  0.00     0.116 C 
BRANCH   2   3
ATOM      3  N   UNL A   1      34.042  24.566  22.747  1.00  0.00    -0.354 N 
ATOM      4  C   UNL A   1      33.350  25.725  22.610  1.00  0.00     0.242 C 
ATOM      5  O   UNL A   1      32.945  26.021  21.481  1.00  0.00    -0.273 OA
ATOM      6  H   UNL A   1      34.550  24.289  21.951  1.00  0.00     0.163 HD
BRANCH   4   7
ATOM      7  C   UNL A   1      32.955  26.580  23.810  1.00  0.00     0.175 C 
ATOM      8  N   UNL A   1      31.522  26.783  24.092  1.00  0.00    -0.323 N 
ATOM      9  C   UNL A   1      31.195  27.873  25.041  1.00  0.00     0.089 C 
ATOM     10  C   UNL A   1      33.672  27.912  23.487  1.00  0.00     0.036 C 
ATOM     11  C   UNL A   1      31.915  29.187  24.715  1.00  0.00     0.012 C 
ATOM     12  C   UNL A   1      31.382  27.415  26.514  1.00  0.00     0.025 C 
ATOM     13  C   UNL A   1      33.417  28.993  24.507  1.00  0.00     0.008 C 
ATOM     14  C   UNL A   1      31.630  30.208  25.817  1.00  0.00     0.006 C 
ATOM     15  C   UNL A   1      32.208  28.307  27.447  1.00  0.00     0.002 C 
ATOM     16  C   UNL A   1      32.245  29.806  27.150  1.00  0.00     0.000 C 
BRANCH   8  17
ATOM     17  C   UNL A   1      30.502  25.842  23.900  1.00  0.00     0.278 C 
ATOM     18  O   UNL A   1      29.378  26.225  23.553  1.00  0.00    -0.268 OA
BRANCH  17  19
ATOM     19  C   UNL A   1      30.688  24.368  24.316  1.00  0.00     0.362 C 
BRANCH  19  20
ATOM     20  N   UNL A   1      30.272  24.007  25.686  1.00  0.00    -0.338 N 
ATOM     21  H   UNL A   1      30.354  24.827  26.287  1.00  0.00     0.346 HD
ATOM     22  H   UNL A   1      29.305  23.682  25.660  1.00  0.00     0.346 HD
BRANCH  20  23
ATOM     23  C   UNL A   1      31.115  22.936  26.217  1.00  0.00     0.260 C 
BRANCH  23  24
ATOM     24  C   UNL A   1      32.331  23.351  27.060  1.00  0.00     0.058 C 
ATOM     25  C   UNL A   1      33.072  22.281  27.845  1.00  0.00     0.010 C 
ENDBRANCH  23  24
ENDBRANCH  20  23
ENDBRANCH  19  20
ENDBRANCH  17  19
ENDBRANCH   8  17
ENDBRANCH   4   7
ENDBRANCH   2   3
ENDBRANCH   1   2
BRANCH   1  26
ATOM     26  C   UNL A   1      36.208  23.180  25.330  1.00  0.00     0.002 C 
BRANCH  26  27
ATOM     27  C   UNL A   1      35.777  21.733  25.078  1.00  0.00     0.002 C 
BRANCH  27  28
ATOM     28  C   UNL A   1      36.928  20.727  25.086  1.00  0.00     0.021 C 
BRANCH  28  29
ATOM     29  C   UNL A   1      38.283  21.339  25.413  1.00  0.00     0.116 C 
BRANCH  29  30
ATOM     30  N   UNL A   1      39.211  20.365  25.962  1.00  0.00    -0.352 N 
ATOM     31  C   UNL A   1      40.374  20.602  26.661  1.00  0.00     0.251 C 
ATOM     32  H   UNL A   1      38.979  19.419  25.818  1.00  0.00     0.163 HD
ATOM     33  O   UNL A   1      41.138  19.698  26.930  1.00  0.00    -0.269 OA
BRANCH  31  34
ATOM     34  C   UNL A   1      40.678  21.997  27.047  1.00  0.00     0.039 A 
ATOM     35  C   UNL A   1      41.460  22.226  28.181  1.00  0.00     0.014 A 
ATOM     36  C   UNL A   1      40.234  23.061  26.258  1.00  0.00     0.014 A 
ATOM     37  C   UNL A   1      41.838  23.531  28.497  1.00  0.00     0.010 A 
ATOM     38  C   UNL A   1      40.674  24.350  26.533  1.00  0.00     0.010 A 
ATOM     39  C   UNL A   1      41.471  24.599  27.662  1.00  0.00    -0.014 A 
BRANCH  39  40
ATOM     40  C   UNL A   1      41.901  25.989  27.956  1.00  0.00     0.031 A 
ATOM     41  C   UNL A   1      43.297  26.431  27.606  1.00  0.00     0.074 A 
ATOM     42  C   UNL A   1      41.065  26.825  28.602  1.00  0.00     0.049 A 
ATOM     43  N   UNL A   1      43.879  27.579  27.835  1.00  0.00    -0.248 NA
ATOM     44  C   UNL A   1      44.162  25.443  26.936  1.00  0.00     0.031 C 
ATOM     45  C   UNL A   1      39.715  26.489  29.058  1.00  0.00     0.029 A 
ATOM     46  N   UNL A   1      41.238  28.124  29.010  1.00  0.00    -0.354 N 
ATOM     47  C   UNL A   1      45.179  27.445  27.362  1.00  0.00     0.074 A 
ATOM     48  C   UNL A   1      45.316  26.090  26.876  1.00  0.00     0.031 C 
ATOM     49  C   UNL A   1      39.180  27.554  29.675  1.00  0.00     0.029 A 
ATOM     50  C   UNL A   1      40.157  28.638  29.687  1.00  0.00     0.049 A 
ATOM     51  H   UNL A   1      42.059  28.639  28.834  1.00  0.00     0.167 HD
ATOM     52  C   UNL A   1      46.160  28.376  27.303  1.00  0.00     0.034 A 
ATOM     53  C   UNL A   1      39.978  29.847  30.255  1.00  0.00     0.034 A 
ATOM     54  C   UNL A   1      46.008  29.733  27.749  1.00  0.00     0.049 A 
ATOM     55  C   UNL A   1      41.077  30.870  30.154  1.00  0.00     0.074 A 
ATOM     56  C   UNL A   1      46.919  30.771  27.677  1.00  0.00     0.029 A 
ATOM     57  N   UNL A   1      44.868  30.242  28.354  1.00  0.00    -0.354 N 
ATOM     58  N   UNL A   1      42.248  30.769  29.573  1.00  0.00    -0.248 NA
ATOM     59  C   UNL A   1      40.816  32.187  30.752  1.00  0.00     0.031 C 
ATOM     60  C   UNL A   1      46.335  31.905  28.251  1.00  0.00     0.029 A 
ATOM     61  C   UNL A   1      45.052  31.579  28.659  1.00  0.00     0.049 A 
ATOM     62  H   UNL A   1      44.049  29.728  28.538  1.00  0.00     0.167 HD
ATOM     63  C   UNL A   1      42.845  32.018  29.699  1.00  0.00     0.074 A 
ATOM     64  C   UNL A   1      41.898  32.865  30.394  1.00  0.00     0.031 C 
ATOM     65  C   UNL A   1      44.073  32.425  29.293  1.00  0.00     0.034 A 
BRANCH  52  66
ATOM     66  C   UNL A   1      47.467  27.973  26.668  1.00  0.00     0.023 A 
ATOM     67  C   UNL A   1      48.561  27.640  27.493  1.00  0.00     0.012 A 
ATOM     68  C   UNL A   1      47.599  27.869  25.269  1.00  0.00     0.148 A 
ATOM     69  C   UNL A   1      49.777  27.245  26.937  1.00  0.00     0.002 A 
ATOM     70  C   UNL A   1      48.800  27.430  24.724  1.00  0.00     0.091 A 
ATOM     71  F   UNL A   1      46.554  28.209  24.501  1.00  0.00    -0.205 F 
ATOM     72  C   UNL A   1      49.892  27.129  25.556  1.00  0.00     0.022 A 
BRANCH  70  73
ATOM     73  S   UNL A   1      49.030  27.173  22.961  1.00  0.00     0.127 S 
ATOM     74  O   UNL A   1      48.463  28.402  22.408  1.00  0.00    -0.237 OA
ATOM     75  O   UNL A   1      50.486  27.069  22.852  1.00  0.00    -0.237 OA
ATOM     76  O   UNL A   1      48.307  25.951  22.635  1.00  0.00    -0.744 OA
ENDBRANCH  70  73
ENDBRANCH  52  66
BRANCH  53  77
ATOM     77  C   UNL A   1      38.683  30.184  30.914  1.00  0.00     0.023 A 
ATOM     78  C   UNL A   1      38.429  29.716  32.218  1.00  0.00     0.012 A 
ATOM     79  C   UNL A   1      37.707  30.964  30.263  1.00  0.00     0.148 A 
ATOM     80  C   UNL A   1      37.213  29.983  32.847  1.00  0.00     0.002 A 
ATOM     81  C   UNL A   1      36.519  31.272  30.917  1.00  0.00     0.091 A 
ATOM     82  F   UNL A   1      37.960  31.390  29.017  1.00  0.00    -0.205 F 
ATOM     83  C   UNL A   1      36.262  30.768  32.200  1.00  0.00     0.022 A 
BRANCH  81  84
ATOM     84  S   UNL A   1      35.295  32.378  30.207  1.00  0.00     0.127 S 
ATOM     85  O   UNL A   1      34.342  32.512  31.305  1.00  0.00    -0.237 OA
ATOM     86  O   UNL A   1      36.090  33.576  29.932  1.00  0.00    -0.237 OA
ATOM     87  O   UNL A   1      34.802  31.701  29.016  1.00  0.00    -0.744 OA
ENDBRANCH  81  84
ENDBRANCH  53  77
BRANCH  65  88
ATOM     88  C   UNL A   1      44.451  33.861  29.541  1.00  0.00     0.023 A 
ATOM     89  C   UNL A   1      45.375  34.178  30.556  1.00  0.00     0.012 A 
ATOM     90  C   UNL A   1      43.948  34.887  28.716  1.00  0.00     0.148 A 
ATOM     91  C   UNL A   1      45.766  35.500  30.768  1.00  0.00     0.002 A 
ATOM     92  C   UNL A   1      44.382  36.194  28.900  1.00  0.00     0.091 A 
ATOM     93  F   UNL A   1      43.057  34.565  27.767  1.00  0.00    -0.205 F 
ATOM     94  C   UNL A   1      45.281  36.503  29.934  1.00  0.00     0.022 A 
BRANCH  92  95
ATOM     95  S   UNL A   1      43.886  37.535  27.814  1.00  0.00     0.127 S 
ATOM     96  O   UNL A   1      44.089  36.942  26.494  1.00  0.00    -0.237 OA
ATOM     97  O   UNL A   1      42.483  37.732  28.185  1.00  0.00    -0.237 OA
ATOM     98  O   UNL A   1      44.758  38.656  28.137  1.00  0.00    -0.744 OA
ENDBRANCH  92  95
ENDBRANCH  65  88
ENDBRANCH  39  40
ENDBRANCH  31  34
ENDBRANCH  29  30
ENDBRANCH  28  29
ENDBRANCH  27  28
ENDBRANCH  26  27
ENDBRANCH   1  26
TORSDOF 21
ENDMDL
