MODEL 1
REMARK VINA RESULT:     -13.1      0.000      0.000
REMARK SMILES Cc1ccn2c([C@@H]3CCCC[C@@H]3C(=O)NCCCCCCNC(=O)c3ccc(-c4c5nc(c(-c6cccc(S(=O)(=O)[O-])c6F)c6ccc([nH]6)c(-c6cccc(S(=O)(=O)[O-])c6F)c6nc(c(-c7cccc(S(=O)(=O)[O-])c7F)c7ccc4[nH]7)C=C6)C=C5)cc3)nnc2c1
REMARK SMILES IDX 19 1 18 2 17 3 16 4 15 5 13 6 14 7 12 9 7 10 8 11 9 12 11 13
REMARK SMILES IDX 10 14 6 15 1 16 2 17 3 18 91 19 4 20 90 21 5 22 89 23 88 24
REMARK SMILES IDX 20 25 21 26 22 27 23 28 24 30 25 31 26 32 87 33 27 34 86 35
REMARK SMILES IDX 28 36 29 37 30 38 80 39 31 40 85 41 79 42 81 43 32 44 84 45
REMARK SMILES IDX 78 46 77 47 33 49 65 50 45 51 64 52 46 53 49 54 63 55 82 56
REMARK SMILES IDX 47 57 48 58 62 60 83 61 50 62 34 63 35 64 43 65 36 66 38 67
REMARK SMILES IDX 44 68 37 69 39 70 40 71 41 72 42 73 66 74 67 75 75 76 68 77
REMARK SMILES IDX 70 78 76 79 69 80 71 81 72 82 73 83 74 84 51 85 52 86 60 87
REMARK SMILES IDX 53 88 55 89 61 90 54 91 56 92 57 93 58 94 59 95
REMARK H PARENT 15 8 22 29 81 48 49 59
REMARK Flexibility Score: inf
ROOT
ATOM      1  C   UNL A   1      35.904  23.343  23.976  1.00  0.00     0.002 C 
ENDROOT
BRANCH   1   2
ATOM      2  C   UNL A   1      35.770  23.952  25.376  1.00  0.00     0.002 C 
BRANCH   2   3
ATOM      3  C   UNL A   1      34.389  24.522  25.721  1.00  0.00     0.021 C 
BRANCH   3   4
ATOM      4  C   UNL A   1      34.177  25.992  25.361  1.00  0.00     0.116 C 
BRANCH   4   5
ATOM      5  N   UNL A   1      33.612  26.143  24.032  1.00  0.00    -0.356 N 
ATOM      6  C   UNL A   1      32.440  26.696  23.627  1.00  0.00     0.223 C 
ATOM      7  O   UNL A   1      32.192  26.677  22.420  1.00  0.00    -0.275 OA
ATOM      8  H   UNL A   1      34.171  25.785  23.305  1.00  0.00     0.163 HD
BRANCH   6   9
ATOM      9  C   UNL A   1      31.463  27.277  24.642  1.00  0.00     0.089 C 
ATOM     10  C   UNL A   1      30.253  26.362  24.920  1.00  0.00     0.071 C 
ATOM     11  C   UNL A   1      29.227  26.311  23.784  1.00  0.00     0.012 C 
ATOM     12  C   UNL A   1      28.774  27.720  23.395  1.00  0.00     0.001 C 
ATOM     13  C   UNL A   1      31.001  28.666  24.159  1.00  0.00     0.014 C 
ATOM     14  C   UNL A   1      29.949  28.626  23.049  1.00  0.00     0.001 C 
BRANCH  10  15
ATOM     15  C   UNL A   1      30.600  25.025  25.515  1.00  0.00     0.141 A 
ATOM     16  C   UNL A   1      32.615  20.066  23.838  1.00  0.00     0.044 C 
ATOM     17  C   UNL A   1      32.021  21.376  24.261  1.00  0.00    -0.046 A 
ATOM     18  C   UNL A   1      31.703  22.333  23.204  1.00  0.00     0.022 A 
ATOM     19  C   UNL A   1      31.797  21.691  25.554  1.00  0.00     0.053 A 
ATOM     20  C   UNL A   1      31.215  23.542  23.530  1.00  0.00     0.095 A 
ATOM     21  C   UNL A   1      31.273  22.968  25.897  1.00  0.00     0.161 A 
ATOM     22  N   UNL A   1      31.019  23.872  24.870  1.00  0.00    -0.286 N 
ATOM     23  N   UNL A   1      30.978  23.510  27.054  1.00  0.00    -0.130 NA
ATOM     24  N   UNL A   1      30.559  24.791  26.817  1.00  0.00    -0.134 NA
ENDBRANCH  10  15
ENDBRANCH   6   9
ENDBRANCH   4   5
ENDBRANCH   3   4
ENDBRANCH   2   3
ENDBRANCH   1   2
BRANCH   1  25
ATOM     25  C   UNL A   1      35.838  21.810  23.907  1.00  0.00     0.021 C 
BRANCH  25  26
ATOM     26  C   UNL A   1      36.101  21.103  25.237  1.00  0.00     0.116 C 
BRANCH  26  27
ATOM     27  N   UNL A   1      37.107  20.068  25.138  1.00  0.00    -0.352 N 
ATOM     28  C   UNL A   1      38.413  19.935  25.520  1.00  0.00     0.251 C 
ATOM     29  H   UNL A   1      36.770  19.263  24.684  1.00  0.00     0.163 HD
ATOM     30  O   UNL A   1      38.918  18.835  25.282  1.00  0.00    -0.269 OA
BRANCH  28  31
ATOM     31  C   UNL A   1      39.250  20.993  26.154  1.00  0.00     0.039 A 
ATOM     32  C   UNL A   1      40.404  20.782  26.910  1.00  0.00     0.014 A 
ATOM     33  C   UNL A   1      38.804  22.317  25.976  1.00  0.00     0.014 A 
ATOM     34  C   UNL A   1      41.068  21.856  27.502  1.00  0.00     0.010 A 
ATOM     35  C   UNL A   1      39.468  23.393  26.561  1.00  0.00     0.010 A 
ATOM     36  C   UNL A   1      40.588  23.160  27.351  1.00  0.00    -0.014 A 
BRANCH  36  37
ATOM     37  C   UNL A   1      41.339  24.247  27.977  1.00  0.00     0.031 A 
ATOM     38  C   UNL A   1      40.623  25.551  28.098  1.00  0.00     0.074 A 
ATOM     39  C   UNL A   1      42.562  24.102  28.527  1.00  0.00     0.049 A 
ATOM     40  N   UNL A   1      40.925  26.683  27.545  1.00  0.00    -0.248 NA
ATOM     41  C   UNL A   1      39.374  25.575  28.872  1.00  0.00     0.031 C 
ATOM     42  C   UNL A   1      43.304  22.864  28.772  1.00  0.00     0.029 A 
ATOM     43  N   UNL A   1      43.351  25.055  29.102  1.00  0.00    -0.354 N 
ATOM     44  C   UNL A   1      40.015  27.610  28.052  1.00  0.00     0.074 A 
ATOM     45  C   UNL A   1      39.015  26.855  28.766  1.00  0.00     0.031 C 
ATOM     46  C   UNL A   1      44.302  23.112  29.651  1.00  0.00     0.029 A 
ATOM     47  C   UNL A   1      44.355  24.538  29.914  1.00  0.00     0.049 A 
ATOM     48  H   UNL A   1      43.223  26.020  28.956  1.00  0.00     0.167 HD
ATOM     49  C   UNL A   1      40.230  28.955  28.013  1.00  0.00     0.034 A 
ATOM     50  C   UNL A   1      45.116  25.238  30.791  1.00  0.00     0.034 A 
ATOM     51  C   UNL A   1      41.287  29.323  27.118  1.00  0.00     0.049 A 
ATOM     52  C   UNL A   1      45.088  26.653  30.356  1.00  0.00     0.074 A 
ATOM     53  C   UNL A   1      41.520  29.195  25.764  1.00  0.00     0.029 A 
ATOM     54  N   UNL A   1      42.496  29.655  27.677  1.00  0.00    -0.354 N 
ATOM     55  N   UNL A   1      45.627  27.089  29.252  1.00  0.00    -0.248 NA
ATOM     56  C   UNL A   1      44.146  27.558  30.995  1.00  0.00     0.031 C 
ATOM     57  C   UNL A   1      42.925  28.979  25.652  1.00  0.00     0.029 A 
ATOM     58  C   UNL A   1      43.457  29.015  26.942  1.00  0.00     0.049 A 
ATOM     59  H   UNL A   1      42.643  30.239  28.456  1.00  0.00     0.167 HD
ATOM     60  C   UNL A   1      44.790  28.114  28.836  1.00  0.00     0.074 A 
ATOM     61  C   UNL A   1      43.978  28.438  30.005  1.00  0.00     0.031 C 
ATOM     62  C   UNL A   1      44.640  28.410  27.513  1.00  0.00     0.034 A 
BRANCH  49  63
ATOM     63  C   UNL A   1      39.681  29.934  29.015  1.00  0.00     0.023 A 
ATOM     64  C   UNL A   1      40.285  30.003  30.290  1.00  0.00     0.012 A 
ATOM     65  C   UNL A   1      38.443  30.591  28.847  1.00  0.00     0.148 A 
ATOM     66  C   UNL A   1      39.678  30.688  31.349  1.00  0.00     0.002 A 
ATOM     67  C   UNL A   1      37.880  31.331  29.883  1.00  0.00     0.091 A 
ATOM     68  F   UNL A   1      37.740  30.398  27.724  1.00  0.00    -0.205 F 
ATOM     69  C   UNL A   1      38.482  31.364  31.142  1.00  0.00     0.022 A 
BRANCH  67  70
ATOM     70  S   UNL A   1      36.359  32.255  29.644  1.00  0.00     0.127 S 
ATOM     71  O   UNL A   1      36.193  32.884  30.956  1.00  0.00    -0.237 OA
ATOM     72  O   UNL A   1      36.734  33.175  28.565  1.00  0.00    -0.237 OA
ATOM     73  O   UNL A   1      35.367  31.269  29.267  1.00  0.00    -0.744 OA
ENDBRANCH  67  70
ENDBRANCH  49  63
BRANCH  50  74
ATOM     74  C   UNL A   1      45.682  24.840  32.105  1.00  0.00     0.023 A 
ATOM     75  C   UNL A   1      46.825  25.512  32.590  1.00  0.00     0.012 A 
ATOM     76  C   UNL A   1      44.960  24.031  33.010  1.00  0.00     0.148 A 
ATOM     77  C   UNL A   1      47.199  25.432  33.935  1.00  0.00     0.002 A 
ATOM     78  C   UNL A   1      45.346  23.940  34.346  1.00  0.00     0.091 A 
ATOM     79  F   UNL A   1      43.838  23.429  32.596  1.00  0.00    -0.205 F 
ATOM     80  C   UNL A   1      46.454  24.655  34.816  1.00  0.00     0.022 A 
BRANCH  78  81
ATOM     81  S   UNL A   1      44.423  22.954  35.533  1.00  0.00     0.127 S 
ATOM     82  O   UNL A   1      45.192  23.151  36.763  1.00  0.00    -0.237 OA
ATOM     83  O   UNL A   1      43.115  23.603  35.518  1.00  0.00    -0.237 OA
ATOM     84  O   UNL A   1      44.464  21.590  35.020  1.00  0.00    -0.744 OA
ENDBRANCH  78  81
ENDBRANCH  50  74
BRANCH  62  85
ATOM     85  C   UNL A   1      45.600  27.791  26.531  1.00  0.00     0.023 A 
ATOM     86  C   UNL A   1      46.833  28.400  26.219  1.00  0.00     0.012 A 
ATOM     87  C   UNL A   1      45.352  26.481  26.086  1.00  0.00     0.148 A 
ATOM     88  C   UNL A   1      47.796  27.721  25.468  1.00  0.00     0.002 A 
ATOM     89  C   UNL A   1      46.328  25.794  25.376  1.00  0.00     0.091 A 
ATOM     90  F   UNL A   1      44.180  25.915  26.411  1.00  0.00    -0.205 F 
ATOM     91  C   UNL A   1      47.548  26.412  25.059  1.00  0.00     0.022 A 
BRANCH  89  92
ATOM     92  S   UNL A   1      46.135  24.069  24.920  1.00  0.00     0.127 S 
ATOM     93  O   UNL A   1      46.333  23.389  26.198  1.00  0.00    -0.237 OA
ATOM     94  O   UNL A   1      44.761  24.035  24.415  1.00  0.00    -0.237 OA
ATOM     95  O   UNL A   1      47.151  23.799  23.909  1.00  0.00    -0.744 OA
ENDBRANCH  89  92
ENDBRANCH  62  85
ENDBRANCH  36  37
ENDBRANCH  28  31
ENDBRANCH  26  27
ENDBRANCH  25  26
ENDBRANCH   1  25
TORSDOF 17
ENDMDL
MODEL 2
REMARK VINA RESULT:     -13.1      3.220      7.451
REMARK SMILES Cc1ccn2c([C@@H]3CCCC[C@@H]3C(=O)NCCCCCCNC(=O)c3ccc(-c4c5nc(c(-c6cccc(S(=O)(=O)[O-])c6F)c6ccc([nH]6)c(-c6cccc(S(=O)(=O)[O-])c6F)c6nc(c(-c7cccc(S(=O)(=O)[O-])c7F)c7ccc4[nH]7)C=C6)C=C5)cc3)nnc2c1
REMARK SMILES IDX 19 1 18 2 17 3 16 4 15 5 13 6 14 7 12 9 7 10 8 11 9 12 11 13
REMARK SMILES IDX 10 14 6 15 1 16 2 17 3 18 91 19 4 20 90 21 5 22 89 23 88 24
REMARK SMILES IDX 20 25 21 26 22 27 23 28 24 30 25 31 26 32 87 33 27 34 86 35
REMARK SMILES IDX 28 36 29 37 30 38 80 39 31 40 85 41 79 42 81 43 32 44 84 45
REMARK SMILES IDX 78 46 77 47 33 49 65 50 45 51 64 52 46 53 49 54 63 55 82 56
REMARK SMILES IDX 47 57 48 58 62 60 83 61 50 62 34 63 35 64 43 65 36 66 38 67
REMARK SMILES IDX 44 68 37 69 39 70 40 71 41 72 42 73 66 74 67 75 75 76 68 77
REMARK SMILES IDX 70 78 76 79 69 80 71 81 72 82 73 83 74 84 51 85 52 86 60 87
REMARK SMILES IDX 53 88 55 89 61 90 54 91 56 92 57 93 58 94 59 95
REMARK H PARENT 15 8 22 29 81 48 49 59
REMARK Flexibility Score: inf
ROOT
ATOM      1  C   UNL A   1      31.843  28.389  26.083  1.00  0.00     0.002 C 
ENDROOT
BRANCH   1   2
ATOM      2  C   UNL A   1      32.377  26.966  26.275  1.00  0.00     0.002 C 
BRANCH   2   3
ATOM      3  C   UNL A   1      33.633  26.615  25.468  1.00  0.00     0.021 C 
BRANCH   3   4
ATOM      4  C   UNL A   1      34.203  25.219  25.714  1.00  0.00     0.116 C 
BRANCH   4   5
ATOM      5  N   UNL A   1      33.160  24.267  26.058  1.00  0.00    -0.356 N 
ATOM      6  C   UNL A   1      32.897  23.029  25.568  1.00  0.00     0.223 C 
ATOM      7  O   UNL A   1      31.923  22.432  26.031  1.00  0.00    -0.275 OA
ATOM      8  H   UNL A   1      32.543  24.571  26.762  1.00  0.00     0.163 HD
BRANCH   6   9
ATOM      9  C   UNL A   1      33.757  22.432  24.462  1.00  0.00     0.089 C 
ATOM     10  C   UNL A   1      33.141  22.583  23.056  1.00  0.00     0.071 C 
ATOM     11  C   UNL A   1      31.948  21.660  22.790  1.00  0.00     0.012 C 
ATOM     12  C   UNL A   1      32.311  20.202  23.077  1.00  0.00     0.001 C 
ATOM     13  C   UNL A   1      34.034  20.950  24.783  1.00  0.00     0.014 C 
ATOM     14  C   UNL A   1      32.861  20.014  24.486  1.00  0.00     0.001 C 
BRANCH  10  15
ATOM     15  C   UNL A   1      32.950  24.004  22.604  1.00  0.00     0.141 A 
ATOM     16  C   UNL A   1      29.261  28.177  23.270  1.00  0.00     0.044 C 
ATOM     17  C   UNL A   1      30.207  27.034  23.052  1.00  0.00    -0.046 A 
ATOM     18  C   UNL A   1      29.820  25.738  23.603  1.00  0.00     0.022 A 
ATOM     19  C   UNL A   1      31.379  27.173  22.397  1.00  0.00     0.053 A 
ATOM     20  C   UNL A   1      30.653  24.690  23.481  1.00  0.00     0.095 A 
ATOM     21  C   UNL A   1      32.256  26.062  22.261  1.00  0.00     0.161 A 
ATOM     22  N   UNL A   1      31.877  24.851  22.833  1.00  0.00    -0.286 N 
ATOM     23  N   UNL A   1      33.430  25.939  21.689  1.00  0.00    -0.130 NA
ATOM     24  N   UNL A   1      33.863  24.658  21.902  1.00  0.00    -0.134 NA
ENDBRANCH  10  15
ENDBRANCH   6   9
ENDBRANCH   4   5
ENDBRANCH   3   4
ENDBRANCH   2   3
ENDBRANCH   1   2
BRANCH   1  25
ATOM     25  C   UNL A   1      32.257  29.407  27.157  1.00  0.00     0.021 C 
BRANCH  25  26
ATOM     26  C   UNL A   1      33.357  30.377  26.723  1.00  0.00     0.116 C 
BRANCH  26  27
ATOM     27  N   UNL A   1      33.581  31.441  27.677  1.00  0.00    -0.352 N 
ATOM     28  C   UNL A   1      34.601  31.809  28.509  1.00  0.00     0.251 C 
ATOM     29  H   UNL A   1      32.810  32.049  27.744  1.00  0.00     0.163 HD
ATOM     30  O   UNL A   1      34.406  32.846  29.149  1.00  0.00    -0.269 OA
BRANCH  28  31
ATOM     31  C   UNL A   1      35.874  31.062  28.715  1.00  0.00     0.039 A 
ATOM     32  C   UNL A   1      36.014  29.675  28.766  1.00  0.00     0.014 A 
ATOM     33  C   UNL A   1      37.027  31.853  28.891  1.00  0.00     0.014 A 
ATOM     34  C   UNL A   1      37.256  29.097  29.025  1.00  0.00     0.010 A 
ATOM     35  C   UNL A   1      38.271  31.280  29.144  1.00  0.00     0.010 A 
ATOM     36  C   UNL A   1      38.381  29.897  29.240  1.00  0.00    -0.014 A 
BRANCH  36  37
ATOM     37  C   UNL A   1      39.661  29.234  29.485  1.00  0.00     0.031 A 
ATOM     38  C   UNL A   1      40.158  29.272  30.892  1.00  0.00     0.074 A 
ATOM     39  C   UNL A   1      40.333  28.523  28.557  1.00  0.00     0.049 A 
ATOM     40  N   UNL A   1      41.233  29.836  31.345  1.00  0.00    -0.248 NA
ATOM     41  C   UNL A   1      39.312  28.669  31.931  1.00  0.00     0.031 C 
ATOM     42  C   UNL A   1      39.884  28.122  27.222  1.00  0.00     0.029 A 
ATOM     43  N   UNL A   1      41.540  27.897  28.679  1.00  0.00    -0.354 N 
ATOM     44  C   UNL A   1      41.300  29.498  32.696  1.00  0.00     0.074 A 
ATOM     45  C   UNL A   1      40.038  28.884  33.029  1.00  0.00     0.031 C 
ATOM     46  C   UNL A   1      40.686  27.134  26.763  1.00  0.00     0.029 A 
ATOM     47  C   UNL A   1      41.777  26.937  27.701  1.00  0.00     0.049 A 
ATOM     48  H   UNL A   1      42.185  28.106  29.393  1.00  0.00     0.167 HD
ATOM     49  C   UNL A   1      42.451  29.575  33.421  1.00  0.00     0.034 A 
ATOM     50  C   UNL A   1      42.760  26.004  27.716  1.00  0.00     0.034 A 
ATOM     51  C   UNL A   1      43.470  30.342  32.767  1.00  0.00     0.049 A 
ATOM     52  C   UNL A   1      43.823  26.508  28.615  1.00  0.00     0.074 A 
ATOM     53  C   UNL A   1      43.595  31.646  32.334  1.00  0.00     0.029 A 
ATOM     54  N   UNL A   1      44.489  29.647  32.166  1.00  0.00    -0.354 N 
ATOM     55  N   UNL A   1      44.560  27.552  28.361  1.00  0.00    -0.248 NA
ATOM     56  C   UNL A   1      43.845  26.043  29.992  1.00  0.00     0.031 C 
ATOM     57  C   UNL A   1      44.368  31.563  31.139  1.00  0.00     0.029 A 
ATOM     58  C   UNL A   1      44.682  30.218  30.937  1.00  0.00     0.049 A 
ATOM     59  H   UNL A   1      44.985  28.886  32.545  1.00  0.00     0.167 HD
ATOM     60  C   UNL A   1      44.795  28.124  29.603  1.00  0.00     0.074 A 
ATOM     61  C   UNL A   1      44.442  27.088  30.570  1.00  0.00     0.031 C 
ATOM     62  C   UNL A   1      44.983  29.469  29.737  1.00  0.00     0.034 A 
BRANCH  49  63
ATOM     63  C   UNL A   1      42.772  28.703  34.605  1.00  0.00     0.023 A 
ATOM     64  C   UNL A   1      43.234  29.318  35.789  1.00  0.00     0.012 A 
ATOM     65  C   UNL A   1      42.892  27.299  34.514  1.00  0.00     0.148 A 
ATOM     66  C   UNL A   1      43.795  28.569  36.830  1.00  0.00     0.002 A 
ATOM     67  C   UNL A   1      43.384  26.553  35.580  1.00  0.00     0.091 A 
ATOM     68  F   UNL A   1      42.650  26.690  33.346  1.00  0.00    -0.205 F 
ATOM     69  C   UNL A   1      43.858  27.185  36.732  1.00  0.00     0.022 A 
BRANCH  67  70
ATOM     70  S   UNL A   1      43.441  24.760  35.512  1.00  0.00     0.127 S 
ATOM     71  O   UNL A   1      42.019  24.429  35.390  1.00  0.00    -0.237 OA
ATOM     72  O   UNL A   1      44.231  24.530  34.298  1.00  0.00    -0.237 OA
ATOM     73  O   UNL A   1      44.098  24.350  36.737  1.00  0.00    -0.744 OA
ENDBRANCH  67  70
ENDBRANCH  49  63
BRANCH  50  74
ATOM     74  C   UNL A   1      42.771  24.610  27.205  1.00  0.00     0.023 A 
ATOM     75  C   UNL A   1      41.570  23.868  27.213  1.00  0.00     0.012 A 
ATOM     76  C   UNL A   1      43.852  24.105  26.449  1.00  0.00     0.148 A 
ATOM     77  C   UNL A   1      41.429  22.703  26.450  1.00  0.00     0.002 A 
ATOM     78  C   UNL A   1      43.713  22.935  25.704  1.00  0.00     0.091 A 
ATOM     79  F   UNL A   1      44.984  24.815  26.373  1.00  0.00    -0.205 F 
ATOM     80  C   UNL A   1      42.497  22.242  25.687  1.00  0.00     0.022 A 
BRANCH  78  81
ATOM     81  S   UNL A   1      45.056  22.289  24.697  1.00  0.00     0.127 S 
ATOM     82  O   UNL A   1      45.350  23.418  23.813  1.00  0.00    -0.237 OA
ATOM     83  O   UNL A   1      46.081  22.012  25.699  1.00  0.00    -0.237 OA
ATOM     84  O   UNL A   1      44.503  21.127  24.011  1.00  0.00    -0.744 OA
ENDBRANCH  78  81
ENDBRANCH  50  74
BRANCH  62  85
ATOM     85  C   UNL A   1      45.203  30.285  28.491  1.00  0.00     0.023 A 
ATOM     86  C   UNL A   1      44.123  30.769  27.724  1.00  0.00     0.012 A 
ATOM     87  C   UNL A   1      46.501  30.747  28.212  1.00  0.00     0.148 A 
ATOM     88  C   UNL A   1      44.333  31.687  26.693  1.00  0.00     0.002 A 
ATOM     89  C   UNL A   1      46.701  31.691  27.214  1.00  0.00     0.091 A 
ATOM     90  F   UNL A   1      47.510  30.286  28.966  1.00  0.00    -0.205 F 
ATOM     91  C   UNL A   1      45.621  32.159  26.447  1.00  0.00     0.022 A 
BRANCH  89  92
ATOM     92  S   UNL A   1      48.306  32.437  26.917  1.00  0.00     0.127 S 
ATOM     93  O   UNL A   1      48.009  33.392  25.852  1.00  0.00    -0.237 OA
ATOM     94  O   UNL A   1      48.608  33.044  28.215  1.00  0.00    -0.237 OA
ATOM     95  O   UNL A   1      49.199  31.348  26.544  1.00  0.00    -0.744 OA
ENDBRANCH  89  92
ENDBRANCH  62  85
ENDBRANCH  36  37
ENDBRANCH  28  31
ENDBRANCH  26  27
ENDBRANCH  25  26
ENDBRANCH   1  25
TORSDOF 17
ENDMDL
MODEL 3
REMARK VINA RESULT:     -13.0      3.134      7.322
REMARK SMILES Cc1ccn2c([C@@H]3CCCC[C@@H]3C(=O)NCCCCCCNC(=O)c3ccc(-c4c5nc(c(-c6cccc(S(=O)(=O)[O-])c6F)c6ccc([nH]6)c(-c6cccc(S(=O)(=O)[O-])c6F)c6nc(c(-c7cccc(S(=O)(=O)[O-])c7F)c7ccc4[nH]7)C=C6)C=C5)cc3)nnc2c1
REMARK SMILES IDX 19 1 18 2 17 3 16 4 15 5 13 6 14 7 12 9 7 10 8 11 9 12 11 13
REMARK SMILES IDX 10 14 6 15 1 16 2 17 3 18 91 19 4 20 90 21 5 22 89 23 88 24
REMARK SMILES IDX 20 25 21 26 22 27 23 28 24 30 25 31 26 32 87 33 27 34 86 35
REMARK SMILES IDX 28 36 29 37 30 38 80 39 31 40 85 41 79 42 81 43 32 44 84 45
REMARK SMILES IDX 78 46 77 47 33 49 65 50 45 51 64 52 46 53 49 54 63 55 82 56
REMARK SMILES IDX 47 57 48 58 62 60 83 61 50 62 34 63 35 64 43 65 36 66 38 67
REMARK SMILES IDX 44 68 37 69 39 70 40 71 41 72 42 73 66 74 67 75 75 76 68 77
REMARK SMILES IDX 70 78 76 79 69 80 71 81 72 82 73 83 74 84 51 85 52 86 60 87
REMARK SMILES IDX 53 88 55 89 61 90 54 91 56 92 57 93 58 94 59 95
REMARK H PARENT 15 8 22 29 81 48 49 59
REMARK Flexibility Score: inf
ROOT
ATOM      1  C   UNL A   1      36.151  23.309  23.718  1.00  0.00     0.002 C 
ENDROOT
BRANCH   1   2
ATOM      2  C   UNL A   1      34.839  24.089  23.854  1.00  0.00     0.002 C 
BRANCH   2   3
ATOM      3  C   UNL A   1      34.686  24.909  25.140  1.00  0.00     0.021 C 
BRANCH   3   4
ATOM      4  C   UNL A   1      34.032  26.280  24.971  1.00  0.00     0.116 C 
BRANCH   4   5
ATOM      5  N   UNL A   1      33.393  26.413  23.674  1.00  0.00    -0.356 N 
ATOM      6  C   UNL A   1      32.195  26.950  23.329  1.00  0.00     0.223 C 
ATOM      7  O   UNL A   1      31.882  26.918  22.137  1.00  0.00    -0.275 OA
ATOM      8  H   UNL A   1      33.916  26.054  22.920  1.00  0.00     0.163 HD
BRANCH   6   9
ATOM      9  C   UNL A   1      31.269  27.529  24.391  1.00  0.00     0.089 C 
ATOM     10  C   UNL A   1      30.173  26.546  24.851  1.00  0.00     0.071 C 
ATOM     11  C   UNL A   1      29.056  26.324  23.827  1.00  0.00     0.012 C 
ATOM     12  C   UNL A   1      28.448  27.656  23.386  1.00  0.00     0.001 C 
ATOM     13  C   UNL A   1      30.646  28.834  23.858  1.00  0.00     0.014 C 
ATOM     14  C   UNL A   1      29.503  28.624  22.862  1.00  0.00     0.001 C 
BRANCH  10  15
ATOM     15  C   UNL A   1      30.688  25.292  25.502  1.00  0.00     0.141 A 
ATOM     16  C   UNL A   1      32.720  20.288  23.985  1.00  0.00     0.044 C 
ATOM     17  C   UNL A   1      32.119  21.605  24.376  1.00  0.00    -0.046 A 
ATOM     18  C   UNL A   1      31.585  22.437  23.301  1.00  0.00     0.022 A 
ATOM     19  C   UNL A   1      32.078  22.036  25.654  1.00  0.00     0.053 A 
ATOM     20  C   UNL A   1      31.080  23.649  23.588  1.00  0.00     0.095 A 
ATOM     21  C   UNL A   1      31.536  23.316  25.958  1.00  0.00     0.161 A 
ATOM     22  N   UNL A   1      31.073  24.101  24.907  1.00  0.00    -0.286 N 
ATOM     23  N   UNL A   1      31.391  23.957  27.093  1.00  0.00    -0.130 NA
ATOM     24  N   UNL A   1      30.863  25.187  26.810  1.00  0.00    -0.134 NA
ENDBRANCH  10  15
ENDBRANCH   6   9
ENDBRANCH   4   5
ENDBRANCH   3   4
ENDBRANCH   2   3
ENDBRANCH   1   2
BRANCH   1  25
ATOM     25  C   UNL A   1      36.257  22.032  24.566  1.00  0.00     0.021 C 
BRANCH  25  26
ATOM     26  C   UNL A   1      36.995  22.210  25.893  1.00  0.00     0.116 C 
BRANCH  26  27
ATOM     27  N   UNL A   1      38.249  21.490  25.942  1.00  0.00    -0.352 N 
ATOM     28  C   UNL A   1      39.508  21.752  26.402  1.00  0.00     0.251 C 
ATOM     29  H   UNL A   1      38.177  20.590  25.549  1.00  0.00     0.163 HD
ATOM     30  O   UNL A   1      40.310  20.820  26.294  1.00  0.00    -0.269 OA
BRANCH  28  31
ATOM     31  C   UNL A   1      39.978  23.045  26.977  1.00  0.00     0.039 A 
ATOM     32  C   UNL A   1      41.031  23.208  27.879  1.00  0.00     0.014 A 
ATOM     33  C   UNL A   1      39.266  24.191  26.572  1.00  0.00     0.014 A 
ATOM     34  C   UNL A   1      41.335  24.469  28.391  1.00  0.00     0.010 A 
ATOM     35  C   UNL A   1      39.570  25.453  27.076  1.00  0.00     0.010 A 
ATOM     36  C   UNL A   1      40.590  25.589  28.011  1.00  0.00    -0.014 A 
BRANCH  36  37
ATOM     37  C   UNL A   1      40.971  26.888  28.564  1.00  0.00     0.031 A 
ATOM     38  C   UNL A   1      42.270  27.447  28.084  1.00  0.00     0.074 A 
ATOM     39  C   UNL A   1      40.184  27.627  29.372  1.00  0.00     0.049 A 
ATOM     40  N   UNL A   1      43.338  27.695  28.775  1.00  0.00    -0.248 NA
ATOM     41  C   UNL A   1      42.418  27.686  26.641  1.00  0.00     0.031 C 
ATOM     42  C   UNL A   1      38.780  27.401  29.722  1.00  0.00     0.029 A 
ATOM     43  N   UNL A   1      40.461  28.827  29.960  1.00  0.00    -0.354 N 
ATOM     44  C   UNL A   1      44.230  28.302  27.892  1.00  0.00     0.074 A 
ATOM     45  C   UNL A   1      43.663  28.163  26.574  1.00  0.00     0.031 C 
ATOM     46  C   UNL A   1      38.266  28.537  30.246  1.00  0.00     0.029 A 
ATOM     47  C   UNL A   1      39.333  29.511  30.399  1.00  0.00     0.049 A 
ATOM     48  H   UNL A   1      41.375  29.177  30.063  1.00  0.00     0.167 HD
ATOM     49  C   UNL A   1      45.294  29.043  28.310  1.00  0.00     0.034 A 
ATOM     50  C   UNL A   1      39.283  30.809  30.787  1.00  0.00     0.034 A 
ATOM     51  C   UNL A   1      45.593  28.853  29.699  1.00  0.00     0.049 A 
ATOM     52  C   UNL A   1      40.657  31.197  31.179  1.00  0.00     0.074 A 
ATOM     53  C   UNL A   1      45.963  27.784  30.489  1.00  0.00     0.029 A 
ATOM     54  N   UNL A   1      45.206  29.844  30.565  1.00  0.00    -0.354 N 
ATOM     55  N   UNL A   1      41.284  30.717  32.215  1.00  0.00    -0.248 NA
ATOM     56  C   UNL A   1      41.488  31.886  30.206  1.00  0.00     0.031 C 
ATOM     57  C   UNL A   1      45.324  28.016  31.742  1.00  0.00     0.029 A 
ATOM     58  C   UNL A   1      44.629  29.223  31.640  1.00  0.00     0.049 A 
ATOM     59  H   UNL A   1      45.320  30.813  30.438  1.00  0.00     0.167 HD
ATOM     60  C   UNL A   1      42.614  30.666  31.825  1.00  0.00     0.074 A 
ATOM     61  C   UNL A   1      42.694  31.511  30.638  1.00  0.00     0.031 C 
ATOM     62  C   UNL A   1      43.463  29.724  32.331  1.00  0.00     0.034 A 
BRANCH  49  63
ATOM     63  C   UNL A   1      45.897  30.181  27.532  1.00  0.00     0.023 A 
ATOM     64  C   UNL A   1      47.300  30.343  27.553  1.00  0.00     0.012 A 
ATOM     65  C   UNL A   1      45.130  31.244  27.007  1.00  0.00     0.148 A 
ATOM     66  C   UNL A   1      47.908  31.511  27.079  1.00  0.00     0.002 A 
ATOM     67  C   UNL A   1      45.743  32.372  26.472  1.00  0.00     0.091 A 
ATOM     68  F   UNL A   1      43.798  31.224  27.140  1.00  0.00    -0.205 F 
ATOM     69  C   UNL A   1      47.130  32.521  26.526  1.00  0.00     0.022 A 
BRANCH  67  70
ATOM     70  S   UNL A   1      44.778  33.679  25.708  1.00  0.00     0.127 S 
ATOM     71  O   UNL A   1      44.091  34.249  26.868  1.00  0.00    -0.237 OA
ATOM     72  O   UNL A   1      45.825  34.530  25.135  1.00  0.00    -0.237 OA
ATOM     73  O   UNL A   1      43.946  33.015  24.724  1.00  0.00    -0.744 OA
ENDBRANCH  67  70
ENDBRANCH  49  63
BRANCH  50  74
ATOM     74  C   UNL A   1      38.203  31.817  30.636  1.00  0.00     0.023 A 
ATOM     75  C   UNL A   1      37.484  31.874  29.423  1.00  0.00     0.012 A 
ATOM     76  C   UNL A   1      37.677  32.513  31.747  1.00  0.00     0.148 A 
ATOM     77  C   UNL A   1      36.259  32.544  29.334  1.00  0.00     0.002 A 
ATOM     78  C   UNL A   1      36.464  33.194  31.650  1.00  0.00     0.091 A 
ATOM     79  F   UNL A   1      38.304  32.429  32.927  1.00  0.00    -0.205 F 
ATOM     80  C   UNL A   1      35.744  33.195  30.450  1.00  0.00     0.022 A 
BRANCH  78  81
ATOM     81  S   UNL A   1      35.746  34.053  33.057  1.00  0.00     0.127 S 
ATOM     82  O   UNL A   1      35.467  32.953  33.981  1.00  0.00    -0.237 OA
ATOM     83  O   UNL A   1      36.837  34.934  33.465  1.00  0.00    -0.237 OA
ATOM     84  O   UNL A   1      34.552  34.712  32.541  1.00  0.00    -0.744 OA
ENDBRANCH  78  81
ENDBRANCH  50  74
BRANCH  62  85
ATOM     85  C   UNL A   1      43.006  28.918  33.519  1.00  0.00     0.023 A 
ATOM     86  C   UNL A   1      42.035  27.902  33.393  1.00  0.00     0.012 A 
ATOM     87  C   UNL A   1      43.715  29.041  34.725  1.00  0.00     0.148 A 
ATOM     88  C   UNL A   1      41.770  27.033  34.453  1.00  0.00     0.002 A 
ATOM     89  C   UNL A   1      43.478  28.148  35.763  1.00  0.00     0.091 A 
ATOM     90  F   UNL A   1      44.646  30.003  34.816  1.00  0.00    -0.205 F 
ATOM     91  C   UNL A   1      42.502  27.147  35.633  1.00  0.00     0.022 A 
BRANCH  89  92
ATOM     92  S   UNL A   1      44.461  28.152  37.265  1.00  0.00     0.127 S 
ATOM     93  O   UNL A   1      44.183  29.478  37.811  1.00  0.00    -0.237 OA
ATOM     94  O   UNL A   1      43.872  27.044  38.020  1.00  0.00    -0.237 OA
ATOM     95  O   UNL A   1      45.839  27.928  36.850  1.00  0.00    -0.744 OA
ENDBRANCH  89  92
ENDBRANCH  62  85
ENDBRANCH  36  37
ENDBRANCH  28  31
ENDBRANCH  26  27
ENDBRANCH  25  26
ENDBRANCH   1  25
TORSDOF 17
ENDMDL
