MODEL 1
REMARK VINA RESULT:     -11.1      0.000      0.000
REMARK SMILES CCN(CC)C(=O)COc1cc(C)ccc1C(=O)NCCCCCCNC(=O)c1ccc(-c2c3nc(c(-c4cccc(S(=O)(=O)[O-])c4F)c4ccc([nH]4)c(-c4cccc(S(=O)(=O)[O-])c4F)c4nc(c(-c5cccc(S(=O)(=O)[O-])c5F)c5ccc2[nH]5)C=C4)C=C3)cc1
REMARK SMILES IDX 22 1 21 2 20 3 19 4 17 5 18 6 16 8 10 9 11 10 12 11 15 12
REMARK SMILES IDX 13 13 14 14 9 15 8 16 6 17 3 18 7 19 2 20 1 21 4 22 5 23
REMARK SMILES IDX 23 24 24 25 25 26 26 27 27 28 28 30 29 31 30 32 91 33 31 34
REMARK SMILES IDX 90 35 32 36 33 37 34 38 84 39 35 40 89 41 83 42 85 43 36 44
REMARK SMILES IDX 88 45 82 46 81 47 37 49 69 50 49 51 68 52 50 53 53 54 67 55
REMARK SMILES IDX 86 56 51 57 52 58 66 60 87 61 54 62 38 63 39 64 47 65 40 66
REMARK SMILES IDX 42 67 48 68 41 69 43 70 44 71 45 72 46 73 70 74 71 75 79 76
REMARK SMILES IDX 72 77 74 78 80 79 73 80 75 81 76 82 77 83 78 84 55 85 56 86
REMARK SMILES IDX 64 87 57 88 59 89 65 90 58 91 60 92 61 93 62 94 63 95
REMARK H PARENT 19 7 26 29 85 48 53 59
REMARK Flexibility Score: inf
ROOT
ATOM      1  C   UNL A   1      35.566  23.716  24.745  1.00  0.00     0.002 C 
ENDROOT
BRANCH   1   2
ATOM      2  C   UNL A   1      34.723  24.550  25.721  1.00  0.00     0.021 C 
BRANCH   2   3
ATOM      3  C   UNL A   1      34.145  25.836  25.120  1.00  0.00     0.116 C 
BRANCH   3   4
ATOM      4  N   UNL A   1      33.703  26.723  26.170  1.00  0.00    -0.352 N 
ATOM      5  C   UNL A   1      32.641  27.573  26.306  1.00  0.00     0.255 C 
ATOM      6  O   UNL A   1      32.609  28.206  27.368  1.00  0.00    -0.269 OA
ATOM      7  H   UNL A   1      34.293  26.713  26.958  1.00  0.00     0.163 HD
BRANCH   5   8
ATOM      8  C   UNL A   1      31.494  27.744  25.353  1.00  0.00     0.081 A 
ATOM      9  C   UNL A   1      30.587  26.781  24.875  1.00  0.00     0.133 A 
ATOM     10  C   UNL A   1      29.614  27.170  23.935  1.00  0.00     0.050 A 
ATOM     11  C   UNL A   1      29.536  28.475  23.432  1.00  0.00    -0.047 A 
ATOM     12  C   UNL A   1      31.419  29.050  24.812  1.00  0.00     0.018 A 
ATOM     13  C   UNL A   1      28.502  28.839  22.407  1.00  0.00     0.044 C 
ATOM     14  C   UNL A   1      30.463  29.413  23.863  1.00  0.00     0.004 A 
BRANCH   9  15
ATOM     15  O   UNL A   1      30.628  25.507  25.365  1.00  0.00    -0.483 OA
BRANCH  15  16
ATOM     16  C   UNL A   1      31.047  24.441  24.530  1.00  0.00     0.329 C 
BRANCH  16  17
ATOM     17  C   UNL A   1      31.425  23.048  25.081  1.00  0.00     0.260 C 
ATOM     18  N   UNL A   1      31.877  22.050  24.226  1.00  0.00    -0.340 N 
ATOM     19  O   UNL A   1      31.342  22.852  26.298  1.00  0.00    -0.271 OA
BRANCH  18  20
ATOM     20  C   UNL A   1      32.309  20.788  24.833  1.00  0.00     0.116 C 
ATOM     21  C   UNL A   1      32.530  19.711  23.779  1.00  0.00     0.027 C 
ENDBRANCH  18  20
BRANCH  18  22
ATOM     22  C   UNL A   1      31.956  22.147  22.769  1.00  0.00     0.116 C 
ATOM     23  C   UNL A   1      33.127  23.001  22.314  1.00  0.00     0.027 C 
ENDBRANCH  18  22
ENDBRANCH  16  17
ENDBRANCH  15  16
ENDBRANCH   9  15
ENDBRANCH   5   8
ENDBRANCH   3   4
ENDBRANCH   2   3
ENDBRANCH   1   2
BRANCH   1  24
ATOM     24  C   UNL A   1      35.723  22.226  25.091  1.00  0.00     0.002 C 
BRANCH  24  25
ATOM     25  C   UNL A   1      37.060  21.824  25.718  1.00  0.00     0.021 C 
BRANCH  25  26
ATOM     26  C   UNL A   1      38.252  22.575  25.140  1.00  0.00     0.116 C 
BRANCH  26  27
ATOM     27  N   UNL A   1      39.487  22.329  25.861  1.00  0.00    -0.352 N 
ATOM     28  C   UNL A   1      40.361  23.210  26.482  1.00  0.00     0.251 C 
ATOM     29  H   UNL A   1      39.747  21.382  25.921  1.00  0.00     0.163 HD
ATOM     30  O   UNL A   1      41.450  22.803  26.816  1.00  0.00    -0.269 OA
BRANCH  28  31
ATOM     31  C   UNL A   1      39.905  24.585  26.835  1.00  0.00     0.039 A 
ATOM     32  C   UNL A   1      40.598  25.664  26.266  1.00  0.00     0.014 A 
ATOM     33  C   UNL A   1      38.961  24.819  27.830  1.00  0.00     0.014 A 
ATOM     34  C   UNL A   1      40.520  26.928  26.852  1.00  0.00     0.010 A 
ATOM     35  C   UNL A   1      38.944  26.041  28.466  1.00  0.00     0.010 A 
ATOM     36  C   UNL A   1      39.772  27.075  28.014  1.00  0.00    -0.014 A 
BRANCH  36  37
ATOM     37  C   UNL A   1      39.837  28.226  28.899  1.00  0.00     0.031 A 
ATOM     38  C   UNL A   1      38.946  29.382  28.702  1.00  0.00     0.074 A 
ATOM     39  C   UNL A   1      40.576  28.118  30.025  1.00  0.00     0.049 A 
ATOM     40  N   UNL A   1      39.143  30.544  29.225  1.00  0.00    -0.248 NA
ATOM     41  C   UNL A   1      37.762  29.316  27.859  1.00  0.00     0.031 C 
ATOM     42  C   UNL A   1      40.461  28.922  31.235  1.00  0.00     0.029 A 
ATOM     43  N   UNL A   1      41.741  27.370  30.216  1.00  0.00    -0.354 N 
ATOM     44  C   UNL A   1      37.998  31.287  29.028  1.00  0.00     0.074 A 
ATOM     45  C   UNL A   1      37.211  30.509  28.099  1.00  0.00     0.031 C 
ATOM     46  C   UNL A   1      41.618  28.848  31.910  1.00  0.00     0.029 A 
ATOM     47  C   UNL A   1      42.560  28.135  31.064  1.00  0.00     0.049 A 
ATOM     48  H   UNL A   1      41.947  26.486  29.835  1.00  0.00     0.167 HD
ATOM     49  C   UNL A   1      37.787  32.394  29.796  1.00  0.00     0.034 A 
ATOM     50  C   UNL A   1      43.811  28.566  30.731  1.00  0.00     0.034 A 
ATOM     51  C   UNL A   1      38.925  32.630  30.696  1.00  0.00     0.049 A 
ATOM     52  C   UNL A   1      43.965  30.070  30.823  1.00  0.00     0.074 A 
ATOM     53  C   UNL A   1      39.142  32.319  32.029  1.00  0.00     0.029 A 
ATOM     54  N   UNL A   1      40.150  33.037  30.182  1.00  0.00    -0.354 N 
ATOM     55  N   UNL A   1      42.968  30.895  30.987  1.00  0.00    -0.248 NA
ATOM     56  C   UNL A   1      45.241  30.770  30.710  1.00  0.00     0.031 C 
ATOM     57  C   UNL A   1      40.525  32.475  32.298  1.00  0.00     0.029 A 
ATOM     58  C   UNL A   1      41.145  32.906  31.137  1.00  0.00     0.049 A 
ATOM     59  H   UNL A   1      40.290  33.371  29.267  1.00  0.00     0.167 HD
ATOM     60  C   UNL A   1      43.406  32.188  30.878  1.00  0.00     0.074 A 
ATOM     61  C   UNL A   1      44.850  32.056  30.781  1.00  0.00     0.031 C 
ATOM     62  C   UNL A   1      42.531  33.240  30.819  1.00  0.00     0.034 A 
BRANCH  49  63
ATOM     63  C   UNL A   1      36.445  33.088  30.002  1.00  0.00     0.023 A 
ATOM     64  C   UNL A   1      35.917  33.809  28.903  1.00  0.00     0.012 A 
ATOM     65  C   UNL A   1      35.690  33.157  31.193  1.00  0.00     0.148 A 
ATOM     66  C   UNL A   1      34.799  34.643  29.009  1.00  0.00     0.002 A 
ATOM     67  C   UNL A   1      34.610  34.039  31.323  1.00  0.00     0.091 A 
ATOM     68  F   UNL A   1      35.940  32.308  32.191  1.00  0.00    -0.205 F 
ATOM     69  C   UNL A   1      34.169  34.792  30.233  1.00  0.00     0.022 A 
BRANCH  67  70
ATOM     70  S   UNL A   1      33.779  34.326  32.897  1.00  0.00     0.127 S 
ATOM     71  O   UNL A   1      32.712  35.255  32.517  1.00  0.00    -0.237 OA
ATOM     72  O   UNL A   1      33.319  32.988  33.259  1.00  0.00    -0.237 OA
ATOM     73  O   UNL A   1      34.782  34.906  33.784  1.00  0.00    -0.744 OA
ENDBRANCH  67  70
ENDBRANCH  49  63
BRANCH  50  74
ATOM     74  C   UNL A   1      44.523  27.675  29.771  1.00  0.00     0.023 A 
ATOM     75  C   UNL A   1      44.823  26.366  30.220  1.00  0.00     0.012 A 
ATOM     76  C   UNL A   1      44.544  27.940  28.390  1.00  0.00     0.148 A 
ATOM     77  C   UNL A   1      45.017  25.322  29.315  1.00  0.00     0.002 A 
ATOM     78  C   UNL A   1      44.737  26.890  27.492  1.00  0.00     0.091 A 
ATOM     79  F   UNL A   1      44.294  29.187  27.973  1.00  0.00    -0.205 F 
ATOM     80  C   UNL A   1      44.941  25.578  27.952  1.00  0.00     0.022 A 
BRANCH  78  81
ATOM     81  S   UNL A   1      44.589  27.128  25.715  1.00  0.00     0.127 S 
ATOM     82  O   UNL A   1      44.249  25.782  25.267  1.00  0.00    -0.237 OA
ATOM     83  O   UNL A   1      43.504  28.103  25.617  1.00  0.00    -0.237 OA
ATOM     84  O   UNL A   1      45.886  27.642  25.301  1.00  0.00    -0.744 OA
ENDBRANCH  78  81
ENDBRANCH  50  74
BRANCH  62  85
ATOM     85  C   UNL A   1      42.875  34.675  30.452  1.00  0.00     0.023 A 
ATOM     86  C   UNL A   1      43.459  35.570  31.369  1.00  0.00     0.012 A 
ATOM     87  C   UNL A   1      42.763  35.130  29.111  1.00  0.00     0.148 A 
ATOM     88  C   UNL A   1      43.867  36.857  30.995  1.00  0.00     0.002 A 
ATOM     89  C   UNL A   1      43.272  36.368  28.721  1.00  0.00     0.091 A 
ATOM     90  F   UNL A   1      42.142  34.372  28.194  1.00  0.00    -0.205 F 
ATOM     91  C   UNL A   1      43.800  37.247  29.665  1.00  0.00     0.022 A 
BRANCH  89  92
ATOM     92  S   UNL A   1      43.411  36.790  26.978  1.00  0.00     0.127 S 
ATOM     93  O   UNL A   1      44.458  37.809  26.990  1.00  0.00    -0.237 OA
ATOM     94  O   UNL A   1      43.810  35.518  26.370  1.00  0.00    -0.237 OA
ATOM     95  O   UNL A   1      42.077  37.234  26.599  1.00  0.00    -0.744 OA
ENDBRANCH  89  92
ENDBRANCH  62  85
ENDBRANCH  36  37
ENDBRANCH  28  31
ENDBRANCH  26  27
ENDBRANCH  25  26
ENDBRANCH  24  25
ENDBRANCH   1  24
TORSDOF 21
ENDMDL
MODEL 2
REMARK VINA RESULT:     -10.7      2.028      3.418
REMARK SMILES CCN(CC)C(=O)COc1cc(C)ccc1C(=O)NCCCCCCNC(=O)c1ccc(-c2c3nc(c(-c4cccc(S(=O)(=O)[O-])c4F)c4ccc([nH]4)c(-c4cccc(S(=O)(=O)[O-])c4F)c4nc(c(-c5cccc(S(=O)(=O)[O-])c5F)c5ccc2[nH]5)C=C4)C=C3)cc1
REMARK SMILES IDX 22 1 21 2 20 3 19 4 17 5 18 6 16 8 10 9 11 10 12 11 15 12
REMARK SMILES IDX 13 13 14 14 9 15 8 16 6 17 3 18 7 19 2 20 1 21 4 22 5 23
REMARK SMILES IDX 23 24 24 25 25 26 26 27 27 28 28 30 29 31 30 32 91 33 31 34
REMARK SMILES IDX 90 35 32 36 33 37 34 38 84 39 35 40 89 41 83 42 85 43 36 44
REMARK SMILES IDX 88 45 82 46 81 47 37 49 69 50 49 51 68 52 50 53 53 54 67 55
REMARK SMILES IDX 86 56 51 57 52 58 66 60 87 61 54 62 38 63 39 64 47 65 40 66
REMARK SMILES IDX 42 67 48 68 41 69 43 70 44 71 45 72 46 73 70 74 71 75 79 76
REMARK SMILES IDX 72 77 74 78 80 79 73 80 75 81 76 82 77 83 78 84 55 85 56 86
REMARK SMILES IDX 64 87 57 88 59 89 65 90 58 91 60 92 61 93 62 94 63 95
REMARK H PARENT 19 7 26 29 85 48 53 59
REMARK Flexibility Score: inf
ROOT
ATOM      1  C   UNL A   1      34.959  23.681  26.218  1.00  0.00     0.002 C 
ENDROOT
BRANCH   1   2
ATOM      2  C   UNL A   1      34.081  24.857  25.766  1.00  0.00     0.021 C 
BRANCH   2   3
ATOM      3  C   UNL A   1      33.136  24.532  24.605  1.00  0.00     0.116 C 
BRANCH   3   4
ATOM      4  N   UNL A   1      31.764  24.551  25.057  1.00  0.00    -0.352 N 
ATOM      5  C   UNL A   1      30.941  25.529  25.540  1.00  0.00     0.255 C 
ATOM      6  O   UNL A   1      29.807  25.150  25.858  1.00  0.00    -0.269 OA
ATOM      7  H   UNL A   1      31.329  23.670  25.007  1.00  0.00     0.163 HD
BRANCH   5   8
ATOM      8  C   UNL A   1      31.241  26.996  25.637  1.00  0.00     0.081 A 
ATOM      9  C   UNL A   1      31.645  27.887  24.626  1.00  0.00     0.133 A 
ATOM     10  C   UNL A   1      31.923  29.225  24.969  1.00  0.00     0.050 A 
ATOM     11  C   UNL A   1      31.845  29.694  26.286  1.00  0.00    -0.047 A 
ATOM     12  C   UNL A   1      31.196  27.480  26.967  1.00  0.00     0.018 A 
ATOM     13  C   UNL A   1      32.181  31.119  26.612  1.00  0.00     0.044 C 
ATOM     14  C   UNL A   1      31.498  28.803  27.292  1.00  0.00     0.004 A 
BRANCH   9  15
ATOM     15  O   UNL A   1      31.709  27.461  23.330  1.00  0.00    -0.483 OA
BRANCH  15  16
ATOM     16  C   UNL A   1      30.584  27.611  22.480  1.00  0.00     0.329 C 
BRANCH  16  17
ATOM     17  C   UNL A   1      29.230  28.163  22.979  1.00  0.00     0.260 C 
ATOM     18  N   UNL A   1      28.782  29.413  22.566  1.00  0.00    -0.340 N 
ATOM     19  O   UNL A   1      28.545  27.459  23.729  1.00  0.00    -0.271 OA
BRANCH  18  20
ATOM     20  C   UNL A   1      27.446  29.826  23.004  1.00  0.00     0.116 C 
ATOM     21  C   UNL A   1      27.512  31.051  23.908  1.00  0.00     0.027 C 
ENDBRANCH  18  20
BRANCH  18  22
ATOM     22  C   UNL A   1      29.531  30.355  21.737  1.00  0.00     0.116 C 
ATOM     23  C   UNL A   1      28.616  31.239  20.906  1.00  0.00     0.027 C 
ENDBRANCH  18  22
ENDBRANCH  16  17
ENDBRANCH  15  16
ENDBRANCH   9  15
ENDBRANCH   5   8
ENDBRANCH   3   4
ENDBRANCH   2   3
ENDBRANCH   1   2
BRANCH   1  24
ATOM     24  C   UNL A   1      36.445  23.758  25.827  1.00  0.00     0.002 C 
BRANCH  24  25
ATOM     25  C   UNL A   1      37.223  22.443  25.905  1.00  0.00     0.021 C 
BRANCH  25  26
ATOM     26  C   UNL A   1      38.639  22.540  25.350  1.00  0.00     0.116 C 
BRANCH  26  27
ATOM     27  N   UNL A   1      39.662  22.288  26.346  1.00  0.00    -0.352 N 
ATOM     28  C   UNL A   1      40.389  23.168  27.136  1.00  0.00     0.251 C 
ATOM     29  H   UNL A   1      39.875  21.337  26.486  1.00  0.00     0.163 HD
ATOM     30  O   UNL A   1      41.358  22.747  27.726  1.00  0.00    -0.269 OA
BRANCH  28  31
ATOM     31  C   UNL A   1      39.901  24.561  27.342  1.00  0.00     0.039 A 
ATOM     32  C   UNL A   1      40.478  25.573  26.559  1.00  0.00     0.014 A 
ATOM     33  C   UNL A   1      39.049  24.899  28.388  1.00  0.00     0.014 A 
ATOM     34  C   UNL A   1      40.394  26.903  26.970  1.00  0.00     0.010 A 
ATOM     35  C   UNL A   1      39.032  26.198  28.847  1.00  0.00     0.010 A 
ATOM     36  C   UNL A   1      39.757  27.187  28.172  1.00  0.00    -0.014 A 
BRANCH  36  37
ATOM     37  C   UNL A   1      39.850  28.454  28.879  1.00  0.00     0.031 A 
ATOM     38  C   UNL A   1      38.862  29.522  28.647  1.00  0.00     0.074 A 
ATOM     39  C   UNL A   1      40.729  28.547  29.901  1.00  0.00     0.049 A 
ATOM     40  N   UNL A   1      39.040  30.755  28.979  1.00  0.00    -0.248 NA
ATOM     41  C   UNL A   1      37.590  29.274  27.986  1.00  0.00     0.031 C 
ATOM     42  C   UNL A   1      40.709  29.507  30.996  1.00  0.00     0.029 A 
ATOM     43  N   UNL A   1      41.959  27.896  30.034  1.00  0.00    -0.354 N 
ATOM     44  C   UNL A   1      37.830  31.401  28.837  1.00  0.00     0.074 A 
ATOM     45  C   UNL A   1      36.991  30.458  28.135  1.00  0.00     0.031 C 
ATOM     46  C   UNL A   1      41.943  29.592  31.514  1.00  0.00     0.029 A 
ATOM     47  C   UNL A   1      42.820  28.816  30.654  1.00  0.00     0.049 A 
ATOM     48  H   UNL A   1      42.177  26.979  29.751  1.00  0.00     0.167 HD
ATOM     49  C   UNL A   1      37.638  32.593  29.471  1.00  0.00     0.034 A 
ATOM     50  C   UNL A   1      43.987  29.260  30.104  1.00  0.00     0.034 A 
ATOM     51  C   UNL A   1      38.860  33.015  30.173  1.00  0.00     0.049 A 
ATOM     52  C   UNL A   1      44.044  30.769  29.971  1.00  0.00     0.074 A 
ATOM     53  C   UNL A   1      39.262  32.908  31.495  1.00  0.00     0.029 A 
ATOM     54  N   UNL A   1      39.979  33.409  29.450  1.00  0.00    -0.354 N 
ATOM     55  N   UNL A   1      43.019  31.555  30.153  1.00  0.00    -0.248 NA
ATOM     56  C   UNL A   1      45.243  31.512  29.597  1.00  0.00     0.031 C 
ATOM     57  C   UNL A   1      40.653  33.174  31.553  1.00  0.00     0.029 A 
ATOM     58  C   UNL A   1      41.092  33.467  30.273  1.00  0.00     0.049 A 
ATOM     59  H   UNL A   1      39.981  33.616  28.487  1.00  0.00     0.167 HD
ATOM     60  C   UNL A   1      43.349  32.841  29.815  1.00  0.00     0.074 A 
ATOM     61  C   UNL A   1      44.775  32.772  29.545  1.00  0.00     0.031 C 
ATOM     62  C   UNL A   1      42.400  33.825  29.731  1.00  0.00     0.034 A 
BRANCH  49  63
ATOM     63  C   UNL A   1      36.286  33.238  29.759  1.00  0.00     0.023 A 
ATOM     64  C   UNL A   1      35.624  33.856  28.671  1.00  0.00     0.012 A 
ATOM     65  C   UNL A   1      35.642  33.355  31.009  1.00  0.00     0.148 A 
ATOM     66  C   UNL A   1      34.478  34.644  28.829  1.00  0.00     0.002 A 
ATOM     67  C   UNL A   1      34.534  34.193  31.184  1.00  0.00     0.091 A 
ATOM     68  F   UNL A   1      36.026  32.588  32.031  1.00  0.00    -0.205 F 
ATOM     69  C   UNL A   1      33.955  34.848  30.094  1.00  0.00     0.022 A 
BRANCH  67  70
ATOM     70  S   UNL A   1      33.837  34.550  32.808  1.00  0.00     0.127 S 
ATOM     71  O   UNL A   1      32.801  35.536  32.489  1.00  0.00    -0.237 OA
ATOM     72  O   UNL A   1      33.326  33.247  33.225  1.00  0.00    -0.237 OA
ATOM     73  O   UNL A   1      34.932  35.080  33.612  1.00  0.00    -0.744 OA
ENDBRANCH  67  70
ENDBRANCH  49  63
BRANCH  50  74
ATOM     74  C   UNL A   1      44.635  28.280  29.186  1.00  0.00     0.023 A 
ATOM     75  C   UNL A   1      44.209  28.295  27.836  1.00  0.00     0.012 A 
ATOM     76  C   UNL A   1      45.858  27.664  29.504  1.00  0.00     0.148 A 
ATOM     77  C   UNL A   1      45.033  27.820  26.816  1.00  0.00     0.002 A 
ATOM     78  C   UNL A   1      46.677  27.192  28.477  1.00  0.00     0.091 A 
ATOM     79  F   UNL A   1      46.240  27.621  30.786  1.00  0.00    -0.205 F 
ATOM     80  C   UNL A   1      46.281  27.299  27.134  1.00  0.00     0.022 A 
BRANCH  78  81
ATOM     81  S   UNL A   1      48.331  26.564  28.803  1.00  0.00     0.127 S 
ATOM     82  O   UNL A   1      48.782  26.217  27.459  1.00  0.00    -0.237 OA
ATOM     83  O   UNL A   1      48.997  27.723  29.397  1.00  0.00    -0.237 OA
ATOM     84  O   UNL A   1      48.132  25.457  29.727  1.00  0.00    -0.744 OA
ENDBRANCH  78  81
ENDBRANCH  50  74
BRANCH  62  85
ATOM     85  C   UNL A   1      42.594  35.210  29.133  1.00  0.00     0.023 A 
ATOM     86  C   UNL A   1      41.931  35.627  27.963  1.00  0.00     0.012 A 
ATOM     87  C   UNL A   1      43.339  36.202  29.823  1.00  0.00     0.148 A 
ATOM     88  C   UNL A   1      42.035  36.936  27.476  1.00  0.00     0.002 A 
ATOM     89  C   UNL A   1      43.349  37.529  29.396  1.00  0.00     0.091 A 
ATOM     90  F   UNL A   1      44.068  35.869  30.899  1.00  0.00    -0.205 F 
ATOM     91  C   UNL A   1      42.721  37.896  28.207  1.00  0.00     0.022 A 
BRANCH  89  92
ATOM     92  S   UNL A   1      44.025  38.823  30.448  1.00  0.00     0.127 S 
ATOM     93  O   UNL A   1      43.179  39.966  30.113  1.00  0.00    -0.237 OA
ATOM     94  O   UNL A   1      43.813  38.285  31.795  1.00  0.00    -0.237 OA
ATOM     95  O   UNL A   1      45.426  38.916  30.062  1.00  0.00    -0.744 OA
ENDBRANCH  89  92
ENDBRANCH  62  85
ENDBRANCH  36  37
ENDBRANCH  28  31
ENDBRANCH  26  27
ENDBRANCH  25  26
ENDBRANCH  24  25
ENDBRANCH   1  24
TORSDOF 21
ENDMDL
MODEL 3
REMARK VINA RESULT:     -10.4      1.549      3.295
REMARK SMILES CCN(CC)C(=O)COc1cc(C)ccc1C(=O)NCCCCCCNC(=O)c1ccc(-c2c3nc(c(-c4cccc(S(=O)(=O)[O-])c4F)c4ccc([nH]4)c(-c4cccc(S(=O)(=O)[O-])c4F)c4nc(c(-c5cccc(S(=O)(=O)[O-])c5F)c5ccc2[nH]5)C=C4)C=C3)cc1
REMARK SMILES IDX 22 1 21 2 20 3 19 4 17 5 18 6 16 8 10 9 11 10 12 11 15 12
REMARK SMILES IDX 13 13 14 14 9 15 8 16 6 17 3 18 7 19 2 20 1 21 4 22 5 23
REMARK SMILES IDX 23 24 24 25 25 26 26 27 27 28 28 30 29 31 30 32 91 33 31 34
REMARK SMILES IDX 90 35 32 36 33 37 34 38 84 39 35 40 89 41 83 42 85 43 36 44
REMARK SMILES IDX 88 45 82 46 81 47 37 49 69 50 49 51 68 52 50 53 53 54 67 55
REMARK SMILES IDX 86 56 51 57 52 58 66 60 87 61 54 62 38 63 39 64 47 65 40 66
REMARK SMILES IDX 42 67 48 68 41 69 43 70 44 71 45 72 46 73 70 74 71 75 79 76
REMARK SMILES IDX 72 77 74 78 80 79 73 80 75 81 76 82 77 83 78 84 55 85 56 86
REMARK SMILES IDX 64 87 57 88 59 89 65 90 58 91 60 92 61 93 62 94 63 95
REMARK H PARENT 19 7 26 29 85 48 53 59
REMARK Flexibility Score: inf
ROOT
ATOM      1  C   UNL A   1      34.724  24.009  26.166  1.00  0.00     0.002 C 
ENDROOT
BRANCH   1   2
ATOM      2  C   UNL A   1      33.895  25.257  25.831  1.00  0.00     0.021 C 
BRANCH   2   3
ATOM      3  C   UNL A   1      34.284  25.943  24.518  1.00  0.00     0.116 C 
BRANCH   3   4
ATOM      4  N   UNL A   1      33.621  25.303  23.406  1.00  0.00    -0.352 N 
ATOM      5  C   UNL A   1      32.508  24.517  23.293  1.00  0.00     0.255 C 
ATOM      6  O   UNL A   1      32.259  24.122  22.147  1.00  0.00    -0.269 OA
ATOM      7  H   UNL A   1      34.064  25.469  22.543  1.00  0.00     0.163 HD
BRANCH   5   8
ATOM      8  C   UNL A   1      31.536  24.166  24.381  1.00  0.00     0.081 A 
ATOM      9  C   UNL A   1      30.617  24.995  25.051  1.00  0.00     0.133 A 
ATOM     10  C   UNL A   1      29.837  24.447  26.087  1.00  0.00     0.050 A 
ATOM     11  C   UNL A   1      29.964  23.115  26.499  1.00  0.00    -0.047 A 
ATOM     12  C   UNL A   1      31.673  22.830  24.831  1.00  0.00     0.018 A 
ATOM     13  C   UNL A   1      29.133  22.581  27.629  1.00  0.00     0.044 C 
ATOM     14  C   UNL A   1      30.907  22.311  25.875  1.00  0.00     0.004 A 
BRANCH   9  15
ATOM     15  O   UNL A   1      30.458  26.292  24.654  1.00  0.00    -0.483 OA
BRANCH  15  16
ATOM     16  C   UNL A   1      29.528  26.610  23.633  1.00  0.00     0.329 C 
BRANCH  16  17
ATOM     17  C   UNL A   1      28.954  28.031  23.440  1.00  0.00     0.260 C 
ATOM     18  N   UNL A   1      29.791  29.140  23.477  1.00  0.00    -0.340 N 
ATOM     19  O   UNL A   1      27.743  28.155  23.229  1.00  0.00    -0.271 OA
BRANCH  18  20
ATOM     20  C   UNL A   1      29.189  30.446  23.190  1.00  0.00     0.116 C 
ATOM     21  C   UNL A   1      29.179  30.736  21.695  1.00  0.00     0.027 C 
ENDBRANCH  18  20
BRANCH  18  22
ATOM     22  C   UNL A   1      31.221  29.120  23.781  1.00  0.00     0.116 C 
ATOM     23  C   UNL A   1      31.521  29.688  25.158  1.00  0.00     0.027 C 
ENDBRANCH  18  22
ENDBRANCH  16  17
ENDBRANCH  15  16
ENDBRANCH   9  15
ENDBRANCH   5   8
ENDBRANCH   3   4
ENDBRANCH   2   3
ENDBRANCH   1   2
BRANCH   1  24
ATOM     24  C   UNL A   1      36.195  24.034  25.715  1.00  0.00     0.002 C 
BRANCH  24  25
ATOM     25  C   UNL A   1      36.978  22.735  25.922  1.00  0.00     0.021 C 
BRANCH  25  26
ATOM     26  C   UNL A   1      38.245  22.648  25.081  1.00  0.00     0.116 C 
BRANCH  26  27
ATOM     27  N   UNL A   1      39.419  22.288  25.853  1.00  0.00    -0.352 N 
ATOM     28  C   UNL A   1      40.312  23.079  26.561  1.00  0.00     0.251 C 
ATOM     29  H   UNL A   1      39.614  21.323  25.879  1.00  0.00     0.163 HD
ATOM     30  O   UNL A   1      41.353  22.585  26.930  1.00  0.00    -0.269 OA
BRANCH  28  31
ATOM     31  C   UNL A   1      39.928  24.464  26.957  1.00  0.00     0.039 A 
ATOM     32  C   UNL A   1      40.624  25.526  26.360  1.00  0.00     0.014 A 
ATOM     33  C   UNL A   1      39.054  24.716  28.009  1.00  0.00     0.014 A 
ATOM     34  C   UNL A   1      40.626  26.783  26.964  1.00  0.00     0.010 A 
ATOM     35  C   UNL A   1      39.118  25.929  28.660  1.00  0.00     0.010 A 
ATOM     36  C   UNL A   1      39.953  26.940  28.171  1.00  0.00    -0.014 A 
BRANCH  36  37
ATOM     37  C   UNL A   1      40.112  28.075  29.064  1.00  0.00     0.031 A 
ATOM     38  C   UNL A   1      39.208  29.235  28.980  1.00  0.00     0.074 A 
ATOM     39  C   UNL A   1      40.963  27.949  30.106  1.00  0.00     0.049 A 
ATOM     40  N   UNL A   1      39.460  30.388  29.499  1.00  0.00    -0.248 NA
ATOM     41  C   UNL A   1      37.942  29.184  28.263  1.00  0.00     0.031 C 
ATOM     42  C   UNL A   1      40.975  28.731  31.335  1.00  0.00     0.029 A 
ATOM     43  N   UNL A   1      42.140  27.197  30.163  1.00  0.00    -0.354 N 
ATOM     44  C   UNL A   1      38.302  31.134  29.434  1.00  0.00     0.074 A 
ATOM     45  C   UNL A   1      37.422  30.373  28.579  1.00  0.00     0.031 C 
ATOM     46  C   UNL A   1      42.195  28.645  31.885  1.00  0.00     0.029 A 
ATOM     47  C   UNL A   1      43.043  27.947  30.934  1.00  0.00     0.049 A 
ATOM     48  H   UNL A   1      42.303  26.319  29.747  1.00  0.00     0.167 HD
ATOM     49  C   UNL A   1      38.174  32.228  30.239  1.00  0.00     0.034 A 
ATOM     50  C   UNL A   1      44.254  28.383  30.482  1.00  0.00     0.034 A 
ATOM     51  C   UNL A   1      39.400  32.449  31.021  1.00  0.00     0.049 A 
ATOM     52  C   UNL A   1      44.420  29.886  30.582  1.00  0.00     0.074 A 
ATOM     53  C   UNL A   1      39.752  32.114  32.319  1.00  0.00     0.029 A 
ATOM     54  N   UNL A   1      40.565  32.864  30.390  1.00  0.00    -0.354 N 
ATOM     55  N   UNL A   1      43.447  30.708  30.863  1.00  0.00    -0.248 NA
ATOM     56  C   UNL A   1      45.679  30.587  30.351  1.00  0.00     0.031 C 
ATOM     57  C   UNL A   1      41.156  32.265  32.446  1.00  0.00     0.029 A 
ATOM     58  C   UNL A   1      41.654  32.716  31.234  1.00  0.00     0.049 A 
ATOM     59  H   UNL A   1      40.611  33.214  29.471  1.00  0.00     0.167 HD
ATOM     60  C   UNL A   1      43.874  32.003  30.732  1.00  0.00     0.074 A 
ATOM     61  C   UNL A   1      45.300  31.872  30.484  1.00  0.00     0.031 C 
ATOM     62  C   UNL A   1      43.000  33.055  30.781  1.00  0.00     0.034 A 
BRANCH  49  63
ATOM     63  C   UNL A   1      36.861  32.919  30.594  1.00  0.00     0.023 A 
ATOM     64  C   UNL A   1      36.376  32.740  31.913  1.00  0.00     0.012 A 
ATOM     65  C   UNL A   1      36.027  33.665  29.735  1.00  0.00     0.148 A 
ATOM     66  C   UNL A   1      35.101  33.154  32.314  1.00  0.00     0.002 A 
ATOM     67  C   UNL A   1      34.727  34.025  30.110  1.00  0.00     0.091 A 
ATOM     68  F   UNL A   1      36.503  34.124  28.576  1.00  0.00    -0.205 F 
ATOM     69  C   UNL A   1      34.258  33.761  31.399  1.00  0.00     0.022 A 
BRANCH  67  70
ATOM     70  S   UNL A   1      33.556  34.765  28.957  1.00  0.00     0.127 S 
ATOM     71  O   UNL A   1      32.431  35.101  29.833  1.00  0.00    -0.237 OA
ATOM     72  O   UNL A   1      34.297  35.918  28.452  1.00  0.00    -0.237 OA
ATOM     73  O   UNL A   1      33.252  33.734  27.971  1.00  0.00    -0.744 OA
ENDBRANCH  67  70
ENDBRANCH  49  63
BRANCH  50  74
ATOM     74  C   UNL A   1      44.862  27.509  29.438  1.00  0.00     0.023 A 
ATOM     75  C   UNL A   1      45.131  26.169  29.808  1.00  0.00     0.012 A 
ATOM     76  C   UNL A   1      44.805  27.837  28.072  1.00  0.00     0.148 A 
ATOM     77  C   UNL A   1      45.218  25.161  28.848  1.00  0.00     0.002 A 
ATOM     78  C   UNL A   1      44.892  26.822  27.118  1.00  0.00     0.091 A 
ATOM     79  F   UNL A   1      44.586  29.112  27.727  1.00  0.00    -0.205 F 
ATOM     80  C   UNL A   1      45.065  25.483  27.505  1.00  0.00     0.022 A 
BRANCH  78  81
ATOM     81  S   UNL A   1      44.640  27.150  25.367  1.00  0.00     0.127 S 
ATOM     82  O   UNL A   1      43.325  27.782  25.374  1.00  0.00    -0.237 OA
ATOM     83  O   UNL A   1      45.752  28.045  25.050  1.00  0.00    -0.237 OA
ATOM     84  O   UNL A   1      44.729  25.845  24.729  1.00  0.00    -0.744 OA
ENDBRANCH  78  81
ENDBRANCH  50  74
BRANCH  62  85
ATOM     85  C   UNL A   1      43.307  34.496  30.405  1.00  0.00     0.023 A 
ATOM     86  C   UNL A   1      43.684  35.462  31.359  1.00  0.00     0.012 A 
ATOM     87  C   UNL A   1      43.378  34.894  29.044  1.00  0.00     0.148 A 
ATOM     88  C   UNL A   1      44.064  36.759  30.993  1.00  0.00     0.002 A 
ATOM     89  C   UNL A   1      43.863  36.148  28.679  1.00  0.00     0.091 A 
ATOM     90  F   UNL A   1      42.956  34.063  28.078  1.00  0.00    -0.205 F 
ATOM     91  C   UNL A   1      44.181  37.095  29.651  1.00  0.00     0.022 A 
BRANCH  89  92
ATOM     92  S   UNL A   1      44.247  36.516  26.960  1.00  0.00     0.127 S 
ATOM     93  O   UNL A   1      45.247  35.499  26.644  1.00  0.00    -0.237 OA
ATOM     94  O   UNL A   1      42.956  36.324  26.295  1.00  0.00    -0.237 OA
ATOM     95  O   UNL A   1      44.706  37.898  26.973  1.00  0.00    -0.744 OA
ENDBRANCH  89  92
ENDBRANCH  62  85
ENDBRANCH  36  37
ENDBRANCH  28  31
ENDBRANCH  26  27
ENDBRANCH  25  26
ENDBRANCH  24  25
ENDBRANCH   1  24
TORSDOF 21
ENDMDL
