MODEL 1
REMARK VINA RESULT:     -10.8      0.000      0.000
REMARK SMILES O=C(CC[NH+]1CCC([N@H+]2CCC[C@H](C(=O)NCc3cccnc3)C2)CC1)NCCCCCCNC(=O)c1ccc(-c2c3nc(c(-c4cccc(S(=O)(=O)[O-])c4F)c4ccc([nH]4)c(-c4cccc(S(=O)(=O)[O-])c4F)c4nc(c(-c5cccc(S(=O)(=O)[O-])c5F)c5ccc2[nH]5)C=C4)C=C3)cc1
REMARK SMILES IDX 29 1 28 2 27 3 1 4 2 5 3 7 4 8 5 9 6 10 26 11 7 13 25 14
REMARK SMILES IDX 8 15 9 16 10 17 24 18 11 20 13 21 12 22 14 23 15 24 16 25
REMARK SMILES IDX 17 27 18 28 19 29 23 30 20 31 22 32 21 33 30 34 31 35 32 36
REMARK SMILES IDX 33 37 34 38 35 39 36 41 37 42 38 43 99 44 39 45 98 46 40 47
REMARK SMILES IDX 41 48 42 49 92 50 43 51 97 52 91 53 93 54 44 55 96 56 90 57
REMARK SMILES IDX 89 58 45 60 77 61 57 62 76 63 58 64 61 65 75 66 94 67 59 68
REMARK SMILES IDX 60 69 74 71 95 72 62 73 46 74 47 75 55 76 48 77 50 78 56 79
REMARK SMILES IDX 49 80 51 81 52 82 53 83 54 84 78 85 79 86 87 87 80 88 82 89
REMARK SMILES IDX 88 90 81 91 83 92 84 93 85 94 86 95 63 96 64 97 72 98 65 99
REMARK SMILES IDX 67 100 73 101 66 102 68 103 69 104 70 105 71 106
REMARK H PARENT 27 6 5 12 9 19 16 26 34 40 93 59 61 70
REMARK Flexibility Score: inf
ROOT
ATOM      1  C   UNL A   1      33.329  34.639  29.737  1.00  0.00     0.021 C 
ENDROOT
BRANCH   1   2
ATOM      2  C   UNL A   1      34.083  34.315  28.446  1.00  0.00     0.116 C 
BRANCH   2   3
ATOM      3  N   UNL A   1      33.998  32.915  28.080  1.00  0.00    -0.356 N 
ATOM      4  O   UNL A   1      36.268  32.604  27.880  1.00  0.00    -0.275 OA
ATOM      5  C   UNL A   1      35.129  32.150  27.897  1.00  0.00     0.225 C 
ATOM      6  H   UNL A   1      33.112  32.502  27.959  1.00  0.00     0.163 HD
BRANCH   5   7
ATOM      7  C   UNL A   1      34.856  30.667  27.776  1.00  0.00     0.161 C 
BRANCH   7   8
ATOM      8  C   UNL A   1      33.369  30.374  27.528  1.00  0.00     0.272 C 
BRANCH   8   9
ATOM      9  N   UNL A   1      33.167  29.107  26.803  1.00  0.00    -0.334 N 
ATOM     10  C   UNL A   1      31.815  28.563  26.998  1.00  0.00     0.268 C 
ATOM     11  C   UNL A   1      33.398  29.244  25.358  1.00  0.00     0.268 C 
ATOM     12  H   UNL A   1      33.855  28.467  27.200  1.00  0.00     0.348 HD
ATOM     13  C   UNL A   1      31.761  27.133  26.450  1.00  0.00     0.126 C 
ATOM     14  C   UNL A   1      33.498  27.851  24.745  1.00  0.00     0.126 C 
ATOM     15  C   UNL A   1      32.217  27.041  24.980  1.00  0.00     0.195 C 
BRANCH  15  16
ATOM     16  N   UNL A   1      32.455  25.681  24.438  1.00  0.00    -0.331 N 
ATOM     17  C   UNL A   1      33.140  25.626  23.148  1.00  0.00     0.262 C 
ATOM     18  C   UNL A   1      33.020  24.767  25.434  1.00  0.00     0.275 C 
ATOM     19  H   UNL A   1      31.520  25.337  24.221  1.00  0.00     0.348 HD
ATOM     20  C   UNL A   1      33.204  24.221  22.562  1.00  0.00     0.062 C 
ATOM     21  C   UNL A   1      33.198  23.322  24.956  1.00  0.00     0.133 C 
ATOM     22  C   UNL A   1      33.734  23.183  23.533  1.00  0.00     0.025 C 
BRANCH  21  23
ATOM     23  C   UNL A   1      32.073  22.343  25.299  1.00  0.00     0.229 C 
ATOM     24  O   UNL A   1      30.899  22.724  25.190  1.00  0.00    -0.275 OA
ATOM     25  N   UNL A   1      32.251  21.087  25.767  1.00  0.00    -0.352 N 
ATOM     26  H   UNL A   1      31.436  20.684  26.141  1.00  0.00     0.163 HD
BRANCH  25  27
ATOM     27  C   UNL A   1      33.406  20.224  25.824  1.00  0.00     0.153 C 
BRANCH  27  28
ATOM     28  C   UNL A   1      33.254  18.883  25.159  1.00  0.00    -0.010 A 
ATOM     29  C   UNL A   1      33.910  18.530  23.980  1.00  0.00     0.009 A 
ATOM     30  C   UNL A   1      32.556  17.867  25.815  1.00  0.00     0.116 A 
ATOM     31  C   UNL A   1      33.920  17.200  23.562  1.00  0.00     0.020 A 
ATOM     32  N   UNL A   1      32.534  16.571  25.430  1.00  0.00    -0.264 NA
ATOM     33  C   UNL A   1      33.242  16.265  24.323  1.00  0.00     0.111 A 
ENDBRANCH  27  28
ENDBRANCH  25  27
ENDBRANCH  21  23
ENDBRANCH  15  16
ENDBRANCH   8   9
ENDBRANCH   7   8
ENDBRANCH   5   7
ENDBRANCH   2   3
ENDBRANCH   1   2
BRANCH   1  34
ATOM     34  C   UNL A   1      32.957  36.116  29.919  1.00  0.00     0.002 C 
BRANCH  34  35
ATOM     35  C   UNL A   1      32.613  36.527  31.352  1.00  0.00     0.002 C 
BRANCH  35  36
ATOM     36  C   UNL A   1      33.735  37.180  32.156  1.00  0.00     0.021 C 
BRANCH  36  37
ATOM     37  C   UNL A   1      34.581  36.233  33.002  1.00  0.00     0.116 C 
BRANCH  37  38
ATOM     38  N   UNL A   1      33.845  35.049  33.426  1.00  0.00    -0.352 N 
ATOM     39  C   UNL A   1      34.116  33.726  33.194  1.00  0.00     0.251 C 
ATOM     40  H   UNL A   1      33.036  35.224  33.958  1.00  0.00     0.163 HD
ATOM     41  O   UNL A   1      33.237  32.869  33.306  1.00  0.00    -0.269 OA
BRANCH  39  42
ATOM     42  C   UNL A   1      35.452  33.278  32.790  1.00  0.00     0.039 A 
ATOM     43  C   UNL A   1      35.975  33.767  31.587  1.00  0.00     0.014 A 
ATOM     44  C   UNL A   1      36.176  32.373  33.566  1.00  0.00     0.014 A 
ATOM     45  C   UNL A   1      37.268  33.434  31.219  1.00  0.00     0.010 A 
ATOM     46  C   UNL A   1      37.501  32.131  33.258  1.00  0.00     0.010 A 
ATOM     47  C   UNL A   1      38.056  32.673  32.092  1.00  0.00    -0.014 A 
BRANCH  47  48
ATOM     48  C   UNL A   1      39.496  32.495  31.843  1.00  0.00     0.031 A 
ATOM     49  C   UNL A   1      40.483  33.399  32.508  1.00  0.00     0.074 A 
ATOM     50  C   UNL A   1      39.865  31.591  30.915  1.00  0.00     0.049 A 
ATOM     51  N   UNL A   1      41.775  33.464  32.342  1.00  0.00    -0.248 NA
ATOM     52  C   UNL A   1      39.944  34.392  33.453  1.00  0.00     0.031 C 
ATOM     53  C   UNL A   1      38.943  30.746  30.146  1.00  0.00     0.029 A 
ATOM     54  N   UNL A   1      41.101  31.250  30.436  1.00  0.00    -0.354 N 
ATOM     55  C   UNL A   1      42.198  34.533  33.121  1.00  0.00     0.074 A 
ATOM     56  C   UNL A   1      41.022  35.109  33.733  1.00  0.00     0.031 C 
ATOM     57  C   UNL A   1      39.648  29.975  29.305  1.00  0.00     0.029 A 
ATOM     58  C   UNL A   1      41.061  30.296  29.448  1.00  0.00     0.049 A 
ATOM     59  H   UNL A   1      41.937  31.650  30.768  1.00  0.00     0.167 HD
ATOM     60  C   UNL A   1      43.462  34.971  33.323  1.00  0.00     0.034 A 
ATOM     61  C   UNL A   1      42.061  29.748  28.734  1.00  0.00     0.034 A 
ATOM     62  C   UNL A   1      44.610  34.344  32.729  1.00  0.00     0.049 A 
ATOM     63  C   UNL A   1      43.462  30.186  29.046  1.00  0.00     0.074 A 
ATOM     64  C   UNL A   1      45.948  34.631  32.919  1.00  0.00     0.029 A 
ATOM     65  N   UNL A   1      44.548  33.294  31.820  1.00  0.00    -0.354 N 
ATOM     66  N   UNL A   1      43.865  31.098  29.901  1.00  0.00    -0.248 NA
ATOM     67  C   UNL A   1      44.547  29.503  28.334  1.00  0.00     0.031 C 
ATOM     68  C   UNL A   1      46.695  33.763  32.114  1.00  0.00     0.029 A 
ATOM     69  C   UNL A   1      45.823  32.920  31.438  1.00  0.00     0.049 A 
ATOM     70  H   UNL A   1      43.717  32.877  31.497  1.00  0.00     0.167 HD
ATOM     71  C   UNL A   1      45.250  31.084  29.849  1.00  0.00     0.074 A 
ATOM     72  C   UNL A   1      45.615  30.053  28.895  1.00  0.00     0.031 C 
ATOM     73  C   UNL A   1      46.142  31.860  30.513  1.00  0.00     0.034 A 
BRANCH  60  74
ATOM     74  C   UNL A   1      43.648  36.144  34.249  1.00  0.00     0.023 A 
ATOM     75  C   UNL A   1      43.795  35.922  35.635  1.00  0.00     0.012 A 
ATOM     76  C   UNL A   1      43.675  37.463  33.758  1.00  0.00     0.148 A 
ATOM     77  C   UNL A   1      43.914  36.992  36.521  1.00  0.00     0.002 A 
ATOM     78  C   UNL A   1      43.840  38.524  34.644  1.00  0.00     0.091 A 
ATOM     79  F   UNL A   1      43.507  37.662  32.444  1.00  0.00    -0.205 F 
ATOM     80  C   UNL A   1      43.944  38.291  36.025  1.00  0.00     0.022 A 
BRANCH  78  81
ATOM     81  S   UNL A   1      43.961  40.230  34.095  1.00  0.00     0.127 S 
ATOM     82  O   UNL A   1      42.643  40.444  33.501  1.00  0.00    -0.237 OA
ATOM     83  O   UNL A   1      44.186  40.944  35.353  1.00  0.00    -0.237 OA
ATOM     84  O   UNL A   1      45.084  40.272  33.168  1.00  0.00    -0.744 OA
ENDBRANCH  78  81
ENDBRANCH  60  74
BRANCH  61  85
ATOM     85  C   UNL A   1      41.758  28.677  27.743  1.00  0.00     0.023 A 
ATOM     86  C   UNL A   1      41.942  28.936  26.372  1.00  0.00     0.012 A 
ATOM     87  C   UNL A   1      41.385  27.382  28.154  1.00  0.00     0.148 A 
ATOM     88  C   UNL A   1      41.741  27.931  25.424  1.00  0.00     0.002 A 
ATOM     89  C   UNL A   1      41.238  26.372  27.209  1.00  0.00     0.091 A 
ATOM     90  F   UNL A   1      41.214  27.155  29.464  1.00  0.00    -0.205 F 
ATOM     91  C   UNL A   1      41.400  26.647  25.843  1.00  0.00     0.022 A 
BRANCH  89  92
ATOM     92  S   UNL A   1      40.943  24.659  27.668  1.00  0.00     0.127 S 
ATOM     93  O   UNL A   1      42.029  24.411  28.612  1.00  0.00    -0.237 OA
ATOM     94  O   UNL A   1      39.610  24.731  28.268  1.00  0.00    -0.237 OA
ATOM     95  O   UNL A   1      40.999  23.904  26.424  1.00  0.00    -0.744 OA
ENDBRANCH  89  92
ENDBRANCH  61  85
BRANCH  73  96
ATOM     96  C   UNL A   1      47.599  31.610  30.240  1.00  0.00     0.023 A 
ATOM     97  C   UNL A   1      48.289  30.633  30.982  1.00  0.00     0.012 A 
ATOM     98  C   UNL A   1      48.256  32.288  29.195  1.00  0.00     0.148 A 
ATOM     99  C   UNL A   1      49.624  30.350  30.704  1.00  0.00     0.002 A 
ATOM    100  C   UNL A   1      49.571  31.965  28.892  1.00  0.00     0.091 A 
ATOM    101  F   UNL A   1      47.583  33.230  28.519  1.00  0.00    -0.205 F 
ATOM    102  C   UNL A   1      50.261  31.006  29.651  1.00  0.00     0.022 A 
BRANCH 100 103
ATOM    103  S   UNL A   1      50.433  32.685  27.491  1.00  0.00     0.127 S 
ATOM    104  O   UNL A   1      50.332  34.114  27.782  1.00  0.00    -0.237 OA
ATOM    105  O   UNL A   1      51.779  32.127  27.633  1.00  0.00    -0.237 OA
ATOM    106  O   UNL A   1      49.717  32.234  26.306  1.00  0.00    -0.744 OA
ENDBRANCH 100 103
ENDBRANCH  73  96
ENDBRANCH  47  48
ENDBRANCH  39  42
ENDBRANCH  37  38
ENDBRANCH  36  37
ENDBRANCH  35  36
ENDBRANCH  34  35
ENDBRANCH   1  34
TORSDOF 22
ENDMDL
MODEL 2
REMARK VINA RESULT:     -10.6      4.368      5.523
REMARK SMILES O=C(CC[NH+]1CCC([N@H+]2CCC[C@H](C(=O)NCc3cccnc3)C2)CC1)NCCCCCCNC(=O)c1ccc(-c2c3nc(c(-c4cccc(S(=O)(=O)[O-])c4F)c4ccc([nH]4)c(-c4cccc(S(=O)(=O)[O-])c4F)c4nc(c(-c5cccc(S(=O)(=O)[O-])c5F)c5ccc2[nH]5)C=C4)C=C3)cc1
REMARK SMILES IDX 29 1 28 2 27 3 1 4 2 5 3 7 4 8 5 9 6 10 26 11 7 13 25 14
REMARK SMILES IDX 8 15 9 16 10 17 24 18 11 20 13 21 12 22 14 23 15 24 16 25
REMARK SMILES IDX 17 27 18 28 19 29 23 30 20 31 22 32 21 33 30 34 31 35 32 36
REMARK SMILES IDX 33 37 34 38 35 39 36 41 37 42 38 43 99 44 39 45 98 46 40 47
REMARK SMILES IDX 41 48 42 49 92 50 43 51 97 52 91 53 93 54 44 55 96 56 90 57
REMARK SMILES IDX 89 58 45 60 77 61 57 62 76 63 58 64 61 65 75 66 94 67 59 68
REMARK SMILES IDX 60 69 74 71 95 72 62 73 46 74 47 75 55 76 48 77 50 78 56 79
REMARK SMILES IDX 49 80 51 81 52 82 53 83 54 84 78 85 79 86 87 87 80 88 82 89
REMARK SMILES IDX 88 90 81 91 83 92 84 93 85 94 86 95 63 96 64 97 72 98 65 99
REMARK SMILES IDX 67 100 73 101 66 102 68 103 69 104 70 105 71 106
REMARK H PARENT 27 6 5 12 9 19 16 26 34 40 93 59 61 70
REMARK Flexibility Score: inf
ROOT
ATOM      1  C   UNL A   1      33.197  28.475  25.735  1.00  0.00     0.021 C 
ENDROOT
BRANCH   1   2
ATOM      2  C   UNL A   1      33.004  29.168  24.385  1.00  0.00     0.116 C 
BRANCH   2   3
ATOM      3  N   UNL A   1      31.610  29.412  24.072  1.00  0.00    -0.356 N 
ATOM      4  O   UNL A   1      31.760  28.738  21.878  1.00  0.00    -0.275 OA
ATOM      5  C   UNL A   1      31.086  29.098  22.837  1.00  0.00     0.225 C 
ATOM      6  H   UNL A   1      31.026  29.811  24.756  1.00  0.00     0.163 HD
BRANCH   5   7
ATOM      7  C   UNL A   1      29.577  29.177  22.771  1.00  0.00     0.161 C 
BRANCH   7   8
ATOM      8  C   UNL A   1      28.910  27.902  23.307  1.00  0.00     0.272 C 
BRANCH   8   9
ATOM      9  N   UNL A   1      29.897  26.868  23.667  1.00  0.00    -0.334 N 
ATOM     10  C   UNL A   1      29.608  26.250  24.969  1.00  0.00     0.268 C 
ATOM     11  C   UNL A   1      29.980  25.797  22.663  1.00  0.00     0.268 C 
ATOM     12  H   UNL A   1      30.788  27.363  23.712  1.00  0.00     0.348 HD
ATOM     13  C   UNL A   1      30.803  25.393  25.400  1.00  0.00     0.126 C 
ATOM     14  C   UNL A   1      31.231  24.969  22.934  1.00  0.00     0.126 C 
ATOM     15  C   UNL A   1      31.201  24.349  24.337  1.00  0.00     0.195 C 
BRANCH  15  16
ATOM     16  N   UNL A   1      32.497  23.655  24.535  1.00  0.00    -0.331 N 
ATOM     17  C   UNL A   1      33.488  23.854  23.480  1.00  0.00     0.262 C 
ATOM     18  C   UNL A   1      33.038  23.843  25.883  1.00  0.00     0.275 C 
ATOM     19  H   UNL A   1      32.261  22.667  24.449  1.00  0.00     0.348 HD
ATOM     20  C   UNL A   1      34.729  22.985  23.650  1.00  0.00     0.062 C 
ATOM     21  C   UNL A   1      34.329  23.069  26.174  1.00  0.00     0.133 C 
ATOM     22  C   UNL A   1      35.344  23.072  25.034  1.00  0.00     0.025 C 
BRANCH  21  23
ATOM     23  C   UNL A   1      34.174  21.716  26.872  1.00  0.00     0.229 C 
ATOM     24  O   UNL A   1      34.524  21.614  28.055  1.00  0.00    -0.275 OA
ATOM     25  N   UNL A   1      33.722  20.585  26.283  1.00  0.00    -0.352 N 
ATOM     26  H   UNL A   1      33.895  19.770  26.806  1.00  0.00     0.163 HD
BRANCH  25  27
ATOM     27  C   UNL A   1      33.035  20.343  25.038  1.00  0.00     0.153 C 
BRANCH  27  28
ATOM     28  C   UNL A   1      33.462  19.113  24.284  1.00  0.00    -0.010 A 
ATOM     29  C   UNL A   1      34.598  18.369  24.604  1.00  0.00     0.009 A 
ATOM     30  C   UNL A   1      32.614  18.573  23.315  1.00  0.00     0.116 A 
ATOM     31  C   UNL A   1      34.790  17.113  24.030  1.00  0.00     0.020 A 
ATOM     32  N   UNL A   1      32.778  17.366  22.729  1.00  0.00    -0.264 NA
ATOM     33  C   UNL A   1      33.853  16.652  23.123  1.00  0.00     0.111 A 
ENDBRANCH  27  28
ENDBRANCH  25  27
ENDBRANCH  21  23
ENDBRANCH  15  16
ENDBRANCH   8   9
ENDBRANCH   7   8
ENDBRANCH   5   7
ENDBRANCH   2   3
ENDBRANCH   1   2
BRANCH   1  34
ATOM     34  C   UNL A   1      32.213  28.903  26.832  1.00  0.00     0.002 C 
BRANCH  34  35
ATOM     35  C   UNL A   1      32.589  30.185  27.578  1.00  0.00     0.002 C 
BRANCH  35  36
ATOM     36  C   UNL A   1      31.828  31.447  27.180  1.00  0.00     0.021 C 
BRANCH  36  37
ATOM     37  C   UNL A   1      32.650  32.519  26.470  1.00  0.00     0.116 C 
BRANCH  37  38
ATOM     38  N   UNL A   1      32.748  33.754  27.238  1.00  0.00    -0.352 N 
ATOM     39  C   UNL A   1      33.463  34.017  28.376  1.00  0.00     0.251 C 
ATOM     40  H   UNL A   1      32.223  34.510  26.887  1.00  0.00     0.163 HD
ATOM     41  O   UNL A   1      33.178  34.975  29.098  1.00  0.00    -0.269 OA
BRANCH  39  42
ATOM     42  C   UNL A   1      34.583  33.165  28.790  1.00  0.00     0.039 A 
ATOM     43  C   UNL A   1      35.871  33.526  28.380  1.00  0.00     0.014 A 
ATOM     44  C   UNL A   1      34.373  32.015  29.549  1.00  0.00     0.014 A 
ATOM     45  C   UNL A   1      36.960  32.795  28.825  1.00  0.00     0.010 A 
ATOM     46  C   UNL A   1      35.462  31.353  30.084  1.00  0.00     0.010 A 
ATOM     47  C   UNL A   1      36.759  31.751  29.737  1.00  0.00    -0.014 A 
BRANCH  47  48
ATOM     48  C   UNL A   1      37.902  31.106  30.404  1.00  0.00     0.031 A 
ATOM     49  C   UNL A   1      38.251  31.481  31.808  1.00  0.00     0.074 A 
ATOM     50  C   UNL A   1      38.674  30.282  29.671  1.00  0.00     0.049 A 
ATOM     51  N   UNL A   1      39.270  31.101  32.529  1.00  0.00    -0.248 NA
ATOM     52  C   UNL A   1      37.363  32.447  32.480  1.00  0.00     0.031 C 
ATOM     53  C   UNL A   1      38.451  29.952  28.258  1.00  0.00     0.029 A 
ATOM     54  N   UNL A   1      39.812  29.595  29.993  1.00  0.00    -0.354 N 
ATOM     55  C   UNL A   1      39.175  31.814  33.716  1.00  0.00     0.074 A 
ATOM     56  C   UNL A   1      38.019  32.675  33.607  1.00  0.00     0.031 C 
ATOM     57  C   UNL A   1      39.413  29.116  27.842  1.00  0.00     0.029 A 
ATOM     58  C   UNL A   1      40.337  28.881  28.942  1.00  0.00     0.049 A 
ATOM     59  H   UNL A   1      40.215  29.611  30.891  1.00  0.00     0.167 HD
ATOM     60  C   UNL A   1      39.972  31.731  34.806  1.00  0.00     0.034 A 
ATOM     61  C   UNL A   1      41.447  28.124  28.881  1.00  0.00     0.034 A 
ATOM     62  C   UNL A   1      41.088  30.831  34.891  1.00  0.00     0.049 A 
ATOM     63  C   UNL A   1      42.261  27.975  30.133  1.00  0.00     0.074 A 
ATOM     64  C   UNL A   1      41.921  30.584  35.965  1.00  0.00     0.029 A 
ATOM     65  N   UNL A   1      41.526  30.024  33.847  1.00  0.00    -0.354 N 
ATOM     66  N   UNL A   1      42.074  28.540  31.304  1.00  0.00    -0.248 NA
ATOM     67  C   UNL A   1      43.408  27.064  30.077  1.00  0.00     0.031 C 
ATOM     68  C   UNL A   1      42.871  29.638  35.566  1.00  0.00     0.029 A 
ATOM     69  C   UNL A   1      42.619  29.278  34.249  1.00  0.00     0.049 A 
ATOM     70  H   UNL A   1      41.118  29.989  32.952  1.00  0.00     0.167 HD
ATOM     71  C   UNL A   1      43.065  28.036  32.132  1.00  0.00     0.074 A 
ATOM     72  C   UNL A   1      43.833  27.099  31.332  1.00  0.00     0.031 C 
ATOM     73  C   UNL A   1      43.330  28.328  33.430  1.00  0.00     0.034 A 
BRANCH  60  74
ATOM     74  C   UNL A   1      39.625  32.604  35.984  1.00  0.00     0.023 A 
ATOM     75  C   UNL A   1      38.855  32.074  37.041  1.00  0.00     0.012 A 
ATOM     76  C   UNL A   1      40.053  33.944  36.049  1.00  0.00     0.148 A 
ATOM     77  C   UNL A   1      38.475  32.875  38.117  1.00  0.00     0.002 A 
ATOM     78  C   UNL A   1      39.707  34.724  37.149  1.00  0.00     0.091 A 
ATOM     79  F   UNL A   1      40.760  34.442  35.026  1.00  0.00    -0.205 F 
ATOM     80  C   UNL A   1      38.907  34.196  38.175  1.00  0.00     0.022 A 
BRANCH  78  81
ATOM     81  S   UNL A   1      40.274  36.417  37.348  1.00  0.00     0.127 S 
ATOM     82  O   UNL A   1      41.673  36.218  37.724  1.00  0.00    -0.237 OA
ATOM     83  O   UNL A   1      40.076  36.968  36.006  1.00  0.00    -0.237 OA
ATOM     84  O   UNL A   1      39.424  37.004  38.374  1.00  0.00    -0.744 OA
ENDBRANCH  78  81
ENDBRANCH  60  74
BRANCH  61  85
ATOM     85  C   UNL A   1      41.774  27.398  27.622  1.00  0.00     0.023 A 
ATOM     86  C   UNL A   1      42.303  28.113  26.531  1.00  0.00     0.012 A 
ATOM     87  C   UNL A   1      41.658  25.996  27.531  1.00  0.00     0.148 A 
ATOM     88  C   UNL A   1      42.691  27.452  25.365  1.00  0.00     0.002 A 
ATOM     89  C   UNL A   1      42.096  25.337  26.388  1.00  0.00     0.091 A 
ATOM     90  F   UNL A   1      41.152  25.332  28.580  1.00  0.00    -0.205 F 
ATOM     91  C   UNL A   1      42.598  26.063  25.297  1.00  0.00     0.022 A 
BRANCH  89  92
ATOM     92  S   UNL A   1      42.148  23.544  26.269  1.00  0.00     0.127 S 
ATOM     93  O   UNL A   1      42.950  23.191  27.438  1.00  0.00    -0.237 OA
ATOM     94  O   UNL A   1      40.731  23.192  26.365  1.00  0.00    -0.237 OA
ATOM     95  O   UNL A   1      42.751  23.253  24.975  1.00  0.00    -0.744 OA
ENDBRANCH  89  92
ENDBRANCH  61  85
BRANCH  73  96
ATOM     96  C   UNL A   1      44.490  27.614  34.066  1.00  0.00     0.023 A 
ATOM     97  C   UNL A   1      45.778  28.179  33.995  1.00  0.00     0.012 A 
ATOM     98  C   UNL A   1      44.286  26.431  34.800  1.00  0.00     0.148 A 
ATOM     99  C   UNL A   1      46.854  27.560  34.625  1.00  0.00     0.002 A 
ATOM    100  C   UNL A   1      45.353  25.847  35.468  1.00  0.00     0.091 A 
ATOM    101  F   UNL A   1      43.054  25.902  34.833  1.00  0.00    -0.205 F 
ATOM    102  C   UNL A   1      46.640  26.402  35.373  1.00  0.00     0.022 A 
BRANCH 100 103
ATOM    103  S   UNL A   1      45.147  24.416  36.532  1.00  0.00     0.127 S 
ATOM    104  O   UNL A   1      44.998  23.338  35.557  1.00  0.00    -0.237 OA
ATOM    105  O   UNL A   1      46.409  24.397  37.275  1.00  0.00    -0.237 OA
ATOM    106  O   UNL A   1      43.972  24.691  37.348  1.00  0.00    -0.744 OA
ENDBRANCH 100 103
ENDBRANCH  73  96
ENDBRANCH  47  48
ENDBRANCH  39  42
ENDBRANCH  37  38
ENDBRANCH  36  37
ENDBRANCH  35  36
ENDBRANCH  34  35
ENDBRANCH   1  34
TORSDOF 22
ENDMDL
MODEL 3
REMARK VINA RESULT:     -10.3      7.723     11.367
REMARK SMILES O=C(CC[NH+]1CCC([N@H+]2CCC[C@H](C(=O)NCc3cccnc3)C2)CC1)NCCCCCCNC(=O)c1ccc(-c2c3nc(c(-c4cccc(S(=O)(=O)[O-])c4F)c4ccc([nH]4)c(-c4cccc(S(=O)(=O)[O-])c4F)c4nc(c(-c5cccc(S(=O)(=O)[O-])c5F)c5ccc2[nH]5)C=C4)C=C3)cc1
REMARK SMILES IDX 29 1 28 2 27 3 1 4 2 5 3 7 4 8 5 9 6 10 26 11 7 13 25 14
REMARK SMILES IDX 8 15 9 16 10 17 24 18 11 20 13 21 12 22 14 23 15 24 16 25
REMARK SMILES IDX 17 27 18 28 19 29 23 30 20 31 22 32 21 33 30 34 31 35 32 36
REMARK SMILES IDX 33 37 34 38 35 39 36 41 37 42 38 43 99 44 39 45 98 46 40 47
REMARK SMILES IDX 41 48 42 49 92 50 43 51 97 52 91 53 93 54 44 55 96 56 90 57
REMARK SMILES IDX 89 58 45 60 77 61 57 62 76 63 58 64 61 65 75 66 94 67 59 68
REMARK SMILES IDX 60 69 74 71 95 72 62 73 46 74 47 75 55 76 48 77 50 78 56 79
REMARK SMILES IDX 49 80 51 81 52 82 53 83 54 84 78 85 79 86 87 87 80 88 82 89
REMARK SMILES IDX 88 90 81 91 83 92 84 93 85 94 86 95 63 96 64 97 72 98 65 99
REMARK SMILES IDX 67 100 73 101 66 102 68 103 69 104 70 105 71 106
REMARK H PARENT 27 6 5 12 9 19 16 26 34 40 93 59 61 70
REMARK Flexibility Score: inf
ROOT
ATOM      1  C   UNL A   1      45.143  22.220  25.953  1.00  0.00     0.021 C 
ENDROOT
BRANCH   1   2
ATOM      2  C   UNL A   1      44.262  21.102  25.396  1.00  0.00     0.116 C 
BRANCH   2   3
ATOM      3  N   UNL A   1      42.850  21.320  25.644  1.00  0.00    -0.356 N 
ATOM      4  O   UNL A   1      42.255  19.105  25.478  1.00  0.00    -0.275 OA
ATOM      5  C   UNL A   1      41.965  20.268  25.737  1.00  0.00     0.225 C 
ATOM      6  H   UNL A   1      42.517  22.241  25.749  1.00  0.00     0.163 HD
BRANCH   5   7
ATOM      7  C   UNL A   1      40.598  20.658  26.252  1.00  0.00     0.161 C 
BRANCH   7   8
ATOM      8  C   UNL A   1      40.323  22.158  26.075  1.00  0.00     0.272 C 
BRANCH   8   9
ATOM      9  N   UNL A   1      38.920  22.426  25.709  1.00  0.00    -0.334 N 
ATOM     10  C   UNL A   1      38.143  21.189  25.539  1.00  0.00     0.268 C 
ATOM     11  C   UNL A   1      38.230  23.263  26.701  1.00  0.00     0.268 C 
ATOM     12  H   UNL A   1      38.973  22.923  24.819  1.00  0.00     0.348 HD
ATOM     13  C   UNL A   1      36.790  21.525  24.903  1.00  0.00     0.126 C 
ATOM     14  C   UNL A   1      36.923  23.762  26.095  1.00  0.00     0.126 C 
ATOM     15  C   UNL A   1      36.011  22.596  25.693  1.00  0.00     0.195 C 
BRANCH  15  16
ATOM     16  N   UNL A   1      34.821  23.183  25.028  1.00  0.00    -0.331 N 
ATOM     17  C   UNL A   1      34.049  24.127  25.833  1.00  0.00     0.262 C 
ATOM     18  C   UNL A   1      35.112  23.673  23.679  1.00  0.00     0.275 C 
ATOM     19  H   UNL A   1      34.186  22.392  24.922  1.00  0.00     0.348 HD
ATOM     20  C   UNL A   1      32.751  24.563  25.165  1.00  0.00     0.062 C 
ATOM     21  C   UNL A   1      33.898  24.203  22.909  1.00  0.00     0.133 C 
ATOM     22  C   UNL A   1      32.936  25.048  23.739  1.00  0.00     0.025 C 
BRANCH  21  23
ATOM     23  C   UNL A   1      33.209  23.222  21.957  1.00  0.00     0.229 C 
ATOM     24  O   UNL A   1      33.333  23.392  20.737  1.00  0.00    -0.275 OA
ATOM     25  N   UNL A   1      32.420  22.192  22.340  1.00  0.00    -0.352 N 
ATOM     26  H   UNL A   1      31.888  21.808  21.608  1.00  0.00     0.163 HD
BRANCH  25  27
ATOM     27  C   UNL A   1      32.208  21.549  23.614  1.00  0.00     0.153 C 
BRANCH  27  28
ATOM     28  C   UNL A   1      32.611  20.101  23.690  1.00  0.00    -0.010 A 
ATOM     29  C   UNL A   1      32.156  19.127  22.801  1.00  0.00     0.009 A 
ATOM     30  C   UNL A   1      33.612  19.714  24.583  1.00  0.00     0.116 A 
ATOM     31  C   UNL A   1      32.761  17.871  22.777  1.00  0.00     0.020 A 
ATOM     32  N   UNL A   1      34.210  18.502  24.597  1.00  0.00    -0.264 NA
ATOM     33  C   UNL A   1      33.785  17.616  23.671  1.00  0.00     0.111 A 
ENDBRANCH  27  28
ENDBRANCH  25  27
ENDBRANCH  21  23
ENDBRANCH  15  16
ENDBRANCH   8   9
ENDBRANCH   7   8
ENDBRANCH   5   7
ENDBRANCH   2   3
ENDBRANCH   1   2
BRANCH   1  34
ATOM     34  C   UNL A   1      45.402  23.386  24.989  1.00  0.00     0.002 C 
BRANCH  34  35
ATOM     35  C   UNL A   1      44.695  24.694  25.346  1.00  0.00     0.002 C 
BRANCH  35  36
ATOM     36  C   UNL A   1      43.203  24.764  25.032  1.00  0.00     0.021 C 
BRANCH  36  37
ATOM     37  C   UNL A   1      42.557  26.138  25.183  1.00  0.00     0.116 C 
BRANCH  37  38
ATOM     38  N   UNL A   1      41.335  26.102  25.975  1.00  0.00    -0.352 N 
ATOM     39  C   UNL A   1      41.158  25.752  27.287  1.00  0.00     0.251 C 
ATOM     40  H   UNL A   1      40.516  26.368  25.497  1.00  0.00     0.163 HD
ATOM     41  O   UNL A   1      40.046  25.433  27.715  1.00  0.00    -0.269 OA
BRANCH  39  42
ATOM     42  C   UNL A   1      42.280  25.728  28.231  1.00  0.00     0.039 A 
ATOM     43  C   UNL A   1      42.918  24.505  28.464  1.00  0.00     0.014 A 
ATOM     44  C   UNL A   1      42.687  26.883  28.897  1.00  0.00     0.014 A 
ATOM     45  C   UNL A   1      44.036  24.462  29.281  1.00  0.00     0.010 A 
ATOM     46  C   UNL A   1      43.865  26.864  29.621  1.00  0.00     0.010 A 
ATOM     47  C   UNL A   1      44.552  25.657  29.801  1.00  0.00    -0.014 A 
BRANCH  47  48
ATOM     48  C   UNL A   1      45.859  25.679  30.479  1.00  0.00     0.031 A 
ATOM     49  C   UNL A   1      47.104  25.907  29.684  1.00  0.00     0.074 A 
ATOM     50  C   UNL A   1      45.893  25.365  31.788  1.00  0.00     0.049 A 
ATOM     51  N   UNL A   1      48.346  25.865  30.077  1.00  0.00    -0.248 NA
ATOM     52  C   UNL A   1      46.935  26.173  28.244  1.00  0.00     0.031 C 
ATOM     53  C   UNL A   1      44.722  25.026  32.605  1.00  0.00     0.029 A 
ATOM     54  N   UNL A   1      46.944  25.249  32.655  1.00  0.00    -0.354 N 
ATOM     55  C   UNL A   1      49.108  26.051  28.932  1.00  0.00     0.074 A 
ATOM     56  C   UNL A   1      48.190  26.171  27.822  1.00  0.00     0.031 C 
ATOM     57  C   UNL A   1      45.119  24.755  33.857  1.00  0.00     0.029 A 
ATOM     58  C   UNL A   1      46.570  24.866  33.921  1.00  0.00     0.049 A 
ATOM     59  H   UNL A   1      47.878  25.424  32.397  1.00  0.00     0.167 HD
ATOM     60  C   UNL A   1      50.454  26.138  28.829  1.00  0.00     0.034 A 
ATOM     61  C   UNL A   1      47.323  24.625  35.009  1.00  0.00     0.034 A 
ATOM     62  C   UNL A   1      51.332  26.055  29.963  1.00  0.00     0.049 A 
ATOM     63  C   UNL A   1      48.806  24.822  34.889  1.00  0.00     0.074 A 
ATOM     64  C   UNL A   1      52.703  26.215  30.010  1.00  0.00     0.029 A 
ATOM     65  N   UNL A   1      50.912  25.786  31.261  1.00  0.00    -0.354 N 
ATOM     66  N   UNL A   1      49.506  25.149  33.828  1.00  0.00    -0.248 NA
ATOM     67  C   UNL A   1      49.600  24.659  36.111  1.00  0.00     0.031 C 
ATOM     68  C   UNL A   1      53.114  26.029  31.335  1.00  0.00     0.029 A 
ATOM     69  C   UNL A   1      51.997  25.773  32.118  1.00  0.00     0.049 A 
ATOM     70  H   UNL A   1      49.979  25.627  31.530  1.00  0.00     0.167 HD
ATOM     71  C   UNL A   1      50.821  25.254  34.256  1.00  0.00     0.074 A 
ATOM     72  C   UNL A   1      50.812  24.980  35.681  1.00  0.00     0.031 C 
ATOM     73  C   UNL A   1      51.938  25.534  33.539  1.00  0.00     0.034 A 
BRANCH  60  74
ATOM     74  C   UNL A   1      51.029  26.375  27.456  1.00  0.00     0.023 A 
ATOM     75  C   UNL A   1      51.416  25.273  26.663  1.00  0.00     0.012 A 
ATOM     76  C   UNL A   1      51.191  27.678  26.950  1.00  0.00     0.148 A 
ATOM     77  C   UNL A   1      52.000  25.466  25.412  1.00  0.00     0.002 A 
ATOM     78  C   UNL A   1      51.733  27.860  25.680  1.00  0.00     0.091 A 
ATOM     79  F   UNL A   1      50.845  28.715  27.723  1.00  0.00    -0.205 F 
ATOM     80  C   UNL A   1      52.152  26.757  24.918  1.00  0.00     0.022 A 
BRANCH  78  81
ATOM     81  S   UNL A   1      51.905  29.482  24.927  1.00  0.00     0.127 S 
ATOM     82  O   UNL A   1      53.303  29.796  25.217  1.00  0.00    -0.237 OA
ATOM     83  O   UNL A   1      51.622  29.199  23.519  1.00  0.00    -0.237 OA
ATOM     84  O   UNL A   1      50.919  30.332  25.582  1.00  0.00    -0.744 OA
ENDBRANCH  78  81
ENDBRANCH  60  74
BRANCH  61  85
ATOM     85  C   UNL A   1      46.663  24.270  36.297  1.00  0.00     0.023 A 
ATOM     86  C   UNL A   1      46.575  22.917  36.677  1.00  0.00     0.012 A 
ATOM     87  C   UNL A   1      46.213  25.264  37.190  1.00  0.00     0.148 A 
ATOM     88  C   UNL A   1      46.032  22.557  37.911  1.00  0.00     0.002 A 
ATOM     89  C   UNL A   1      45.722  24.901  38.440  1.00  0.00     0.091 A 
ATOM     90  F   UNL A   1      46.305  26.546  36.811  1.00  0.00    -0.205 F 
ATOM     91  C   UNL A   1      45.617  23.549  38.797  1.00  0.00     0.022 A 
BRANCH  89  92
ATOM     92  S   UNL A   1      45.300  26.114  39.698  1.00  0.00     0.127 S 
ATOM     93  O   UNL A   1      46.601  26.714  39.983  1.00  0.00    -0.237 OA
ATOM     94  O   UNL A   1      44.366  26.982  38.980  1.00  0.00    -0.237 OA
ATOM     95  O   UNL A   1      44.698  25.357  40.786  1.00  0.00    -0.744 OA
ENDBRANCH  89  92
ENDBRANCH  61  85
BRANCH  73  96
ATOM     96  C   UNL A   1      53.239  25.573  34.291  1.00  0.00     0.023 A 
ATOM     97  C   UNL A   1      53.628  26.756  34.948  1.00  0.00     0.012 A 
ATOM     98  C   UNL A   1      54.028  24.414  34.411  1.00  0.00     0.148 A 
ATOM     99  C   UNL A   1      54.803  26.792  35.695  1.00  0.00     0.002 A 
ATOM    100  C   UNL A   1      55.171  24.444  35.198  1.00  0.00     0.091 A 
ATOM    101  F   UNL A   1      53.647  23.308  33.758  1.00  0.00    -0.205 F 
ATOM    102  C   UNL A   1      55.566  25.634  35.831  1.00  0.00     0.022 A 
BRANCH 100 103
ATOM    103  S   UNL A   1      56.156  22.976  35.510  1.00  0.00     0.127 S 
ATOM    104  O   UNL A   1      55.158  21.916  35.384  1.00  0.00    -0.237 OA
ATOM    105  O   UNL A   1      57.137  23.023  34.425  1.00  0.00    -0.237 OA
ATOM    106  O   UNL A   1      56.722  23.149  36.841  1.00  0.00    -0.744 OA
ENDBRANCH 100 103
ENDBRANCH  73  96
ENDBRANCH  47  48
ENDBRANCH  39  42
ENDBRANCH  37  38
ENDBRANCH  36  37
ENDBRANCH  35  36
ENDBRANCH  34  35
ENDBRANCH   1  34
TORSDOF 22
ENDMDL
