MODEL 1
REMARK VINA RESULT:     -12.1      0.000      0.000
REMARK SMILES Cc1cc(F)cc(N[C@@](C)(C(=O)NCCCCCCNC(=O)c2ccc(-c3c4nc(c(-c5cccc(S(=O)(=O)[O-])c5F)c5ccc([nH]5)c(-c5cccc(S(=O)(=O)[O-])c5F)c5nc(c(-c6cccc(S(=O)(=O)[O-])c6F)c6ccc3[nH]6)C=C5)C=C4)cc2)c2cccc(F)c2)c1
REMARK SMILES IDX 17 1 16 2 15 3 14 4 13 5 11 6 12 7 9 9 10 10 8 11 7 13 1 14
REMARK SMILES IDX 2 15 3 16 93 17 4 18 5 19 6 20 86 21 87 22 92 23 88 24 90 25
REMARK SMILES IDX 89 26 91 27 18 28 19 29 20 30 21 31 22 33 23 34 24 35 85 36
REMARK SMILES IDX 25 37 84 38 26 39 27 40 28 41 78 42 29 43 83 44 77 45 79 46
REMARK SMILES IDX 30 47 82 48 76 49 75 50 31 52 63 53 43 54 62 55 44 56 47 57
REMARK SMILES IDX 61 58 80 59 45 60 46 61 60 63 81 64 48 65 32 66 33 67 41 68
REMARK SMILES IDX 34 69 36 70 42 71 35 72 37 73 38 74 39 75 40 76 64 77 65 78
REMARK SMILES IDX 73 79 66 80 68 81 74 82 67 83 69 84 70 85 71 86 72 87 49 88
REMARK SMILES IDX 50 89 58 90 51 91 53 92 59 93 52 94 54 95 55 96 56 97 57 98
REMARK H PARENT 13 8 8 12 20 32 79 51 47 62
REMARK Flexibility Score: inf
ROOT
ATOM      1  C   UNL A   1      31.110  30.558  25.542  1.00  0.00     0.002 C 
ENDROOT
BRANCH   1   2
ATOM      2  C   UNL A   1      32.228  29.599  25.954  1.00  0.00     0.002 C 
BRANCH   2   3
ATOM      3  C   UNL A   1      31.766  28.333  26.670  1.00  0.00     0.021 C 
BRANCH   3   4
ATOM      4  C   UNL A   1      32.640  27.094  26.443  1.00  0.00     0.116 C 
BRANCH   4   5
ATOM      5  N   UNL A   1      31.858  25.883  26.596  1.00  0.00    -0.354 N 
ATOM      6  C   UNL A   1      31.228  25.069  25.700  1.00  0.00     0.250 C 
ATOM      7  O   UNL A   1      30.507  24.206  26.227  1.00  0.00    -0.272 OA
ATOM      8  H   UNL A   1      31.765  25.588  27.531  1.00  0.00     0.163 HD
BRANCH   6   9
ATOM      9  C   UNL A   1      31.375  25.156  24.109  1.00  0.00     0.139 C 
ATOM     10  C   UNL A   1      30.542  23.925  23.611  1.00  0.00     0.051 C 
BRANCH   9  11
ATOM     11  N   UNL A   1      32.764  24.808  23.691  1.00  0.00    -0.368 N 
ATOM     12  H   UNL A   1      32.999  25.209  22.824  1.00  0.00     0.161 HD
BRANCH  11  13
ATOM     13  C   UNL A   1      33.799  24.068  24.215  1.00  0.00     0.038 A 
ATOM     14  C   UNL A   1      34.456  20.326  24.850  1.00  0.00     0.044 C 
ATOM     15  C   UNL A   1      34.593  21.819  24.878  1.00  0.00    -0.046 A 
ATOM     16  C   UNL A   1      35.640  22.396  25.593  1.00  0.00     0.042 A 
ATOM     17  C   UNL A   1      33.673  22.661  24.222  1.00  0.00     0.029 A 
ATOM     18  C   UNL A   1      35.816  23.767  25.536  1.00  0.00     0.125 A 
ATOM     19  F   UNL A   1      36.838  24.333  26.193  1.00  0.00    -0.207 F 
ATOM     20  C   UNL A   1      34.943  24.582  24.815  1.00  0.00     0.065 A 
ENDBRANCH  11  13
ENDBRANCH   9  11
BRANCH   9  21
ATOM     21  C   UNL A   1      30.774  26.465  23.549  1.00  0.00    -0.011 A 
ATOM     22  C   UNL A   1      31.540  27.455  22.898  1.00  0.00     0.007 A 
ATOM     23  C   UNL A   1      29.407  26.757  23.689  1.00  0.00     0.046 A 
ATOM     24  C   UNL A   1      30.972  28.657  22.440  1.00  0.00     0.003 A 
ATOM     25  C   UNL A   1      28.844  27.950  23.243  1.00  0.00     0.123 A 
ATOM     26  C   UNL A   1      29.619  28.909  22.620  1.00  0.00     0.039 A 
ATOM     27  F   UNL A   1      27.543  28.182  23.460  1.00  0.00    -0.207 F 
ENDBRANCH   9  21
ENDBRANCH   6   9
ENDBRANCH   4   5
ENDBRANCH   3   4
ENDBRANCH   2   3
ENDBRANCH   1   2
BRANCH   1  28
ATOM     28  C   UNL A   1      31.152  31.937  26.204  1.00  0.00     0.021 C 
BRANCH  28  29
ATOM     29  C   UNL A   1      32.341  32.168  27.132  1.00  0.00     0.116 C 
BRANCH  29  30
ATOM     30  N   UNL A   1      32.583  33.585  27.365  1.00  0.00    -0.352 N 
ATOM     31  C   UNL A   1      33.566  34.177  28.119  1.00  0.00     0.251 C 
ATOM     32  H   UNL A   1      31.957  34.202  26.922  1.00  0.00     0.163 HD
ATOM     33  O   UNL A   1      33.507  35.373  28.393  1.00  0.00    -0.269 OA
BRANCH  31  34
ATOM     34  C   UNL A   1      34.690  33.355  28.605  1.00  0.00     0.039 A 
ATOM     35  C   UNL A   1      35.996  33.836  28.487  1.00  0.00     0.014 A 
ATOM     36  C   UNL A   1      34.438  32.120  29.209  1.00  0.00     0.014 A 
ATOM     37  C   UNL A   1      37.051  33.105  29.039  1.00  0.00     0.010 A 
ATOM     38  C   UNL A   1      35.479  31.433  29.820  1.00  0.00     0.010 A 
ATOM     39  C   UNL A   1      36.795  31.916  29.741  1.00  0.00    -0.014 A 
BRANCH  39  40
ATOM     40  C   UNL A   1      37.873  31.152  30.417  1.00  0.00     0.031 A 
ATOM     41  C   UNL A   1      38.224  31.461  31.846  1.00  0.00     0.074 A 
ATOM     42  C   UNL A   1      38.618  30.281  29.708  1.00  0.00     0.049 A 
ATOM     43  N   UNL A   1      39.213  31.009  32.571  1.00  0.00    -0.248 NA
ATOM     44  C   UNL A   1      37.366  32.435  32.540  1.00  0.00     0.031 C 
ATOM     45  C   UNL A   1      38.412  29.941  28.299  1.00  0.00     0.029 A 
ATOM     46  N   UNL A   1      39.722  29.549  30.068  1.00  0.00    -0.354 N 
ATOM     47  C   UNL A   1      39.129  31.680  33.784  1.00  0.00     0.074 A 
ATOM     48  C   UNL A   1      38.008  32.590  33.688  1.00  0.00     0.031 C 
ATOM     49  C   UNL A   1      39.355  29.065  27.916  1.00  0.00     0.029 A 
ATOM     50  C   UNL A   1      40.255  28.813  29.036  1.00  0.00     0.049 A 
ATOM     51  H   UNL A   1      40.095  29.550  30.979  1.00  0.00     0.167 HD
ATOM     52  C   UNL A   1      39.902  31.538  34.888  1.00  0.00     0.034 A 
ATOM     53  C   UNL A   1      41.353  28.033  28.994  1.00  0.00     0.034 A 
ATOM     54  C   UNL A   1      40.989  30.602  34.989  1.00  0.00     0.049 A 
ATOM     55  C   UNL A   1      42.183  27.874  30.239  1.00  0.00     0.074 A 
ATOM     56  C   UNL A   1      41.773  30.309  36.090  1.00  0.00     0.029 A 
ATOM     57  N   UNL A   1      41.454  29.816  33.945  1.00  0.00    -0.354 N 
ATOM     58  N   UNL A   1      42.002  28.402  31.426  1.00  0.00    -0.248 NA
ATOM     59  C   UNL A   1      43.355  26.990  30.149  1.00  0.00     0.031 C 
ATOM     60  C   UNL A   1      42.731  29.366  35.703  1.00  0.00     0.029 A 
ATOM     61  C   UNL A   1      42.522  29.047  34.371  1.00  0.00     0.049 A 
ATOM     62  H   UNL A   1      41.077  29.806  33.036  1.00  0.00     0.167 HD
ATOM     63  C   UNL A   1      43.004  27.878  32.236  1.00  0.00     0.074 A 
ATOM     64  C   UNL A   1      43.786  26.986  31.404  1.00  0.00     0.031 C 
ATOM     65  C   UNL A   1      43.256  28.120  33.546  1.00  0.00     0.034 A 
BRANCH  52  66
ATOM     66  C   UNL A   1      39.573  32.396  36.082  1.00  0.00     0.023 A 
ATOM     67  C   UNL A   1      40.221  33.638  36.252  1.00  0.00     0.012 A 
ATOM     68  C   UNL A   1      38.607  31.990  37.024  1.00  0.00     0.148 A 
ATOM     69  C   UNL A   1      39.953  34.434  37.365  1.00  0.00     0.002 A 
ATOM     70  C   UNL A   1      38.309  32.812  38.104  1.00  0.00     0.091 A 
ATOM     71  F   UNL A   1      38.015  30.798  36.861  1.00  0.00    -0.205 F 
ATOM     72  C   UNL A   1      38.992  34.026  38.286  1.00  0.00     0.022 A 
BRANCH  70  73
ATOM     73  S   UNL A   1      37.025  32.411  39.294  1.00  0.00     0.127 S 
ATOM     74  O   UNL A   1      37.305  31.002  39.568  1.00  0.00    -0.237 OA
ATOM     75  O   UNL A   1      37.332  33.319  40.400  1.00  0.00    -0.237 OA
ATOM     76  O   UNL A   1      35.761  32.684  38.623  1.00  0.00    -0.744 OA
ENDBRANCH  70  73
ENDBRANCH  52  66
BRANCH  53  77
ATOM     77  C   UNL A   1      41.678  27.273  27.753  1.00  0.00     0.023 A 
ATOM     78  C   UNL A   1      42.198  27.971  26.646  1.00  0.00     0.012 A 
ATOM     79  C   UNL A   1      41.520  25.875  27.673  1.00  0.00     0.148 A 
ATOM     80  C   UNL A   1      42.530  27.297  25.470  1.00  0.00     0.002 A 
ATOM     81  C   UNL A   1      41.904  25.202  26.518  1.00  0.00     0.091 A 
ATOM     82  F   UNL A   1      41.020  25.231  28.736  1.00  0.00    -0.205 F 
ATOM     83  C   UNL A   1      42.393  25.912  25.410  1.00  0.00     0.022 A 
BRANCH  81  84
ATOM     84  S   UNL A   1      41.885  23.410  26.390  1.00  0.00     0.127 S 
ATOM     85  O   UNL A   1      40.453  23.122  26.419  1.00  0.00    -0.237 OA
ATOM     86  O   UNL A   1      42.532  23.194  25.096  1.00  0.00    -0.237 OA
ATOM     87  O   UNL A   1      42.649  22.920  27.530  1.00  0.00    -0.744 OA
ENDBRANCH  81  84
ENDBRANCH  53  77
BRANCH  65  88
ATOM     88  C   UNL A   1      44.393  27.370  34.191  1.00  0.00     0.023 A 
ATOM     89  C   UNL A   1      45.697  27.902  34.161  1.00  0.00     0.012 A 
ATOM     90  C   UNL A   1      44.147  26.182  34.907  1.00  0.00     0.148 A 
ATOM     91  C   UNL A   1      46.743  27.248  34.811  1.00  0.00     0.002 A 
ATOM     92  C   UNL A   1      45.183  25.564  35.596  1.00  0.00     0.091 A 
ATOM     93  F   UNL A   1      42.902  25.682  34.908  1.00  0.00    -0.205 F 
ATOM     94  C   UNL A   1      46.484  26.088  35.538  1.00  0.00     0.022 A 
BRANCH  92  95
ATOM     95  S   UNL A   1      44.924  24.126  36.641  1.00  0.00     0.127 S 
ATOM     96  O   UNL A   1      44.109  23.273  35.776  1.00  0.00    -0.237 OA
ATOM     97  O   UNL A   1      46.290  23.648  36.855  1.00  0.00    -0.237 OA
ATOM     98  O   UNL A   1      44.259  24.615  37.841  1.00  0.00    -0.744 OA
ENDBRANCH  92  95
ENDBRANCH  65  88
ENDBRANCH  39  40
ENDBRANCH  31  34
ENDBRANCH  29  30
ENDBRANCH  28  29
ENDBRANCH   1  28
TORSDOF 19
ENDMDL
MODEL 2
REMARK VINA RESULT:     -12.0      1.789      7.762
REMARK SMILES Cc1cc(F)cc(N[C@@](C)(C(=O)NCCCCCCNC(=O)c2ccc(-c3c4nc(c(-c5cccc(S(=O)(=O)[O-])c5F)c5ccc([nH]5)c(-c5cccc(S(=O)(=O)[O-])c5F)c5nc(c(-c6cccc(S(=O)(=O)[O-])c6F)c6ccc3[nH]6)C=C5)C=C4)cc2)c2cccc(F)c2)c1
REMARK SMILES IDX 17 1 16 2 15 3 14 4 13 5 11 6 12 7 9 9 10 10 8 11 7 13 1 14
REMARK SMILES IDX 2 15 3 16 93 17 4 18 5 19 6 20 86 21 87 22 92 23 88 24 90 25
REMARK SMILES IDX 89 26 91 27 18 28 19 29 20 30 21 31 22 33 23 34 24 35 85 36
REMARK SMILES IDX 25 37 84 38 26 39 27 40 28 41 78 42 29 43 83 44 77 45 79 46
REMARK SMILES IDX 30 47 82 48 76 49 75 50 31 52 63 53 43 54 62 55 44 56 47 57
REMARK SMILES IDX 61 58 80 59 45 60 46 61 60 63 81 64 48 65 32 66 33 67 41 68
REMARK SMILES IDX 34 69 36 70 42 71 35 72 37 73 38 74 39 75 40 76 64 77 65 78
REMARK SMILES IDX 73 79 66 80 68 81 74 82 67 83 69 84 70 85 71 86 72 87 49 88
REMARK SMILES IDX 50 89 58 90 51 91 53 92 59 93 52 94 54 95 55 96 56 97 57 98
REMARK H PARENT 13 8 8 12 20 32 79 51 47 62
REMARK Flexibility Score: inf
ROOT
ATOM      1  C   UNL A   1      32.082  30.288  26.212  1.00  0.00     0.002 C 
ENDROOT
BRANCH   1   2
ATOM      2  C   UNL A   1      32.478  29.224  27.238  1.00  0.00     0.002 C 
BRANCH   2   3
ATOM      3  C   UNL A   1      31.778  27.877  27.078  1.00  0.00     0.021 C 
BRANCH   3   4
ATOM      4  C   UNL A   1      32.669  26.730  26.586  1.00  0.00     0.116 C 
BRANCH   4   5
ATOM      5  N   UNL A   1      31.946  25.474  26.615  1.00  0.00    -0.354 N 
ATOM      6  C   UNL A   1      31.441  24.674  25.630  1.00  0.00     0.250 C 
ATOM      7  O   UNL A   1      30.727  23.750  26.053  1.00  0.00    -0.272 OA
ATOM      8  H   UNL A   1      31.789  25.129  27.523  1.00  0.00     0.163 HD
BRANCH   6   9
ATOM      9  C   UNL A   1      31.719  24.847  24.065  1.00  0.00     0.139 C 
ATOM     10  C   UNL A   1      30.660  23.894  23.412  1.00  0.00     0.051 C 
BRANCH   9  11
ATOM     11  N   UNL A   1      33.015  24.211  23.689  1.00  0.00    -0.368 N 
ATOM     12  H   UNL A   1      33.281  24.432  22.767  1.00  0.00     0.161 HD
BRANCH  11  13
ATOM     13  C   UNL A   1      33.932  23.392  24.308  1.00  0.00     0.038 A 
ATOM     14  C   UNL A   1      37.387  23.877  25.940  1.00  0.00     0.044 C 
ATOM     15  C   UNL A   1      36.171  23.227  25.350  1.00  0.00    -0.046 A 
ATOM     16  C   UNL A   1      36.108  21.838  25.274  1.00  0.00     0.042 A 
ATOM     17  C   UNL A   1      35.097  23.985  24.844  1.00  0.00     0.029 A 
ATOM     18  C   UNL A   1      34.945  21.243  24.818  1.00  0.00     0.125 A 
ATOM     19  F   UNL A   1      34.857  19.907  24.769  1.00  0.00    -0.207 F 
ATOM     20  C   UNL A   1      33.857  22.007  24.394  1.00  0.00     0.065 A 
ENDBRANCH  11  13
ENDBRANCH   9  11
BRANCH   9  21
ATOM     21  C   UNL A   1      31.483  26.302  23.598  1.00  0.00    -0.011 A 
ATOM     22  C   UNL A   1      32.517  27.150  23.148  1.00  0.00     0.007 A 
ATOM     23  C   UNL A   1      30.202  26.877  23.628  1.00  0.00     0.046 A 
ATOM     24  C   UNL A   1      32.278  28.484  22.773  1.00  0.00     0.003 A 
ATOM     25  C   UNL A   1      29.965  28.200  23.264  1.00  0.00     0.123 A 
ATOM     26  C   UNL A   1      30.996  29.014  22.839  1.00  0.00     0.039 A 
ATOM     27  F   UNL A   1      28.725  28.696  23.370  1.00  0.00    -0.207 F 
ENDBRANCH   9  21
ENDBRANCH   6   9
ENDBRANCH   4   5
ENDBRANCH   3   4
ENDBRANCH   2   3
ENDBRANCH   1   2
BRANCH   1  28
ATOM     28  C   UNL A   1      31.729  31.659  26.791  1.00  0.00     0.021 C 
BRANCH  28  29
ATOM     29  C   UNL A   1      32.908  32.434  27.371  1.00  0.00     0.116 C 
BRANCH  29  30
ATOM     30  N   UNL A   1      32.585  33.838  27.586  1.00  0.00    -0.352 N 
ATOM     31  C   UNL A   1      33.079  34.699  28.535  1.00  0.00     0.251 C 
ATOM     32  H   UNL A   1      31.923  34.221  26.967  1.00  0.00     0.163 HD
ATOM     33  O   UNL A   1      32.548  35.790  28.724  1.00  0.00    -0.269 OA
BRANCH  31  34
ATOM     34  C   UNL A   1      34.250  34.291  29.332  1.00  0.00     0.039 A 
ATOM     35  C   UNL A   1      34.059  33.626  30.546  1.00  0.00     0.014 A 
ATOM     36  C   UNL A   1      35.539  34.540  28.854  1.00  0.00     0.014 A 
ATOM     37  C   UNL A   1      35.166  33.149  31.251  1.00  0.00     0.010 A 
ATOM     38  C   UNL A   1      36.632  34.001  29.519  1.00  0.00     0.010 A 
ATOM     39  C   UNL A   1      36.459  33.301  30.724  1.00  0.00    -0.014 A 
BRANCH  39  40
ATOM     40  C   UNL A   1      37.656  32.735  31.395  1.00  0.00     0.031 A 
ATOM     41  C   UNL A   1      38.388  31.582  30.767  1.00  0.00     0.074 A 
ATOM     42  C   UNL A   1      37.999  33.169  32.623  1.00  0.00     0.049 A 
ATOM     43  N   UNL A   1      39.364  30.861  31.250  1.00  0.00    -0.248 NA
ATOM     44  C   UNL A   1      37.936  31.164  29.429  1.00  0.00     0.031 C 
ATOM     45  C   UNL A   1      37.329  34.242  33.361  1.00  0.00     0.029 A 
ATOM     46  N   UNL A   1      38.977  32.736  33.483  1.00  0.00    -0.354 N 
ATOM     47  C   UNL A   1      39.609  29.873  30.303  1.00  0.00     0.074 A 
ATOM     48  C   UNL A   1      38.660  30.073  29.230  1.00  0.00     0.031 C 
ATOM     49  C   UNL A   1      37.917  34.385  34.559  1.00  0.00     0.029 A 
ATOM     50  C   UNL A   1      38.977  33.391  34.693  1.00  0.00     0.049 A 
ATOM     51  H   UNL A   1      39.619  32.025  33.255  1.00  0.00     0.167 HD
ATOM     52  C   UNL A   1      40.552  28.901  30.316  1.00  0.00     0.034 A 
ATOM     53  C   UNL A   1      39.736  33.202  35.790  1.00  0.00     0.034 A 
ATOM     54  C   UNL A   1      41.517  28.735  31.369  1.00  0.00     0.049 A 
ATOM     55  C   UNL A   1      40.791  32.129  35.771  1.00  0.00     0.074 A 
ATOM     56  C   UNL A   1      42.575  27.847  31.435  1.00  0.00     0.029 A 
ATOM     57  N   UNL A   1      41.535  29.468  32.547  1.00  0.00    -0.354 N 
ATOM     58  N   UNL A   1      41.110  31.300  34.806  1.00  0.00    -0.248 NA
ATOM     59  C   UNL A   1      41.612  31.983  36.982  1.00  0.00     0.031 C 
ATOM     60  C   UNL A   1      43.215  28.022  32.667  1.00  0.00     0.029 A 
ATOM     61  C   UNL A   1      42.576  29.043  33.353  1.00  0.00     0.049 A 
ATOM     62  H   UNL A   1      40.901  30.185  32.774  1.00  0.00     0.167 HD
ATOM     63  C   UNL A   1      42.196  30.569  35.272  1.00  0.00     0.074 A 
ATOM     64  C   UNL A   1      42.485  31.058  36.606  1.00  0.00     0.031 C 
ATOM     65  C   UNL A   1      42.887  29.579  34.655  1.00  0.00     0.034 A 
BRANCH  52  66
ATOM     66  C   UNL A   1      40.600  27.963  29.137  1.00  0.00     0.023 A 
ATOM     67  C   UNL A   1      39.733  26.851  29.091  1.00  0.00     0.012 A 
ATOM     68  C   UNL A   1      41.482  28.192  28.063  1.00  0.00     0.148 A 
ATOM     69  C   UNL A   1      39.780  25.955  28.024  1.00  0.00     0.002 A 
ATOM     70  C   UNL A   1      41.488  27.322  26.979  1.00  0.00     0.091 A 
ATOM     71  F   UNL A   1      42.315  29.241  28.130  1.00  0.00    -0.205 F 
ATOM     72  C   UNL A   1      40.651  26.195  26.965  1.00  0.00     0.022 A 
BRANCH  70  73
ATOM     73  S   UNL A   1      42.513  27.598  25.530  1.00  0.00     0.127 S 
ATOM     74  O   UNL A   1      41.973  28.858  25.020  1.00  0.00    -0.237 OA
ATOM     75  O   UNL A   1      43.852  27.700  26.111  1.00  0.00    -0.237 OA
ATOM     76  O   UNL A   1      42.314  26.435  24.674  1.00  0.00    -0.744 OA
ENDBRANCH  70  73
ENDBRANCH  52  66
BRANCH  53  77
ATOM     77  C   UNL A   1      39.584  34.109  36.963  1.00  0.00     0.023 A 
ATOM     78  C   UNL A   1      39.955  35.461  36.829  1.00  0.00     0.012 A 
ATOM     79  C   UNL A   1      39.040  33.663  38.184  1.00  0.00     0.148 A 
ATOM     80  C   UNL A   1      39.815  36.349  37.896  1.00  0.00     0.002 A 
ATOM     81  C   UNL A   1      38.853  34.564  39.227  1.00  0.00     0.091 A 
ATOM     82  F   UNL A   1      38.698  32.372  38.292  1.00  0.00    -0.205 F 
ATOM     83  C   UNL A   1      39.254  35.903  39.091  1.00  0.00     0.022 A 
BRANCH  81  84
ATOM     84  S   UNL A   1      38.023  34.116  40.756  1.00  0.00     0.127 S 
ATOM     85  O   UNL A   1      37.819  35.422  41.380  1.00  0.00    -0.237 OA
ATOM     86  O   UNL A   1      36.806  33.473  40.261  1.00  0.00    -0.237 OA
ATOM     87  O   UNL A   1      38.932  33.219  41.456  1.00  0.00    -0.744 OA
ENDBRANCH  81  84
ENDBRANCH  53  77
BRANCH  65  88
ATOM     88  C   UNL A   1      44.064  28.984  35.384  1.00  0.00     0.023 A 
ATOM     89  C   UNL A   1      45.336  29.579  35.275  1.00  0.00     0.012 A 
ATOM     90  C   UNL A   1      43.885  27.887  36.249  1.00  0.00     0.148 A 
ATOM     91  C   UNL A   1      46.418  29.074  35.997  1.00  0.00     0.002 A 
ATOM     92  C   UNL A   1      44.954  27.422  37.005  1.00  0.00     0.091 A 
ATOM     93  F   UNL A   1      42.670  27.323  36.324  1.00  0.00    -0.205 F 
ATOM     94  C   UNL A   1      46.224  28.006  36.870  1.00  0.00     0.022 A 
BRANCH  92  95
ATOM     95  S   UNL A   1      44.776  26.120  38.229  1.00  0.00     0.127 S 
ATOM     96  O   UNL A   1      46.010  26.266  39.001  1.00  0.00    -0.237 OA
ATOM     97  O   UNL A   1      43.562  26.525  38.938  1.00  0.00    -0.237 OA
ATOM     98  O   UNL A   1      44.652  24.877  37.480  1.00  0.00    -0.744 OA
ENDBRANCH  92  95
ENDBRANCH  65  88
ENDBRANCH  39  40
ENDBRANCH  31  34
ENDBRANCH  29  30
ENDBRANCH  28  29
ENDBRANCH   1  28
TORSDOF 19
ENDMDL
MODEL 3
REMARK VINA RESULT:     -11.9      2.971      4.437
REMARK SMILES Cc1cc(F)cc(N[C@@](C)(C(=O)NCCCCCCNC(=O)c2ccc(-c3c4nc(c(-c5cccc(S(=O)(=O)[O-])c5F)c5ccc([nH]5)c(-c5cccc(S(=O)(=O)[O-])c5F)c5nc(c(-c6cccc(S(=O)(=O)[O-])c6F)c6ccc3[nH]6)C=C5)C=C4)cc2)c2cccc(F)c2)c1
REMARK SMILES IDX 17 1 16 2 15 3 14 4 13 5 11 6 12 7 9 9 10 10 8 11 7 13 1 14
REMARK SMILES IDX 2 15 3 16 93 17 4 18 5 19 6 20 86 21 87 22 92 23 88 24 90 25
REMARK SMILES IDX 89 26 91 27 18 28 19 29 20 30 21 31 22 33 23 34 24 35 85 36
REMARK SMILES IDX 25 37 84 38 26 39 27 40 28 41 78 42 29 43 83 44 77 45 79 46
REMARK SMILES IDX 30 47 82 48 76 49 75 50 31 52 63 53 43 54 62 55 44 56 47 57
REMARK SMILES IDX 61 58 80 59 45 60 46 61 60 63 81 64 48 65 32 66 33 67 41 68
REMARK SMILES IDX 34 69 36 70 42 71 35 72 37 73 38 74 39 75 40 76 64 77 65 78
REMARK SMILES IDX 73 79 66 80 68 81 74 82 67 83 69 84 70 85 71 86 72 87 49 88
REMARK SMILES IDX 50 89 58 90 51 91 53 92 59 93 52 94 54 95 55 96 56 97 57 98
REMARK H PARENT 13 8 8 12 20 32 79 51 47 62
REMARK Flexibility Score: inf
ROOT
ATOM      1  C   UNL A   1      32.184  28.296  27.419  1.00  0.00     0.002 C 
ENDROOT
BRANCH   1   2
ATOM      2  C   UNL A   1      31.072  27.379  26.908  1.00  0.00     0.002 C 
BRANCH   2   3
ATOM      3  C   UNL A   1      31.469  26.453  25.762  1.00  0.00     0.021 C 
BRANCH   3   4
ATOM      4  C   UNL A   1      30.861  25.046  25.814  1.00  0.00     0.116 C 
BRANCH   4   5
ATOM      5  N   UNL A   1      31.491  24.256  26.853  1.00  0.00    -0.354 N 
ATOM      6  C   UNL A   1      32.152  23.061  26.835  1.00  0.00     0.250 C 
ATOM      7  O   UNL A   1      32.408  22.614  27.965  1.00  0.00    -0.272 OA
ATOM      8  H   UNL A   1      31.432  24.661  27.748  1.00  0.00     0.163 HD
BRANCH   6   9
ATOM      9  C   UNL A   1      32.597  22.271  25.517  1.00  0.00     0.139 C 
ATOM     10  C   UNL A   1      31.538  22.731  24.457  1.00  0.00     0.051 C 
BRANCH   9  11
ATOM     11  N   UNL A   1      32.315  20.813  25.659  1.00  0.00    -0.368 N 
ATOM     12  H   UNL A   1      31.912  20.599  26.531  1.00  0.00     0.161 HD
BRANCH  11  13
ATOM     13  C   UNL A   1      32.476  19.693  24.875  1.00  0.00     0.038 A 
ATOM     14  C   UNL A   1      34.016  16.197  25.361  1.00  0.00     0.044 C 
ATOM     15  C   UNL A   1      33.421  17.412  24.714  1.00  0.00    -0.046 A 
ATOM     16  C   UNL A   1      33.241  17.431  23.333  1.00  0.00     0.042 A 
ATOM     17  C   UNL A   1      33.061  18.550  25.462  1.00  0.00     0.029 A 
ATOM     18  C   UNL A   1      32.604  18.515  22.755  1.00  0.00     0.125 A 
ATOM     19  F   UNL A   1      32.395  18.533  21.431  1.00  0.00    -0.207 F 
ATOM     20  C   UNL A   1      32.180  19.601  23.520  1.00  0.00     0.065 A 
ENDBRANCH  11  13
ENDBRANCH   9  11
BRANCH   9  21
ATOM     21  C   UNL A   1      34.017  22.675  25.060  1.00  0.00    -0.011 A 
ATOM     22  C   UNL A   1      34.458  22.583  23.722  1.00  0.00     0.007 A 
ATOM     23  C   UNL A   1      34.974  23.139  25.978  1.00  0.00     0.046 A 
ATOM     24  C   UNL A   1      35.770  22.915  23.344  1.00  0.00     0.003 A 
ATOM     25  C   UNL A   1      36.277  23.461  25.606  1.00  0.00     0.123 A 
ATOM     26  C   UNL A   1      36.687  23.349  24.292  1.00  0.00     0.039 A 
ATOM     27  F   UNL A   1      37.150  23.844  26.546  1.00  0.00    -0.207 F 
ENDBRANCH   9  21
ENDBRANCH   6   9
ENDBRANCH   4   5
ENDBRANCH   3   4
ENDBRANCH   2   3
ENDBRANCH   1   2
BRANCH   1  28
ATOM     28  C   UNL A   1      33.569  28.046  26.816  1.00  0.00     0.021 C 
BRANCH  28  29
ATOM     29  C   UNL A   1      34.184  29.246  26.103  1.00  0.00     0.116 C 
BRANCH  29  30
ATOM     30  N   UNL A   1      34.020  30.476  26.865  1.00  0.00    -0.352 N 
ATOM     31  C   UNL A   1      34.739  30.920  27.947  1.00  0.00     0.251 C 
ATOM     32  H   UNL A   1      33.296  31.070  26.563  1.00  0.00     0.163 HD
ATOM     33  O   UNL A   1      34.341  31.873  28.613  1.00  0.00    -0.269 OA
BRANCH  31  34
ATOM     34  C   UNL A   1      35.992  30.230  28.307  1.00  0.00     0.039 A 
ATOM     35  C   UNL A   1      37.106  30.346  27.472  1.00  0.00     0.014 A 
ATOM     36  C   UNL A   1      36.066  29.495  29.493  1.00  0.00     0.014 A 
ATOM     37  C   UNL A   1      38.321  29.779  27.863  1.00  0.00     0.010 A 
ATOM     38  C   UNL A   1      37.292  28.996  29.913  1.00  0.00     0.010 A 
ATOM     39  C   UNL A   1      38.431  29.131  29.104  1.00  0.00    -0.014 A 
BRANCH  39  40
ATOM     40  C   UNL A   1      39.721  28.588  29.598  1.00  0.00     0.031 A 
ATOM     41  C   UNL A   1      40.458  29.301  30.698  1.00  0.00     0.074 A 
ATOM     42  C   UNL A   1      40.289  27.540  28.970  1.00  0.00     0.049 A 
ATOM     43  N   UNL A   1      41.652  29.073  31.177  1.00  0.00    -0.248 NA
ATOM     44  C   UNL A   1      39.770  30.446  31.319  1.00  0.00     0.031 C 
ATOM     45  C   UNL A   1      39.699  26.802  27.851  1.00  0.00     0.029 A 
ATOM     46  N   UNL A   1      41.506  26.935  29.161  1.00  0.00    -0.354 N 
ATOM     47  C   UNL A   1      41.881  30.073  32.114  1.00  0.00     0.074 A 
ATOM     48  C   UNL A   1      40.712  30.925  32.117  1.00  0.00     0.031 C 
ATOM     49  C   UNL A   1      40.552  25.843  27.459  1.00  0.00     0.029 A 
ATOM     50  C   UNL A   1      41.764  25.922  28.267  1.00  0.00     0.049 A 
ATOM     51  H   UNL A   1      42.134  27.201  29.872  1.00  0.00     0.167 HD
ATOM     52  C   UNL A   1      42.958  30.254  32.916  1.00  0.00     0.034 A 
ATOM     53  C   UNL A   1      42.859  25.154  28.109  1.00  0.00     0.034 A 
ATOM     54  C   UNL A   1      44.099  29.378  32.935  1.00  0.00     0.049 A 
ATOM     55  C   UNL A   1      44.034  25.360  29.026  1.00  0.00     0.074 A 
ATOM     56  C   UNL A   1      45.197  29.414  33.773  1.00  0.00     0.029 A 
ATOM     57  N   UNL A   1      44.292  28.314  32.065  1.00  0.00    -0.354 N 
ATOM     58  N   UNL A   1      44.175  26.216  30.010  1.00  0.00    -0.248 NA
ATOM     59  C   UNL A   1      45.193  24.477  28.830  1.00  0.00     0.031 C 
ATOM     60  C   UNL A   1      46.070  28.389  33.392  1.00  0.00     0.029 A 
ATOM     61  C   UNL A   1      45.498  27.694  32.338  1.00  0.00     0.049 A 
ATOM     62  H   UNL A   1      43.662  28.041  31.360  1.00  0.00     0.167 HD
ATOM     63  C   UNL A   1      45.412  25.944  30.582  1.00  0.00     0.074 A 
ATOM     64  C   UNL A   1      45.979  24.838  29.836  1.00  0.00     0.031 C 
ATOM     65  C   UNL A   1      46.024  26.557  31.624  1.00  0.00     0.034 A 
BRANCH  52  66
ATOM     66  C   UNL A   1      42.933  31.429  33.859  1.00  0.00     0.023 A 
ATOM     67  C   UNL A   1      43.528  32.648  33.474  1.00  0.00     0.012 A 
ATOM     68  C   UNL A   1      42.300  31.338  35.115  1.00  0.00     0.148 A 
ATOM     69  C   UNL A   1      43.542  33.739  34.343  1.00  0.00     0.002 A 
ATOM     70  C   UNL A   1      42.275  32.445  35.954  1.00  0.00     0.091 A 
ATOM     71  F   UNL A   1      41.757  30.167  35.476  1.00  0.00    -0.205 F 
ATOM     72  C   UNL A   1      42.908  33.641  35.578  1.00  0.00     0.022 A 
BRANCH  70  73
ATOM     73  S   UNL A   1      41.408  32.440  37.528  1.00  0.00     0.127 S 
ATOM     74  O   UNL A   1      40.081  31.968  37.133  1.00  0.00    -0.237 OA
ATOM     75  O   UNL A   1      42.188  31.479  38.309  1.00  0.00    -0.237 OA
ATOM     76  O   UNL A   1      41.469  33.809  38.021  1.00  0.00    -0.744 OA
ENDBRANCH  70  73
ENDBRANCH  52  66
BRANCH  53  77
ATOM     77  C   UNL A   1      42.858  24.059  27.097  1.00  0.00     0.023 A 
ATOM     78  C   UNL A   1      43.531  24.261  25.876  1.00  0.00     0.012 A 
ATOM     79  C   UNL A   1      42.243  22.816  27.346  1.00  0.00     0.148 A 
ATOM     80  C   UNL A   1      43.569  23.258  24.908  1.00  0.00     0.002 A 
ATOM     81  C   UNL A   1      42.329  21.801  26.398  1.00  0.00     0.091 A 
ATOM     82  F   UNL A   1      41.604  22.645  28.511  1.00  0.00    -0.205 F 
ATOM     83  C   UNL A   1      42.977  22.025  25.173  1.00  0.00     0.022 A 
BRANCH  81  84
ATOM     84  S   UNL A   1      41.712  20.140  26.699  1.00  0.00     0.127 S 
ATOM     85  O   UNL A   1      42.031  19.470  25.441  1.00  0.00    -0.237 OA
ATOM     86  O   UNL A   1      42.521  19.721  27.844  1.00  0.00    -0.237 OA
ATOM     87  O   UNL A   1      40.293  20.288  26.992  1.00  0.00    -0.744 OA
ENDBRANCH  81  84
ENDBRANCH  53  77
BRANCH  65  88
ATOM     88  C   UNL A   1      47.360  26.020  32.069  1.00  0.00     0.023 A 
ATOM     89  C   UNL A   1      48.547  26.509  31.489  1.00  0.00     0.012 A 
ATOM     90  C   UNL A   1      47.438  25.094  33.128  1.00  0.00     0.148 A 
ATOM     91  C   UNL A   1      49.790  26.064  31.939  1.00  0.00     0.002 A 
ATOM     92  C   UNL A   1      48.680  24.696  33.606  1.00  0.00     0.091 A 
ATOM     93  F   UNL A   1      46.296  24.627  33.654  1.00  0.00    -0.205 F 
ATOM     94  C   UNL A   1      49.857  25.170  33.005  1.00  0.00     0.022 A 
BRANCH  92  95
ATOM     95  S   UNL A   1      48.864  23.628  35.039  1.00  0.00     0.127 S 
ATOM     96  O   UNL A   1      48.677  22.303  34.449  1.00  0.00    -0.237 OA
ATOM     97  O   UNL A   1      50.233  23.916  35.467  1.00  0.00    -0.237 OA
ATOM     98  O   UNL A   1      47.835  24.041  35.984  1.00  0.00    -0.744 OA
ENDBRANCH  92  95
ENDBRANCH  65  88
ENDBRANCH  39  40
ENDBRANCH  31  34
ENDBRANCH  29  30
ENDBRANCH  28  29
ENDBRANCH   1  28
TORSDOF 19
ENDMDL
