MODEL 1
REMARK VINA RESULT:     -11.6      0.000      0.000
REMARK SMILES CCCc1c(C(=O)NCCCCCCNC(=O)c2ccc(-c3c4nc(c(-c5cccc(S(=O)(=O)[O-])c5F)c5ccc([nH]5)c(-c5cccc(S(=O)(=O)[O-])c5F)c5nc(c(-c6cccc(S(=O)(=O)[O-])c6F)c6ccc3[nH]6)C=C5)C=C4)cc2)nnn1-c1ccccc1[N+](=O)[O-]
REMARK SMILES IDX 12 1 11 2 10 3 9 4 8 5 6 6 7 7 5 9 4 10 83 11 81 12 82 13
REMARK SMILES IDX 3 14 2 15 1 16 84 17 85 18 89 19 86 20 88 21 87 22 90 23
REMARK SMILES IDX 91 24 92 25 13 26 14 27 15 28 16 29 17 31 18 32 19 33 80 34
REMARK SMILES IDX 20 35 79 36 21 37 22 38 23 39 73 40 24 41 78 42 72 43 74 44
REMARK SMILES IDX 25 45 77 46 71 47 70 48 26 50 58 51 38 52 57 53 39 54 42 55
REMARK SMILES IDX 56 56 75 57 40 58 41 59 55 61 76 62 43 63 27 64 28 65 36 66
REMARK SMILES IDX 29 67 31 68 37 69 30 70 32 71 33 72 34 73 35 74 59 75 60 76
REMARK SMILES IDX 68 77 61 78 63 79 69 80 62 81 64 82 65 83 66 84 67 85 44 86
REMARK SMILES IDX 45 87 53 88 46 89 48 90 54 91 47 92 49 93 50 94 51 95 52 96
REMARK H PARENT 8 8 15 30 74 49 42 60
REMARK Flexibility Score: inf
ROOT
ATOM      1  C   UNL A   1      30.715  31.448  25.494  1.00  0.00     0.002 C 
ENDROOT
BRANCH   1   2
ATOM      2  C   UNL A   1      31.116  30.043  25.017  1.00  0.00     0.002 C 
BRANCH   2   3
ATOM      3  C   UNL A   1      30.411  29.565  23.745  1.00  0.00     0.021 C 
BRANCH   3   4
ATOM      4  C   UNL A   1      30.998  28.275  23.167  1.00  0.00     0.116 C 
BRANCH   4   5
ATOM      5  N   UNL A   1      32.281  28.523  22.570  1.00  0.00    -0.351 N 
ATOM      6  C   UNL A   1      33.395  27.760  22.348  1.00  0.00     0.273 C 
ATOM      7  O   UNL A   1      34.282  28.362  21.729  1.00  0.00    -0.267 OA
ATOM      8  H   UNL A   1      32.381  29.448  22.248  1.00  0.00     0.163 HD
BRANCH   6   9
ATOM      9  C   UNL A   1      33.571  26.343  22.711  1.00  0.00     0.174 A 
ATOM     10  C   UNL A   1      33.800  25.595  23.880  1.00  0.00     0.078 A 
ATOM     11  N   UNL A   1      33.756  24.280  23.419  1.00  0.00    -0.210 N 
ATOM     12  N   UNL A   1      33.576  25.467  21.640  1.00  0.00    -0.124 NA
ATOM     13  N   UNL A   1      33.772  24.243  22.077  1.00  0.00    -0.061 NA
BRANCH  10  14
ATOM     14  C   UNL A   1      34.076  25.997  25.301  1.00  0.00     0.059 C 
BRANCH  14  15
ATOM     15  C   UNL A   1      33.308  27.128  25.985  1.00  0.00     0.003 C 
ATOM     16  C   UNL A   1      34.046  28.451  26.055  1.00  0.00     0.004 C 
ENDBRANCH  14  15
ENDBRANCH  10  14
BRANCH  11  17
ATOM     17  C   UNL A   1      33.796  23.056  24.112  1.00  0.00     0.144 A 
ATOM     18  C   UNL A   1      34.983  22.311  24.001  1.00  0.00     0.036 A 
ATOM     19  C   UNL A   1      32.755  22.589  24.925  1.00  0.00     0.294 A 
ATOM     20  C   UNL A   1      35.160  21.164  24.771  1.00  0.00     0.003 A 
ATOM     21  C   UNL A   1      32.935  21.423  25.686  1.00  0.00     0.088 A 
ATOM     22  C   UNL A   1      34.144  20.727  25.621  1.00  0.00     0.007 A 
BRANCH  19  23
ATOM     23  N   UNL A   1      31.448  23.243  24.978  1.00  0.00     0.065 N 
ATOM     24  O   UNL A   1      30.708  23.123  23.991  1.00  0.00    -0.258 OA
ATOM     25  O   UNL A   1      31.164  23.901  25.987  1.00  0.00    -0.258 OA
ENDBRANCH  19  23
ENDBRANCH  11  17
ENDBRANCH   6   9
ENDBRANCH   4   5
ENDBRANCH   3   4
ENDBRANCH   2   3
ENDBRANCH   1   2
BRANCH   1  26
ATOM     26  C   UNL A   1      31.127  31.815  26.929  1.00  0.00     0.021 C 
BRANCH  26  27
ATOM     27  C   UNL A   1      32.464  32.536  27.001  1.00  0.00     0.116 C 
BRANCH  27  28
ATOM     28  N   UNL A   1      32.305  33.896  27.516  1.00  0.00    -0.352 N 
ATOM     29  C   UNL A   1      32.997  34.542  28.519  1.00  0.00     0.251 C 
ATOM     30  H   UNL A   1      31.600  34.429  27.083  1.00  0.00     0.163 HD
ATOM     31  O   UNL A   1      32.531  35.534  29.054  1.00  0.00    -0.269 OA
BRANCH  29  32
ATOM     32  C   UNL A   1      34.309  34.015  28.932  1.00  0.00     0.039 A 
ATOM     33  C   UNL A   1      34.445  33.280  30.115  1.00  0.00     0.014 A 
ATOM     34  C   UNL A   1      35.408  34.265  28.117  1.00  0.00     0.014 A 
ATOM     35  C   UNL A   1      35.687  32.734  30.428  1.00  0.00     0.010 A 
ATOM     36  C   UNL A   1      36.585  33.601  28.342  1.00  0.00     0.010 A 
ATOM     37  C   UNL A   1      36.747  32.887  29.524  1.00  0.00    -0.014 A 
BRANCH  37  38
ATOM     38  C   UNL A   1      38.012  32.186  29.719  1.00  0.00     0.031 A 
ATOM     39  C   UNL A   1      38.002  30.794  29.200  1.00  0.00     0.074 A 
ATOM     40  C   UNL A   1      39.139  32.834  30.087  1.00  0.00     0.049 A 
ATOM     41  N   UNL A   1      38.025  29.697  29.882  1.00  0.00    -0.248 NA
ATOM     42  C   UNL A   1      37.745  30.590  27.763  1.00  0.00     0.031 C 
ATOM     43  C   UNL A   1      39.295  34.283  30.299  1.00  0.00     0.029 A 
ATOM     44  N   UNL A   1      40.419  32.379  30.195  1.00  0.00    -0.354 N 
ATOM     45  C   UNL A   1      38.088  28.679  28.931  1.00  0.00     0.074 A 
ATOM     46  C   UNL A   1      37.640  29.261  27.698  1.00  0.00     0.031 C 
ATOM     47  C   UNL A   1      40.603  34.611  30.245  1.00  0.00     0.029 A 
ATOM     48  C   UNL A   1      41.380  33.389  30.183  1.00  0.00     0.049 A 
ATOM     49  H   UNL A   1      40.644  31.424  30.274  1.00  0.00     0.167 HD
ATOM     50  C   UNL A   1      38.839  27.565  29.163  1.00  0.00     0.034 A 
ATOM     51  C   UNL A   1      42.723  33.240  30.107  1.00  0.00     0.034 A 
ATOM     52  C   UNL A   1      39.253  27.518  30.543  1.00  0.00     0.049 A 
ATOM     53  C   UNL A   1      43.034  31.865  30.540  1.00  0.00     0.074 A 
ATOM     54  C   UNL A   1      38.659  27.307  31.768  1.00  0.00     0.029 A 
ATOM     55  N   UNL A   1      40.459  28.131  30.766  1.00  0.00    -0.354 N 
ATOM     56  N   UNL A   1      42.857  31.451  31.762  1.00  0.00    -0.248 NA
ATOM     57  C   UNL A   1      43.226  30.819  29.544  1.00  0.00     0.031 C 
ATOM     58  C   UNL A   1      39.464  28.007  32.715  1.00  0.00     0.029 A 
ATOM     59  C   UNL A   1      40.547  28.583  32.051  1.00  0.00     0.049 A 
ATOM     60  H   UNL A   1      41.168  28.229  30.089  1.00  0.00     0.167 HD
ATOM     61  C   UNL A   1      42.437  30.143  31.605  1.00  0.00     0.074 A 
ATOM     62  C   UNL A   1      42.879  29.755  30.273  1.00  0.00     0.031 C 
ATOM     63  C   UNL A   1      41.480  29.624  32.426  1.00  0.00     0.034 A 
BRANCH  50  64
ATOM     64  C   UNL A   1      39.634  26.784  28.124  1.00  0.00     0.023 A 
ATOM     65  C   UNL A   1      39.515  25.373  28.169  1.00  0.00     0.012 A 
ATOM     66  C   UNL A   1      40.693  27.300  27.342  1.00  0.00     0.148 A 
ATOM     67  C   UNL A   1      40.433  24.528  27.533  1.00  0.00     0.002 A 
ATOM     68  C   UNL A   1      41.566  26.458  26.657  1.00  0.00     0.091 A 
ATOM     69  F   UNL A   1      40.959  28.606  27.342  1.00  0.00    -0.205 F 
ATOM     70  C   UNL A   1      41.461  25.072  26.776  1.00  0.00     0.022 A 
BRANCH  68  71
ATOM     71  S   UNL A   1      42.902  27.109  25.641  1.00  0.00     0.127 S 
ATOM     72  O   UNL A   1      43.760  27.727  26.647  1.00  0.00    -0.237 OA
ATOM     73  O   UNL A   1      43.434  25.890  25.033  1.00  0.00    -0.237 OA
ATOM     74  O   UNL A   1      42.272  28.021  24.694  1.00  0.00    -0.744 OA
ENDBRANCH  68  71
ENDBRANCH  50  64
BRANCH  51  75
ATOM     75  C   UNL A   1      43.775  34.133  29.580  1.00  0.00     0.023 A 
ATOM     76  C   UNL A   1      44.557  34.893  30.473  1.00  0.00     0.012 A 
ATOM     77  C   UNL A   1      44.211  34.007  28.244  1.00  0.00     0.148 A 
ATOM     78  C   UNL A   1      45.765  35.468  30.062  1.00  0.00     0.002 A 
ATOM     79  C   UNL A   1      45.418  34.572  27.842  1.00  0.00     0.091 A 
ATOM     80  F   UNL A   1      43.485  33.258  27.402  1.00  0.00    -0.205 F 
ATOM     81  C   UNL A   1      46.203  35.293  28.752  1.00  0.00     0.022 A 
BRANCH  79  82
ATOM     82  S   UNL A   1      46.086  34.341  26.189  1.00  0.00     0.127 S 
ATOM     83  O   UNL A   1      47.226  35.257  26.196  1.00  0.00    -0.237 OA
ATOM     84  O   UNL A   1      46.437  32.923  26.202  1.00  0.00    -0.237 OA
ATOM     85  O   UNL A   1      45.017  34.711  25.271  1.00  0.00    -0.744 OA
ENDBRANCH  79  82
ENDBRANCH  51  75
BRANCH  63  86
ATOM     86  C   UNL A   1      41.261  30.307  33.744  1.00  0.00     0.023 A 
ATOM     87  C   UNL A   1      42.173  30.227  34.816  1.00  0.00     0.012 A 
ATOM     88  C   UNL A   1      40.138  31.140  33.861  1.00  0.00     0.148 A 
ATOM     89  C   UNL A   1      41.954  30.952  35.990  1.00  0.00     0.002 A 
ATOM     90  C   UNL A   1      39.950  31.895  35.008  1.00  0.00     0.091 A 
ATOM     91  F   UNL A   1      39.279  31.191  32.831  1.00  0.00    -0.205 F 
ATOM     92  C   UNL A   1      40.850  31.797  36.081  1.00  0.00     0.022 A 
BRANCH  90  93
ATOM     93  S   UNL A   1      38.615  33.086  35.123  1.00  0.00     0.127 S 
ATOM     94  O   UNL A   1      37.450  32.221  35.296  1.00  0.00    -0.237 OA
ATOM     95  O   UNL A   1      38.986  33.859  36.311  1.00  0.00    -0.237 OA
ATOM     96  O   UNL A   1      38.654  33.850  33.883  1.00  0.00    -0.744 OA
ENDBRANCH  90  93
ENDBRANCH  63  86
ENDBRANCH  37  38
ENDBRANCH  29  32
ENDBRANCH  27  28
ENDBRANCH  26  27
ENDBRANCH   1  26
TORSDOF 20
ENDMDL
MODEL 2
REMARK VINA RESULT:     -11.6      3.860      9.465
REMARK SMILES CCCc1c(C(=O)NCCCCCCNC(=O)c2ccc(-c3c4nc(c(-c5cccc(S(=O)(=O)[O-])c5F)c5ccc([nH]5)c(-c5cccc(S(=O)(=O)[O-])c5F)c5nc(c(-c6cccc(S(=O)(=O)[O-])c6F)c6ccc3[nH]6)C=C5)C=C4)cc2)nnn1-c1ccccc1[N+](=O)[O-]
REMARK SMILES IDX 12 1 11 2 10 3 9 4 8 5 6 6 7 7 5 9 4 10 83 11 81 12 82 13
REMARK SMILES IDX 3 14 2 15 1 16 84 17 85 18 89 19 86 20 88 21 87 22 90 23
REMARK SMILES IDX 91 24 92 25 13 26 14 27 15 28 16 29 17 31 18 32 19 33 80 34
REMARK SMILES IDX 20 35 79 36 21 37 22 38 23 39 73 40 24 41 78 42 72 43 74 44
REMARK SMILES IDX 25 45 77 46 71 47 70 48 26 50 58 51 38 52 57 53 39 54 42 55
REMARK SMILES IDX 56 56 75 57 40 58 41 59 55 61 76 62 43 63 27 64 28 65 36 66
REMARK SMILES IDX 29 67 31 68 37 69 30 70 32 71 33 72 34 73 35 74 59 75 60 76
REMARK SMILES IDX 68 77 61 78 63 79 69 80 62 81 64 82 65 83 66 84 67 85 44 86
REMARK SMILES IDX 45 87 53 88 46 89 48 90 54 91 47 92 49 93 50 94 51 95 52 96
REMARK H PARENT 8 8 15 30 74 49 42 60
REMARK Flexibility Score: inf
ROOT
ATOM      1  C   UNL A   1      36.399  20.653  24.597  1.00  0.00     0.002 C 
ENDROOT
BRANCH   1   2
ATOM      2  C   UNL A   1      35.050  20.522  25.322  1.00  0.00     0.002 C 
BRANCH   2   3
ATOM      3  C   UNL A   1      33.819  20.559  24.413  1.00  0.00     0.021 C 
BRANCH   3   4
ATOM      4  C   UNL A   1      32.525  20.919  25.148  1.00  0.00     0.116 C 
BRANCH   4   5
ATOM      5  N   UNL A   1      32.799  21.280  26.512  1.00  0.00    -0.351 N 
ATOM      6  C   UNL A   1      32.661  22.428  27.242  1.00  0.00     0.273 C 
ATOM      7  O   UNL A   1      32.963  22.287  28.435  1.00  0.00    -0.267 OA
ATOM      8  H   UNL A   1      33.168  20.533  27.038  1.00  0.00     0.163 HD
BRANCH   6   9
ATOM      9  C   UNL A   1      32.144  23.718  26.754  1.00  0.00     0.174 A 
ATOM     10  C   UNL A   1      32.656  24.866  26.122  1.00  0.00     0.078 A 
ATOM     11  N   UNL A   1      31.513  25.631  25.895  1.00  0.00    -0.210 N 
ATOM     12  N   UNL A   1      30.802  23.940  27.010  1.00  0.00    -0.124 NA
ATOM     13  N   UNL A   1      30.461  25.127  26.563  1.00  0.00    -0.061 NA
BRANCH  10  14
ATOM     14  C   UNL A   1      34.055  25.288  25.768  1.00  0.00     0.059 C 
BRANCH  14  15
ATOM     15  C   UNL A   1      35.079  24.302  25.209  1.00  0.00     0.003 C 
ATOM     16  C   UNL A   1      34.961  24.032  23.721  1.00  0.00     0.004 C 
ENDBRANCH  14  15
ENDBRANCH  10  14
BRANCH  11  17
ATOM     17  C   UNL A   1      31.332  26.837  25.196  1.00  0.00     0.144 A 
ATOM     18  C   UNL A   1      30.904  26.731  23.861  1.00  0.00     0.036 A 
ATOM     19  C   UNL A   1      31.502  28.103  25.772  1.00  0.00     0.294 A 
ATOM     20  C   UNL A   1      30.560  27.876  23.146  1.00  0.00     0.003 A 
ATOM     21  C   UNL A   1      31.169  29.254  25.040  1.00  0.00     0.088 A 
ATOM     22  C   UNL A   1      30.680  29.133  23.737  1.00  0.00     0.007 A 
BRANCH  19  23
ATOM     23  N   UNL A   1      32.073  28.286  27.106  1.00  0.00     0.065 N 
ATOM     24  O   UNL A   1      31.323  28.118  28.078  1.00  0.00    -0.258 OA
ATOM     25  O   UNL A   1      33.260  28.626  27.192  1.00  0.00    -0.258 OA
ENDBRANCH  19  23
ENDBRANCH  11  17
ENDBRANCH   6   9
ENDBRANCH   4   5
ENDBRANCH   3   4
ENDBRANCH   2   3
ENDBRANCH   1   2
BRANCH   1  26
ATOM     26  C   UNL A   1      37.465  19.610  24.964  1.00  0.00     0.021 C 
BRANCH  26  27
ATOM     27  C   UNL A   1      38.681  20.214  25.651  1.00  0.00     0.116 C 
BRANCH  27  28
ATOM     28  N   UNL A   1      39.774  19.246  25.740  1.00  0.00    -0.352 N 
ATOM     29  C   UNL A   1      41.120  19.458  25.957  1.00  0.00     0.251 C 
ATOM     30  H   UNL A   1      39.510  18.304  25.629  1.00  0.00     0.163 HD
ATOM     31  O   UNL A   1      41.936  18.599  25.670  1.00  0.00    -0.269 OA
BRANCH  29  32
ATOM     32  C   UNL A   1      41.554  20.738  26.543  1.00  0.00     0.039 A 
ATOM     33  C   UNL A   1      42.094  21.747  25.738  1.00  0.00     0.014 A 
ATOM     34  C   UNL A   1      41.411  20.919  27.915  1.00  0.00     0.014 A 
ATOM     35  C   UNL A   1      42.418  22.969  26.320  1.00  0.00     0.010 A 
ATOM     36  C   UNL A   1      41.582  22.165  28.456  1.00  0.00     0.010 A 
ATOM     37  C   UNL A   1      42.142  23.173  27.679  1.00  0.00    -0.014 A 
BRANCH  37  38
ATOM     38  C   UNL A   1      42.296  24.488  28.291  1.00  0.00     0.031 A 
ATOM     39  C   UNL A   1      41.107  25.363  28.119  1.00  0.00     0.074 A 
ATOM     40  C   UNL A   1      43.306  24.765  29.145  1.00  0.00     0.049 A 
ATOM     41  N   UNL A   1      41.006  26.423  27.388  1.00  0.00    -0.248 NA
ATOM     42  C   UNL A   1      39.822  24.905  28.675  1.00  0.00     0.031 C 
ATOM     43  C   UNL A   1      44.341  23.832  29.620  1.00  0.00     0.029 A 
ATOM     44  N   UNL A   1      43.539  25.876  29.900  1.00  0.00    -0.354 N 
ATOM     45  C   UNL A   1      39.727  26.918  27.640  1.00  0.00     0.074 A 
ATOM     46  C   UNL A   1      38.981  25.824  28.195  1.00  0.00     0.031 C 
ATOM     47  C   UNL A   1      44.906  24.317  30.745  1.00  0.00     0.029 A 
ATOM     48  C   UNL A   1      44.413  25.662  30.964  1.00  0.00     0.049 A 
ATOM     49  H   UNL A   1      43.127  26.750  29.710  1.00  0.00     0.167 HD
ATOM     50  C   UNL A   1      39.509  28.263  27.707  1.00  0.00     0.034 A 
ATOM     51  C   UNL A   1      44.702  26.520  31.971  1.00  0.00     0.034 A 
ATOM     52  C   UNL A   1      40.660  28.982  27.220  1.00  0.00     0.049 A 
ATOM     53  C   UNL A   1      44.346  27.873  31.507  1.00  0.00     0.074 A 
ATOM     54  C   UNL A   1      41.275  29.197  26.008  1.00  0.00     0.029 A 
ATOM     55  N   UNL A   1      41.564  29.284  28.206  1.00  0.00    -0.354 N 
ATOM     56  N   UNL A   1      44.979  28.479  30.542  1.00  0.00    -0.248 NA
ATOM     57  C   UNL A   1      43.058  28.448  31.873  1.00  0.00     0.031 C 
ATOM     58  C   UNL A   1      42.649  29.438  26.307  1.00  0.00     0.029 A 
ATOM     59  C   UNL A   1      42.823  29.409  27.691  1.00  0.00     0.049 A 
ATOM     60  H   UNL A   1      41.336  29.397  29.157  1.00  0.00     0.167 HD
ATOM     61  C   UNL A   1      43.981  29.173  29.884  1.00  0.00     0.074 A 
ATOM     62  C   UNL A   1      42.893  29.287  30.846  1.00  0.00     0.031 C 
ATOM     63  C   UNL A   1      43.999  29.281  28.525  1.00  0.00     0.034 A 
BRANCH  50  64
ATOM     64  C   UNL A   1      38.533  28.970  28.640  1.00  0.00     0.023 A 
ATOM     65  C   UNL A   1      37.731  29.984  28.062  1.00  0.00     0.012 A 
ATOM     66  C   UNL A   1      38.571  28.928  30.053  1.00  0.00     0.148 A 
ATOM     67  C   UNL A   1      37.065  30.940  28.838  1.00  0.00     0.002 A 
ATOM     68  C   UNL A   1      37.855  29.841  30.825  1.00  0.00     0.091 A 
ATOM     69  F   UNL A   1      39.395  28.092  30.683  1.00  0.00    -0.205 F 
ATOM     70  C   UNL A   1      37.128  30.869  30.223  1.00  0.00     0.022 A 
BRANCH  68  71
ATOM     71  S   UNL A   1      37.880  29.779  32.623  1.00  0.00     0.127 S 
ATOM     72  O   UNL A   1      36.938  30.839  32.966  1.00  0.00    -0.237 OA
ATOM     73  O   UNL A   1      37.406  28.418  32.880  1.00  0.00    -0.237 OA
ATOM     74  O   UNL A   1      39.267  30.009  33.009  1.00  0.00    -0.744 OA
ENDBRANCH  68  71
ENDBRANCH  50  64
BRANCH  51  75
ATOM     75  C   UNL A   1      45.150  26.279  33.358  1.00  0.00     0.023 A 
ATOM     76  C   UNL A   1      46.517  26.391  33.680  1.00  0.00     0.012 A 
ATOM     77  C   UNL A   1      44.211  26.243  34.412  1.00  0.00     0.148 A 
ATOM     78  C   UNL A   1      46.936  26.518  35.009  1.00  0.00     0.002 A 
ATOM     79  C   UNL A   1      44.632  26.380  35.732  1.00  0.00     0.091 A 
ATOM     80  F   UNL A   1      42.908  26.169  34.106  1.00  0.00    -0.205 F 
ATOM     81  C   UNL A   1      45.993  26.529  36.032  1.00  0.00     0.022 A 
BRANCH  79  82
ATOM     82  S   UNL A   1      43.476  26.467  37.106  1.00  0.00     0.127 S 
ATOM     83  O   UNL A   1      42.225  26.797  36.425  1.00  0.00    -0.237 OA
ATOM     84  O   UNL A   1      43.544  25.110  37.643  1.00  0.00    -0.237 OA
ATOM     85  O   UNL A   1      43.981  27.513  37.986  1.00  0.00    -0.744 OA
ENDBRANCH  79  82
ENDBRANCH  51  75
BRANCH  63  86
ATOM     86  C   UNL A   1      45.315  29.069  27.836  1.00  0.00     0.023 A 
ATOM     87  C   UNL A   1      46.373  29.998  27.890  1.00  0.00     0.012 A 
ATOM     88  C   UNL A   1      45.517  27.836  27.197  1.00  0.00     0.148 A 
ATOM     89  C   UNL A   1      47.604  29.705  27.296  1.00  0.00     0.002 A 
ATOM     90  C   UNL A   1      46.755  27.531  26.652  1.00  0.00     0.091 A 
ATOM     91  F   UNL A   1      44.491  26.972  27.150  1.00  0.00    -0.205 F 
ATOM     92  C   UNL A   1      47.800  28.467  26.690  1.00  0.00     0.022 A 
BRANCH  90  93
ATOM     93  S   UNL A   1      47.091  25.907  25.971  1.00  0.00     0.127 S 
ATOM     94  O   UNL A   1      48.500  26.016  25.604  1.00  0.00    -0.237 OA
ATOM     95  O   UNL A   1      46.820  25.027  27.111  1.00  0.00    -0.237 OA
ATOM     96  O   UNL A   1      46.161  25.740  24.861  1.00  0.00    -0.744 OA
ENDBRANCH  90  93
ENDBRANCH  63  86
ENDBRANCH  37  38
ENDBRANCH  29  32
ENDBRANCH  27  28
ENDBRANCH  26  27
ENDBRANCH   1  26
TORSDOF 20
ENDMDL
MODEL 3
REMARK VINA RESULT:     -11.3      3.509      7.463
REMARK SMILES CCCc1c(C(=O)NCCCCCCNC(=O)c2ccc(-c3c4nc(c(-c5cccc(S(=O)(=O)[O-])c5F)c5ccc([nH]5)c(-c5cccc(S(=O)(=O)[O-])c5F)c5nc(c(-c6cccc(S(=O)(=O)[O-])c6F)c6ccc3[nH]6)C=C5)C=C4)cc2)nnn1-c1ccccc1[N+](=O)[O-]
REMARK SMILES IDX 12 1 11 2 10 3 9 4 8 5 6 6 7 7 5 9 4 10 83 11 81 12 82 13
REMARK SMILES IDX 3 14 2 15 1 16 84 17 85 18 89 19 86 20 88 21 87 22 90 23
REMARK SMILES IDX 91 24 92 25 13 26 14 27 15 28 16 29 17 31 18 32 19 33 80 34
REMARK SMILES IDX 20 35 79 36 21 37 22 38 23 39 73 40 24 41 78 42 72 43 74 44
REMARK SMILES IDX 25 45 77 46 71 47 70 48 26 50 58 51 38 52 57 53 39 54 42 55
REMARK SMILES IDX 56 56 75 57 40 58 41 59 55 61 76 62 43 63 27 64 28 65 36 66
REMARK SMILES IDX 29 67 31 68 37 69 30 70 32 71 33 72 34 73 35 74 59 75 60 76
REMARK SMILES IDX 68 77 61 78 63 79 69 80 62 81 64 82 65 83 66 84 67 85 44 86
REMARK SMILES IDX 45 87 53 88 46 89 48 90 54 91 47 92 49 93 50 94 51 95 52 96
REMARK H PARENT 8 8 15 30 74 49 42 60
REMARK Flexibility Score: inf
ROOT
ATOM      1  C   UNL A   1      32.310  30.407  26.590  1.00  0.00     0.002 C 
ENDROOT
BRANCH   1   2
ATOM      2  C   UNL A   1      31.640  29.156  26.001  1.00  0.00     0.002 C 
BRANCH   2   3
ATOM      3  C   UNL A   1      31.048  29.337  24.601  1.00  0.00     0.021 C 
BRANCH   3   4
ATOM      4  C   UNL A   1      31.254  28.127  23.686  1.00  0.00     0.116 C 
BRANCH   4   5
ATOM      5  N   UNL A   1      32.407  28.315  22.849  1.00  0.00    -0.351 N 
ATOM      6  C   UNL A   1      33.387  27.487  22.374  1.00  0.00     0.273 C 
ATOM      7  O   UNL A   1      34.178  28.057  21.610  1.00  0.00    -0.267 OA
ATOM      8  H   UNL A   1      32.516  29.247  22.550  1.00  0.00     0.163 HD
BRANCH   6   9
ATOM      9  C   UNL A   1      33.516  26.043  22.637  1.00  0.00     0.174 A 
ATOM     10  C   UNL A   1      33.652  25.203  23.757  1.00  0.00     0.078 A 
ATOM     11  N   UNL A   1      33.620  23.929  23.193  1.00  0.00    -0.210 N 
ATOM     12  N   UNL A   1      33.582  25.251  21.503  1.00  0.00    -0.124 NA
ATOM     13  N   UNL A   1      33.729  23.994  21.856  1.00  0.00    -0.061 NA
BRANCH  10  14
ATOM     14  C   UNL A   1      33.834  25.490  25.220  1.00  0.00     0.059 C 
BRANCH  14  15
ATOM     15  C   UNL A   1      32.646  25.657  26.165  1.00  0.00     0.003 C 
ATOM     16  C   UNL A   1      32.019  24.361  26.642  1.00  0.00     0.004 C 
ENDBRANCH  14  15
ENDBRANCH  10  14
BRANCH  11  17
ATOM     17  C   UNL A   1      33.593  22.655  23.789  1.00  0.00     0.144 A 
ATOM     18  C   UNL A   1      32.350  22.000  23.817  1.00  0.00     0.036 A 
ATOM     19  C   UNL A   1      34.731  22.009  24.292  1.00  0.00     0.294 A 
ATOM     20  C   UNL A   1      32.267  20.680  24.254  1.00  0.00     0.003 A 
ATOM     21  C   UNL A   1      34.636  20.684  24.747  1.00  0.00     0.088 A 
ATOM     22  C   UNL A   1      33.408  20.019  24.706  1.00  0.00     0.007 A 
BRANCH  19  23
ATOM     23  N   UNL A   1      36.023  22.682  24.418  1.00  0.00     0.065 N 
ATOM     24  O   UNL A   1      36.375  23.038  25.552  1.00  0.00    -0.258 OA
ATOM     25  O   UNL A   1      36.678  22.886  23.389  1.00  0.00    -0.258 OA
ENDBRANCH  19  23
ENDBRANCH  11  17
ENDBRANCH   6   9
ENDBRANCH   4   5
ENDBRANCH   3   4
ENDBRANCH   2   3
ENDBRANCH   1   2
BRANCH   1  26
ATOM     26  C   UNL A   1      33.466  30.154  27.571  1.00  0.00     0.021 C 
BRANCH  26  27
ATOM     27  C   UNL A   1      34.442  31.317  27.659  1.00  0.00     0.116 C 
BRANCH  27  28
ATOM     28  N   UNL A   1      34.391  31.953  28.976  1.00  0.00    -0.352 N 
ATOM     29  C   UNL A   1      35.204  31.765  30.074  1.00  0.00     0.251 C 
ATOM     30  H   UNL A   1      33.670  32.613  29.095  1.00  0.00     0.163 HD
ATOM     31  O   UNL A   1      34.834  32.108  31.184  1.00  0.00    -0.269 OA
BRANCH  29  32
ATOM     32  C   UNL A   1      36.527  31.146  29.883  1.00  0.00     0.039 A 
ATOM     33  C   UNL A   1      37.666  31.936  29.695  1.00  0.00     0.014 A 
ATOM     34  C   UNL A   1      36.615  29.757  29.895  1.00  0.00     0.014 A 
ATOM     35  C   UNL A   1      38.907  31.313  29.597  1.00  0.00     0.010 A 
ATOM     36  C   UNL A   1      37.844  29.156  29.955  1.00  0.00     0.010 A 
ATOM     37  C   UNL A   1      38.986  29.921  29.745  1.00  0.00    -0.014 A 
BRANCH  37  38
ATOM     38  C   UNL A   1      40.275  29.243  29.828  1.00  0.00     0.031 A 
ATOM     39  C   UNL A   1      40.757  29.061  31.222  1.00  0.00     0.074 A 
ATOM     40  C   UNL A   1      40.824  28.617  28.763  1.00  0.00     0.049 A 
ATOM     41  N   UNL A   1      41.754  29.651  31.795  1.00  0.00    -0.248 NA
ATOM     42  C   UNL A   1      39.926  28.273  32.148  1.00  0.00     0.031 C 
ATOM     43  C   UNL A   1      40.234  28.476  27.422  1.00  0.00     0.029 A 
ATOM     44  N   UNL A   1      41.939  27.838  28.681  1.00  0.00    -0.354 N 
ATOM     45  C   UNL A   1      41.839  29.072  33.061  1.00  0.00     0.074 A 
ATOM     46  C   UNL A   1      40.562  28.465  33.306  1.00  0.00     0.031 C 
ATOM     47  C   UNL A   1      40.843  27.469  26.763  1.00  0.00     0.029 A 
ATOM     48  C   UNL A   1      41.975  27.023  27.551  1.00  0.00     0.049 A 
ATOM     49  H   UNL A   1      42.654  27.850  29.358  1.00  0.00     0.167 HD
ATOM     50  C   UNL A   1      43.055  28.836  33.631  1.00  0.00     0.034 A 
ATOM     51  C   UNL A   1      42.860  26.034  27.283  1.00  0.00     0.034 A 
ATOM     52  C   UNL A   1      44.095  29.504  32.887  1.00  0.00     0.049 A 
ATOM     53  C   UNL A   1      44.054  26.281  28.111  1.00  0.00     0.074 A 
ATOM     54  C   UNL A   1      44.507  30.799  32.672  1.00  0.00     0.029 A 
ATOM     55  N   UNL A   1      44.634  28.725  31.895  1.00  0.00    -0.354 N 
ATOM     56  N   UNL A   1      44.840  27.305  27.932  1.00  0.00    -0.248 NA
ATOM     57  C   UNL A   1      44.211  25.583  29.380  1.00  0.00     0.031 C 
ATOM     58  C   UNL A   1      45.142  30.798  31.395  1.00  0.00     0.029 A 
ATOM     59  C   UNL A   1      45.139  29.498  30.889  1.00  0.00     0.049 A 
ATOM     60  H   UNL A   1      44.655  27.741  31.908  1.00  0.00     0.167 HD
ATOM     61  C   UNL A   1      45.217  27.654  29.215  1.00  0.00     0.074 A 
ATOM     62  C   UNL A   1      44.982  26.465  30.022  1.00  0.00     0.031 C 
ATOM     63  C   UNL A   1      45.352  28.967  29.560  1.00  0.00     0.034 A 
BRANCH  50  64
ATOM     64  C   UNL A   1      43.420  27.646  34.510  1.00  0.00     0.023 A 
ATOM     65  C   UNL A   1      43.883  27.946  35.815  1.00  0.00     0.012 A 
ATOM     66  C   UNL A   1      43.632  26.324  34.057  1.00  0.00     0.148 A 
ATOM     67  C   UNL A   1      44.577  27.010  36.592  1.00  0.00     0.002 A 
ATOM     68  C   UNL A   1      44.265  25.375  34.858  1.00  0.00     0.091 A 
ATOM     69  F   UNL A   1      43.345  25.986  32.801  1.00  0.00    -0.205 F 
ATOM     70  C   UNL A   1      44.768  25.722  36.112  1.00  0.00     0.022 A 
BRANCH  68  71
ATOM     71  S   UNL A   1      44.517  23.685  34.296  1.00  0.00     0.127 S 
ATOM     72  O   UNL A   1      45.749  23.813  33.525  1.00  0.00    -0.237 OA
ATOM     73  O   UNL A   1      44.648  22.966  35.564  1.00  0.00    -0.237 OA
ATOM     74  O   UNL A   1      43.323  23.336  33.535  1.00  0.00    -0.744 OA
ENDBRANCH  68  71
ENDBRANCH  50  64
BRANCH  51  75
ATOM     75  C   UNL A   1      42.737  24.812  26.462  1.00  0.00     0.023 A 
ATOM     76  C   UNL A   1      43.778  24.455  25.582  1.00  0.00     0.012 A 
ATOM     77  C   UNL A   1      41.751  23.849  26.765  1.00  0.00     0.148 A 
ATOM     78  C   UNL A   1      43.866  23.159  25.060  1.00  0.00     0.002 A 
ATOM     79  C   UNL A   1      41.848  22.559  26.251  1.00  0.00     0.091 A 
ATOM     80  F   UNL A   1      40.778  24.178  27.626  1.00  0.00    -0.205 F 
ATOM     81  C   UNL A   1      42.912  22.208  25.408  1.00  0.00     0.022 A 
BRANCH  79  82
ATOM     82  S   UNL A   1      40.695  21.255  26.699  1.00  0.00     0.127 S 
ATOM     83  O   UNL A   1      39.448  21.742  26.110  1.00  0.00    -0.237 OA
ATOM     84  O   UNL A   1      41.278  20.095  26.029  1.00  0.00    -0.237 OA
ATOM     85  O   UNL A   1      40.698  21.202  28.155  1.00  0.00    -0.744 OA
ENDBRANCH  79  82
ENDBRANCH  51  75
BRANCH  63  86
ATOM     86  C   UNL A   1      45.556  29.952  28.446  1.00  0.00     0.023 A 
ATOM     87  C   UNL A   1      44.493  30.533  27.726  1.00  0.00     0.012 A 
ATOM     88  C   UNL A   1      46.868  30.377  28.193  1.00  0.00     0.148 A 
ATOM     89  C   UNL A   1      44.742  31.506  26.754  1.00  0.00     0.002 A 
ATOM     90  C   UNL A   1      47.107  31.378  27.263  1.00  0.00     0.091 A 
ATOM     91  F   UNL A   1      47.864  29.802  28.884  1.00  0.00    -0.205 F 
ATOM     92  C   UNL A   1      46.048  31.939  26.533  1.00  0.00     0.022 A 
BRANCH  90  93
ATOM     93  S   UNL A   1      48.751  32.053  27.031  1.00  0.00     0.127 S 
ATOM     94  O   UNL A   1      49.493  30.889  26.552  1.00  0.00    -0.237 OA
ATOM     95  O   UNL A   1      48.525  33.092  26.025  1.00  0.00    -0.237 OA
ATOM     96  O   UNL A   1      49.158  32.568  28.333  1.00  0.00    -0.744 OA
ENDBRANCH  90  93
ENDBRANCH  63  86
ENDBRANCH  37  38
ENDBRANCH  29  32
ENDBRANCH  27  28
ENDBRANCH  26  27
ENDBRANCH   1  26
TORSDOF 20
ENDMDL
