MODEL 1
REMARK VINA RESULT:     -11.9      0.000      0.000
REMARK SMILES CC(C)(C)OC(=O)N1CCC2(CC1)C[C@@H](C(=O)NCCCCCCNC(=O)c1ccc(-c3c4nc(c(-c5cccc(S(=O)(=O)[O-])c5F)c5ccc([nH]5)c(-c5cccc(S(=O)(=O)[O-])c5F)c5nc(c(-c6cccc(S(=O)(=O)[O-])c6F)c6ccc3[nH]6)C=C5)C=C4)cc1)CO2
REMARK SMILES IDX 22 1 21 2 20 3 19 4 18 5 16 6 17 7 15 9 6 10 7 11 8 12 9 13
REMARK SMILES IDX 13 14 10 15 12 16 11 17 14 18 92 19 91 20 5 21 2 22 1 23
REMARK SMILES IDX 3 24 4 25 23 26 24 27 25 28 26 29 27 31 28 32 29 33 90 34
REMARK SMILES IDX 30 35 89 36 31 37 32 38 33 39 83 40 34 41 88 42 82 43 84 44
REMARK SMILES IDX 35 45 87 46 81 47 80 48 36 50 68 51 48 52 67 53 49 54 52 55
REMARK SMILES IDX 66 56 85 57 50 58 51 59 65 61 86 62 53 63 37 64 38 65 46 66
REMARK SMILES IDX 39 67 41 68 47 69 40 70 42 71 43 72 44 73 45 74 69 75 70 76
REMARK SMILES IDX 78 77 71 78 73 79 79 80 72 81 74 82 75 83 76 84 77 85 54 86
REMARK SMILES IDX 55 87 63 88 56 89 58 90 64 91 57 92 59 93 60 94 61 95 62 96
REMARK H PARENT 18 8 25 30 84 49 52 60
REMARK Flexibility Score: inf
ROOT
ATOM      1  C   UNL A   1      35.824  20.520  24.985  1.00  0.00     0.002 C 
ENDROOT
BRANCH   1   2
ATOM      2  C   UNL A   1      34.360  20.431  25.438  1.00  0.00     0.002 C 
BRANCH   2   3
ATOM      3  C   UNL A   1      33.448  19.548  24.586  1.00  0.00     0.021 C 
BRANCH   3   4
ATOM      4  C   UNL A   1      32.143  20.209  24.162  1.00  0.00     0.116 C 
BRANCH   4   5
ATOM      5  N   UNL A   1      32.279  21.241  23.157  1.00  0.00    -0.356 N 
ATOM      6  C   UNL A   1      32.438  22.587  23.250  1.00  0.00     0.225 C 
ATOM      7  O   UNL A   1      32.743  23.168  22.198  1.00  0.00    -0.275 OA
ATOM      8  H   UNL A   1      32.249  20.905  22.231  1.00  0.00     0.163 HD
BRANCH   6   9
ATOM      9  C   UNL A   1      32.288  23.421  24.526  1.00  0.00     0.107 C 
ATOM     10  C   UNL A   1      30.478  29.745  23.890  1.00  0.00     0.410 C 
ATOM     11  O   UNL A   1      30.485  30.584  24.780  1.00  0.00    -0.224 OA
ATOM     12  N   UNL A   1      31.138  28.535  23.991  1.00  0.00    -0.308 N 
ATOM     13  C   UNL A   1      31.670  28.087  25.272  1.00  0.00     0.126 C 
ATOM     14  C   UNL A   1      31.374  27.660  22.854  1.00  0.00     0.126 C 
ATOM     15  C   UNL A   1      31.154  26.673  25.604  1.00  0.00     0.057 C 
ATOM     16  C   UNL A   1      30.834  26.278  23.166  1.00  0.00     0.057 C 
ATOM     17  C   UNL A   1      31.476  25.708  24.447  1.00  0.00     0.072 C 
ATOM     18  C   UNL A   1      31.025  24.257  24.650  1.00  0.00     0.051 C 
ATOM     19  O   UNL A   1      32.916  25.675  24.368  1.00  0.00    -0.374 OA
ATOM     20  C   UNL A   1      33.394  24.399  24.804  1.00  0.00     0.174 C 
BRANCH  10  21
ATOM     21  O   UNL A   1      29.781  29.829  22.732  1.00  0.00    -0.444 OA
BRANCH  21  22
ATOM     22  C   UNL A   1      28.329  29.896  22.682  1.00  0.00     0.106 C 
ATOM     23  C   UNL A   1      28.013  30.201  21.210  1.00  0.00     0.056 C 
ATOM     24  C   UNL A   1      27.870  31.063  23.554  1.00  0.00     0.056 C 
ATOM     25  C   UNL A   1      27.633  28.584  23.058  1.00  0.00     0.056 C 
ENDBRANCH  21  22
ENDBRANCH  10  21
ENDBRANCH   6   9
ENDBRANCH   4   5
ENDBRANCH   3   4
ENDBRANCH   2   3
ENDBRANCH   1   2
BRANCH   1  26
ATOM     26  C   UNL A   1      36.305  21.894  24.502  1.00  0.00     0.021 C 
BRANCH  26  27
ATOM     27  C   UNL A   1      37.400  22.538  25.347  1.00  0.00     0.116 C 
BRANCH  27  28
ATOM     28  N   UNL A   1      38.289  21.552  25.939  1.00  0.00    -0.352 N 
ATOM     29  C   UNL A   1      39.506  21.713  26.550  1.00  0.00     0.251 C 
ATOM     30  H   UNL A   1      37.966  20.623  25.895  1.00  0.00     0.163 HD
ATOM     31  O   UNL A   1      40.185  20.723  26.813  1.00  0.00    -0.269 OA
BRANCH  29  32
ATOM     32  C   UNL A   1      40.009  23.063  26.884  1.00  0.00     0.039 A 
ATOM     33  C   UNL A   1      40.890  23.205  27.961  1.00  0.00     0.014 A 
ATOM     34  C   UNL A   1      39.583  24.191  26.178  1.00  0.00     0.014 A 
ATOM     35  C   UNL A   1      41.375  24.469  28.303  1.00  0.00     0.010 A 
ATOM     36  C   UNL A   1      40.120  25.442  26.475  1.00  0.00     0.010 A 
ATOM     37  C   UNL A   1      41.011  25.596  27.549  1.00  0.00    -0.014 A 
BRANCH  37  38
ATOM     38  C   UNL A   1      41.550  26.941  27.870  1.00  0.00     0.031 A 
ATOM     39  C   UNL A   1      42.984  27.280  27.561  1.00  0.00     0.074 A 
ATOM     40  C   UNL A   1      40.769  27.832  28.513  1.00  0.00     0.049 A 
ATOM     41  N   UNL A   1      43.642  28.383  27.806  1.00  0.00    -0.248 NA
ATOM     42  C   UNL A   1      43.793  26.232  26.916  1.00  0.00     0.031 C 
ATOM     43  C   UNL A   1      39.388  27.593  28.941  1.00  0.00     0.029 A 
ATOM     44  N   UNL A   1      41.033  29.108  28.944  1.00  0.00    -0.354 N 
ATOM     45  C   UNL A   1      44.946  28.152  27.382  1.00  0.00     0.074 A 
ATOM     46  C   UNL A   1      44.994  26.792  26.893  1.00  0.00     0.031 C 
ATOM     47  C   UNL A   1      38.926  28.686  29.569  1.00  0.00     0.029 A 
ATOM     48  C   UNL A   1      39.982  29.694  29.611  1.00  0.00     0.049 A 
ATOM     49  H   UNL A   1      41.893  29.562  28.791  1.00  0.00     0.167 HD
ATOM     50  C   UNL A   1      46.000  29.003  27.373  1.00  0.00     0.034 A 
ATOM     51  C   UNL A   1      39.881  30.904  30.193  1.00  0.00     0.034 A 
ATOM     52  C   UNL A   1      45.933  30.370  27.814  1.00  0.00     0.049 A 
ATOM     53  C   UNL A   1      41.051  31.849  30.118  1.00  0.00     0.074 A 
ATOM     54  C   UNL A   1      46.916  31.341  27.758  1.00  0.00     0.029 A 
ATOM     55  N   UNL A   1      44.822  30.960  28.396  1.00  0.00    -0.354 N 
ATOM     56  N   UNL A   1      42.225  31.669  29.561  1.00  0.00    -0.248 NA
ATOM     57  C   UNL A   1      40.869  33.181  30.716  1.00  0.00     0.031 C 
ATOM     58  C   UNL A   1      46.405  32.515  28.322  1.00  0.00     0.029 A 
ATOM     59  C   UNL A   1      45.095  32.280  28.709  1.00  0.00     0.049 A 
ATOM     60  H   UNL A   1      43.964  30.507  28.562  1.00  0.00     0.167 HD
ATOM     61  C   UNL A   1      42.905  32.871  29.709  1.00  0.00     0.074 A 
ATOM     62  C   UNL A   1      42.006  33.780  30.387  1.00  0.00     0.031 C 
ATOM     63  C   UNL A   1      44.169  33.190  29.331  1.00  0.00     0.034 A 
BRANCH  50  64
ATOM     64  C   UNL A   1      47.305  28.498  26.814  1.00  0.00     0.023 A 
ATOM     65  C   UNL A   1      48.395  28.284  27.682  1.00  0.00     0.012 A 
ATOM     66  C   UNL A   1      47.438  28.179  25.448  1.00  0.00     0.148 A 
ATOM     67  C   UNL A   1      49.607  27.794  27.197  1.00  0.00     0.002 A 
ATOM     68  C   UNL A   1      48.636  27.649  24.979  1.00  0.00     0.091 A 
ATOM     69  F   UNL A   1      46.400  28.408  24.632  1.00  0.00    -0.205 F 
ATOM     70  C   UNL A   1      49.724  27.467  25.849  1.00  0.00     0.022 A 
BRANCH  68  71
ATOM     71  S   UNL A   1      48.862  27.123  23.276  1.00  0.00     0.127 S 
ATOM     72  O   UNL A   1      48.200  28.202  22.544  1.00  0.00    -0.237 OA
ATOM     73  O   UNL A   1      50.320  27.107  23.148  1.00  0.00    -0.237 OA
ATOM     74  O   UNL A   1      48.230  25.817  23.172  1.00  0.00    -0.744 OA
ENDBRANCH  68  71
ENDBRANCH  50  64
BRANCH  51  75
ATOM     75  C   UNL A   1      38.601  31.322  30.833  1.00  0.00     0.023 A 
ATOM     76  C   UNL A   1      38.453  31.186  32.227  1.00  0.00     0.012 A 
ATOM     77  C   UNL A   1      37.543  31.866  30.079  1.00  0.00     0.148 A 
ATOM     78  C   UNL A   1      37.259  31.544  32.854  1.00  0.00     0.002 A 
ATOM     79  C   UNL A   1      36.371  32.261  30.717  1.00  0.00     0.091 A 
ATOM     80  F   UNL A   1      37.718  32.025  28.760  1.00  0.00    -0.205 F 
ATOM     81  C   UNL A   1      36.220  32.082  32.100  1.00  0.00     0.022 A 
BRANCH  79  82
ATOM     82  S   UNL A   1      35.013  33.036  29.835  1.00  0.00     0.127 S 
ATOM     83  O   UNL A   1      35.658  34.205  29.236  1.00  0.00    -0.237 OA
ATOM     84  O   UNL A   1      34.639  31.987  28.888  1.00  0.00    -0.237 OA
ATOM     85  O   UNL A   1      34.015  33.350  30.849  1.00  0.00    -0.744 OA
ENDBRANCH  79  82
ENDBRANCH  51  75
BRANCH  63  86
ATOM     86  C   UNL A   1      44.646  34.593  29.606  1.00  0.00     0.023 A 
ATOM     87  C   UNL A   1      45.197  34.911  30.862  1.00  0.00     0.012 A 
ATOM     88  C   UNL A   1      44.617  35.573  28.593  1.00  0.00     0.148 A 
ATOM     89  C   UNL A   1      45.680  36.194  31.119  1.00  0.00     0.002 A 
ATOM     90  C   UNL A   1      45.145  36.834  28.841  1.00  0.00     0.091 A 
ATOM     91  F   UNL A   1      44.071  35.256  27.411  1.00  0.00    -0.205 F 
ATOM     92  C   UNL A   1      45.666  37.151  30.107  1.00  0.00     0.022 A 
BRANCH  90  93
ATOM     93  S   UNL A   1      45.255  38.094  27.566  1.00  0.00     0.127 S 
ATOM     94  O   UNL A   1      46.027  39.136  28.242  1.00  0.00    -0.237 OA
ATOM     95  O   UNL A   1      45.974  37.398  26.499  1.00  0.00    -0.237 OA
ATOM     96  O   UNL A   1      43.881  38.447  27.234  1.00  0.00    -0.744 OA
ENDBRANCH  90  93
ENDBRANCH  63  86
ENDBRANCH  37  38
ENDBRANCH  29  32
ENDBRANCH  27  28
ENDBRANCH  26  27
ENDBRANCH   1  26
TORSDOF 18
ENDMDL
MODEL 2
REMARK VINA RESULT:     -11.9      6.406     11.734
REMARK SMILES CC(C)(C)OC(=O)N1CCC2(CC1)C[C@@H](C(=O)NCCCCCCNC(=O)c1ccc(-c3c4nc(c(-c5cccc(S(=O)(=O)[O-])c5F)c5ccc([nH]5)c(-c5cccc(S(=O)(=O)[O-])c5F)c5nc(c(-c6cccc(S(=O)(=O)[O-])c6F)c6ccc3[nH]6)C=C5)C=C4)cc1)CO2
REMARK SMILES IDX 22 1 21 2 20 3 19 4 18 5 16 6 17 7 15 9 6 10 7 11 8 12 9 13
REMARK SMILES IDX 13 14 10 15 12 16 11 17 14 18 92 19 91 20 5 21 2 22 1 23
REMARK SMILES IDX 3 24 4 25 23 26 24 27 25 28 26 29 27 31 28 32 29 33 90 34
REMARK SMILES IDX 30 35 89 36 31 37 32 38 33 39 83 40 34 41 88 42 82 43 84 44
REMARK SMILES IDX 35 45 87 46 81 47 80 48 36 50 68 51 48 52 67 53 49 54 52 55
REMARK SMILES IDX 66 56 85 57 50 58 51 59 65 61 86 62 53 63 37 64 38 65 46 66
REMARK SMILES IDX 39 67 41 68 47 69 40 70 42 71 43 72 44 73 45 74 69 75 70 76
REMARK SMILES IDX 78 77 71 78 73 79 79 80 72 81 74 82 75 83 76 84 77 85 54 86
REMARK SMILES IDX 55 87 63 88 56 89 58 90 64 91 57 92 59 93 60 94 61 95 62 96
REMARK H PARENT 18 8 25 30 84 49 52 60
REMARK Flexibility Score: inf
ROOT
ATOM      1  C   UNL A   1      34.143  35.220  28.024  1.00  0.00     0.002 C 
ENDROOT
BRANCH   1   2
ATOM      2  C   UNL A   1      35.088  34.487  28.988  1.00  0.00     0.002 C 
BRANCH   2   3
ATOM      3  C   UNL A   1      34.613  33.119  29.480  1.00  0.00     0.021 C 
BRANCH   3   4
ATOM      4  C   UNL A   1      33.914  32.275  28.423  1.00  0.00     0.116 C 
BRANCH   4   5
ATOM      5  N   UNL A   1      34.524  30.986  28.170  1.00  0.00    -0.356 N 
ATOM      6  C   UNL A   1      34.104  29.904  27.463  1.00  0.00     0.225 C 
ATOM      7  O   UNL A   1      34.959  29.030  27.258  1.00  0.00    -0.275 OA
ATOM      8  H   UNL A   1      35.407  30.871  28.590  1.00  0.00     0.163 HD
BRANCH   6   9
ATOM      9  C   UNL A   1      32.694  29.692  26.901  1.00  0.00     0.107 C 
ATOM     10  C   UNL A   1      31.410  23.969  23.857  1.00  0.00     0.410 C 
ATOM     11  O   UNL A   1      30.406  23.715  23.206  1.00  0.00    -0.224 OA
ATOM     12  N   UNL A   1      31.769  25.255  24.216  1.00  0.00    -0.308 N 
ATOM     13  C   UNL A   1      30.829  26.358  24.054  1.00  0.00     0.126 C 
ATOM     14  C   UNL A   1      33.082  25.599  24.735  1.00  0.00     0.126 C 
ATOM     15  C   UNL A   1      30.666  27.125  25.381  1.00  0.00     0.057 C 
ATOM     16  C   UNL A   1      32.924  26.321  26.059  1.00  0.00     0.057 C 
ATOM     17  C   UNL A   1      32.043  27.577  25.902  1.00  0.00     0.072 C 
ATOM     18  C   UNL A   1      32.026  28.364  27.218  1.00  0.00     0.051 C 
ATOM     19  O   UNL A   1      32.552  28.481  24.899  1.00  0.00    -0.374 OA
ATOM     20  C   UNL A   1      32.558  29.816  25.410  1.00  0.00     0.174 C 
BRANCH  10  21
ATOM     21  O   UNL A   1      32.264  23.057  24.381  1.00  0.00    -0.444 OA
BRANCH  21  22
ATOM     22  C   UNL A   1      33.065  22.159  23.564  1.00  0.00     0.106 C 
ATOM     23  C   UNL A   1      34.351  21.952  24.378  1.00  0.00     0.056 C 
ATOM     24  C   UNL A   1      33.399  22.866  22.253  1.00  0.00     0.056 C 
ATOM     25  C   UNL A   1      32.420  20.788  23.334  1.00  0.00     0.056 C 
ENDBRANCH  21  22
ENDBRANCH  10  21
ENDBRANCH   6   9
ENDBRANCH   4   5
ENDBRANCH   3   4
ENDBRANCH   2   3
ENDBRANCH   1   2
BRANCH   1  26
ATOM     26  C   UNL A   1      33.127  36.174  28.662  1.00  0.00     0.021 C 
BRANCH  26  27
ATOM     27  C   UNL A   1      33.511  36.715  30.037  1.00  0.00     0.116 C 
BRANCH  27  28
ATOM     28  N   UNL A   1      32.479  36.470  31.032  1.00  0.00    -0.352 N 
ATOM     29  C   UNL A   1      32.469  35.612  32.101  1.00  0.00     0.251 C 
ATOM     30  H   UNL A   1      31.659  37.004  30.919  1.00  0.00     0.163 HD
ATOM     31  O   UNL A   1      31.419  35.418  32.709  1.00  0.00    -0.269 OA
BRANCH  29  32
ATOM     32  C   UNL A   1      33.704  34.916  32.521  1.00  0.00     0.039 A 
ATOM     33  C   UNL A   1      33.600  33.637  33.077  1.00  0.00     0.014 A 
ATOM     34  C   UNL A   1      34.954  35.532  32.417  1.00  0.00     0.014 A 
ATOM     35  C   UNL A   1      34.750  32.960  33.487  1.00  0.00     0.010 A 
ATOM     36  C   UNL A   1      36.107  34.829  32.763  1.00  0.00     0.010 A 
ATOM     37  C   UNL A   1      36.016  33.542  33.314  1.00  0.00    -0.014 A 
BRANCH  37  38
ATOM     38  C   UNL A   1      37.252  32.820  33.706  1.00  0.00     0.031 A 
ATOM     39  C   UNL A   1      38.042  33.260  34.909  1.00  0.00     0.074 A 
ATOM     40  C   UNL A   1      37.707  31.815  32.930  1.00  0.00     0.049 A 
ATOM     41  N   UNL A   1      39.164  32.780  35.380  1.00  0.00    -0.248 NA
ATOM     42  C   UNL A   1      37.517  34.407  35.670  1.00  0.00     0.031 C 
ATOM     43  C   UNL A   1      37.075  31.349  31.693  1.00  0.00     0.029 A 
ATOM     44  N   UNL A   1      38.820  31.022  33.052  1.00  0.00    -0.354 N 
ATOM     45  C   UNL A   1      39.499  33.585  36.463  1.00  0.00     0.074 A 
ATOM     46  C   UNL A   1      38.477  34.604  36.562  1.00  0.00     0.031 C 
ATOM     47  C   UNL A   1      37.808  30.351  31.173  1.00  0.00     0.029 A 
ATOM     48  C   UNL A   1      38.972  30.122  32.023  1.00  0.00     0.049 A 
ATOM     49  H   UNL A   1      39.451  31.091  33.805  1.00  0.00     0.167 HD
ATOM     50  C   UNL A   1      40.545  33.470  37.316  1.00  0.00     0.034 A 
ATOM     51  C   UNL A   1      39.941  29.217  31.789  1.00  0.00     0.034 A 
ATOM     52  C   UNL A   1      41.530  32.425  37.243  1.00  0.00     0.049 A 
ATOM     53  C   UNL A   1      41.062  29.074  32.785  1.00  0.00     0.074 A 
ATOM     54  C   UNL A   1      42.573  32.164  38.114  1.00  0.00     0.029 A 
ATOM     55  N   UNL A   1      41.598  31.471  36.242  1.00  0.00    -0.354 N 
ATOM     56  N   UNL A   1      41.268  29.737  33.897  1.00  0.00    -0.248 NA
ATOM     57  C   UNL A   1      42.062  28.030  32.515  1.00  0.00     0.031 C 
ATOM     58  C   UNL A   1      43.283  31.060  37.628  1.00  0.00     0.029 A 
ATOM     59  C   UNL A   1      42.667  30.621  36.467  1.00  0.00     0.049 A 
ATOM     60  H   UNL A   1      40.977  31.405  35.480  1.00  0.00     0.167 HD
ATOM     61  C   UNL A   1      42.396  29.169  34.476  1.00  0.00     0.074 A 
ATOM     62  C   UNL A   1      42.816  28.093  33.604  1.00  0.00     0.031 C 
ATOM     63  C   UNL A   1      43.037  29.517  35.620  1.00  0.00     0.034 A 
BRANCH  50  64
ATOM     64  C   UNL A   1      40.646  34.467  38.442  1.00  0.00     0.023 A 
ATOM     65  C   UNL A   1      41.442  35.619  38.279  1.00  0.00     0.012 A 
ATOM     66  C   UNL A   1      39.911  34.300  39.633  1.00  0.00     0.148 A 
ATOM     67  C   UNL A   1      41.535  36.571  39.293  1.00  0.00     0.002 A 
ATOM     68  C   UNL A   1      39.974  35.275  40.623  1.00  0.00     0.091 A 
ATOM     69  F   UNL A   1      39.176  33.189  39.781  1.00  0.00    -0.205 F 
ATOM     70  C   UNL A   1      40.793  36.404  40.459  1.00  0.00     0.022 A 
BRANCH  68  71
ATOM     71  S   UNL A   1      38.997  35.192  42.128  1.00  0.00     0.127 S 
ATOM     72  O   UNL A   1      39.388  36.429  42.803  1.00  0.00    -0.237 OA
ATOM     73  O   UNL A   1      37.629  35.189  41.608  1.00  0.00    -0.237 OA
ATOM     74  O   UNL A   1      39.394  33.962  42.797  1.00  0.00    -0.744 OA
ENDBRANCH  68  71
ENDBRANCH  50  64
BRANCH  51  75
ATOM     75  C   UNL A   1      39.857  28.321  30.600  1.00  0.00     0.023 A 
ATOM     76  C   UNL A   1      39.011  27.196  30.646  1.00  0.00     0.012 A 
ATOM     77  C   UNL A   1      40.591  28.581  29.427  1.00  0.00     0.148 A 
ATOM     78  C   UNL A   1      38.927  26.323  29.561  1.00  0.00     0.002 A 
ATOM     79  C   UNL A   1      40.470  27.731  28.332  1.00  0.00     0.091 A 
ATOM     80  F   UNL A   1      41.360  29.679  29.388  1.00  0.00    -0.205 F 
ATOM     81  C   UNL A   1      39.656  26.590  28.405  1.00  0.00     0.022 A 
BRANCH  79  82
ATOM     82  S   UNL A   1      41.310  28.043  26.777  1.00  0.00     0.127 S 
ATOM     83  O   UNL A   1      41.040  26.816  26.027  1.00  0.00    -0.237 OA
ATOM     84  O   UNL A   1      40.605  29.228  26.294  1.00  0.00    -0.237 OA
ATOM     85  O   UNL A   1      42.711  28.243  27.121  1.00  0.00    -0.744 OA
ENDBRANCH  79  82
ENDBRANCH  51  75
BRANCH  63  86
ATOM     86  C   UNL A   1      44.242  28.704  36.021  1.00  0.00     0.023 A 
ATOM     87  C   UNL A   1      45.530  29.129  35.643  1.00  0.00     0.012 A 
ATOM     88  C   UNL A   1      44.099  27.561  36.833  1.00  0.00     0.148 A 
ATOM     89  C   UNL A   1      46.657  28.409  36.040  1.00  0.00     0.002 A 
ATOM     90  C   UNL A   1      45.229  26.878  37.264  1.00  0.00     0.091 A 
ATOM     91  F   UNL A   1      42.863  27.162  37.164  1.00  0.00    -0.205 F 
ATOM     92  C   UNL A   1      46.508  27.293  36.859  1.00  0.00     0.022 A 
BRANCH  90  93
ATOM     93  S   UNL A   1      45.134  25.489  38.400  1.00  0.00     0.127 S 
ATOM     94  O   UNL A   1      44.375  24.515  37.616  1.00  0.00    -0.237 OA
ATOM     95  O   UNL A   1      46.544  25.148  38.596  1.00  0.00    -0.237 OA
ATOM     96  O   UNL A   1      44.466  25.992  39.592  1.00  0.00    -0.744 OA
ENDBRANCH  90  93
ENDBRANCH  63  86
ENDBRANCH  37  38
ENDBRANCH  29  32
ENDBRANCH  27  28
ENDBRANCH  26  27
ENDBRANCH   1  26
TORSDOF 18
ENDMDL
MODEL 3
REMARK VINA RESULT:     -11.7      1.539      2.036
REMARK SMILES CC(C)(C)OC(=O)N1CCC2(CC1)C[C@@H](C(=O)NCCCCCCNC(=O)c1ccc(-c3c4nc(c(-c5cccc(S(=O)(=O)[O-])c5F)c5ccc([nH]5)c(-c5cccc(S(=O)(=O)[O-])c5F)c5nc(c(-c6cccc(S(=O)(=O)[O-])c6F)c6ccc3[nH]6)C=C5)C=C4)cc1)CO2
REMARK SMILES IDX 22 1 21 2 20 3 19 4 18 5 16 6 17 7 15 9 6 10 7 11 8 12 9 13
REMARK SMILES IDX 13 14 10 15 12 16 11 17 14 18 92 19 91 20 5 21 2 22 1 23
REMARK SMILES IDX 3 24 4 25 23 26 24 27 25 28 26 29 27 31 28 32 29 33 90 34
REMARK SMILES IDX 30 35 89 36 31 37 32 38 33 39 83 40 34 41 88 42 82 43 84 44
REMARK SMILES IDX 35 45 87 46 81 47 80 48 36 50 68 51 48 52 67 53 49 54 52 55
REMARK SMILES IDX 66 56 85 57 50 58 51 59 65 61 86 62 53 63 37 64 38 65 46 66
REMARK SMILES IDX 39 67 41 68 47 69 40 70 42 71 43 72 44 73 45 74 69 75 70 76
REMARK SMILES IDX 78 77 71 78 73 79 79 80 72 81 74 82 75 83 76 84 77 85 54 86
REMARK SMILES IDX 55 87 63 88 56 89 58 90 64 91 57 92 59 93 60 94 61 95 62 96
REMARK H PARENT 18 8 25 30 84 49 52 60
REMARK Flexibility Score: inf
ROOT
ATOM      1  C   UNL A   1      35.892  23.368  23.557  1.00  0.00     0.002 C 
ENDROOT
BRANCH   1   2
ATOM      2  C   UNL A   1      34.680  24.249  23.222  1.00  0.00     0.002 C 
BRANCH   2   3
ATOM      3  C   UNL A   1      33.592  23.595  22.370  1.00  0.00     0.021 C 
BRANCH   3   4
ATOM      4  C   UNL A   1      32.236  23.482  23.052  1.00  0.00     0.116 C 
BRANCH   4   5
ATOM      5  N   UNL A   1      32.046  22.282  23.838  1.00  0.00    -0.356 N 
ATOM      6  C   UNL A   1      31.696  22.090  25.137  1.00  0.00     0.225 C 
ATOM      7  O   UNL A   1      31.406  20.927  25.451  1.00  0.00    -0.275 OA
ATOM      8  H   UNL A   1      32.199  21.447  23.339  1.00  0.00     0.163 HD
BRANCH   6   9
ATOM      9  C   UNL A   1      31.623  23.177  26.215  1.00  0.00     0.107 C 
ATOM     10  C   UNL A   1      30.929  29.444  24.237  1.00  0.00     0.410 C 
ATOM     11  O   UNL A   1      31.032  30.434  24.948  1.00  0.00    -0.224 OA
ATOM     12  N   UNL A   1      31.372  28.193  24.622  1.00  0.00    -0.308 N 
ATOM     13  C   UNL A   1      31.757  27.936  26.004  1.00  0.00     0.126 C 
ATOM     14  C   UNL A   1      31.515  27.081  23.695  1.00  0.00     0.126 C 
ATOM     15  C   UNL A   1      30.996  26.714  26.556  1.00  0.00     0.057 C 
ATOM     16  C   UNL A   1      30.737  25.890  24.219  1.00  0.00     0.057 C 
ATOM     17  C   UNL A   1      31.210  25.498  25.635  1.00  0.00     0.072 C 
ATOM     18  C   UNL A   1      30.513  24.205  26.073  1.00  0.00     0.051 C 
ATOM     19  O   UNL A   1      32.626  25.229  25.682  1.00  0.00    -0.374 OA
ATOM     20  C   UNL A   1      32.862  24.009  26.391  1.00  0.00     0.174 C 
BRANCH  10  21
ATOM     21  O   UNL A   1      30.315  29.399  23.031  1.00  0.00    -0.444 OA
BRANCH  21  22
ATOM     22  C   UNL A   1      28.917  29.751  22.838  1.00  0.00     0.106 C 
ATOM     23  C   UNL A   1      28.814  30.092  21.344  1.00  0.00     0.056 C 
ATOM     24  C   UNL A   1      28.613  30.997  23.668  1.00  0.00     0.056 C 
ATOM     25  C   UNL A   1      27.943  28.606  23.136  1.00  0.00     0.056 C 
ENDBRANCH  21  22
ENDBRANCH  10  21
ENDBRANCH   6   9
ENDBRANCH   4   5
ENDBRANCH   3   4
ENDBRANCH   2   3
ENDBRANCH   1   2
BRANCH   1  26
ATOM     26  C   UNL A   1      35.617  22.134  24.425  1.00  0.00     0.021 C 
BRANCH  26  27
ATOM     27  C   UNL A   1      36.315  22.120  25.782  1.00  0.00     0.116 C 
BRANCH  27  28
ATOM     28  N   UNL A   1      37.285  21.043  25.889  1.00  0.00    -0.352 N 
ATOM     29  C   UNL A   1      38.645  21.091  26.063  1.00  0.00     0.251 C 
ATOM     30  H   UNL A   1      36.907  20.135  25.828  1.00  0.00     0.163 HD
ATOM     31  O   UNL A   1      39.307  20.064  25.936  1.00  0.00    -0.269 OA
BRANCH  29  32
ATOM     32  C   UNL A   1      39.317  22.367  26.391  1.00  0.00     0.039 A 
ATOM     33  C   UNL A   1      38.869  23.541  25.778  1.00  0.00     0.014 A 
ATOM     34  C   UNL A   1      40.413  22.406  27.259  1.00  0.00     0.014 A 
ATOM     35  C   UNL A   1      39.490  24.758  26.066  1.00  0.00     0.010 A 
ATOM     36  C   UNL A   1      40.988  23.630  27.598  1.00  0.00     0.010 A 
ATOM     37  C   UNL A   1      40.542  24.816  26.995  1.00  0.00    -0.014 A 
BRANCH  37  38
ATOM     38  C   UNL A   1      41.186  26.107  27.346  1.00  0.00     0.031 A 
ATOM     39  C   UNL A   1      42.609  26.382  26.939  1.00  0.00     0.074 A 
ATOM     40  C   UNL A   1      40.514  27.000  28.099  1.00  0.00     0.049 A 
ATOM     41  N   UNL A   1      43.351  27.430  27.189  1.00  0.00    -0.248 NA
ATOM     42  C   UNL A   1      43.300  25.331  26.172  1.00  0.00     0.031 C 
ATOM     43  C   UNL A   1      39.159  26.814  28.624  1.00  0.00     0.029 A 
ATOM     44  N   UNL A   1      40.888  28.231  28.576  1.00  0.00    -0.354 N 
ATOM     45  C   UNL A   1      44.600  27.152  26.648  1.00  0.00     0.074 A 
ATOM     46  C   UNL A   1      44.527  25.823  26.082  1.00  0.00     0.031 C 
ATOM     47  C   UNL A   1      38.815  27.892  29.347  1.00  0.00     0.029 A 
ATOM     48  C   UNL A   1      39.930  28.834  29.358  1.00  0.00     0.049 A 
ATOM     49  H   UNL A   1      41.760  28.644  28.379  1.00  0.00     0.167 HD
ATOM     50  C   UNL A   1      45.700  27.941  26.599  1.00  0.00     0.034 A 
ATOM     51  C   UNL A   1      39.950  30.010  30.013  1.00  0.00     0.034 A 
ATOM     52  C   UNL A   1      45.752  29.281  27.119  1.00  0.00     0.049 A 
ATOM     53  C   UNL A   1      41.165  30.891  29.894  1.00  0.00     0.074 A 
ATOM     54  C   UNL A   1      46.785  30.197  27.036  1.00  0.00     0.029 A 
ATOM     55  N   UNL A   1      44.728  29.897  27.822  1.00  0.00    -0.354 N 
ATOM     56  N   UNL A   1      42.278  30.679  29.234  1.00  0.00    -0.248 NA
ATOM     57  C   UNL A   1      41.112  32.193  30.578  1.00  0.00     0.031 C 
ATOM     58  C   UNL A   1      46.392  31.362  27.705  1.00  0.00     0.029 A 
ATOM     59  C   UNL A   1      45.105  31.178  28.184  1.00  0.00     0.049 A 
ATOM     60  H   UNL A   1      43.859  29.483  28.032  1.00  0.00     0.167 HD
ATOM     61  C   UNL A   1      43.040  31.830  29.391  1.00  0.00     0.074 A 
ATOM     62  C   UNL A   1      42.254  32.746  30.190  1.00  0.00     0.031 C 
ATOM     63  C   UNL A   1      44.287  32.099  28.929  1.00  0.00     0.034 A 
BRANCH  50  64
ATOM     64  C   UNL A   1      46.924  27.398  25.908  1.00  0.00     0.023 A 
ATOM     65  C   UNL A   1      47.077  27.587  24.519  1.00  0.00     0.012 A 
ATOM     66  C   UNL A   1      47.948  26.758  26.633  1.00  0.00     0.148 A 
ATOM     67  C   UNL A   1      48.210  27.117  23.856  1.00  0.00     0.002 A 
ATOM     68  C   UNL A   1      49.096  26.331  25.973  1.00  0.00     0.091 A 
ATOM     69  F   UNL A   1      47.778  26.568  27.949  1.00  0.00    -0.205 F 
ATOM     70  C   UNL A   1      49.223  26.500  24.585  1.00  0.00     0.022 A 
BRANCH  68  71
ATOM     71  S   UNL A   1      50.491  25.595  26.833  1.00  0.00     0.127 S 
ATOM     72  O   UNL A   1      50.896  26.683  27.723  1.00  0.00    -0.237 OA
ATOM     73  O   UNL A   1      49.871  24.455  27.509  1.00  0.00    -0.237 OA
ATOM     74  O   UNL A   1      51.455  25.239  25.802  1.00  0.00    -0.744 OA
ENDBRANCH  68  71
ENDBRANCH  50  64
BRANCH  51  75
ATOM     75  C   UNL A   1      38.751  30.461  30.777  1.00  0.00     0.023 A 
ATOM     76  C   UNL A   1      38.672  30.183  32.156  1.00  0.00     0.012 A 
ATOM     77  C   UNL A   1      37.706  31.173  30.159  1.00  0.00     0.148 A 
ATOM     78  C   UNL A   1      37.554  30.568  32.896  1.00  0.00     0.002 A 
ATOM     79  C   UNL A   1      36.614  31.592  30.911  1.00  0.00     0.091 A 
ATOM     80  F   UNL A   1      37.819  31.463  28.854  1.00  0.00    -0.205 F 
ATOM     81  C   UNL A   1      36.526  31.272  32.275  1.00  0.00     0.022 A 
BRANCH  79  82
ATOM     82  S   UNL A   1      35.283  32.572  30.209  1.00  0.00     0.127 S 
ATOM     83  O   UNL A   1      34.794  31.708  29.135  1.00  0.00    -0.237 OA
ATOM     84  O   UNL A   1      34.381  32.705  31.352  1.00  0.00    -0.237 OA
ATOM     85  O   UNL A   1      35.904  33.809  29.755  1.00  0.00    -0.744 OA
ENDBRANCH  79  82
ENDBRANCH  51  75
BRANCH  63  86
ATOM     86  C   UNL A   1      44.869  33.454  29.241  1.00  0.00     0.023 A 
ATOM     87  C   UNL A   1      45.639  33.634  30.406  1.00  0.00     0.012 A 
ATOM     88  C   UNL A   1      44.714  34.527  28.340  1.00  0.00     0.148 A 
ATOM     89  C   UNL A   1      46.218  34.871  30.689  1.00  0.00     0.002 A 
ATOM     90  C   UNL A   1      45.335  35.742  28.604  1.00  0.00     0.091 A 
ATOM     91  F   UNL A   1      43.962  34.342  27.247  1.00  0.00    -0.205 F 
ATOM     92  C   UNL A   1      46.077  35.920  29.784  1.00  0.00     0.022 A 
BRANCH  90  93
ATOM     93  S   UNL A   1      45.286  37.115  27.446  1.00  0.00     0.127 S 
ATOM     94  O   UNL A   1      46.025  36.571  26.308  1.00  0.00    -0.237 OA
ATOM     95  O   UNL A   1      43.850  37.281  27.218  1.00  0.00    -0.237 OA
ATOM     96  O   UNL A   1      45.919  38.235  28.128  1.00  0.00    -0.744 OA
ENDBRANCH  90  93
ENDBRANCH  63  86
ENDBRANCH  37  38
ENDBRANCH  29  32
ENDBRANCH  27  28
ENDBRANCH  26  27
ENDBRANCH   1  26
TORSDOF 18
ENDMDL
