MODEL 1
REMARK VINA RESULT:      -8.9      0.000      0.000
REMARK SMILES COc1ccc(-c2ccc(C(=O)NCc3ccc(C(=O)NCCCCCCNC(=O)c4ccc(-c5c6nc(c(-c7cccc(S(=O)(=O)[O-])c7F)c7ccc([nH]7)c(-c7cccc(S(=O)(=O)[O-])c7F)c7nc(c(-c8cccc(S(=O)(=O)[O-])c8F)c8ccc5[nH]8)C=C7)C=C6)cc4)cc3)o2)c([N+](=O)[O-])c1
REMARK SMILES IDX 23 1 22 2 21 3 19 4 20 5 18 7 15 8 16 9 95 10 17 11 94 12
REMARK SMILES IDX 14 13 13 14 11 15 12 16 10 18 7 19 8 20 96 21 9 22 6 23 3 24
REMARK SMILES IDX 4 25 101 26 5 27 97 28 2 29 1 30 98 31 99 32 100 33 24 34
REMARK SMILES IDX 25 35 26 36 27 37 28 38 29 39 30 41 31 42 32 43 93 44 33 45
REMARK SMILES IDX 92 46 34 47 35 48 36 49 86 50 37 51 91 52 85 53 87 54 38 55
REMARK SMILES IDX 90 56 84 57 83 58 39 60 71 61 51 62 70 63 52 64 55 65 69 66
REMARK SMILES IDX 88 67 53 68 54 69 68 71 89 72 56 73 40 74 41 75 49 76 42 77
REMARK SMILES IDX 44 78 50 79 43 80 45 81 46 82 47 83 48 84 72 85 73 86 81 87
REMARK SMILES IDX 74 88 76 89 82 90 75 91 77 92 78 93 79 94 80 95 57 96 58 97
REMARK SMILES IDX 66 98 59 99 61 100 67 101 60 102 62 103 63 104 64 105 65 106
REMARK H PARENT 21 6 13 17 28 40 87 59 55 70
REMARK Flexibility Score: inf
ROOT
ATOM      1  C   UNL A   1      38.955  35.099  38.144  1.00  0.00     0.021 C 
ENDROOT
BRANCH   1   2
ATOM      2  C   UNL A   1      38.805  34.072  37.019  1.00  0.00     0.116 C 
BRANCH   2   3
ATOM      3  N   UNL A   1      38.281  32.831  37.559  1.00  0.00    -0.352 N 
ATOM      4  C   UNL A   1      38.006  31.614  36.995  1.00  0.00     0.251 C 
ATOM      5  O   UNL A   1      37.528  30.743  37.724  1.00  0.00    -0.269 OA
ATOM      6  H   UNL A   1      38.085  32.873  38.523  1.00  0.00     0.163 HD
BRANCH   4   7
ATOM      7  C   UNL A   1      38.326  31.275  35.582  1.00  0.00     0.039 A 
ATOM      8  C   UNL A   1      39.170  30.608  32.963  1.00  0.00    -0.029 A 
ATOM      9  C   UNL A   1      39.860  30.123  34.080  1.00  0.00     0.006 A 
ATOM     10  C   UNL A   1      38.025  31.389  33.178  1.00  0.00     0.006 A 
ATOM     11  C   UNL A   1      39.441  30.452  35.373  1.00  0.00     0.014 A 
ATOM     12  C   UNL A   1      37.589  31.693  34.475  1.00  0.00     0.014 A 
BRANCH   8  13
ATOM     13  C   UNL A   1      39.678  30.313  31.574  1.00  0.00     0.152 C 
BRANCH  13  14
ATOM     14  N   UNL A   1      38.674  29.678  30.757  1.00  0.00    -0.345 N 
ATOM     15  C   UNL A   1      37.750  30.179  29.875  1.00  0.00     0.287 C 
ATOM     16  O   UNL A   1      37.112  29.326  29.248  1.00  0.00    -0.266 OA
ATOM     17  H   UNL A   1      38.646  28.698  30.847  1.00  0.00     0.164 HD
BRANCH  15  18
ATOM     18  C   UNL A   1      37.537  31.605  29.699  1.00  0.00     0.192 A 
ATOM     19  C   UNL A   1      36.321  33.443  29.931  1.00  0.00     0.142 A 
ATOM     20  C   UNL A   1      37.488  33.835  29.321  1.00  0.00     0.052 A 
ATOM     21  O   UNL A   1      36.351  32.109  30.184  1.00  0.00    -0.451 OA
ATOM     22  C   UNL A   1      38.269  32.662  29.179  1.00  0.00     0.057 A 
BRANCH  19  23
ATOM     23  C   UNL A   1      35.122  34.144  30.346  1.00  0.00     0.095 A 
ATOM     24  C   UNL A   1      32.932  35.704  31.235  1.00  0.00     0.125 A 
ATOM     25  C   UNL A   1      33.962  35.357  32.111  1.00  0.00     0.047 A 
ATOM     26  C   UNL A   1      32.985  35.268  29.913  1.00  0.00     0.132 A 
ATOM     27  C   UNL A   1      35.039  34.577  31.678  1.00  0.00     0.023 A 
ATOM     28  C   UNL A   1      34.073  34.488  29.478  1.00  0.00     0.284 A 
BRANCH  24  29
ATOM     29  O   UNL A   1      31.960  36.496  31.776  1.00  0.00    -0.497 OA
ATOM     30  C   UNL A   1      31.194  35.937  32.835  1.00  0.00     0.278 C 
ENDBRANCH  24  29
BRANCH  28  31
ATOM     31  N   UNL A   1      34.058  34.040  28.084  1.00  0.00     0.063 N 
ATOM     32  O   UNL A   1      34.542  34.780  27.217  1.00  0.00    -0.258 OA
ATOM     33  O   UNL A   1      33.607  32.907  27.857  1.00  0.00    -0.258 OA
ENDBRANCH  28  31
ENDBRANCH  19  23
ENDBRANCH  15  18
ENDBRANCH  13  14
ENDBRANCH   8  13
ENDBRANCH   4   7
ENDBRANCH   2   3
ENDBRANCH   1   2
BRANCH   1  34
ATOM     34  C   UNL A   1      40.049  36.142  37.865  1.00  0.00     0.002 C 
BRANCH  34  35
ATOM     35  C   UNL A   1      40.379  37.057  39.051  1.00  0.00     0.002 C 
BRANCH  35  36
ATOM     36  C   UNL A   1      41.856  37.437  39.175  1.00  0.00     0.021 C 
BRANCH  36  37
ATOM     37  C   UNL A   1      42.819  36.292  38.886  1.00  0.00     0.116 C 
BRANCH  37  38
ATOM     38  N   UNL A   1      42.882  35.357  40.000  1.00  0.00    -0.352 N 
ATOM     39  C   UNL A   1      42.831  33.986  39.979  1.00  0.00     0.251 C 
ATOM     40  H   UNL A   1      42.975  35.764  40.891  1.00  0.00     0.163 HD
ATOM     41  O   UNL A   1      42.652  33.363  41.022  1.00  0.00    -0.269 OA
BRANCH  39  42
ATOM     42  C   UNL A   1      42.992  33.265  38.698  1.00  0.00     0.039 A 
ATOM     43  C   UNL A   1      41.860  32.751  38.060  1.00  0.00     0.014 A 
ATOM     44  C   UNL A   1      44.261  33.076  38.143  1.00  0.00     0.014 A 
ATOM     45  C   UNL A   1      42.000  32.072  36.849  1.00  0.00     0.010 A 
ATOM     46  C   UNL A   1      44.388  32.470  36.898  1.00  0.00     0.010 A 
ATOM     47  C   UNL A   1      43.264  31.939  36.250  1.00  0.00    -0.014 A 
BRANCH  47  48
ATOM     48  C   UNL A   1      43.434  31.218  34.963  1.00  0.00     0.031 A 
ATOM     49  C   UNL A   1      43.279  31.959  33.662  1.00  0.00     0.074 A 
ATOM     50  C   UNL A   1      43.654  29.890  34.963  1.00  0.00     0.049 A 
ATOM     51  N   UNL A   1      43.340  31.500  32.439  1.00  0.00    -0.248 NA
ATOM     52  C   UNL A   1      42.987  33.401  33.744  1.00  0.00     0.031 C 
ATOM     53  C   UNL A   1      43.748  29.047  36.158  1.00  0.00     0.029 A 
ATOM     54  N   UNL A   1      43.813  29.009  33.923  1.00  0.00    -0.354 N 
ATOM     55  C   UNL A   1      43.058  32.581  31.611  1.00  0.00     0.074 A 
ATOM     56  C   UNL A   1      42.786  33.712  32.471  1.00  0.00     0.031 C 
ATOM     57  C   UNL A   1      43.954  27.774  35.782  1.00  0.00     0.029 A 
ATOM     58  C   UNL A   1      43.978  27.704  34.325  1.00  0.00     0.049 A 
ATOM     59  H   UNL A   1      43.811  29.285  32.978  1.00  0.00     0.167 HD
ATOM     60  C   UNL A   1      43.057  32.640  30.259  1.00  0.00     0.034 A 
ATOM     61  C   UNL A   1      44.126  26.578  33.600  1.00  0.00     0.034 A 
ATOM     62  C   UNL A   1      43.374  31.525  29.409  1.00  0.00     0.049 A 
ATOM     63  C   UNL A   1      44.167  26.677  32.098  1.00  0.00     0.074 A 
ATOM     64  C   UNL A   1      43.486  31.498  28.030  1.00  0.00     0.029 A 
ATOM     65  N   UNL A   1      43.626  30.237  29.855  1.00  0.00    -0.354 N 
ATOM     66  N   UNL A   1      44.051  27.739  31.337  1.00  0.00    -0.248 NA
ATOM     67  C   UNL A   1      44.400  25.430  31.356  1.00  0.00     0.031 C 
ATOM     68  C   UNL A   1      43.779  30.187  27.642  1.00  0.00     0.029 A 
ATOM     69  C   UNL A   1      43.885  29.405  28.780  1.00  0.00     0.049 A 
ATOM     70  H   UNL A   1      43.620  29.954  30.799  1.00  0.00     0.167 HD
ATOM     71  C   UNL A   1      44.237  27.296  30.033  1.00  0.00     0.074 A 
ATOM     72  C   UNL A   1      44.491  25.872  30.109  1.00  0.00     0.031 C 
ATOM     73  C   UNL A   1      44.192  28.001  28.875  1.00  0.00     0.034 A 
BRANCH  60  74
ATOM     74  C   UNL A   1      42.748  33.966  29.614  1.00  0.00     0.023 A 
ATOM     75  C   UNL A   1      41.407  34.390  29.498  1.00  0.00     0.012 A 
ATOM     76  C   UNL A   1      43.780  34.815  29.170  1.00  0.00     0.148 A 
ATOM     77  C   UNL A   1      41.096  35.618  28.915  1.00  0.00     0.002 A 
ATOM     78  C   UNL A   1      43.465  36.059  28.636  1.00  0.00     0.091 A 
ATOM     79  F   UNL A   1      45.046  34.388  29.269  1.00  0.00    -0.205 F 
ATOM     80  C   UNL A   1      42.125  36.456  28.495  1.00  0.00     0.022 A 
BRANCH  78  81
ATOM     81  S   UNL A   1      44.718  37.247  28.140  1.00  0.00     0.127 S 
ATOM     82  O   UNL A   1      45.642  37.191  29.271  1.00  0.00    -0.237 OA
ATOM     83  O   UNL A   1      45.230  36.654  26.904  1.00  0.00    -0.237 OA
ATOM     84  O   UNL A   1      44.023  38.514  27.964  1.00  0.00    -0.744 OA
ENDBRANCH  78  81
ENDBRANCH  60  74
BRANCH  61  85
ATOM     85  C   UNL A   1      44.317  25.269  34.286  1.00  0.00     0.023 A 
ATOM     86  C   UNL A   1      43.202  24.440  34.517  1.00  0.00     0.012 A 
ATOM     87  C   UNL A   1      45.593  24.832  34.690  1.00  0.00     0.148 A 
ATOM     88  C   UNL A   1      43.348  23.215  35.171  1.00  0.00     0.002 A 
ATOM     89  C   UNL A   1      45.740  23.586  35.289  1.00  0.00     0.091 A 
ATOM     90  F   UNL A   1      46.640  25.639  34.469  1.00  0.00    -0.205 F 
ATOM     91  C   UNL A   1      44.617  22.785  35.548  1.00  0.00     0.022 A 
BRANCH  89  92
ATOM     92  S   UNL A   1      47.349  22.895  35.690  1.00  0.00     0.127 S 
ATOM     93  O   UNL A   1      47.736  23.690  36.852  1.00  0.00    -0.237 OA
ATOM     94  O   UNL A   1      47.013  21.500  35.979  1.00  0.00    -0.237 OA
ATOM     95  O   UNL A   1      48.165  23.079  34.497  1.00  0.00    -0.744 OA
ENDBRANCH  89  92
ENDBRANCH  61  85
BRANCH  73  96
ATOM     96  C   UNL A   1      44.471  27.262  27.594  1.00  0.00     0.023 A 
ATOM     97  C   UNL A   1      43.460  26.491  26.988  1.00  0.00     0.012 A 
ATOM     98  C   UNL A   1      45.717  27.397  26.949  1.00  0.00     0.148 A 
ATOM     99  C   UNL A   1      43.694  25.837  25.780  1.00  0.00     0.002 A 
ATOM    100  C   UNL A   1      45.927  26.786  25.720  1.00  0.00     0.091 A 
ATOM    101  F   UNL A   1      46.674  28.120  27.550  1.00  0.00    -0.205 F 
ATOM    102  C   UNL A   1      44.922  25.995  25.140  1.00  0.00     0.022 A 
BRANCH 100 103
ATOM    103  S   UNL A   1      47.438  27.017  24.776  1.00  0.00     0.127 S 
ATOM    104  O   UNL A   1      47.546  25.741  24.071  1.00  0.00    -0.237 OA
ATOM    105  O   UNL A   1      47.100  28.159  23.924  1.00  0.00    -0.237 OA
ATOM    106  O   UNL A   1      48.485  27.283  25.753  1.00  0.00    -0.744 OA
ENDBRANCH 100 103
ENDBRANCH  73  96
ENDBRANCH  47  48
ENDBRANCH  39  42
ENDBRANCH  37  38
ENDBRANCH  36  37
ENDBRANCH  35  36
ENDBRANCH  34  35
ENDBRANCH   1  34
TORSDOF 22
ENDMDL
MODEL 2
REMARK VINA RESULT:      -8.7      5.457     11.050
REMARK SMILES COc1ccc(-c2ccc(C(=O)NCc3ccc(C(=O)NCCCCCCNC(=O)c4ccc(-c5c6nc(c(-c7cccc(S(=O)(=O)[O-])c7F)c7ccc([nH]7)c(-c7cccc(S(=O)(=O)[O-])c7F)c7nc(c(-c8cccc(S(=O)(=O)[O-])c8F)c8ccc5[nH]8)C=C7)C=C6)cc4)cc3)o2)c([N+](=O)[O-])c1
REMARK SMILES IDX 23 1 22 2 21 3 19 4 20 5 18 7 15 8 16 9 95 10 17 11 94 12
REMARK SMILES IDX 14 13 13 14 11 15 12 16 10 18 7 19 8 20 96 21 9 22 6 23 3 24
REMARK SMILES IDX 4 25 101 26 5 27 97 28 2 29 1 30 98 31 99 32 100 33 24 34
REMARK SMILES IDX 25 35 26 36 27 37 28 38 29 39 30 41 31 42 32 43 93 44 33 45
REMARK SMILES IDX 92 46 34 47 35 48 36 49 86 50 37 51 91 52 85 53 87 54 38 55
REMARK SMILES IDX 90 56 84 57 83 58 39 60 71 61 51 62 70 63 52 64 55 65 69 66
REMARK SMILES IDX 88 67 53 68 54 69 68 71 89 72 56 73 40 74 41 75 49 76 42 77
REMARK SMILES IDX 44 78 50 79 43 80 45 81 46 82 47 83 48 84 72 85 73 86 81 87
REMARK SMILES IDX 74 88 76 89 82 90 75 91 77 92 78 93 79 94 80 95 57 96 58 97
REMARK SMILES IDX 66 98 59 99 61 100 67 101 60 102 62 103 63 104 64 105 65 106
REMARK H PARENT 21 6 13 17 28 40 87 59 55 70
REMARK Flexibility Score: inf
ROOT
ATOM      1  C   UNL A   1      39.113  27.827  28.607  1.00  0.00     0.021 C 
ENDROOT
BRANCH   1   2
ATOM      2  C   UNL A   1      39.945  26.924  29.521  1.00  0.00     0.116 C 
BRANCH   2   3
ATOM      3  N   UNL A   1      41.156  26.516  28.832  1.00  0.00    -0.352 N 
ATOM      4  C   UNL A   1      41.429  25.505  27.950  1.00  0.00     0.251 C 
ATOM      5  O   UNL A   1      42.590  25.393  27.552  1.00  0.00    -0.269 OA
ATOM      6  H   UNL A   1      41.936  27.079  29.041  1.00  0.00     0.163 HD
BRANCH   4   7
ATOM      7  C   UNL A   1      40.387  24.596  27.399  1.00  0.00     0.039 A 
ATOM      8  C   UNL A   1      38.590  22.723  26.268  1.00  0.00    -0.029 A 
ATOM      9  C   UNL A   1      39.848  22.316  26.728  1.00  0.00     0.006 A 
ATOM     10  C   UNL A   1      38.228  24.069  26.428  1.00  0.00     0.006 A 
ATOM     11  C   UNL A   1      40.734  23.242  27.288  1.00  0.00     0.014 A 
ATOM     12  C   UNL A   1      39.105  24.989  27.016  1.00  0.00     0.014 A 
BRANCH   8  13
ATOM     13  C   UNL A   1      37.676  21.731  25.594  1.00  0.00     0.152 C 
BRANCH  13  14
ATOM     14  N   UNL A   1      37.457  22.055  24.206  1.00  0.00    -0.345 N 
ATOM     15  C   UNL A   1      36.480  22.778  23.570  1.00  0.00     0.287 C 
ATOM     16  O   UNL A   1      36.667  22.957  22.362  1.00  0.00    -0.266 OA
ATOM     17  H   UNL A   1      38.138  21.688  23.597  1.00  0.00     0.164 HD
BRANCH  15  18
ATOM     18  C   UNL A   1      35.313  23.290  24.268  1.00  0.00     0.192 A 
ATOM     19  C   UNL A   1      33.556  24.632  24.413  1.00  0.00     0.142 A 
ATOM     20  C   UNL A   1      33.547  23.872  25.558  1.00  0.00     0.052 A 
ATOM     21  O   UNL A   1      34.598  24.273  23.621  1.00  0.00    -0.451 OA
ATOM     22  C   UNL A   1      34.667  23.008  25.463  1.00  0.00     0.057 A 
BRANCH  19  23
ATOM     23  C   UNL A   1      32.701  25.688  23.905  1.00  0.00     0.095 A 
ATOM     24  C   UNL A   1      30.877  27.567  22.831  1.00  0.00     0.125 A 
ATOM     25  C   UNL A   1      31.443  26.580  22.022  1.00  0.00     0.047 A 
ATOM     26  C   UNL A   1      31.223  27.626  24.178  1.00  0.00     0.132 A 
ATOM     27  C   UNL A   1      32.353  25.658  22.547  1.00  0.00     0.023 A 
ATOM     28  C   UNL A   1      32.136  26.693  24.707  1.00  0.00     0.284 A 
BRANCH  24  29
ATOM     29  O   UNL A   1      29.978  28.381  22.202  1.00  0.00    -0.497 OA
ATOM     30  C   UNL A   1      28.723  28.566  22.843  1.00  0.00     0.278 C 
ENDBRANCH  24  29
BRANCH  28  31
ATOM     31  N   UNL A   1      32.480  26.823  26.124  1.00  0.00     0.063 N 
ATOM     32  O   UNL A   1      31.689  26.384  26.970  1.00  0.00    -0.258 OA
ATOM     33  O   UNL A   1      33.582  27.322  26.396  1.00  0.00    -0.258 OA
ENDBRANCH  28  31
ENDBRANCH  19  23
ENDBRANCH  15  18
ENDBRANCH  13  14
ENDBRANCH   8  13
ENDBRANCH   4   7
ENDBRANCH   2   3
ENDBRANCH   1   2
BRANCH   1  34
ATOM     34  C   UNL A   1      38.575  29.076  29.322  1.00  0.00     0.002 C 
BRANCH  34  35
ATOM     35  C   UNL A   1      38.259  30.257  28.398  1.00  0.00     0.002 C 
BRANCH  35  36
ATOM     36  C   UNL A   1      36.875  30.210  27.748  1.00  0.00     0.021 C 
BRANCH  36  37
ATOM     37  C   UNL A   1      35.731  30.008  28.736  1.00  0.00     0.116 C 
BRANCH  37  38
ATOM     38  N   UNL A   1      35.015  31.250  28.983  1.00  0.00    -0.352 N 
ATOM     39  C   UNL A   1      35.086  32.086  30.068  1.00  0.00     0.251 C 
ATOM     40  H   UNL A   1      34.393  31.529  28.273  1.00  0.00     0.163 HD
ATOM     41  O   UNL A   1      34.238  32.959  30.227  1.00  0.00    -0.269 OA
BRANCH  39  42
ATOM     42  C   UNL A   1      36.186  31.929  31.043  1.00  0.00     0.039 A 
ATOM     43  C   UNL A   1      36.088  30.942  32.027  1.00  0.00     0.014 A 
ATOM     44  C   UNL A   1      37.300  32.773  31.001  1.00  0.00     0.014 A 
ATOM     45  C   UNL A   1      37.123  30.783  32.951  1.00  0.00     0.010 A 
ATOM     46  C   UNL A   1      38.364  32.561  31.871  1.00  0.00     0.010 A 
ATOM     47  C   UNL A   1      38.276  31.581  32.871  1.00  0.00    -0.014 A 
BRANCH  47  48
ATOM     48  C   UNL A   1      39.386  31.430  33.845  1.00  0.00     0.031 A 
ATOM     49  C   UNL A   1      40.520  30.485  33.549  1.00  0.00     0.074 A 
ATOM     50  C   UNL A   1      39.338  32.082  35.022  1.00  0.00     0.049 A 
ATOM     51  N   UNL A   1      41.552  30.178  34.291  1.00  0.00    -0.248 NA
ATOM     52  C   UNL A   1      40.475  29.768  32.263  1.00  0.00     0.031 C 
ATOM     53  C   UNL A   1      38.255  32.967  35.456  1.00  0.00     0.029 A 
ATOM     54  N   UNL A   1      40.212  32.084  36.080  1.00  0.00    -0.354 N 
ATOM     55  C   UNL A   1      42.255  29.209  33.583  1.00  0.00     0.074 A 
ATOM     56  C   UNL A   1      41.511  28.949  32.371  1.00  0.00     0.031 C 
ATOM     57  C   UNL A   1      38.531  33.429  36.687  1.00  0.00     0.029 A 
ATOM     58  C   UNL A   1      39.793  32.853  37.140  1.00  0.00     0.049 A 
ATOM     59  H   UNL A   1      41.059  31.582  36.081  1.00  0.00     0.167 HD
ATOM     60  C   UNL A   1      43.428  28.611  33.896  1.00  0.00     0.034 A 
ATOM     61  C   UNL A   1      40.360  33.066  38.344  1.00  0.00     0.034 A 
ATOM     62  C   UNL A   1      44.188  28.907  35.080  1.00  0.00     0.049 A 
ATOM     63  C   UNL A   1      41.688  32.425  38.649  1.00  0.00     0.074 A 
ATOM     64  C   UNL A   1      45.430  28.423  35.450  1.00  0.00     0.029 A 
ATOM     65  N   UNL A   1      43.775  29.762  36.091  1.00  0.00    -0.354 N 
ATOM     66  N   UNL A   1      42.412  31.629  37.899  1.00  0.00    -0.248 NA
ATOM     67  C   UNL A   1      42.297  32.743  39.948  1.00  0.00     0.031 C 
ATOM     68  C   UNL A   1      45.756  28.965  36.697  1.00  0.00     0.029 A 
ATOM     69  C   UNL A   1      44.733  29.814  37.088  1.00  0.00     0.049 A 
ATOM     70  H   UNL A   1      42.925  30.259  36.099  1.00  0.00     0.167 HD
ATOM     71  C   UNL A   1      43.578  31.386  38.616  1.00  0.00     0.074 A 
ATOM     72  C   UNL A   1      43.470  32.133  39.852  1.00  0.00     0.031 C 
ATOM     73  C   UNL A   1      44.637  30.606  38.287  1.00  0.00     0.034 A 
BRANCH  60  74
ATOM     74  C   UNL A   1      43.989  27.610  32.919  1.00  0.00     0.023 A 
ATOM     75  C   UNL A   1      43.864  26.230  33.185  1.00  0.00     0.012 A 
ATOM     76  C   UNL A   1      44.590  28.029  31.717  1.00  0.00     0.148 A 
ATOM     77  C   UNL A   1      44.365  25.285  32.290  1.00  0.00     0.002 A 
ATOM     78  C   UNL A   1      45.042  27.080  30.807  1.00  0.00     0.091 A 
ATOM     79  F   UNL A   1      44.719  29.343  31.490  1.00  0.00    -0.205 F 
ATOM     80  C   UNL A   1      44.943  25.709  31.097  1.00  0.00     0.022 A 
BRANCH  78  81
ATOM     81  S   UNL A   1      45.728  27.520  29.206  1.00  0.00     0.127 S 
ATOM     82  O   UNL A   1      46.824  28.410  29.588  1.00  0.00    -0.237 OA
ATOM     83  O   UNL A   1      46.151  26.220  28.685  1.00  0.00    -0.237 OA
ATOM     84  O   UNL A   1      44.644  28.149  28.463  1.00  0.00    -0.744 OA
ENDBRANCH  78  81
ENDBRANCH  60  74
BRANCH  61  85
ATOM     85  C   UNL A   1      39.708  33.979  39.325  1.00  0.00     0.023 A 
ATOM     86  C   UNL A   1      39.851  35.372  39.175  1.00  0.00     0.012 A 
ATOM     87  C   UNL A   1      38.930  33.479  40.387  1.00  0.00     0.148 A 
ATOM     88  C   UNL A   1      39.263  36.250  40.087  1.00  0.00     0.002 A 
ATOM     89  C   UNL A   1      38.301  34.360  41.258  1.00  0.00     0.091 A 
ATOM     90  F   UNL A   1      38.813  32.150  40.517  1.00  0.00    -0.205 F 
ATOM     91  C   UNL A   1      38.482  35.745  41.122  1.00  0.00     0.022 A 
BRANCH  89  92
ATOM     92  S   UNL A   1      37.171  33.804  42.540  1.00  0.00     0.127 S 
ATOM     93  O   UNL A   1      38.045  32.983  43.374  1.00  0.00    -0.237 OA
ATOM     94  O   UNL A   1      36.754  35.071  43.143  1.00  0.00    -0.237 OA
ATOM     95  O   UNL A   1      36.107  33.092  41.845  1.00  0.00    -0.744 OA
ENDBRANCH  89  92
ENDBRANCH  61  85
BRANCH  73  96
ATOM     96  C   UNL A   1      45.794  30.554  39.248  1.00  0.00     0.023 A 
ATOM     97  C   UNL A   1      45.842  29.558  40.243  1.00  0.00     0.012 A 
ATOM     98  C   UNL A   1      46.875  31.449  39.115  1.00  0.00     0.148 A 
ATOM     99  C   UNL A   1      46.929  29.474  41.111  1.00  0.00     0.002 A 
ATOM    100  C   UNL A   1      47.978  31.328  39.949  1.00  0.00     0.091 A 
ATOM    101  F   UNL A   1      46.803  32.403  38.174  1.00  0.00    -0.205 F 
ATOM    102  C   UNL A   1      48.002  30.350  40.956  1.00  0.00     0.022 A 
BRANCH 100 103
ATOM    103  S   UNL A   1      49.446  32.344  39.755  1.00  0.00     0.127 S 
ATOM    104  O   UNL A   1      49.989  31.846  38.492  1.00  0.00    -0.237 OA
ATOM    105  O   UNL A   1      48.883  33.694  39.687  1.00  0.00    -0.237 OA
ATOM    106  O   UNL A   1      50.268  32.092  40.931  1.00  0.00    -0.744 OA
ENDBRANCH 100 103
ENDBRANCH  73  96
ENDBRANCH  47  48
ENDBRANCH  39  42
ENDBRANCH  37  38
ENDBRANCH  36  37
ENDBRANCH  35  36
ENDBRANCH  34  35
ENDBRANCH   1  34
TORSDOF 22
ENDMDL
MODEL 3
REMARK VINA RESULT:      -8.6      5.803     12.512
REMARK SMILES COc1ccc(-c2ccc(C(=O)NCc3ccc(C(=O)NCCCCCCNC(=O)c4ccc(-c5c6nc(c(-c7cccc(S(=O)(=O)[O-])c7F)c7ccc([nH]7)c(-c7cccc(S(=O)(=O)[O-])c7F)c7nc(c(-c8cccc(S(=O)(=O)[O-])c8F)c8ccc5[nH]8)C=C7)C=C6)cc4)cc3)o2)c([N+](=O)[O-])c1
REMARK SMILES IDX 23 1 22 2 21 3 19 4 20 5 18 7 15 8 16 9 95 10 17 11 94 12
REMARK SMILES IDX 14 13 13 14 11 15 12 16 10 18 7 19 8 20 96 21 9 22 6 23 3 24
REMARK SMILES IDX 4 25 101 26 5 27 97 28 2 29 1 30 98 31 99 32 100 33 24 34
REMARK SMILES IDX 25 35 26 36 27 37 28 38 29 39 30 41 31 42 32 43 93 44 33 45
REMARK SMILES IDX 92 46 34 47 35 48 36 49 86 50 37 51 91 52 85 53 87 54 38 55
REMARK SMILES IDX 90 56 84 57 83 58 39 60 71 61 51 62 70 63 52 64 55 65 69 66
REMARK SMILES IDX 88 67 53 68 54 69 68 71 89 72 56 73 40 74 41 75 49 76 42 77
REMARK SMILES IDX 44 78 50 79 43 80 45 81 46 82 47 83 48 84 72 85 73 86 81 87
REMARK SMILES IDX 74 88 76 89 82 90 75 91 77 92 78 93 79 94 80 95 57 96 58 97
REMARK SMILES IDX 66 98 59 99 61 100 67 101 60 102 62 103 63 104 64 105 65 106
REMARK H PARENT 21 6 13 17 28 40 87 59 55 70
REMARK Flexibility Score: inf
ROOT
ATOM      1  C   UNL A   1      37.092  31.250  32.622  1.00  0.00     0.021 C 
ENDROOT
BRANCH   1   2
ATOM      2  C   UNL A   1      35.929  31.280  31.627  1.00  0.00     0.116 C 
BRANCH   2   3
ATOM      3  N   UNL A   1      36.104  32.388  30.706  1.00  0.00    -0.352 N 
ATOM      4  C   UNL A   1      36.013  32.489  29.344  1.00  0.00     0.251 C 
ATOM      5  O   UNL A   1      36.252  33.585  28.836  1.00  0.00    -0.269 OA
ATOM      6  H   UNL A   1      36.334  33.236  31.150  1.00  0.00     0.163 HD
BRANCH   4   7
ATOM      7  C   UNL A   1      35.568  31.371  28.469  1.00  0.00     0.039 A 
ATOM      8  C   UNL A   1      34.494  29.279  26.891  1.00  0.00    -0.029 A 
ATOM      9  C   UNL A   1      33.704  30.375  27.256  1.00  0.00     0.006 A 
ATOM     10  C   UNL A   1      35.841  29.271  27.285  1.00  0.00     0.006 A 
ATOM     11  C   UNL A   1      34.236  31.408  28.033  1.00  0.00     0.014 A 
ATOM     12  C   UNL A   1      36.380  30.321  28.039  1.00  0.00     0.014 A 
BRANCH   8  13
ATOM     13  C   UNL A   1      33.888  28.133  26.120  1.00  0.00     0.152 C 
BRANCH  13  14
ATOM     14  N   UNL A   1      32.699  28.532  25.407  1.00  0.00    -0.345 N 
ATOM     15  C   UNL A   1      32.031  27.977  24.344  1.00  0.00     0.287 C 
ATOM     16  O   UNL A   1      30.963  28.528  24.057  1.00  0.00    -0.266 OA
ATOM     17  H   UNL A   1      32.288  29.359  25.747  1.00  0.00     0.164 HD
BRANCH  15  18
ATOM     18  C   UNL A   1      32.547  26.832  23.614  1.00  0.00     0.192 A 
ATOM     19  C   UNL A   1      33.072  24.685  23.465  1.00  0.00     0.142 A 
ATOM     20  C   UNL A   1      33.362  25.232  22.238  1.00  0.00     0.052 A 
ATOM     21  O   UNL A   1      32.559  25.633  24.291  1.00  0.00    -0.451 OA
ATOM     22  C   UNL A   1      33.020  26.603  22.330  1.00  0.00     0.057 A 
BRANCH  19  23
ATOM     23  C   UNL A   1      33.193  23.352  24.022  1.00  0.00     0.095 A 
ATOM     24  C   UNL A   1      33.352  20.659  24.883  1.00  0.00     0.125 A 
ATOM     25  C   UNL A   1      32.155  21.179  24.387  1.00  0.00     0.047 A 
ATOM     26  C   UNL A   1      34.474  21.481  24.959  1.00  0.00     0.132 A 
ATOM     27  C   UNL A   1      32.070  22.512  23.973  1.00  0.00     0.023 A 
ATOM     28  C   UNL A   1      34.388  22.821  24.534  1.00  0.00     0.284 A 
BRANCH  24  29
ATOM     29  O   UNL A   1      33.307  19.337  25.221  1.00  0.00    -0.497 OA
ATOM     30  C   UNL A   1      33.676  18.405  24.212  1.00  0.00     0.278 C 
ENDBRANCH  24  29
BRANCH  28  31
ATOM     31  N   UNL A   1      35.594  23.641  24.663  1.00  0.00     0.063 N 
ATOM     32  O   UNL A   1      35.664  24.453  25.595  1.00  0.00    -0.258 OA
ATOM     33  O   UNL A   1      36.510  23.433  23.853  1.00  0.00    -0.258 OA
ENDBRANCH  28  31
ENDBRANCH  19  23
ENDBRANCH  15  18
ENDBRANCH  13  14
ENDBRANCH   8  13
ENDBRANCH   4   7
ENDBRANCH   2   3
ENDBRANCH   1   2
BRANCH   1  34
ATOM     34  C   UNL A   1      37.494  29.826  33.035  1.00  0.00     0.002 C 
BRANCH  34  35
ATOM     35  C   UNL A   1      38.957  29.466  32.753  1.00  0.00     0.002 C 
BRANCH  35  36
ATOM     36  C   UNL A   1      39.154  28.289  31.795  1.00  0.00     0.021 C 
BRANCH  36  37
ATOM     37  C   UNL A   1      38.162  28.258  30.637  1.00  0.00     0.116 C 
BRANCH  37  38
ATOM     38  N   UNL A   1      38.835  28.031  29.367  1.00  0.00    -0.352 N 
ATOM     39  C   UNL A   1      39.670  28.868  28.671  1.00  0.00     0.251 C 
ATOM     40  H   UNL A   1      38.667  27.156  28.948  1.00  0.00     0.163 HD
ATOM     41  O   UNL A   1      39.955  28.619  27.503  1.00  0.00    -0.269 OA
BRANCH  39  42
ATOM     42  C   UNL A   1      40.223  30.068  29.334  1.00  0.00     0.039 A 
ATOM     43  C   UNL A   1      39.380  31.151  29.594  1.00  0.00     0.014 A 
ATOM     44  C   UNL A   1      41.578  30.133  29.673  1.00  0.00     0.014 A 
ATOM     45  C   UNL A   1      39.891  32.288  30.223  1.00  0.00     0.010 A 
ATOM     46  C   UNL A   1      42.066  31.233  30.370  1.00  0.00     0.010 A 
ATOM     47  C   UNL A   1      41.235  32.332  30.630  1.00  0.00    -0.014 A 
BRANCH  47  48
ATOM     48  C   UNL A   1      41.798  33.533  31.297  1.00  0.00     0.031 A 
ATOM     49  C   UNL A   1      41.815  33.618  32.800  1.00  0.00     0.074 A 
ATOM     50  C   UNL A   1      42.225  34.573  30.556  1.00  0.00     0.049 A 
ATOM     51  N   UNL A   1      42.216  34.598  33.566  1.00  0.00    -0.248 NA
ATOM     52  C   UNL A   1      41.282  32.461  33.541  1.00  0.00     0.031 C 
ATOM     53  C   UNL A   1      42.190  34.641  29.093  1.00  0.00     0.029 A 
ATOM     54  N   UNL A   1      42.750  35.784  30.932  1.00  0.00    -0.354 N 
ATOM     55  C   UNL A   1      41.951  34.195  34.871  1.00  0.00     0.074 A 
ATOM     56  C   UNL A   1      41.317  32.898  34.791  1.00  0.00     0.031 C 
ATOM     57  C   UNL A   1      42.678  35.828  28.697  1.00  0.00     0.029 A 
ATOM     58  C   UNL A   1      43.032  36.615  29.874  1.00  0.00     0.049 A 
ATOM     59  H   UNL A   1      42.911  36.033  31.871  1.00  0.00     0.167 HD
ATOM     60  C   UNL A   1      42.238  34.830  36.031  1.00  0.00     0.034 A 
ATOM     61  C   UNL A   1      43.518  37.872  29.855  1.00  0.00     0.034 A 
ATOM     62  C   UNL A   1      42.911  36.098  36.107  1.00  0.00     0.049 A 
ATOM     63  C   UNL A   1      43.870  38.538  31.158  1.00  0.00     0.074 A 
ATOM     64  C   UNL A   1      43.325  36.787  37.232  1.00  0.00     0.029 A 
ATOM     65  N   UNL A   1      43.264  36.871  35.012  1.00  0.00    -0.354 N 
ATOM     66  N   UNL A   1      43.753  38.076  32.380  1.00  0.00    -0.248 NA
ATOM     67  C   UNL A   1      44.460  39.882  31.080  1.00  0.00     0.031 C 
ATOM     68  C   UNL A   1      43.906  37.990  36.818  1.00  0.00     0.029 A 
ATOM     69  C   UNL A   1      43.884  38.034  35.434  1.00  0.00     0.049 A 
ATOM     70  H   UNL A   1      43.097  36.629  34.071  1.00  0.00     0.167 HD
ATOM     71  C   UNL A   1      44.291  39.052  33.211  1.00  0.00     0.074 A 
ATOM     72  C   UNL A   1      44.750  40.124  32.351  1.00  0.00     0.031 C 
ATOM     73  C   UNL A   1      44.387  39.066  34.563  1.00  0.00     0.034 A 
BRANCH  60  74
ATOM     74  C   UNL A   1      41.866  34.140  37.319  1.00  0.00     0.023 A 
ATOM     75  C   UNL A   1      42.815  33.326  37.973  1.00  0.00     0.012 A 
ATOM     76  C   UNL A   1      40.603  34.336  37.908  1.00  0.00     0.148 A 
ATOM     77  C   UNL A   1      42.499  32.686  39.171  1.00  0.00     0.002 A 
ATOM     78  C   UNL A   1      40.313  33.735  39.128  1.00  0.00     0.091 A 
ATOM     79  F   UNL A   1      39.707  35.095  37.263  1.00  0.00    -0.205 F 
ATOM     80  C   UNL A   1      41.253  32.899  39.753  1.00  0.00     0.022 A 
BRANCH  78  81
ATOM     81  S   UNL A   1      38.768  34.011  40.002  1.00  0.00     0.127 S 
ATOM     82  O   UNL A   1      37.791  33.487  39.048  1.00  0.00    -0.237 OA
ATOM     83  O   UNL A   1      38.945  33.195  41.203  1.00  0.00    -0.237 OA
ATOM     84  O   UNL A   1      38.694  35.445  40.246  1.00  0.00    -0.744 OA
ENDBRANCH  78  81
ENDBRANCH  60  74
BRANCH  61  85
ATOM     85  C   UNL A   1      43.763  38.558  28.554  1.00  0.00     0.023 A 
ATOM     86  C   UNL A   1      42.760  39.380  28.005  1.00  0.00     0.012 A 
ATOM     87  C   UNL A   1      44.986  38.419  27.872  1.00  0.00     0.148 A 
ATOM     88  C   UNL A   1      42.956  40.023  26.782  1.00  0.00     0.002 A 
ATOM     89  C   UNL A   1      45.197  39.106  26.682  1.00  0.00     0.091 A 
ATOM     90  F   UNL A   1      45.925  37.624  28.406  1.00  0.00    -0.205 F 
ATOM     91  C   UNL A   1      44.177  39.892  26.126  1.00  0.00     0.022 A 
BRANCH  89  92
ATOM     92  S   UNL A   1      46.782  39.102  25.835  1.00  0.00     0.127 S 
ATOM     93  O   UNL A   1      46.475  39.852  24.621  1.00  0.00    -0.237 OA
ATOM     94  O   UNL A   1      47.636  39.802  26.795  1.00  0.00    -0.237 OA
ATOM     95  O   UNL A   1      47.122  37.698  25.643  1.00  0.00    -0.744 OA
ENDBRANCH  89  92
ENDBRANCH  61  85
BRANCH  73  96
ATOM     96  C   UNL A   1      45.057  40.251  35.205  1.00  0.00     0.023 A 
ATOM     97  C   UNL A   1      44.290  41.360  35.616  1.00  0.00     0.012 A 
ATOM     98  C   UNL A   1      46.441  40.231  35.473  1.00  0.00     0.148 A 
ATOM     99  C   UNL A   1      44.895  42.443  36.250  1.00  0.00     0.002 A 
ATOM    100  C   UNL A   1      47.028  41.291  36.152  1.00  0.00     0.091 A 
ATOM    101  F   UNL A   1      47.157  39.175  35.058  1.00  0.00    -0.205 F 
ATOM    102  C   UNL A   1      46.259  42.404  36.529  1.00  0.00     0.022 A 
BRANCH 100 103
ATOM    103  S   UNL A   1      48.755  41.279  36.643  1.00  0.00     0.127 S 
ATOM    104  O   UNL A   1      48.946  42.658  37.090  1.00  0.00    -0.237 OA
ATOM    105  O   UNL A   1      48.767  40.283  37.716  1.00  0.00    -0.237 OA
ATOM    106  O   UNL A   1      49.508  40.896  35.457  1.00  0.00    -0.744 OA
ENDBRANCH 100 103
ENDBRANCH  73  96
ENDBRANCH  47  48
ENDBRANCH  39  42
ENDBRANCH  37  38
ENDBRANCH  36  37
ENDBRANCH  35  36
ENDBRANCH  34  35
ENDBRANCH   1  34
TORSDOF 22
ENDMDL
