MODEL 1
REMARK VINA RESULT:     -13.9      0.000      0.000
REMARK SMILES Cc1ccc([C@@H](C)Nc2ccc(N)cc2C(=O)NCCCCCCNC(=O)c2ccc(-c3c4nc(c(-c5cccc(S(=O)(=O)[O-])c5F)c5ccc([nH]5)c(-c5cccc(S(=O)(=O)[O-])c5F)c5nc(c(-c6cccc(S(=O)(=O)[O-])c6F)c6ccc3[nH]6)C=C5)C=C4)cc2)cc1F
REMARK SMILES IDX 21 1 20 2 19 3 18 4 16 5 17 6 15 8 9 9 10 10 11 11 14 12
REMARK SMILES IDX 12 13 8 14 6 16 7 17 5 18 1 19 2 20 3 21 92 22 4 23 91 24
REMARK SMILES IDX 93 25 13 26 22 29 23 30 24 31 25 32 26 33 27 35 28 36 29 37
REMARK SMILES IDX 90 38 30 39 89 40 31 41 32 42 33 43 83 44 34 45 88 46 82 47
REMARK SMILES IDX 84 48 35 49 87 50 81 51 80 52 36 54 68 55 48 56 67 57 49 58
REMARK SMILES IDX 52 59 66 60 85 61 50 62 51 63 65 65 86 66 53 67 37 68 38 69
REMARK SMILES IDX 46 70 39 71 41 72 47 73 40 74 42 75 43 76 44 77 45 78 69 79
REMARK SMILES IDX 70 80 78 81 71 82 73 83 79 84 72 85 74 86 75 87 76 88 77 89
REMARK SMILES IDX 54 90 55 91 63 92 56 93 58 94 64 95 57 96 59 97 60 98 61 99
REMARK SMILES IDX 62 100
REMARK H PARENT 18 7 8 15 13 27 13 28 25 34 84 53 52 64
REMARK Flexibility Score: inf
ROOT
ATOM      1  C   UNL A   1      30.859  27.204  25.950  1.00  0.00     0.002 C 
ENDROOT
BRANCH   1   2
ATOM      2  C   UNL A   1      30.255  25.210  25.250  1.00  0.00     0.021 C 
BRANCH   2   3
ATOM      3  C   UNL A   1      30.972  23.653  25.002  1.00  0.00     0.116 C 
BRANCH   3   4
ATOM      4  N   UNL A   1      31.471  23.238  23.695  1.00  0.00    -0.352 N 
ATOM      5  C   UNL A   1      32.635  23.551  23.039  1.00  0.00     0.253 C 
ATOM      6  O   UNL A   1      32.929  22.960  22.000  1.00  0.00    -0.269 OA
ATOM      7  H   UNL A   1      30.872  22.632  23.201  1.00  0.00     0.163 HD
BRANCH   5   8
ATOM      8  C   UNL A   1      33.448  24.705  23.478  1.00  0.00     0.065 A 
ATOM      9  C   UNL A   1      33.985  24.865  24.760  1.00  0.00     0.048 A 
ATOM     10  C   UNL A   1      34.141  26.205  25.167  1.00  0.00     0.028 A 
ATOM     11  C   UNL A   1      33.931  27.292  24.299  1.00  0.00     0.027 A 
ATOM     12  C   UNL A   1      33.397  25.779  22.558  1.00  0.00     0.041 A 
ATOM     13  C   UNL A   1      33.667  27.081  22.952  1.00  0.00     0.032 A 
BRANCH   9  14
ATOM     14  N   UNL A   1      34.367  23.873  25.649  1.00  0.00    -0.378 N 
ATOM     15  H   UNL A   1      33.725  23.724  26.381  1.00  0.00     0.161 HD
BRANCH  14  16
ATOM     16  C   UNL A   1      35.552  22.997  25.707  1.00  0.00     0.106 C 
ATOM     17  C   UNL A   1      36.841  23.650  25.224  1.00  0.00     0.036 C 
BRANCH  16  18
ATOM     18  C   UNL A   1      35.213  21.569  25.292  1.00  0.00    -0.023 A 
ATOM     19  C   UNL A   1      34.537  16.614  24.168  1.00  0.00     0.047 C 
ATOM     20  C   UNL A   1      34.711  18.052  24.536  1.00  0.00    -0.015 A 
ATOM     21  C   UNL A   1      36.380  18.718  24.676  1.00  0.00     0.007 A 
ATOM     22  C   UNL A   1      33.292  19.145  24.750  1.00  0.00     0.126 A 
ATOM     23  C   UNL A   1      36.628  20.462  25.070  1.00  0.00     0.006 A 
ATOM     24  C   UNL A   1      33.536  20.905  25.100  1.00  0.00     0.045 A 
ATOM     25  F   UNL A   1      32.051  18.645  24.712  1.00  0.00    -0.207 F 
ENDBRANCH  16  18
ENDBRANCH  14  16
ENDBRANCH   9  14
BRANCH  13  26
ATOM     26  N   UNL A   1      33.476  28.134  22.074  1.00  0.00    -0.399 N 
ATOM     27  H   UNL A   1      34.183  28.806  21.950  1.00  0.00     0.156 HD
ATOM     28  H   UNL A   1      32.631  28.210  21.572  1.00  0.00     0.156 HD
ENDBRANCH  13  26
ENDBRANCH   5   8
ENDBRANCH   3   4
ENDBRANCH   2   3
ENDBRANCH   1   2
BRANCH   1  29
ATOM     29  C   UNL A   1      31.713  27.913  27.256  1.00  0.00     0.002 C 
BRANCH  29  30
ATOM     30  C   UNL A   1      32.246  29.361  27.293  1.00  0.00     0.021 C 
BRANCH  30  31
ATOM     31  C   UNL A   1      33.747  29.580  27.411  1.00  0.00     0.116 C 
BRANCH  31  32
ATOM     32  N   UNL A   1      34.147  30.959  27.651  1.00  0.00    -0.352 N 
ATOM     33  C   UNL A   1      35.020  31.344  28.654  1.00  0.00     0.251 C 
ATOM     34  H   UNL A   1      33.775  31.658  27.068  1.00  0.00     0.163 HD
ATOM     35  O   UNL A   1      34.863  32.347  29.337  1.00  0.00    -0.269 OA
BRANCH  33  36
ATOM     36  C   UNL A   1      36.219  30.505  28.813  1.00  0.00     0.039 A 
ATOM     37  C   UNL A   1      36.494  29.797  29.989  1.00  0.00     0.014 A 
ATOM     38  C   UNL A   1      37.126  30.542  27.755  1.00  0.00     0.014 A 
ATOM     39  C   UNL A   1      37.721  29.155  30.109  1.00  0.00     0.010 A 
ATOM     40  C   UNL A   1      38.248  29.786  27.802  1.00  0.00     0.010 A 
ATOM     41  C   UNL A   1      38.588  29.203  29.018  1.00  0.00    -0.014 A 
BRANCH  41  42
ATOM     42  C   UNL A   1      39.950  28.722  29.014  1.00  0.00     0.031 A 
ATOM     43  C   UNL A   1      40.127  27.289  28.776  1.00  0.00     0.074 A 
ATOM     44  C   UNL A   1      40.869  29.718  29.023  1.00  0.00     0.049 A 
ATOM     45  N   UNL A   1      41.039  26.556  29.303  1.00  0.00    -0.248 NA
ATOM     46  C   UNL A   1      39.161  26.498  27.997  1.00  0.00     0.031 C 
ATOM     47  C   UNL A   1      42.273  29.761  28.665  1.00  0.00     0.029 A 
ATOM     48  N   UNL A   1      40.634  31.001  29.538  1.00  0.00    -0.354 N 
ATOM     49  C   UNL A   1      41.083  25.426  28.513  1.00  0.00     0.074 A 
ATOM     50  C   UNL A   1      39.763  25.303  27.950  1.00  0.00     0.031 C 
ATOM     51  C   UNL A   1      42.837  30.839  29.254  1.00  0.00     0.029 A 
ATOM     52  C   UNL A   1      41.829  31.466  30.101  1.00  0.00     0.049 A 
ATOM     53  H   UNL A   1      39.779  31.488  29.508  1.00  0.00     0.167 HD
ATOM     54  C   UNL A   1      42.303  24.936  28.149  1.00  0.00     0.034 A 
ATOM     55  C   UNL A   1      41.869  31.573  31.466  1.00  0.00     0.034 A 
ATOM     56  C   UNL A   1      43.348  25.816  28.669  1.00  0.00     0.049 A 
ATOM     57  C   UNL A   1      42.669  30.437  32.071  1.00  0.00     0.074 A 
ATOM     58  C   UNL A   1      44.125  26.802  28.085  1.00  0.00     0.029 A 
ATOM     59  N   UNL A   1      43.435  26.016  30.031  1.00  0.00    -0.354 N 
ATOM     60  N   UNL A   1      42.979  29.342  31.429  1.00  0.00    -0.248 NA
ATOM     61  C   UNL A   1      43.149  30.426  33.447  1.00  0.00     0.031 C 
ATOM     62  C   UNL A   1      44.684  27.596  29.129  1.00  0.00     0.029 A 
ATOM     63  C   UNL A   1      44.226  27.101  30.334  1.00  0.00     0.049 A 
ATOM     64  H   UNL A   1      42.989  25.452  30.703  1.00  0.00     0.167 HD
ATOM     65  C   UNL A   1      43.778  28.557  32.211  1.00  0.00     0.074 A 
ATOM     66  C   UNL A   1      43.758  29.228  33.502  1.00  0.00     0.031 C 
ATOM     67  C   UNL A   1      44.408  27.441  31.733  1.00  0.00     0.034 A 
BRANCH  54  68
ATOM     68  C   UNL A   1      42.578  23.884  27.097  1.00  0.00     0.023 A 
ATOM     69  C   UNL A   1      43.341  24.111  25.933  1.00  0.00     0.012 A 
ATOM     70  C   UNL A   1      42.034  22.585  27.235  1.00  0.00     0.148 A 
ATOM     71  C   UNL A   1      43.602  23.097  24.997  1.00  0.00     0.002 A 
ATOM     72  C   UNL A   1      42.290  21.581  26.304  1.00  0.00     0.091 A 
ATOM     73  F   UNL A   1      41.234  22.292  28.268  1.00  0.00    -0.205 F 
ATOM     74  C   UNL A   1      43.080  21.825  25.184  1.00  0.00     0.022 A 
BRANCH  72  75
ATOM     75  S   UNL A   1      41.576  19.959  26.580  1.00  0.00     0.127 S 
ATOM     76  O   UNL A   1      40.159  20.259  26.760  1.00  0.00    -0.237 OA
ATOM     77  O   UNL A   1      41.950  19.223  25.377  1.00  0.00    -0.237 OA
ATOM     78  O   UNL A   1      42.251  19.501  27.796  1.00  0.00    -0.744 OA
ENDBRANCH  72  75
ENDBRANCH  54  68
BRANCH  55  79
ATOM     79  C   UNL A   1      40.563  32.112  31.999  1.00  0.00     0.023 A 
ATOM     80  C   UNL A   1      40.396  33.499  32.168  1.00  0.00     0.012 A 
ATOM     81  C   UNL A   1      39.794  31.239  32.808  1.00  0.00     0.148 A 
ATOM     82  C   UNL A   1      39.611  33.988  33.223  1.00  0.00     0.002 A 
ATOM     83  C   UNL A   1      39.086  31.733  33.903  1.00  0.00     0.091 A 
ATOM     84  F   UNL A   1      39.887  29.916  32.592  1.00  0.00    -0.205 F 
ATOM     85  C   UNL A   1      39.011  33.110  34.129  1.00  0.00     0.022 A 
BRANCH  83  86
ATOM     86  S   UNL A   1      38.511  30.584  35.166  1.00  0.00     0.127 S 
ATOM     87  O   UNL A   1      39.758  30.103  35.751  1.00  0.00    -0.237 OA
ATOM     88  O   UNL A   1      37.667  31.417  36.021  1.00  0.00    -0.237 OA
ATOM     89  O   UNL A   1      37.760  29.580  34.412  1.00  0.00    -0.744 OA
ENDBRANCH  83  86
ENDBRANCH  55  79
BRANCH  67  90
ATOM     90  C   UNL A   1      45.228  26.508  32.578  1.00  0.00     0.023 A 
ATOM     91  C   UNL A   1      46.638  26.466  32.432  1.00  0.00     0.012 A 
ATOM     92  C   UNL A   1      44.672  25.661  33.532  1.00  0.00     0.148 A 
ATOM     93  C   UNL A   1      47.431  25.526  33.088  1.00  0.00     0.002 A 
ATOM     94  C   UNL A   1      45.441  24.655  34.103  1.00  0.00     0.091 A 
ATOM     95  F   UNL A   1      43.401  25.837  33.921  1.00  0.00    -0.205 F 
ATOM     96  C   UNL A   1      46.820  24.578  33.888  1.00  0.00     0.022 A 
BRANCH  94  97
ATOM     97  S   UNL A   1      44.581  23.340  34.952  1.00  0.00     0.127 S 
ATOM     98  O   UNL A   1      45.646  22.418  35.329  1.00  0.00    -0.237 OA
ATOM     99  O   UNL A   1      43.928  24.059  36.045  1.00  0.00    -0.237 OA
ATOM    100  O   UNL A   1      43.662  22.827  33.936  1.00  0.00    -0.744 OA
ENDBRANCH  94  97
ENDBRANCH  67  90
ENDBRANCH  41  42
ENDBRANCH  33  36
ENDBRANCH  31  32
ENDBRANCH  30  31
ENDBRANCH  29  30
ENDBRANCH   1  29
TORSDOF 20
ENDMDL
MODEL 2
REMARK VINA RESULT:     -13.8      1.384      2.364
REMARK SMILES Cc1ccc([C@@H](C)Nc2ccc(N)cc2C(=O)NCCCCCCNC(=O)c2ccc(-c3c4nc(c(-c5cccc(S(=O)(=O)[O-])c5F)c5ccc([nH]5)c(-c5cccc(S(=O)(=O)[O-])c5F)c5nc(c(-c6cccc(S(=O)(=O)[O-])c6F)c6ccc3[nH]6)C=C5)C=C4)cc2)cc1F
REMARK SMILES IDX 21 1 20 2 19 3 18 4 16 5 17 6 15 8 9 9 10 10 11 11 14 12
REMARK SMILES IDX 12 13 8 14 6 16 7 17 5 18 1 19 2 20 3 21 92 22 4 23 91 24
REMARK SMILES IDX 93 25 13 26 22 29 23 30 24 31 25 32 26 33 27 35 28 36 29 37
REMARK SMILES IDX 90 38 30 39 89 40 31 41 32 42 33 43 83 44 34 45 88 46 82 47
REMARK SMILES IDX 84 48 35 49 87 50 81 51 80 52 36 54 68 55 48 56 67 57 49 58
REMARK SMILES IDX 52 59 66 60 85 61 50 62 51 63 65 65 86 66 53 67 37 68 38 69
REMARK SMILES IDX 46 70 39 71 41 72 47 73 40 74 42 75 43 76 44 77 45 78 69 79
REMARK SMILES IDX 70 80 78 81 71 82 73 83 79 84 72 85 74 86 75 87 76 88 77 89
REMARK SMILES IDX 54 90 55 91 63 92 56 93 58 94 64 95 57 96 59 97 60 98 61 99
REMARK SMILES IDX 62 100
REMARK H PARENT 18 7 8 15 13 27 13 28 25 34 84 53 52 64
REMARK Flexibility Score: inf
ROOT
ATOM      1  C   UNL A   1      31.780  29.743  24.667  1.00  0.00     0.002 C 
ENDROOT
BRANCH   1   2
ATOM      2  C   UNL A   1      33.353  29.052  23.296  1.00  0.00     0.021 C 
BRANCH   2   3
ATOM      3  C   UNL A   1      33.971  27.553  22.685  1.00  0.00     0.116 C 
BRANCH   3   4
ATOM      4  N   UNL A   1      33.251  26.780  21.679  1.00  0.00    -0.352 N 
ATOM      5  C   UNL A   1      31.912  26.507  21.547  1.00  0.00     0.253 C 
ATOM      6  O   UNL A   1      31.497  25.959  20.527  1.00  0.00    -0.269 OA
ATOM      7  H   UNL A   1      33.820  26.388  20.977  1.00  0.00     0.163 HD
BRANCH   5   8
ATOM      8  C   UNL A   1      30.996  26.711  22.690  1.00  0.00     0.065 A 
ATOM      9  C   UNL A   1      30.803  25.801  23.735  1.00  0.00     0.048 A 
ATOM     10  C   UNL A   1      29.523  25.845  24.321  1.00  0.00     0.028 A 
ATOM     11  C   UNL A   1      28.572  26.830  23.998  1.00  0.00     0.027 A 
ATOM     12  C   UNL A   1      30.113  27.797  22.483  1.00  0.00     0.041 A 
ATOM     13  C   UNL A   1      28.904  27.883  23.157  1.00  0.00     0.032 A 
BRANCH   9  14
ATOM     14  N   UNL A   1      31.712  24.884  24.238  1.00  0.00    -0.378 N 
ATOM     15  H   UNL A   1      31.740  24.035  23.740  1.00  0.00     0.161 HD
BRANCH  14  16
ATOM     16  C   UNL A   1      32.646  24.938  25.378  1.00  0.00     0.106 C 
ATOM     17  C   UNL A   1      32.881  26.337  25.933  1.00  0.00     0.036 C 
BRANCH  16  18
ATOM     18  C   UNL A   1      33.819  23.982  25.186  1.00  0.00    -0.023 A 
ATOM     19  C   UNL A   1      37.457  20.391  24.814  1.00  0.00     0.047 C 
ATOM     20  C   UNL A   1      36.377  21.422  24.883  1.00  0.00    -0.015 A 
ATOM     21  C   UNL A   1      35.302  21.459  26.329  1.00  0.00     0.007 A 
ATOM     22  C   UNL A   1      36.192  22.675  23.599  1.00  0.00     0.126 A 
ATOM     23  C   UNL A   1      34.019  22.721  26.470  1.00  0.00     0.006 A 
ATOM     24  C   UNL A   1      34.936  23.971  23.759  1.00  0.00     0.045 A 
ATOM     25  F   UNL A   1      36.943  22.615  22.493  1.00  0.00    -0.207 F 
ENDBRANCH  16  18
ENDBRANCH  14  16
ENDBRANCH   9  14
BRANCH  13  26
ATOM     26  N   UNL A   1      27.992  28.876  22.839  1.00  0.00    -0.399 N 
ATOM     27  H   UNL A   1      28.289  29.682  22.359  1.00  0.00     0.156 HD
ATOM     28  H   UNL A   1      27.046  28.775  23.092  1.00  0.00     0.156 HD
ENDBRANCH  13  26
ENDBRANCH   5   8
ENDBRANCH   3   4
ENDBRANCH   2   3
ENDBRANCH   1   2
BRANCH   1  29
ATOM     29  C   UNL A   1      31.582  30.108  26.330  1.00  0.00     0.002 C 
BRANCH  29  30
ATOM     30  C   UNL A   1      32.583  29.747  27.448  1.00  0.00     0.021 C 
BRANCH  30  31
ATOM     31  C   UNL A   1      34.044  30.134  27.268  1.00  0.00     0.116 C 
BRANCH  31  32
ATOM     32  N   UNL A   1      34.407  31.430  27.822  1.00  0.00    -0.352 N 
ATOM     33  C   UNL A   1      35.165  31.593  28.968  1.00  0.00     0.251 C 
ATOM     34  H   UNL A   1      34.094  32.238  27.355  1.00  0.00     0.163 HD
ATOM     35  O   UNL A   1      34.929  32.440  29.819  1.00  0.00    -0.269 OA
BRANCH  33  36
ATOM     36  C   UNL A   1      36.345  30.721  29.081  1.00  0.00     0.039 A 
ATOM     37  C   UNL A   1      36.598  29.935  30.212  1.00  0.00     0.014 A 
ATOM     38  C   UNL A   1      37.261  30.807  28.034  1.00  0.00     0.014 A 
ATOM     39  C   UNL A   1      37.811  29.262  30.299  1.00  0.00     0.010 A 
ATOM     40  C   UNL A   1      38.368  30.027  28.039  1.00  0.00     0.010 A 
ATOM     41  C   UNL A   1      38.686  29.361  29.218  1.00  0.00    -0.014 A 
BRANCH  41  42
ATOM     42  C   UNL A   1      40.038  28.854  29.192  1.00  0.00     0.031 A 
ATOM     43  C   UNL A   1      40.185  27.422  28.929  1.00  0.00     0.074 A 
ATOM     44  C   UNL A   1      40.977  29.831  29.209  1.00  0.00     0.049 A 
ATOM     45  N   UNL A   1      41.087  26.663  29.434  1.00  0.00    -0.248 NA
ATOM     46  C   UNL A   1      39.196  26.663  28.146  1.00  0.00     0.031 C 
ATOM     47  C   UNL A   1      42.378  29.853  28.837  1.00  0.00     0.029 A 
ATOM     48  N   UNL A   1      40.773  31.109  29.748  1.00  0.00    -0.354 N 
ATOM     49  C   UNL A   1      41.101  25.546  28.624  1.00  0.00     0.074 A 
ATOM     50  C   UNL A   1      39.774  25.458  28.073  1.00  0.00     0.031 C 
ATOM     51  C   UNL A   1      42.969  30.909  29.439  1.00  0.00     0.029 A 
ATOM     52  C   UNL A   1      41.982  31.542  30.306  1.00  0.00     0.049 A 
ATOM     53  H   UNL A   1      39.927  31.614  29.735  1.00  0.00     0.167 HD
ATOM     54  C   UNL A   1      42.308  25.038  28.239  1.00  0.00     0.034 A 
ATOM     55  C   UNL A   1      42.037  31.625  31.672  1.00  0.00     0.034 A 
ATOM     56  C   UNL A   1      43.375  25.889  28.763  1.00  0.00     0.049 A 
ATOM     57  C   UNL A   1      42.821  30.463  32.250  1.00  0.00     0.074 A 
ATOM     58  C   UNL A   1      44.166  26.869  28.189  1.00  0.00     0.029 A 
ATOM     59  N   UNL A   1      43.480  26.064  30.127  1.00  0.00    -0.354 N 
ATOM     60  N   UNL A   1      43.103  29.373  31.586  1.00  0.00    -0.248 NA
ATOM     61  C   UNL A   1      43.314  30.419  33.621  1.00  0.00     0.031 C 
ATOM     62  C   UNL A   1      44.750  27.634  29.240  1.00  0.00     0.029 A 
ATOM     63  C   UNL A   1      44.295  27.127  30.441  1.00  0.00     0.049 A 
ATOM     64  H   UNL A   1      43.029  25.497  30.794  1.00  0.00     0.167 HD
ATOM     65  C   UNL A   1      43.894  28.559  32.347  1.00  0.00     0.074 A 
ATOM     66  C   UNL A   1      43.900  29.208  33.649  1.00  0.00     0.031 C 
ATOM     67  C   UNL A   1      44.498  27.440  31.843  1.00  0.00     0.034 A 
BRANCH  54  68
ATOM     68  C   UNL A   1      42.552  23.999  27.167  1.00  0.00     0.023 A 
ATOM     69  C   UNL A   1      43.230  24.257  25.958  1.00  0.00     0.012 A 
ATOM     70  C   UNL A   1      42.064  22.681  27.333  1.00  0.00     0.148 A 
ATOM     71  C   UNL A   1      43.467  23.255  25.002  1.00  0.00     0.002 A 
ATOM     72  C   UNL A   1      42.296  21.690  26.383  1.00  0.00     0.091 A 
ATOM     73  F   UNL A   1      41.344  22.357  28.414  1.00  0.00    -0.205 F 
ATOM     74  C   UNL A   1      43.003  21.964  25.216  1.00  0.00     0.022 A 
BRANCH  72  75
ATOM     75  S   UNL A   1      41.659  20.042  26.697  1.00  0.00     0.127 S 
ATOM     76  O   UNL A   1      42.601  19.516  27.680  1.00  0.00    -0.237 OA
ATOM     77  O   UNL A   1      40.296  20.295  27.153  1.00  0.00    -0.237 OA
ATOM     78  O   UNL A   1      41.740  19.399  25.384  1.00  0.00    -0.744 OA
ENDBRANCH  72  75
ENDBRANCH  54  68
BRANCH  55  79
ATOM     79  C   UNL A   1      40.748  32.180  32.228  1.00  0.00     0.023 A 
ATOM     80  C   UNL A   1      40.632  33.558  32.483  1.00  0.00     0.012 A 
ATOM     81  C   UNL A   1      39.937  31.288  32.973  1.00  0.00     0.148 A 
ATOM     82  C   UNL A   1      39.856  34.010  33.560  1.00  0.00     0.002 A 
ATOM     83  C   UNL A   1      39.236  31.739  34.091  1.00  0.00     0.091 A 
ATOM     84  F   UNL A   1      39.981  29.979  32.675  1.00  0.00    -0.205 F 
ATOM     85  C   UNL A   1      39.212  33.101  34.404  1.00  0.00     0.022 A 
BRANCH  83  86
ATOM     86  S   UNL A   1      38.604  30.537  35.275  1.00  0.00     0.127 S 
ATOM     87  O   UNL A   1      37.819  31.366  36.183  1.00  0.00    -0.237 OA
ATOM     88  O   UNL A   1      37.859  29.599  34.438  1.00  0.00    -0.237 OA
ATOM     89  O   UNL A   1      39.810  29.956  35.864  1.00  0.00    -0.744 OA
ENDBRANCH  83  86
ENDBRANCH  55  79
BRANCH  67  90
ATOM     90  C   UNL A   1      45.307  26.477  32.665  1.00  0.00     0.023 A 
ATOM     91  C   UNL A   1      46.721  26.461  32.557  1.00  0.00     0.012 A 
ATOM     92  C   UNL A   1      44.737  25.575  33.559  1.00  0.00     0.148 A 
ATOM     93  C   UNL A   1      47.509  25.500  33.188  1.00  0.00     0.002 A 
ATOM     94  C   UNL A   1      45.505  24.552  34.100  1.00  0.00     0.091 A 
ATOM     95  F   UNL A   1      43.453  25.714  33.919  1.00  0.00    -0.205 F 
ATOM     96  C   UNL A   1      46.890  24.505  33.922  1.00  0.00     0.022 A 
BRANCH  94  97
ATOM     97  S   UNL A   1      44.641  23.185  34.858  1.00  0.00     0.127 S 
ATOM     98  O   UNL A   1      43.540  22.921  33.938  1.00  0.00    -0.237 OA
ATOM     99  O   UNL A   1      45.686  22.165  34.929  1.00  0.00    -0.237 OA
ATOM    100  O   UNL A   1      44.234  23.721  36.156  1.00  0.00    -0.744 OA
ENDBRANCH  94  97
ENDBRANCH  67  90
ENDBRANCH  41  42
ENDBRANCH  33  36
ENDBRANCH  31  32
ENDBRANCH  30  31
ENDBRANCH  29  30
ENDBRANCH   1  29
TORSDOF 20
ENDMDL
MODEL 3
REMARK VINA RESULT:     -13.7      4.004      9.352
REMARK SMILES Cc1ccc([C@@H](C)Nc2ccc(N)cc2C(=O)NCCCCCCNC(=O)c2ccc(-c3c4nc(c(-c5cccc(S(=O)(=O)[O-])c5F)c5ccc([nH]5)c(-c5cccc(S(=O)(=O)[O-])c5F)c5nc(c(-c6cccc(S(=O)(=O)[O-])c6F)c6ccc3[nH]6)C=C5)C=C4)cc2)cc1F
REMARK SMILES IDX 21 1 20 2 19 3 18 4 16 5 17 6 15 8 9 9 10 10 11 11 14 12
REMARK SMILES IDX 12 13 8 14 6 16 7 17 5 18 1 19 2 20 3 21 92 22 4 23 91 24
REMARK SMILES IDX 93 25 13 26 22 29 23 30 24 31 25 32 26 33 27 35 28 36 29 37
REMARK SMILES IDX 90 38 30 39 89 40 31 41 32 42 33 43 83 44 34 45 88 46 82 47
REMARK SMILES IDX 84 48 35 49 87 50 81 51 80 52 36 54 68 55 48 56 67 57 49 58
REMARK SMILES IDX 52 59 66 60 85 61 50 62 51 63 65 65 86 66 53 67 37 68 38 69
REMARK SMILES IDX 46 70 39 71 41 72 47 73 40 74 42 75 43 76 44 77 45 78 69 79
REMARK SMILES IDX 70 80 78 81 71 82 73 83 79 84 72 85 74 86 75 87 76 88 77 89
REMARK SMILES IDX 54 90 55 91 63 92 56 93 58 94 64 95 57 96 59 97 60 98 61 99
REMARK SMILES IDX 62 100
REMARK H PARENT 18 7 8 15 13 27 13 28 25 34 84 53 52 64
REMARK Flexibility Score: inf
ROOT
ATOM      1  C   UNL A   1      35.690  22.811  26.171  1.00  0.00     0.002 C 
ENDROOT
BRANCH   1   2
ATOM      2  C   UNL A   1      34.561  24.648  25.743  1.00  0.00     0.021 C 
BRANCH   2   3
ATOM      3  C   UNL A   1      34.061  25.569  24.363  1.00  0.00     0.116 C 
BRANCH   3   4
ATOM      4  N   UNL A   1      33.999  24.980  23.030  1.00  0.00    -0.352 N 
ATOM      5  C   UNL A   1      33.112  24.083  22.487  1.00  0.00     0.253 C 
ATOM      6  O   UNL A   1      33.154  23.836  21.283  1.00  0.00    -0.269 OA
ATOM      7  H   UNL A   1      34.711  25.274  22.418  1.00  0.00     0.163 HD
BRANCH   5   8
ATOM      8  C   UNL A   1      32.226  23.290  23.365  1.00  0.00     0.065 A 
ATOM      9  C   UNL A   1      31.104  23.791  24.034  1.00  0.00     0.048 A 
ATOM     10  C   UNL A   1      30.800  23.134  25.242  1.00  0.00     0.028 A 
ATOM     11  C   UNL A   1      31.466  21.967  25.661  1.00  0.00     0.027 A 
ATOM     12  C   UNL A   1      32.783  22.032  23.695  1.00  0.00     0.041 A 
ATOM     13  C   UNL A   1      32.387  21.343  24.832  1.00  0.00     0.032 A 
BRANCH   9  14
ATOM     14  N   UNL A   1      30.283  24.839  23.646  1.00  0.00    -0.378 N 
ATOM     15  H   UNL A   1      30.034  24.819  22.693  1.00  0.00     0.161 HD
BRANCH  14  16
ATOM     16  C   UNL A   1      29.712  25.977  24.389  1.00  0.00     0.106 C 
ATOM     17  C   UNL A   1      28.415  26.523  23.804  1.00  0.00     0.036 C 
BRANCH  16  18
ATOM     18  C   UNL A   1      30.798  26.933  24.870  1.00  0.00    -0.023 A 
ATOM     19  C   UNL A   1      34.576  29.760  26.871  1.00  0.00     0.047 C 
ATOM     20  C   UNL A   1      33.506  28.915  26.260  1.00  0.00    -0.015 A 
ATOM     21  C   UNL A   1      32.545  27.824  27.326  1.00  0.00     0.007 A 
ATOM     22  C   UNL A   1      33.102  29.035  24.506  1.00  0.00     0.126 A 
ATOM     23  C   UNL A   1      31.211  26.826  26.630  1.00  0.00     0.006 A 
ATOM     24  C   UNL A   1      31.735  28.069  23.813  1.00  0.00     0.045 A 
ATOM     25  F   UNL A   1      33.852  29.793  23.698  1.00  0.00    -0.207 F 
ENDBRANCH  16  18
ENDBRANCH  14  16
ENDBRANCH   9  14
BRANCH  13  26
ATOM     26  N   UNL A   1      33.042  20.183  25.213  1.00  0.00    -0.399 N 
ATOM     27  H   UNL A   1      33.749  20.219  25.896  1.00  0.00     0.156 HD
ATOM     28  H   UNL A   1      32.798  19.322  24.801  1.00  0.00     0.156 HD
ENDBRANCH  13  26
ENDBRANCH   5   8
ENDBRANCH   3   4
ENDBRANCH   2   3
ENDBRANCH   1   2
BRANCH   1  29
ATOM     29  C   UNL A   1      36.671  21.673  25.346  1.00  0.00     0.002 C 
BRANCH  29  30
ATOM     30  C   UNL A   1      38.126  21.315  25.715  1.00  0.00     0.021 C 
BRANCH  30  31
ATOM     31  C   UNL A   1      39.159  22.431  25.758  1.00  0.00     0.116 C 
BRANCH  31  32
ATOM     32  N   UNL A   1      40.514  21.999  26.069  1.00  0.00    -0.352 N 
ATOM     33  C   UNL A   1      41.617  22.834  26.030  1.00  0.00     0.251 C 
ATOM     34  H   UNL A   1      40.655  21.058  26.322  1.00  0.00     0.163 HD
ATOM     35  O   UNL A   1      42.706  22.494  25.587  1.00  0.00    -0.269 OA
BRANCH  33  36
ATOM     36  C   UNL A   1      41.432  24.164  26.632  1.00  0.00     0.039 A 
ATOM     37  C   UNL A   1      41.767  25.348  25.964  1.00  0.00     0.014 A 
ATOM     38  C   UNL A   1      40.999  24.172  27.958  1.00  0.00     0.014 A 
ATOM     39  C   UNL A   1      41.704  26.549  26.663  1.00  0.00     0.010 A 
ATOM     40  C   UNL A   1      40.780  25.350  28.589  1.00  0.00     0.010 A 
ATOM     41  C   UNL A   1      41.247  26.509  27.979  1.00  0.00    -0.014 A 
BRANCH  41  42
ATOM     42  C   UNL A   1      41.252  27.625  28.896  1.00  0.00     0.031 A 
ATOM     43  C   UNL A   1      40.179  28.606  28.725  1.00  0.00     0.074 A 
ATOM     44  C   UNL A   1      42.135  27.478  29.914  1.00  0.00     0.049 A 
ATOM     45  N   UNL A   1      40.289  29.868  28.924  1.00  0.00    -0.248 NA
ATOM     46  C   UNL A   1      38.871  28.245  28.153  1.00  0.00     0.031 C 
ATOM     47  C   UNL A   1      42.243  28.102  31.218  1.00  0.00     0.029 A 
ATOM     48  N   UNL A   1      43.292  26.690  29.844  1.00  0.00    -0.354 N 
ATOM     49  C   UNL A   1      38.990  30.319  29.043  1.00  0.00     0.074 A 
ATOM     50  C   UNL A   1      38.193  29.392  28.283  1.00  0.00     0.031 C 
ATOM     51  C   UNL A   1      43.508  27.949  31.667  1.00  0.00     0.029 A 
ATOM     52  C   UNL A   1      44.285  27.310  30.611  1.00  0.00     0.049 A 
ATOM     53  H   UNL A   1      43.388  25.848  29.342  1.00  0.00     0.167 HD
ATOM     54  C   UNL A   1      38.698  31.201  30.043  1.00  0.00     0.034 A 
ATOM     55  C   UNL A   1      45.338  27.863  29.931  1.00  0.00     0.034 A 
ATOM     56  C   UNL A   1      39.899  31.431  30.844  1.00  0.00     0.049 A 
ATOM     57  C   UNL A   1      45.210  29.373  29.876  1.00  0.00     0.074 A 
ATOM     58  C   UNL A   1      40.320  30.947  32.071  1.00  0.00     0.029 A 
ATOM     59  N   UNL A   1      41.022  31.946  30.231  1.00  0.00    -0.354 N 
ATOM     60  N   UNL A   1      44.104  30.019  30.133  1.00  0.00    -0.248 NA
ATOM     61  C   UNL A   1      46.298  30.266  29.497  1.00  0.00     0.031 C 
ATOM     62  C   UNL A   1      41.720  31.187  32.181  1.00  0.00     0.029 A 
ATOM     63  C   UNL A   1      42.143  31.794  31.015  1.00  0.00     0.049 A 
ATOM     64  H   UNL A   1      41.021  32.371  29.343  1.00  0.00     0.167 HD
ATOM     65  C   UNL A   1      44.333  31.365  30.088  1.00  0.00     0.074 A 
ATOM     66  C   UNL A   1      45.692  31.464  29.574  1.00  0.00     0.031 C 
ATOM     67  C   UNL A   1      43.407  32.284  30.499  1.00  0.00     0.034 A 
BRANCH  54  68
ATOM     68  C   UNL A   1      37.320  31.617  30.508  1.00  0.00     0.023 A 
ATOM     69  C   UNL A   1      36.747  31.218  31.734  1.00  0.00     0.012 A 
ATOM     70  C   UNL A   1      36.511  32.434  29.684  1.00  0.00     0.148 A 
ATOM     71  C   UNL A   1      35.477  31.655  32.145  1.00  0.00     0.002 A 
ATOM     72  C   UNL A   1      35.250  32.863  30.091  1.00  0.00     0.091 A 
ATOM     73  F   UNL A   1      36.937  32.804  28.470  1.00  0.00    -0.205 F 
ATOM     74  C   UNL A   1      34.726  32.485  31.324  1.00  0.00     0.022 A 
BRANCH  72  75
ATOM     75  S   UNL A   1      34.310  33.919  28.986  1.00  0.00     0.127 S 
ATOM     76  O   UNL A   1      33.223  34.389  29.840  1.00  0.00    -0.237 OA
ATOM     77  O   UNL A   1      35.293  34.909  28.558  1.00  0.00    -0.237 OA
ATOM     78  O   UNL A   1      33.887  32.999  27.928  1.00  0.00    -0.744 OA
ENDBRANCH  72  75
ENDBRANCH  54  68
BRANCH  55  79
ATOM     79  C   UNL A   1      45.762  26.973  28.787  1.00  0.00     0.023 A 
ATOM     80  C   UNL A   1      46.765  26.008  28.986  1.00  0.00     0.012 A 
ATOM     81  C   UNL A   1      45.567  27.480  27.478  1.00  0.00     0.148 A 
ATOM     82  C   UNL A   1      47.649  25.689  27.945  1.00  0.00     0.002 A 
ATOM     83  C   UNL A   1      46.500  27.219  26.475  1.00  0.00     0.091 A 
ATOM     84  F   UNL A   1      44.555  28.337  27.265  1.00  0.00    -0.205 F 
ATOM     85  C   UNL A   1      47.561  26.339  26.712  1.00  0.00     0.022 A 
BRANCH  83  86
ATOM     86  S   UNL A   1      46.489  28.228  24.982  1.00  0.00     0.127 S 
ATOM     87  O   UNL A   1      45.244  27.828  24.336  1.00  0.00    -0.237 OA
ATOM     88  O   UNL A   1      46.548  29.594  25.498  1.00  0.00    -0.237 OA
ATOM     89  O   UNL A   1      47.704  27.822  24.275  1.00  0.00    -0.744 OA
ENDBRANCH  83  86
ENDBRANCH  55  79
BRANCH  67  90
ATOM     90  C   UNL A   1      43.589  33.771  30.391  1.00  0.00     0.023 A 
ATOM     91  C   UNL A   1      43.936  34.532  31.536  1.00  0.00     0.012 A 
ATOM     92  C   UNL A   1      43.441  34.469  29.196  1.00  0.00     0.148 A 
ATOM     93  C   UNL A   1      43.982  35.924  31.524  1.00  0.00     0.002 A 
ATOM     94  C   UNL A   1      43.378  35.857  29.205  1.00  0.00     0.091 A 
ATOM     95  F   UNL A   1      43.389  33.802  28.035  1.00  0.00    -0.205 F 
ATOM     96  C   UNL A   1      43.647  36.594  30.361  1.00  0.00     0.022 A 
BRANCH  94  97
ATOM     97  S   UNL A   1      42.740  36.663  27.743  1.00  0.00     0.127 S 
ATOM     98  O   UNL A   1      41.465  35.994  27.510  1.00  0.00    -0.237 OA
ATOM     99  O   UNL A   1      42.672  38.059  28.170  1.00  0.00    -0.237 OA
ATOM    100  O   UNL A   1      43.764  36.391  26.735  1.00  0.00    -0.744 OA
ENDBRANCH  94  97
ENDBRANCH  67  90
ENDBRANCH  41  42
ENDBRANCH  33  36
ENDBRANCH  31  32
ENDBRANCH  30  31
ENDBRANCH  29  30
ENDBRANCH   1  29
TORSDOF 20
ENDMDL
