MODEL 1
REMARK VINA RESULT:     -10.5      0.000      0.000
REMARK SMILES CC[C@H]1CCC[C@@H]([NH2+][C@@](C)(CC)C(=O)NCCCCCCNC(=O)c2ccc(-c3c4nc(c(-c5cccc(S(=O)(=O)[O-])c5F)c5ccc([nH]5)c(-c5cccc(S(=O)(=O)[O-])c5F)c5nc(c(-c6cccc(S(=O)(=O)[O-])c6F)c6ccc3[nH]6)C=C5)C=C4)cc2)C1
REMARK SMILES IDX 18 1 17 2 16 3 15 4 13 5 14 6 9 8 10 9 8 10 7 13 3 14 4 15
REMARK SMILES IDX 88 16 5 17 6 18 2 19 1 20 11 21 12 22 19 23 20 24 21 25
REMARK SMILES IDX 22 26 23 27 24 29 25 30 26 31 87 32 27 33 86 34 28 35 29 36
REMARK SMILES IDX 30 37 80 38 31 39 85 40 79 41 81 42 32 43 84 44 78 45 77 46
REMARK SMILES IDX 33 48 65 49 45 50 64 51 46 52 49 53 63 54 82 55 47 56 48 57
REMARK SMILES IDX 62 59 83 60 50 61 34 62 35 63 43 64 36 65 38 66 44 67 37 68
REMARK SMILES IDX 39 69 40 70 41 71 42 72 66 73 67 74 75 75 68 76 70 77 76 78
REMARK SMILES IDX 69 79 71 80 72 81 73 82 74 83 51 84 52 85 60 86 53 87 55 88
REMARK SMILES IDX 61 89 54 90 56 91 57 92 58 93 59 94
REMARK H PARENT 15 7 8 11 8 12 22 28 81 47 49 58
REMARK Flexibility Score: inf
ROOT
ATOM      1  C   UNL A   1      32.685  28.223  26.215  1.00  0.00     0.002 C 
ENDROOT
BRANCH   1   2
ATOM      2  C   UNL A   1      33.861  28.050  25.258  1.00  0.00     0.021 C 
BRANCH   2   3
ATOM      3  C   UNL A   1      33.963  26.645  24.666  1.00  0.00     0.116 C 
BRANCH   3   4
ATOM      4  N   UNL A   1      33.141  26.480  23.476  1.00  0.00    -0.351 N 
ATOM      5  C   UNL A   1      32.159  25.581  23.142  1.00  0.00     0.281 C 
ATOM      6  O   UNL A   1      31.699  25.681  21.999  1.00  0.00    -0.268 OA
ATOM      7  H   UNL A   1      33.326  27.144  22.771  1.00  0.00     0.163 HD
BRANCH   5   8
ATOM      8  C   UNL A   1      31.676  24.493  24.165  1.00  0.00     0.172 C 
ATOM      9  C   UNL A   1      30.766  23.515  23.371  1.00  0.00     0.090 C 
BRANCH   8  10
ATOM     10  N   UNL A   1      32.799  23.580  24.560  1.00  0.00    -0.331 N 
ATOM     11  H   UNL A   1      33.579  24.181  24.831  1.00  0.00     0.347 HD
ATOM     12  H   UNL A   1      32.369  22.995  25.276  1.00  0.00     0.347 HD
BRANCH  10  13
ATOM     13  C   UNL A   1      33.338  22.600  23.629  1.00  0.00     0.183 C 
ATOM     14  C   UNL A   1      35.942  22.828  23.988  1.00  0.00    -0.006 C 
ATOM     15  C   UNL A   1      35.951  21.419  24.592  1.00  0.00     0.004 C 
ATOM     16  C   UNL A   1      34.727  22.960  23.053  1.00  0.00     0.068 C 
ATOM     17  C   UNL A   1      34.630  21.080  25.282  1.00  0.00     0.006 C 
ATOM     18  C   UNL A   1      33.436  21.228  24.338  1.00  0.00     0.065 C 
BRANCH  14  19
ATOM     19  C   UNL A   1      36.138  23.885  25.098  1.00  0.00     0.000 C 
ATOM     20  C   UNL A   1      37.294  23.658  26.055  1.00  0.00     0.004 C 
ENDBRANCH  14  19
ENDBRANCH  10  13
ENDBRANCH   8  10
BRANCH   8  21
ATOM     21  C   UNL A   1      30.928  25.180  25.344  1.00  0.00     0.075 C 
ATOM     22  C   UNL A   1      29.642  25.944  24.999  1.00  0.00     0.011 C 
ENDBRANCH   8  21
ENDBRANCH   5   8
ENDBRANCH   3   4
ENDBRANCH   2   3
ENDBRANCH   1   2
BRANCH   1  23
ATOM     23  C   UNL A   1      31.487  28.946  25.595  1.00  0.00     0.002 C 
BRANCH  23  24
ATOM     24  C   UNL A   1      31.567  30.474  25.659  1.00  0.00     0.021 C 
BRANCH  24  25
ATOM     25  C   UNL A   1      32.204  31.008  26.938  1.00  0.00     0.116 C 
BRANCH  25  26
ATOM     26  N   UNL A   1      32.380  32.450  26.876  1.00  0.00    -0.352 N 
ATOM     27  C   UNL A   1      33.318  33.226  27.509  1.00  0.00     0.251 C 
ATOM     28  H   UNL A   1      31.740  32.934  26.305  1.00  0.00     0.163 HD
ATOM     29  O   UNL A   1      33.175  34.440  27.575  1.00  0.00    -0.269 OA
BRANCH  27  30
ATOM     30  C   UNL A   1      34.498  32.573  28.109  1.00  0.00     0.039 A 
ATOM     31  C   UNL A   1      35.715  33.255  28.133  1.00  0.00     0.014 A 
ATOM     32  C   UNL A   1      34.390  31.290  28.655  1.00  0.00     0.014 A 
ATOM     33  C   UNL A   1      36.820  32.663  28.744  1.00  0.00     0.010 A 
ATOM     34  C   UNL A   1      35.471  30.736  29.330  1.00  0.00     0.010 A 
ATOM     35  C   UNL A   1      36.700  31.410  29.368  1.00  0.00    -0.014 A 
BRANCH  35  36
ATOM     36  C   UNL A   1      37.851  30.785  30.066  1.00  0.00     0.031 A 
ATOM     37  C   UNL A   1      38.187  31.186  31.476  1.00  0.00     0.074 A 
ATOM     38  C   UNL A   1      38.641  29.920  29.400  1.00  0.00     0.049 A 
ATOM     39  N   UNL A   1      39.182  30.795  32.229  1.00  0.00    -0.248 NA
ATOM     40  C   UNL A   1      37.305  32.178  32.117  1.00  0.00     0.031 C 
ATOM     41  C   UNL A   1      38.463  29.513  28.004  1.00  0.00     0.029 A 
ATOM     42  N   UNL A   1      39.768  29.248  29.800  1.00  0.00    -0.354 N 
ATOM     43  C   UNL A   1      39.068  31.514  33.412  1.00  0.00     0.074 A 
ATOM     44  C   UNL A   1      37.929  32.393  33.265  1.00  0.00     0.031 C 
ATOM     45  C   UNL A   1      39.442  28.659  27.666  1.00  0.00     0.029 A 
ATOM     46  C   UNL A   1      40.336  28.485  28.806  1.00  0.00     0.049 A 
ATOM     47  H   UNL A   1      40.136  29.307  30.711  1.00  0.00     0.167 HD
ATOM     48  C   UNL A   1      39.825  31.431  34.531  1.00  0.00     0.034 A 
ATOM     49  C   UNL A   1      41.458  27.739  28.810  1.00  0.00     0.034 A 
ATOM     50  C   UNL A   1      40.934  30.529  34.685  1.00  0.00     0.049 A 
ATOM     51  C   UNL A   1      42.264  27.640  30.075  1.00  0.00     0.074 A 
ATOM     52  C   UNL A   1      41.712  30.304  35.807  1.00  0.00     0.029 A 
ATOM     53  N   UNL A   1      41.432  29.710  33.682  1.00  0.00    -0.354 N 
ATOM     54  N   UNL A   1      42.050  28.209  31.238  1.00  0.00    -0.248 NA
ATOM     55  C   UNL A   1      43.447  26.767  30.045  1.00  0.00     0.031 C 
ATOM     56  C   UNL A   1      42.701  29.374  35.473  1.00  0.00     0.029 A 
ATOM     57  C   UNL A   1      42.515  28.989  34.155  1.00  0.00     0.049 A 
ATOM     58  H   UNL A   1      41.069  29.651  32.769  1.00  0.00     0.167 HD
ATOM     59  C   UNL A   1      43.045  27.736  32.084  1.00  0.00     0.074 A 
ATOM     60  C   UNL A   1      43.851  26.817  31.306  1.00  0.00     0.031 C 
ATOM     61  C   UNL A   1      43.278  28.042  33.384  1.00  0.00     0.034 A 
BRANCH  48  62
ATOM     62  C   UNL A   1      39.453  32.311  35.698  1.00  0.00     0.023 A 
ATOM     63  C   UNL A   1      38.665  31.786  36.744  1.00  0.00     0.012 A 
ATOM     64  C   UNL A   1      39.929  33.632  35.788  1.00  0.00     0.148 A 
ATOM     65  C   UNL A   1      38.325  32.576  37.842  1.00  0.00     0.002 A 
ATOM     66  C   UNL A   1      39.626  34.397  36.908  1.00  0.00     0.091 A 
ATOM     67  F   UNL A   1      40.659  34.120  34.775  1.00  0.00    -0.205 F 
ATOM     68  C   UNL A   1      38.815  33.876  37.929  1.00  0.00     0.022 A 
BRANCH  66  69
ATOM     69  S   UNL A   1      40.276  36.054  37.155  1.00  0.00     0.127 S 
ATOM     70  O   UNL A   1      39.806  36.737  35.951  1.00  0.00    -0.237 OA
ATOM     71  O   UNL A   1      39.606  36.465  38.389  1.00  0.00    -0.237 OA
ATOM     72  O   UNL A   1      41.720  35.908  37.267  1.00  0.00    -0.744 OA
ENDBRANCH  66  69
ENDBRANCH  48  62
BRANCH  49  73
ATOM     73  C   UNL A   1      41.854  26.984  27.586  1.00  0.00     0.023 A 
ATOM     74  C   UNL A   1      42.431  27.673  26.502  1.00  0.00     0.012 A 
ATOM     75  C   UNL A   1      41.686  25.589  27.503  1.00  0.00     0.148 A 
ATOM     76  C   UNL A   1      42.798  26.991  25.341  1.00  0.00     0.002 A 
ATOM     77  C   UNL A   1      42.107  24.908  26.368  1.00  0.00     0.091 A 
ATOM     78  F   UNL A   1      41.129  24.953  28.543  1.00  0.00    -0.205 F 
ATOM     79  C   UNL A   1      42.646  25.609  25.278  1.00  0.00     0.022 A 
BRANCH  77  80
ATOM     80  S   UNL A   1      42.072  23.116  26.252  1.00  0.00     0.127 S 
ATOM     81  O   UNL A   1      42.665  22.890  24.936  1.00  0.00    -0.237 OA
ATOM     82  O   UNL A   1      42.915  22.724  27.383  1.00  0.00    -0.237 OA
ATOM     83  O   UNL A   1      40.672  22.739  26.389  1.00  0.00    -0.744 OA
ENDBRANCH  77  80
ENDBRANCH  49  73
BRANCH  61  84
ATOM     84  C   UNL A   1      44.425  27.347  34.072  1.00  0.00     0.023 A 
ATOM     85  C   UNL A   1      45.674  27.988  34.183  1.00  0.00     0.012 A 
ATOM     86  C   UNL A   1      44.237  26.088  34.677  1.00  0.00     0.148 A 
ATOM     87  C   UNL A   1      46.728  27.372  34.856  1.00  0.00     0.002 A 
ATOM     88  C   UNL A   1      45.275  25.505  35.391  1.00  0.00     0.091 A 
ATOM     89  F   UNL A   1      43.045  25.487  34.545  1.00  0.00    -0.205 F 
ATOM     90  C   UNL A   1      46.525  26.138  35.470  1.00  0.00     0.022 A 
BRANCH  88  91
ATOM     91  S   UNL A   1      45.076  23.968  36.298  1.00  0.00     0.127 S 
ATOM     92  O   UNL A   1      46.446  23.458  36.323  1.00  0.00    -0.237 OA
ATOM     93  O   UNL A   1      44.575  24.435  37.591  1.00  0.00    -0.237 OA
ATOM     94  O   UNL A   1      44.128  23.168  35.535  1.00  0.00    -0.744 OA
ENDBRANCH  88  91
ENDBRANCH  61  84
ENDBRANCH  35  36
ENDBRANCH  27  30
ENDBRANCH  25  26
ENDBRANCH  24  25
ENDBRANCH  23  24
ENDBRANCH   1  23
TORSDOF 20
ENDMDL
MODEL 2
REMARK VINA RESULT:     -10.5      2.217      3.104
REMARK SMILES CC[C@H]1CCC[C@@H]([NH2+][C@@](C)(CC)C(=O)NCCCCCCNC(=O)c2ccc(-c3c4nc(c(-c5cccc(S(=O)(=O)[O-])c5F)c5ccc([nH]5)c(-c5cccc(S(=O)(=O)[O-])c5F)c5nc(c(-c6cccc(S(=O)(=O)[O-])c6F)c6ccc3[nH]6)C=C5)C=C4)cc2)C1
REMARK SMILES IDX 18 1 17 2 16 3 15 4 13 5 14 6 9 8 10 9 8 10 7 13 3 14 4 15
REMARK SMILES IDX 88 16 5 17 6 18 2 19 1 20 11 21 12 22 19 23 20 24 21 25
REMARK SMILES IDX 22 26 23 27 24 29 25 30 26 31 87 32 27 33 86 34 28 35 29 36
REMARK SMILES IDX 30 37 80 38 31 39 85 40 79 41 81 42 32 43 84 44 78 45 77 46
REMARK SMILES IDX 33 48 65 49 45 50 64 51 46 52 49 53 63 54 82 55 47 56 48 57
REMARK SMILES IDX 62 59 83 60 50 61 34 62 35 63 43 64 36 65 38 66 44 67 37 68
REMARK SMILES IDX 39 69 40 70 41 71 42 72 66 73 67 74 75 75 68 76 70 77 76 78
REMARK SMILES IDX 69 79 71 80 72 81 73 82 74 83 51 84 52 85 60 86 53 87 55 88
REMARK SMILES IDX 61 89 54 90 56 91 57 92 58 93 59 94
REMARK H PARENT 15 7 8 11 8 12 22 28 81 47 49 58
REMARK Flexibility Score: inf
ROOT
ATOM      1  C   UNL A   1      30.820  29.134  24.482  1.00  0.00     0.002 C 
ENDROOT
BRANCH   1   2
ATOM      2  C   UNL A   1      31.030  28.867  22.994  1.00  0.00     0.021 C 
BRANCH   2   3
ATOM      3  C   UNL A   1      30.666  27.444  22.574  1.00  0.00     0.116 C 
BRANCH   3   4
ATOM      4  N   UNL A   1      31.732  26.793  21.823  1.00  0.00    -0.351 N 
ATOM      5  C   UNL A   1      32.556  25.734  22.109  1.00  0.00     0.281 C 
ATOM      6  O   UNL A   1      33.418  25.474  21.263  1.00  0.00    -0.268 OA
ATOM      7  H   UNL A   1      31.893  27.193  20.938  1.00  0.00     0.163 HD
BRANCH   5   8
ATOM      8  C   UNL A   1      32.400  24.924  23.445  1.00  0.00     0.172 C 
ATOM      9  C   UNL A   1      31.083  24.108  23.313  1.00  0.00     0.090 C 
BRANCH   8  10
ATOM     10  N   UNL A   1      33.412  23.819  23.533  1.00  0.00    -0.331 N 
ATOM     11  H   UNL A   1      33.110  23.211  24.295  1.00  0.00     0.347 HD
ATOM     12  H   UNL A   1      33.413  23.444  22.585  1.00  0.00     0.347 HD
BRANCH  10  13
ATOM     13  C   UNL A   1      34.820  24.103  23.765  1.00  0.00     0.183 C 
ATOM     14  C   UNL A   1      35.140  23.429  26.295  1.00  0.00    -0.006 C 
ATOM     15  C   UNL A   1      36.034  22.269  25.841  1.00  0.00     0.004 C 
ATOM     16  C   UNL A   1      35.159  24.523  25.214  1.00  0.00     0.068 C 
ATOM     17  C   UNL A   1      35.640  21.746  24.460  1.00  0.00     0.006 C 
ATOM     18  C   UNL A   1      35.655  22.852  23.403  1.00  0.00     0.065 C 
BRANCH  14  19
ATOM     19  C   UNL A   1      33.774  22.892  26.780  1.00  0.00     0.000 C 
ATOM     20  C   UNL A   1      33.775  21.522  27.432  1.00  0.00     0.004 C 
ENDBRANCH  14  19
ENDBRANCH  10  13
ENDBRANCH   8  10
BRANCH   8  21
ATOM     21  C   UNL A   1      32.377  25.906  24.652  1.00  0.00     0.075 C 
ATOM     22  C   UNL A   1      31.378  25.599  25.777  1.00  0.00     0.011 C 
ENDBRANCH   8  21
ENDBRANCH   5   8
ENDBRANCH   3   4
ENDBRANCH   2   3
ENDBRANCH   1   2
BRANCH   1  23
ATOM     23  C   UNL A   1      32.022  29.789  25.166  1.00  0.00     0.002 C 
BRANCH  23  24
ATOM     24  C   UNL A   1      32.526  29.048  26.408  1.00  0.00     0.021 C 
BRANCH  24  25
ATOM     25  C   UNL A   1      33.885  29.527  26.908  1.00  0.00     0.116 C 
BRANCH  25  26
ATOM     26  N   UNL A   1      33.799  30.869  27.461  1.00  0.00    -0.352 N 
ATOM     27  C   UNL A   1      34.586  31.450  28.422  1.00  0.00     0.251 C 
ATOM     28  H   UNL A   1      33.081  31.436  27.097  1.00  0.00     0.163 HD
ATOM     29  O   UNL A   1      34.229  32.482  28.975  1.00  0.00    -0.269 OA
BRANCH  27  30
ATOM     30  C   UNL A   1      35.867  30.809  28.781  1.00  0.00     0.039 A 
ATOM     31  C   UNL A   1      37.040  31.239  28.159  1.00  0.00     0.014 A 
ATOM     32  C   UNL A   1      35.900  29.789  29.737  1.00  0.00     0.014 A 
ATOM     33  C   UNL A   1      38.259  30.671  28.531  1.00  0.00     0.010 A 
ATOM     34  C   UNL A   1      37.122  29.281  30.160  1.00  0.00     0.010 A 
ATOM     35  C   UNL A   1      38.313  29.706  29.550  1.00  0.00    -0.014 A 
BRANCH  35  36
ATOM     36  C   UNL A   1      39.604  29.126  29.993  1.00  0.00     0.031 A 
ATOM     37  C   UNL A   1      40.380  29.773  31.107  1.00  0.00     0.074 A 
ATOM     38  C   UNL A   1      40.116  28.066  29.337  1.00  0.00     0.049 A 
ATOM     39  N   UNL A   1      41.549  29.448  31.595  1.00  0.00    -0.248 NA
ATOM     40  C   UNL A   1      39.778  30.960  31.739  1.00  0.00     0.031 C 
ATOM     41  C   UNL A   1      39.494  27.399  28.190  1.00  0.00     0.029 A 
ATOM     42  N   UNL A   1      41.290  27.380  29.522  1.00  0.00    -0.354 N 
ATOM     43  C   UNL A   1      41.837  30.404  32.560  1.00  0.00     0.074 A 
ATOM     44  C   UNL A   1      40.739  31.344  32.566  1.00  0.00     0.031 C 
ATOM     45  C   UNL A   1      40.288  26.399  27.778  1.00  0.00     0.029 A 
ATOM     46  C   UNL A   1      41.490  26.374  28.605  1.00  0.00     0.049 A 
ATOM     47  H   UNL A   1      41.928  27.588  30.242  1.00  0.00     0.167 HD
ATOM     48  C   UNL A   1      42.905  30.477  33.388  1.00  0.00     0.034 A 
ATOM     49  C   UNL A   1      42.532  25.535  28.442  1.00  0.00     0.034 A 
ATOM     50  C   UNL A   1      43.977  29.518  33.403  1.00  0.00     0.049 A 
ATOM     51  C   UNL A   1      43.692  25.619  29.394  1.00  0.00     0.074 A 
ATOM     52  C   UNL A   1      45.061  29.453  34.260  1.00  0.00     0.029 A 
ATOM     53  N   UNL A   1      44.107  28.464  32.512  1.00  0.00    -0.354 N 
ATOM     54  N   UNL A   1      43.874  26.435  30.405  1.00  0.00    -0.248 NA
ATOM     55  C   UNL A   1      44.776  24.643  29.210  1.00  0.00     0.031 C 
ATOM     56  C   UNL A   1      45.864  28.378  33.867  1.00  0.00     0.029 A 
ATOM     57  C   UNL A   1      45.260  27.750  32.789  1.00  0.00     0.049 A 
ATOM     58  H   UNL A   1      43.473  28.254  31.789  1.00  0.00     0.167 HD
ATOM     59  C   UNL A   1      45.070  26.048  30.998  1.00  0.00     0.074 A 
ATOM     60  C   UNL A   1      45.559  24.911  30.245  1.00  0.00     0.031 C 
ATOM     61  C   UNL A   1      45.710  26.591  32.062  1.00  0.00     0.034 A 
BRANCH  48  62
ATOM     62  C   UNL A   1      42.949  31.612  34.380  1.00  0.00     0.023 A 
ATOM     63  C   UNL A   1      43.606  32.813  34.038  1.00  0.00     0.012 A 
ATOM     64  C   UNL A   1      42.293  31.513  35.622  1.00  0.00     0.148 A 
ATOM     65  C   UNL A   1      43.642  33.882  34.932  1.00  0.00     0.002 A 
ATOM     66  C   UNL A   1      42.293  32.601  36.488  1.00  0.00     0.091 A 
ATOM     67  F   UNL A   1      41.693  30.358  35.939  1.00  0.00    -0.205 F 
ATOM     68  C   UNL A   1      42.977  33.780  36.150  1.00  0.00     0.022 A 
BRANCH  66  69
ATOM     69  S   UNL A   1      41.397  32.600  38.045  1.00  0.00     0.127 S 
ATOM     70  O   UNL A   1      42.144  31.606  38.814  1.00  0.00    -0.237 OA
ATOM     71  O   UNL A   1      41.573  33.979  38.500  1.00  0.00    -0.237 OA
ATOM     72  O   UNL A   1      40.026  32.236  37.720  1.00  0.00    -0.744 OA
ENDBRANCH  66  69
ENDBRANCH  48  62
BRANCH  49  73
ATOM     73  C   UNL A   1      42.498  24.508  27.362  1.00  0.00     0.023 A 
ATOM     74  C   UNL A   1      43.314  24.667  26.226  1.00  0.00     0.012 A 
ATOM     75  C   UNL A   1      41.681  23.365  27.466  1.00  0.00     0.148 A 
ATOM     76  C   UNL A   1      43.291  23.726  25.196  1.00  0.00     0.002 A 
ATOM     77  C   UNL A   1      41.706  22.403  26.465  1.00  0.00     0.091 A 
ATOM     78  F   UNL A   1      40.906  23.237  28.552  1.00  0.00    -0.205 F 
ATOM     79  C   UNL A   1      42.495  22.590  25.319  1.00  0.00     0.022 A 
BRANCH  77  80
ATOM     80  S   UNL A   1      40.816  20.849  26.601  1.00  0.00     0.127 S 
ATOM     81  O   UNL A   1      40.954  20.549  28.023  1.00  0.00    -0.237 OA
ATOM     82  O   UNL A   1      39.469  21.236  26.179  1.00  0.00    -0.237 OA
ATOM     83  O   UNL A   1      41.487  19.930  25.692  1.00  0.00    -0.744 OA
ENDBRANCH  77  80
ENDBRANCH  49  73
BRANCH  61  84
ATOM     84  C   UNL A   1      46.993  25.942  32.514  1.00  0.00     0.023 A 
ATOM     85  C   UNL A   1      48.227  26.383  31.999  1.00  0.00     0.012 A 
ATOM     86  C   UNL A   1      46.975  24.944  33.508  1.00  0.00     0.148 A 
ATOM     87  C   UNL A   1      49.422  25.818  32.442  1.00  0.00     0.002 A 
ATOM     88  C   UNL A   1      48.172  24.423  33.984  1.00  0.00     0.091 A 
ATOM     89  F   UNL A   1      45.789  24.525  33.974  1.00  0.00    -0.205 F 
ATOM     90  C   UNL A   1      49.395  24.848  33.443  1.00  0.00     0.022 A 
BRANCH  88  91
ATOM     91  S   UNL A   1      48.240  23.247  35.339  1.00  0.00     0.127 S 
ATOM     92  O   UNL A   1      47.777  22.020  34.692  1.00  0.00    -0.237 OA
ATOM     93  O   UNL A   1      49.662  23.255  35.684  1.00  0.00    -0.237 OA
ATOM     94  O   UNL A   1      47.363  23.773  36.376  1.00  0.00    -0.744 OA
ENDBRANCH  88  91
ENDBRANCH  61  84
ENDBRANCH  35  36
ENDBRANCH  27  30
ENDBRANCH  25  26
ENDBRANCH  24  25
ENDBRANCH  23  24
ENDBRANCH   1  23
TORSDOF 20
ENDMDL
MODEL 3
REMARK VINA RESULT:     -10.3      2.218      7.918
REMARK SMILES CC[C@H]1CCC[C@@H]([NH2+][C@@](C)(CC)C(=O)NCCCCCCNC(=O)c2ccc(-c3c4nc(c(-c5cccc(S(=O)(=O)[O-])c5F)c5ccc([nH]5)c(-c5cccc(S(=O)(=O)[O-])c5F)c5nc(c(-c6cccc(S(=O)(=O)[O-])c6F)c6ccc3[nH]6)C=C5)C=C4)cc2)C1
REMARK SMILES IDX 18 1 17 2 16 3 15 4 13 5 14 6 9 8 10 9 8 10 7 13 3 14 4 15
REMARK SMILES IDX 88 16 5 17 6 18 2 19 1 20 11 21 12 22 19 23 20 24 21 25
REMARK SMILES IDX 22 26 23 27 24 29 25 30 26 31 87 32 27 33 86 34 28 35 29 36
REMARK SMILES IDX 30 37 80 38 31 39 85 40 79 41 81 42 32 43 84 44 78 45 77 46
REMARK SMILES IDX 33 48 65 49 45 50 64 51 46 52 49 53 63 54 82 55 47 56 48 57
REMARK SMILES IDX 62 59 83 60 50 61 34 62 35 63 43 64 36 65 38 66 44 67 37 68
REMARK SMILES IDX 39 69 40 70 41 71 42 72 66 73 67 74 75 75 68 76 70 77 76 78
REMARK SMILES IDX 69 79 71 80 72 81 73 82 74 83 51 84 52 85 60 86 53 87 55 88
REMARK SMILES IDX 61 89 54 90 56 91 57 92 58 93 59 94
REMARK H PARENT 15 7 8 11 8 12 22 28 81 47 49 58
REMARK Flexibility Score: inf
ROOT
ATOM      1  C   UNL A   1      31.146  29.251  25.425  1.00  0.00     0.002 C 
ENDROOT
BRANCH   1   2
ATOM      2  C   UNL A   1      30.936  28.859  23.965  1.00  0.00     0.021 C 
BRANCH   2   3
ATOM      3  C   UNL A   1      30.239  27.511  23.790  1.00  0.00     0.116 C 
BRANCH   3   4
ATOM      4  N   UNL A   1      30.342  26.672  24.975  1.00  0.00    -0.351 N 
ATOM      5  C   UNL A   1      31.050  25.527  25.245  1.00  0.00     0.281 C 
ATOM      6  O   UNL A   1      30.857  25.019  26.354  1.00  0.00    -0.268 OA
ATOM      7  H   UNL A   1      29.795  26.986  25.732  1.00  0.00     0.163 HD
BRANCH   5   8
ATOM      8  C   UNL A   1      32.034  24.915  24.185  1.00  0.00     0.172 C 
ATOM      9  C   UNL A   1      33.385  25.666  24.354  1.00  0.00     0.090 C 
BRANCH   8  10
ATOM     10  N   UNL A   1      32.435  23.519  24.557  1.00  0.00    -0.331 N 
ATOM     11  H   UNL A   1      32.949  23.590  25.436  1.00  0.00     0.347 HD
ATOM     12  H   UNL A   1      31.543  23.024  24.556  1.00  0.00     0.347 HD
BRANCH  10  13
ATOM     13  C   UNL A   1      33.250  22.705  23.667  1.00  0.00     0.183 C 
ATOM     14  C   UNL A   1      34.517  21.106  25.340  1.00  0.00    -0.006 C 
ATOM     15  C   UNL A   1      33.724  19.927  24.765  1.00  0.00     0.004 C 
ATOM     16  C   UNL A   1      34.584  22.222  24.283  1.00  0.00     0.068 C 
ATOM     17  C   UNL A   1      32.345  20.352  24.263  1.00  0.00     0.006 C 
ATOM     18  C   UNL A   1      32.434  21.468  23.221  1.00  0.00     0.065 C 
BRANCH  14  19
ATOM     19  C   UNL A   1      34.003  21.457  26.754  1.00  0.00     0.000 C 
ATOM     20  C   UNL A   1      34.394  22.818  27.300  1.00  0.00     0.004 C 
ENDBRANCH  14  19
ENDBRANCH  10  13
ENDBRANCH   8  10
BRANCH   8  21
ATOM     21  C   UNL A   1      31.433  25.080  22.759  1.00  0.00     0.075 C 
ATOM     22  C   UNL A   1      32.387  25.557  21.654  1.00  0.00     0.011 C 
ENDBRANCH   8  21
ENDBRANCH   5   8
ENDBRANCH   3   4
ENDBRANCH   2   3
ENDBRANCH   1   2
BRANCH   1  23
ATOM     23  C   UNL A   1      32.176  30.365  25.622  1.00  0.00     0.002 C 
BRANCH  23  24
ATOM     24  C   UNL A   1      31.676  31.549  26.456  1.00  0.00     0.021 C 
BRANCH  24  25
ATOM     25  C   UNL A   1      32.715  32.109  27.422  1.00  0.00     0.116 C 
BRANCH  25  26
ATOM     26  N   UNL A   1      32.566  33.547  27.580  1.00  0.00    -0.352 N 
ATOM     27  C   UNL A   1      33.163  34.374  28.496  1.00  0.00     0.251 C 
ATOM     28  H   UNL A   1      31.955  33.984  26.944  1.00  0.00     0.163 HD
ATOM     29  O   UNL A   1      32.738  35.507  28.679  1.00  0.00    -0.269 OA
BRANCH  27  30
ATOM     30  C   UNL A   1      34.324  33.873  29.261  1.00  0.00     0.039 A 
ATOM     31  C   UNL A   1      34.107  33.035  30.355  1.00  0.00     0.014 A 
ATOM     32  C   UNL A   1      35.622  34.232  28.884  1.00  0.00     0.014 A 
ATOM     33  C   UNL A   1      35.202  32.520  31.049  1.00  0.00     0.010 A 
ATOM     34  C   UNL A   1      36.709  33.656  29.528  1.00  0.00     0.010 A 
ATOM     35  C   UNL A   1      36.511  32.806  30.627  1.00  0.00    -0.014 A 
BRANCH  35  36
ATOM     36  C   UNL A   1      37.687  32.228  31.322  1.00  0.00     0.031 A 
ATOM     37  C   UNL A   1      38.454  31.096  30.695  1.00  0.00     0.074 A 
ATOM     38  C   UNL A   1      38.013  32.668  32.553  1.00  0.00     0.049 A 
ATOM     39  N   UNL A   1      39.470  30.426  31.172  1.00  0.00    -0.248 NA
ATOM     40  C   UNL A   1      38.003  30.636  29.370  1.00  0.00     0.031 C 
ATOM     41  C   UNL A   1      37.297  33.707  33.298  1.00  0.00     0.029 A 
ATOM     42  N   UNL A   1      39.013  32.278  33.408  1.00  0.00    -0.354 N 
ATOM     43  C   UNL A   1      39.756  29.448  30.227  1.00  0.00     0.074 A 
ATOM     44  C   UNL A   1      38.785  29.587  29.166  1.00  0.00     0.031 C 
ATOM     45  C   UNL A   1      37.883  33.875  34.494  1.00  0.00     0.029 A 
ATOM     46  C   UNL A   1      38.991  32.934  34.617  1.00  0.00     0.049 A 
ATOM     47  H   UNL A   1      39.681  31.592  33.178  1.00  0.00     0.167 HD
ATOM     48  C   UNL A   1      40.756  28.535  30.229  1.00  0.00     0.034 A 
ATOM     49  C   UNL A   1      39.770  32.784  35.706  1.00  0.00     0.034 A 
ATOM     50  C   UNL A   1      41.742  28.425  31.269  1.00  0.00     0.049 A 
ATOM     51  C   UNL A   1      40.892  31.784  35.670  1.00  0.00     0.074 A 
ATOM     52  C   UNL A   1      42.846  27.593  31.325  1.00  0.00     0.029 A 
ATOM     53  N   UNL A   1      41.738  29.163  32.444  1.00  0.00    -0.354 N 
ATOM     54  N   UNL A   1      41.244  30.973  34.700  1.00  0.00    -0.248 NA
ATOM     55  C   UNL A   1      41.749  31.700  36.861  1.00  0.00     0.031 C 
ATOM     56  C   UNL A   1      43.490  27.804  32.548  1.00  0.00     0.029 A 
ATOM     57  C   UNL A   1      42.811  28.795  33.238  1.00  0.00     0.049 A 
ATOM     58  H   UNL A   1      41.069  29.846  32.679  1.00  0.00     0.167 HD
ATOM     59  C   UNL A   1      42.382  30.313  35.149  1.00  0.00     0.074 A 
ATOM     60  C   UNL A   1      42.671  30.834  36.470  1.00  0.00     0.031 C 
ATOM     61  C   UNL A   1      43.115  29.356  34.528  1.00  0.00     0.034 A 
BRANCH  48  62
ATOM     62  C   UNL A   1      40.861  27.607  29.045  1.00  0.00     0.023 A 
ATOM     63  C   UNL A   1      40.026  26.472  28.973  1.00  0.00     0.012 A 
ATOM     64  C   UNL A   1      41.740  27.886  27.982  1.00  0.00     0.148 A 
ATOM     65  C   UNL A   1      40.092  25.610  27.879  1.00  0.00     0.002 A 
ATOM     66  C   UNL A   1      41.766  27.048  26.873  1.00  0.00     0.091 A 
ATOM     67  F   UNL A   1      42.541  28.956  28.078  1.00  0.00    -0.205 F 
ATOM     68  C   UNL A   1      40.953  25.904  26.826  1.00  0.00     0.022 A 
BRANCH  66  69
ATOM     69  S   UNL A   1      42.779  27.384  25.428  1.00  0.00     0.127 S 
ATOM     70  O   UNL A   1      42.659  26.130  24.687  1.00  0.00    -0.237 OA
ATOM     71  O   UNL A   1      42.081  28.519  24.822  1.00  0.00    -0.237 OA
ATOM     72  O   UNL A   1      44.111  27.687  25.931  1.00  0.00    -0.744 OA
ENDBRANCH  66  69
ENDBRANCH  48  62
BRANCH  49  73
ATOM     73  C   UNL A   1      39.546  33.642  36.905  1.00  0.00     0.023 A 
ATOM     74  C   UNL A   1      39.982  34.981  36.891  1.00  0.00     0.012 A 
ATOM     75  C   UNL A   1      38.883  33.147  38.044  1.00  0.00     0.148 A 
ATOM     76  C   UNL A   1      39.795  35.801  38.005  1.00  0.00     0.002 A 
ATOM     77  C   UNL A   1      38.649  33.984  39.128  1.00  0.00     0.091 A 
ATOM     78  F   UNL A   1      38.483  31.868  38.040  1.00  0.00    -0.205 F 
ATOM     79  C   UNL A   1      39.121  35.307  39.118  1.00  0.00     0.022 A 
BRANCH  77  80
ATOM     80  S   UNL A   1      37.675  33.473  40.547  1.00  0.00     0.127 S 
ATOM     81  O   UNL A   1      37.602  34.710  41.320  1.00  0.00    -0.237 OA
ATOM     82  O   UNL A   1      36.418  33.064  39.918  1.00  0.00    -0.237 OA
ATOM     83  O   UNL A   1      38.419  32.384  41.164  1.00  0.00    -0.744 OA
ENDBRANCH  77  80
ENDBRANCH  49  73
BRANCH  61  84
ATOM     84  C   UNL A   1      44.332  28.831  35.246  1.00  0.00     0.023 A 
ATOM     85  C   UNL A   1      45.593  29.414  35.015  1.00  0.00     0.012 A 
ATOM     86  C   UNL A   1      44.207  27.809  36.207  1.00  0.00     0.148 A 
ATOM     87  C   UNL A   1      46.717  28.964  35.706  1.00  0.00     0.002 A 
ATOM     88  C   UNL A   1      45.322  27.403  36.930  1.00  0.00     0.091 A 
ATOM     89  F   UNL A   1      43.001  27.255  36.399  1.00  0.00    -0.205 F 
ATOM     90  C   UNL A   1      46.580  27.969  36.671  1.00  0.00     0.022 A 
BRANCH  88  91
ATOM     91  S   UNL A   1      45.222  26.201  38.261  1.00  0.00     0.127 S 
ATOM     92  O   UNL A   1      44.159  26.765  39.092  1.00  0.00    -0.237 OA
ATOM     93  O   UNL A   1      44.853  24.979  37.546  1.00  0.00    -0.237 OA
ATOM     94  O   UNL A   1      46.542  26.167  38.875  1.00  0.00    -0.744 OA
ENDBRANCH  88  91
ENDBRANCH  61  84
ENDBRANCH  35  36
ENDBRANCH  27  30
ENDBRANCH  25  26
ENDBRANCH  24  25
ENDBRANCH  23  24
ENDBRANCH   1  23
TORSDOF 20
ENDMDL
