MODEL 1
REMARK VINA RESULT:     -10.1      0.000      0.000
REMARK SMILES CCCCCC[C@@H](C)N1C[C@H](C(=O)NCCCCCCNC(=O)c2ccc(-c3c4nc(c(-c5cccc(S(=O)(=O)[O-])c5F)c5ccc([nH]5)c(-c5cccc(S(=O)(=O)[O-])c5F)c5nc(c(-c6cccc(S(=O)(=O)[O-])c6F)c6ccc3[nH]6)C=C5)C=C4)cc2)CC1=O
REMARK SMILES IDX 16 1 15 2 14 3 12 4 13 5 11 7 9 8 10 9 88 10 87 11 89 12
REMARK SMILES IDX 7 13 8 14 6 15 5 16 4 17 3 18 2 19 1 20 17 21 18 22 19 23
REMARK SMILES IDX 20 24 21 25 22 26 23 28 24 29 25 30 86 31 26 32 85 33 27 34
REMARK SMILES IDX 28 35 29 36 79 37 30 38 84 39 78 40 80 41 31 42 83 43 77 44
REMARK SMILES IDX 76 45 32 47 64 48 44 49 63 50 45 51 48 52 62 53 81 54 46 55
REMARK SMILES IDX 47 56 61 58 82 59 49 60 33 61 34 62 42 63 35 64 37 65 43 66
REMARK SMILES IDX 36 67 38 68 39 69 40 70 41 71 65 72 66 73 74 74 67 75 69 76
REMARK SMILES IDX 75 77 68 78 70 79 71 80 72 81 73 82 50 83 51 84 59 85 52 86
REMARK SMILES IDX 54 87 60 88 53 89 55 90 56 91 57 92 58 93
REMARK H PARENT 14 6 21 27 80 46 48 57
REMARK Flexibility Score: inf
ROOT
ATOM      1  C   UNL A   1      35.487  32.621  28.319  1.00  0.00     0.021 C 
ENDROOT
BRANCH   1   2
ATOM      2  C   UNL A   1      34.217  31.851  27.954  1.00  0.00     0.116 C 
BRANCH   2   3
ATOM      3  N   UNL A   1      34.557  30.631  27.245  1.00  0.00    -0.356 N 
ATOM      4  C   UNL A   1      33.786  29.544  26.974  1.00  0.00     0.225 C 
ATOM      5  O   UNL A   1      34.345  28.512  26.603  1.00  0.00    -0.275 OA
ATOM      6  H   UNL A   1      35.483  30.585  26.910  1.00  0.00     0.163 HD
BRANCH   4   7
ATOM      7  C   UNL A   1      32.275  29.678  27.049  1.00  0.00     0.107 C 
ATOM      8  N   UNL A   1      31.450  28.370  25.277  1.00  0.00    -0.339 N 
ATOM      9  C   UNL A   1      31.726  29.750  25.636  1.00  0.00     0.133 C 
ATOM     10  C   UNL A   1      31.303  27.593  26.429  1.00  0.00     0.223 C 
ATOM     11  C   UNL A   1      31.619  28.442  27.633  1.00  0.00     0.115 C 
ATOM     12  O   UNL A   1      30.913  26.438  26.516  1.00  0.00    -0.275 OA
BRANCH   8  13
ATOM     13  C   UNL A   1      31.045  27.981  23.905  1.00  0.00     0.082 C 
ATOM     14  C   UNL A   1      31.958  26.917  23.280  1.00  0.00     0.031 C 
BRANCH  13  15
ATOM     15  C   UNL A   1      30.945  29.213  22.966  1.00  0.00     0.025 C 
BRANCH  15  16
ATOM     16  C   UNL A   1      29.525  29.700  22.641  1.00  0.00     0.002 C 
BRANCH  16  17
ATOM     17  C   UNL A   1      28.973  30.754  23.607  1.00  0.00     0.000 C 
BRANCH  17  18
ATOM     18  C   UNL A   1      27.865  31.641  23.027  1.00  0.00    -0.000 C 
BRANCH  18  19
ATOM     19  C   UNL A   1      28.311  32.602  21.923  1.00  0.00    -0.003 C 
ATOM     20  C   UNL A   1      27.994  32.101  20.521  1.00  0.00     0.004 C 
ENDBRANCH  18  19
ENDBRANCH  17  18
ENDBRANCH  16  17
ENDBRANCH  15  16
ENDBRANCH  13  15
ENDBRANCH   8  13
ENDBRANCH   4   7
ENDBRANCH   2   3
ENDBRANCH   1   2
BRANCH   1  21
ATOM     21  C   UNL A   1      35.221  33.939  29.064  1.00  0.00     0.002 C 
BRANCH  21  22
ATOM     22  C   UNL A   1      34.790  35.109  28.172  1.00  0.00     0.002 C 
BRANCH  22  23
ATOM     23  C   UNL A   1      33.718  36.015  28.780  1.00  0.00     0.021 C 
BRANCH  23  24
ATOM     24  C   UNL A   1      32.734  35.293  29.691  1.00  0.00     0.116 C 
BRANCH  24  25
ATOM     25  N   UNL A   1      32.349  36.108  30.834  1.00  0.00    -0.352 N 
ATOM     26  C   UNL A   1      32.810  36.038  32.127  1.00  0.00     0.251 C 
ATOM     27  H   UNL A   1      31.670  36.798  30.658  1.00  0.00     0.163 HD
ATOM     28  O   UNL A   1      32.252  36.664  33.022  1.00  0.00    -0.269 OA
BRANCH  26  29
ATOM     29  C   UNL A   1      33.976  35.182  32.426  1.00  0.00     0.039 A 
ATOM     30  C   UNL A   1      35.264  35.673  32.201  1.00  0.00     0.014 A 
ATOM     31  C   UNL A   1      33.786  33.906  32.963  1.00  0.00     0.014 A 
ATOM     32  C   UNL A   1      36.370  34.901  32.571  1.00  0.00     0.010 A 
ATOM     33  C   UNL A   1      34.884  33.177  33.403  1.00  0.00     0.010 A 
ATOM     34  C   UNL A   1      36.186  33.660  33.202  1.00  0.00    -0.014 A 
BRANCH  34  35
ATOM     35  C   UNL A   1      37.329  32.822  33.643  1.00  0.00     0.031 A 
ATOM     36  C   UNL A   1      38.093  33.210  34.881  1.00  0.00     0.074 A 
ATOM     37  C   UNL A   1      37.755  31.798  32.877  1.00  0.00     0.049 A 
ATOM     38  N   UNL A   1      39.206  32.716  35.354  1.00  0.00    -0.248 NA
ATOM     39  C   UNL A   1      37.548  34.327  35.672  1.00  0.00     0.031 C 
ATOM     40  C   UNL A   1      37.130  31.356  31.630  1.00  0.00     0.029 A 
ATOM     41  N   UNL A   1      38.840  30.968  33.017  1.00  0.00    -0.354 N 
ATOM     42  C   UNL A   1      39.524  33.496  36.460  1.00  0.00     0.074 A 
ATOM     43  C   UNL A   1      38.501  34.510  36.574  1.00  0.00     0.031 C 
ATOM     44  C   UNL A   1      37.840  30.337  31.119  1.00  0.00     0.029 A 
ATOM     45  C   UNL A   1      38.995  30.083  31.976  1.00  0.00     0.049 A 
ATOM     46  H   UNL A   1      39.448  31.002  33.790  1.00  0.00     0.167 HD
ATOM     47  C   UNL A   1      40.567  33.368  37.314  1.00  0.00     0.034 A 
ATOM     48  C   UNL A   1      39.969  29.183  31.729  1.00  0.00     0.034 A 
ATOM     49  C   UNL A   1      41.553  32.327  37.223  1.00  0.00     0.049 A 
ATOM     50  C   UNL A   1      41.103  29.044  32.709  1.00  0.00     0.074 A 
ATOM     51  C   UNL A   1      42.592  32.053  38.093  1.00  0.00     0.029 A 
ATOM     52  N   UNL A   1      41.628  31.396  36.199  1.00  0.00    -0.354 N 
ATOM     53  N   UNL A   1      41.317  29.704  33.821  1.00  0.00    -0.248 NA
ATOM     54  C   UNL A   1      42.114  28.017  32.418  1.00  0.00     0.031 C 
ATOM     55  C   UNL A   1      43.320  30.979  37.573  1.00  0.00     0.029 A 
ATOM     56  C   UNL A   1      42.704  30.554  36.408  1.00  0.00     0.049 A 
ATOM     57  H   UNL A   1      41.007  31.343  35.437  1.00  0.00     0.167 HD
ATOM     58  C   UNL A   1      42.452  29.136  34.390  1.00  0.00     0.074 A 
ATOM     59  C   UNL A   1      42.883  28.080  33.498  1.00  0.00     0.031 C 
ATOM     60  C   UNL A   1      43.079  29.462  35.546  1.00  0.00     0.034 A 
BRANCH  47  61
ATOM     61  C   UNL A   1      40.680  34.364  38.438  1.00  0.00     0.023 A 
ATOM     62  C   UNL A   1      41.403  35.560  38.252  1.00  0.00     0.012 A 
ATOM     63  C   UNL A   1      40.023  34.138  39.664  1.00  0.00     0.148 A 
ATOM     64  C   UNL A   1      41.507  36.494  39.282  1.00  0.00     0.002 A 
ATOM     65  C   UNL A   1      40.087  35.097  40.667  1.00  0.00     0.091 A 
ATOM     66  F   UNL A   1      39.357  32.986  39.830  1.00  0.00    -0.205 F 
ATOM     67  C   UNL A   1      40.840  36.268  40.484  1.00  0.00     0.022 A 
BRANCH  65  68
ATOM     68  S   UNL A   1      39.193  34.938  42.216  1.00  0.00     0.127 S 
ATOM     69  O   UNL A   1      39.135  33.485  42.375  1.00  0.00    -0.237 OA
ATOM     70  O   UNL A   1      40.084  35.619  43.156  1.00  0.00    -0.237 OA
ATOM     71  O   UNL A   1      37.910  35.596  42.010  1.00  0.00    -0.744 OA
ENDBRANCH  65  68
ENDBRANCH  47  61
BRANCH  48  72
ATOM     72  C   UNL A   1      39.881  28.296  30.533  1.00  0.00     0.023 A 
ATOM     73  C   UNL A   1      39.007  27.192  30.560  1.00  0.00     0.012 A 
ATOM     74  C   UNL A   1      40.635  28.547  29.371  1.00  0.00     0.148 A 
ATOM     75  C   UNL A   1      38.912  26.333  29.465  1.00  0.00     0.002 A 
ATOM     76  C   UNL A   1      40.495  27.719  28.263  1.00  0.00     0.091 A 
ATOM     77  F   UNL A   1      41.465  29.600  29.368  1.00  0.00    -0.205 F 
ATOM     78  C   UNL A   1      39.649  26.600  28.314  1.00  0.00     0.022 A 
BRANCH  76  79
ATOM     79  S   UNL A   1      41.308  28.053  26.697  1.00  0.00     0.127 S 
ATOM     80  O   UNL A   1      41.073  26.811  25.965  1.00  0.00    -0.237 OA
ATOM     81  O   UNL A   1      40.554  29.209  26.209  1.00  0.00    -0.237 OA
ATOM     82  O   UNL A   1      42.699  28.338  27.025  1.00  0.00    -0.744 OA
ENDBRANCH  76  79
ENDBRANCH  48  72
BRANCH  60  83
ATOM     83  C   UNL A   1      44.256  28.627  35.977  1.00  0.00     0.023 A 
ATOM     84  C   UNL A   1      45.563  28.989  35.601  1.00  0.00     0.012 A 
ATOM     85  C   UNL A   1      44.062  27.547  36.863  1.00  0.00     0.148 A 
ATOM     86  C   UNL A   1      46.659  28.276  36.087  1.00  0.00     0.002 A 
ATOM     87  C   UNL A   1      45.161  26.877  37.384  1.00  0.00     0.091 A 
ATOM     88  F   UNL A   1      42.807  27.211  37.194  1.00  0.00    -0.205 F 
ATOM     89  C   UNL A   1      46.459  27.232  36.989  1.00  0.00     0.022 A 
BRANCH  87  90
ATOM     90  S   UNL A   1      45.005  25.596  38.634  1.00  0.00     0.127 S 
ATOM     91  O   UNL A   1      46.403  25.235  38.864  1.00  0.00    -0.237 OA
ATOM     92  O   UNL A   1      44.370  26.317  39.737  1.00  0.00    -0.237 OA
ATOM     93  O   UNL A   1      44.183  24.549  38.040  1.00  0.00    -0.744 OA
ENDBRANCH  87  90
ENDBRANCH  60  83
ENDBRANCH  34  35
ENDBRANCH  26  29
ENDBRANCH  24  25
ENDBRANCH  23  24
ENDBRANCH  22  23
ENDBRANCH  21  22
ENDBRANCH   1  21
TORSDOF 22
ENDMDL
MODEL 2
REMARK VINA RESULT:      -9.7      7.267     11.142
REMARK SMILES CCCCCC[C@@H](C)N1C[C@H](C(=O)NCCCCCCNC(=O)c2ccc(-c3c4nc(c(-c5cccc(S(=O)(=O)[O-])c5F)c5ccc([nH]5)c(-c5cccc(S(=O)(=O)[O-])c5F)c5nc(c(-c6cccc(S(=O)(=O)[O-])c6F)c6ccc3[nH]6)C=C5)C=C4)cc2)CC1=O
REMARK SMILES IDX 16 1 15 2 14 3 12 4 13 5 11 7 9 8 10 9 88 10 87 11 89 12
REMARK SMILES IDX 7 13 8 14 6 15 5 16 4 17 3 18 2 19 1 20 17 21 18 22 19 23
REMARK SMILES IDX 20 24 21 25 22 26 23 28 24 29 25 30 86 31 26 32 85 33 27 34
REMARK SMILES IDX 28 35 29 36 79 37 30 38 84 39 78 40 80 41 31 42 83 43 77 44
REMARK SMILES IDX 76 45 32 47 64 48 44 49 63 50 45 51 48 52 62 53 81 54 46 55
REMARK SMILES IDX 47 56 61 58 82 59 49 60 33 61 34 62 42 63 35 64 37 65 43 66
REMARK SMILES IDX 36 67 38 68 39 69 40 70 41 71 65 72 66 73 74 74 67 75 69 76
REMARK SMILES IDX 75 77 68 78 70 79 71 80 72 81 73 82 50 83 51 84 59 85 52 86
REMARK SMILES IDX 54 87 60 88 53 89 55 90 56 91 57 92 58 93
REMARK H PARENT 14 6 21 27 80 46 48 57
REMARK Flexibility Score: inf
ROOT
ATOM      1  C   UNL A   1      36.953  22.979  25.142  1.00  0.00     0.021 C 
ENDROOT
BRANCH   1   2
ATOM      2  C   UNL A   1      36.102  24.135  25.669  1.00  0.00     0.116 C 
BRANCH   2   3
ATOM      3  N   UNL A   1      34.695  23.782  25.624  1.00  0.00    -0.356 N 
ATOM      4  C   UNL A   1      33.603  24.587  25.522  1.00  0.00     0.225 C 
ATOM      5  O   UNL A   1      32.499  24.106  25.776  1.00  0.00    -0.275 OA
ATOM      6  H   UNL A   1      34.503  22.816  25.675  1.00  0.00     0.163 HD
BRANCH   4   7
ATOM      7  C   UNL A   1      33.783  26.006  25.011  1.00  0.00     0.107 C 
ATOM      8  N   UNL A   1      31.615  26.914  24.937  1.00  0.00    -0.339 N 
ATOM      9  C   UNL A   1      32.632  26.333  24.078  1.00  0.00     0.133 C 
ATOM     10  C   UNL A   1      32.197  27.406  26.108  1.00  0.00     0.223 C 
ATOM     11  C   UNL A   1      33.657  27.034  26.120  1.00  0.00     0.115 C 
ATOM     12  O   UNL A   1      31.682  28.094  26.977  1.00  0.00    -0.275 OA
BRANCH   8  13
ATOM     13  C   UNL A   1      30.255  27.230  24.440  1.00  0.00     0.082 C 
ATOM     14  C   UNL A   1      29.559  26.037  23.771  1.00  0.00     0.031 C 
BRANCH  13  15
ATOM     15  C   UNL A   1      30.264  28.447  23.476  1.00  0.00     0.025 C 
BRANCH  15  16
ATOM     16  C   UNL A   1      30.465  29.824  24.129  1.00  0.00     0.002 C 
BRANCH  16  17
ATOM     17  C   UNL A   1      29.415  30.872  23.747  1.00  0.00     0.000 C 
BRANCH  17  18
ATOM     18  C   UNL A   1      29.018  30.876  22.267  1.00  0.00    -0.000 C 
BRANCH  18  19
ATOM     19  C   UNL A   1      28.259  32.121  21.799  1.00  0.00    -0.003 C 
ATOM     20  C   UNL A   1      27.895  32.088  20.322  1.00  0.00     0.004 C 
ENDBRANCH  18  19
ENDBRANCH  17  18
ENDBRANCH  16  17
ENDBRANCH  15  16
ENDBRANCH  13  15
ENDBRANCH   8  13
ENDBRANCH   4   7
ENDBRANCH   2   3
ENDBRANCH   1   2
BRANCH   1  21
ATOM     21  C   UNL A   1      36.543  21.605  25.695  1.00  0.00     0.002 C 
BRANCH  21  22
ATOM     22  C   UNL A   1      36.678  20.442  24.705  1.00  0.00     0.002 C 
BRANCH  22  23
ATOM     23  C   UNL A   1      37.806  19.460  25.022  1.00  0.00     0.021 C 
BRANCH  23  24
ATOM     24  C   UNL A   1      38.971  20.073  25.787  1.00  0.00     0.116 C 
BRANCH  24  25
ATOM     25  N   UNL A   1      40.118  19.178  25.846  1.00  0.00    -0.352 N 
ATOM     26  C   UNL A   1      41.439  19.496  26.055  1.00  0.00     0.251 C 
ATOM     27  H   UNL A   1      39.922  18.222  25.720  1.00  0.00     0.163 HD
ATOM     28  O   UNL A   1      42.316  18.655  25.889  1.00  0.00    -0.269 OA
BRANCH  26  29
ATOM     29  C   UNL A   1      41.789  20.871  26.465  1.00  0.00     0.039 A 
ATOM     30  C   UNL A   1      42.069  21.138  27.808  1.00  0.00     0.014 A 
ATOM     31  C   UNL A   1      41.872  21.886  25.508  1.00  0.00     0.014 A 
ATOM     32  C   UNL A   1      42.491  22.416  28.182  1.00  0.00     0.010 A 
ATOM     33  C   UNL A   1      42.369  23.131  25.870  1.00  0.00     0.010 A 
ATOM     34  C   UNL A   1      42.673  23.414  27.211  1.00  0.00    -0.014 A 
BRANCH  34  35
ATOM     35  C   UNL A   1      43.152  24.776  27.557  1.00  0.00     0.031 A 
ATOM     36  C   UNL A   1      42.187  25.770  28.144  1.00  0.00     0.074 A 
ATOM     37  C   UNL A   1      44.404  25.156  27.234  1.00  0.00     0.049 A 
ATOM     38  N   UNL A   1      42.352  27.046  28.374  1.00  0.00    -0.248 NA
ATOM     39  C   UNL A   1      40.845  25.267  28.487  1.00  0.00     0.031 C 
ATOM     40  C   UNL A   1      45.418  24.299  26.616  1.00  0.00     0.029 A 
ATOM     41  N   UNL A   1      45.026  26.375  27.348  1.00  0.00    -0.354 N 
ATOM     42  C   UNL A   1      41.123  27.508  28.830  1.00  0.00     0.074 A 
ATOM     43  C   UNL A   1      40.216  26.383  28.824  1.00  0.00     0.031 C 
ATOM     44  C   UNL A   1      46.532  25.018  26.405  1.00  0.00     0.029 A 
ATOM     45  C   UNL A   1      46.299  26.396  26.829  1.00  0.00     0.049 A 
ATOM     46  H   UNL A   1      44.600  27.159  27.763  1.00  0.00     0.167 HD
ATOM     47  C   UNL A   1      40.785  28.755  29.235  1.00  0.00     0.034 A 
ATOM     48  C   UNL A   1      47.173  27.414  26.692  1.00  0.00     0.034 A 
ATOM     49  C   UNL A   1      41.705  29.857  29.285  1.00  0.00     0.049 A 
ATOM     50  C   UNL A   1      46.781  28.786  27.174  1.00  0.00     0.074 A 
ATOM     51  C   UNL A   1      41.489  31.134  29.770  1.00  0.00     0.029 A 
ATOM     52  N   UNL A   1      43.014  29.816  28.828  1.00  0.00    -0.354 N 
ATOM     53  N   UNL A   1      45.657  29.175  27.725  1.00  0.00    -0.248 NA
ATOM     54  C   UNL A   1      47.785  29.851  27.045  1.00  0.00     0.031 C 
ATOM     55  C   UNL A   1      42.655  31.877  29.569  1.00  0.00     0.029 A 
ATOM     56  C   UNL A   1      43.612  31.049  29.007  1.00  0.00     0.049 A 
ATOM     57  H   UNL A   1      43.451  29.026  28.436  1.00  0.00     0.167 HD
ATOM     58  C   UNL A   1      45.839  30.513  28.059  1.00  0.00     0.074 A 
ATOM     59  C   UNL A   1      47.180  30.868  27.645  1.00  0.00     0.031 C 
ATOM     60  C   UNL A   1      44.972  31.368  28.654  1.00  0.00     0.034 A 
BRANCH  47  61
ATOM     61  C   UNL A   1      39.366  28.988  29.681  1.00  0.00     0.023 A 
ATOM     62  C   UNL A   1      38.970  28.639  30.988  1.00  0.00     0.012 A 
ATOM     63  C   UNL A   1      38.436  29.605  28.820  1.00  0.00     0.148 A 
ATOM     64  C   UNL A   1      37.661  28.859  31.416  1.00  0.00     0.002 A 
ATOM     65  C   UNL A   1      37.149  29.869  29.271  1.00  0.00     0.091 A 
ATOM     66  F   UNL A   1      38.825  29.911  27.573  1.00  0.00    -0.205 F 
ATOM     67  C   UNL A   1      36.755  29.484  30.562  1.00  0.00     0.022 A 
BRANCH  65  68
ATOM     68  S   UNL A   1      35.938  30.746  28.277  1.00  0.00     0.127 S 
ATOM     69  O   UNL A   1      35.609  29.746  27.262  1.00  0.00    -0.237 OA
ATOM     70  O   UNL A   1      34.872  31.002  29.248  1.00  0.00    -0.237 OA
ATOM     71  O   UNL A   1      36.610  31.940  27.785  1.00  0.00    -0.744 OA
ENDBRANCH  65  68
ENDBRANCH  47  61
BRANCH  48  72
ATOM     72  C   UNL A   1      48.531  27.164  26.130  1.00  0.00     0.023 A 
ATOM     73  C   UNL A   1      49.531  26.625  26.963  1.00  0.00     0.012 A 
ATOM     74  C   UNL A   1      48.833  27.432  24.781  1.00  0.00     0.148 A 
ATOM     75  C   UNL A   1      50.817  26.392  26.474  1.00  0.00     0.002 A 
ATOM     76  C   UNL A   1      50.100  27.146  24.286  1.00  0.00     0.091 A 
ATOM     77  F   UNL A   1      47.869  27.949  24.006  1.00  0.00    -0.205 F 
ATOM     78  C   UNL A   1      51.099  26.645  25.134  1.00  0.00     0.022 A 
BRANCH  76  79
ATOM     79  S   UNL A   1      50.522  27.323  22.549  1.00  0.00     0.127 S 
ATOM     80  O   UNL A   1      49.482  26.524  21.905  1.00  0.00    -0.237 OA
ATOM     81  O   UNL A   1      50.397  28.768  22.356  1.00  0.00    -0.237 OA
ATOM     82  O   UNL A   1      51.881  26.813  22.416  1.00  0.00    -0.744 OA
ENDBRANCH  76  79
ENDBRANCH  48  72
BRANCH  60  83
ATOM     83  C   UNL A   1      45.453  32.758  28.978  1.00  0.00     0.023 A 
ATOM     84  C   UNL A   1      46.107  33.019  30.196  1.00  0.00     0.012 A 
ATOM     85  C   UNL A   1      45.357  33.776  28.008  1.00  0.00     0.148 A 
ATOM     86  C   UNL A   1      46.645  34.282  30.450  1.00  0.00     0.002 A 
ATOM     87  C   UNL A   1      45.941  35.013  28.247  1.00  0.00     0.091 A 
ATOM     88  F   UNL A   1      44.714  33.507  26.862  1.00  0.00    -0.205 F 
ATOM     89  C   UNL A   1      46.575  35.271  29.471  1.00  0.00     0.022 A 
BRANCH  87  90
ATOM     90  S   UNL A   1      45.998  36.308  27.004  1.00  0.00     0.127 S 
ATOM     91  O   UNL A   1      44.603  36.747  26.969  1.00  0.00    -0.237 OA
ATOM     92  O   UNL A   1      46.926  37.269  27.600  1.00  0.00    -0.237 OA
ATOM     93  O   UNL A   1      46.480  35.677  25.782  1.00  0.00    -0.744 OA
ENDBRANCH  87  90
ENDBRANCH  60  83
ENDBRANCH  34  35
ENDBRANCH  26  29
ENDBRANCH  24  25
ENDBRANCH  23  24
ENDBRANCH  22  23
ENDBRANCH  21  22
ENDBRANCH   1  21
TORSDOF 22
ENDMDL
MODEL 3
REMARK VINA RESULT:      -9.6      2.936      8.942
REMARK SMILES CCCCCC[C@@H](C)N1C[C@H](C(=O)NCCCCCCNC(=O)c2ccc(-c3c4nc(c(-c5cccc(S(=O)(=O)[O-])c5F)c5ccc([nH]5)c(-c5cccc(S(=O)(=O)[O-])c5F)c5nc(c(-c6cccc(S(=O)(=O)[O-])c6F)c6ccc3[nH]6)C=C5)C=C4)cc2)CC1=O
REMARK SMILES IDX 16 1 15 2 14 3 12 4 13 5 11 7 9 8 10 9 88 10 87 11 89 12
REMARK SMILES IDX 7 13 8 14 6 15 5 16 4 17 3 18 2 19 1 20 17 21 18 22 19 23
REMARK SMILES IDX 20 24 21 25 22 26 23 28 24 29 25 30 86 31 26 32 85 33 27 34
REMARK SMILES IDX 28 35 29 36 79 37 30 38 84 39 78 40 80 41 31 42 83 43 77 44
REMARK SMILES IDX 76 45 32 47 64 48 44 49 63 50 45 51 48 52 62 53 81 54 46 55
REMARK SMILES IDX 47 56 61 58 82 59 49 60 33 61 34 62 42 63 35 64 37 65 43 66
REMARK SMILES IDX 36 67 38 68 39 69 40 70 41 71 65 72 66 73 74 74 67 75 69 76
REMARK SMILES IDX 75 77 68 78 70 79 71 80 72 81 73 82 50 83 51 84 59 85 52 86
REMARK SMILES IDX 54 87 60 88 53 89 55 90 56 91 57 92 58 93
REMARK H PARENT 14 6 21 27 80 46 48 57
REMARK Flexibility Score: inf
ROOT
ATOM      1  C   UNL A   1      31.196  28.944  24.344  1.00  0.00     0.021 C 
ENDROOT
BRANCH   1   2
ATOM      2  C   UNL A   1      32.527  28.650  23.650  1.00  0.00     0.116 C 
BRANCH   2   3
ATOM      3  N   UNL A   1      33.388  27.877  24.526  1.00  0.00    -0.356 N 
ATOM      4  C   UNL A   1      33.101  26.774  25.269  1.00  0.00     0.225 C 
ATOM      5  O   UNL A   1      33.895  26.441  26.147  1.00  0.00    -0.275 OA
ATOM      6  H   UNL A   1      34.318  28.198  24.592  1.00  0.00     0.163 HD
BRANCH   4   7
ATOM      7  C   UNL A   1      31.870  25.956  24.921  1.00  0.00     0.107 C 
ATOM      8  N   UNL A   1      32.406  23.747  25.524  1.00  0.00    -0.339 N 
ATOM      9  C   UNL A   1      32.321  24.617  24.365  1.00  0.00     0.133 C 
ATOM     10  C   UNL A   1      31.615  24.246  26.561  1.00  0.00     0.223 C 
ATOM     11  C   UNL A   1      31.062  25.586  26.151  1.00  0.00     0.115 C 
ATOM     12  O   UNL A   1      31.321  23.703  27.617  1.00  0.00    -0.275 OA
BRANCH   8  13
ATOM     13  C   UNL A   1      32.969  22.378  25.438  1.00  0.00     0.082 C 
ATOM     14  C   UNL A   1      34.498  22.357  25.293  1.00  0.00     0.031 C 
BRANCH  13  15
ATOM     15  C   UNL A   1      32.316  21.560  24.291  1.00  0.00     0.025 C 
BRANCH  15  16
ATOM     16  C   UNL A   1      33.078  20.304  23.841  1.00  0.00     0.002 C 
BRANCH  16  17
ATOM     17  C   UNL A   1      33.019  19.133  24.827  1.00  0.00     0.000 C 
BRANCH  17  18
ATOM     18  C   UNL A   1      32.480  17.824  24.239  1.00  0.00    -0.000 C 
BRANCH  18  19
ATOM     19  C   UNL A   1      33.522  16.947  23.539  1.00  0.00    -0.003 C 
ATOM     20  C   UNL A   1      34.114  15.875  24.443  1.00  0.00     0.004 C 
ENDBRANCH  18  19
ENDBRANCH  17  18
ENDBRANCH  16  17
ENDBRANCH  15  16
ENDBRANCH  13  15
ENDBRANCH   8  13
ENDBRANCH   4   7
ENDBRANCH   2   3
ENDBRANCH   1   2
BRANCH   1  21
ATOM     21  C   UNL A   1      31.101  30.364  24.925  1.00  0.00     0.002 C 
BRANCH  21  22
ATOM     22  C   UNL A   1      31.747  30.543  26.304  1.00  0.00     0.002 C 
BRANCH  22  23
ATOM     23  C   UNL A   1      31.514  31.911  26.948  1.00  0.00     0.021 C 
BRANCH  23  24
ATOM     24  C   UNL A   1      32.762  32.779  27.035  1.00  0.00     0.116 C 
BRANCH  24  25
ATOM     25  N   UNL A   1      32.486  34.072  27.646  1.00  0.00    -0.352 N 
ATOM     26  C   UNL A   1      33.089  34.645  28.740  1.00  0.00     0.251 C 
ATOM     27  H   UNL A   1      31.776  34.604  27.220  1.00  0.00     0.163 HD
ATOM     28  O   UNL A   1      32.619  35.656  29.252  1.00  0.00    -0.269 OA
BRANCH  26  29
ATOM     29  C   UNL A   1      34.301  34.015  29.302  1.00  0.00     0.039 A 
ATOM     30  C   UNL A   1      35.560  34.438  28.869  1.00  0.00     0.014 A 
ATOM     31  C   UNL A   1      34.183  33.028  30.285  1.00  0.00     0.014 A 
ATOM     32  C   UNL A   1      36.707  33.910  29.467  1.00  0.00     0.010 A 
ATOM     33  C   UNL A   1      35.322  32.566  30.932  1.00  0.00     0.010 A 
ATOM     34  C   UNL A   1      36.596  32.992  30.523  1.00  0.00    -0.014 A 
BRANCH  34  35
ATOM     35  C   UNL A   1      37.785  32.431  31.211  1.00  0.00     0.031 A 
ATOM     36  C   UNL A   1      38.533  31.289  30.577  1.00  0.00     0.074 A 
ATOM     37  C   UNL A   1      38.117  32.855  32.447  1.00  0.00     0.049 A 
ATOM     38  N   UNL A   1      39.494  30.554  31.071  1.00  0.00    -0.248 NA
ATOM     39  C   UNL A   1      38.120  30.901  29.217  1.00  0.00     0.031 C 
ATOM     40  C   UNL A   1      37.439  33.920  33.188  1.00  0.00     0.029 A 
ATOM     41  N   UNL A   1      39.088  32.414  33.313  1.00  0.00    -0.354 N 
ATOM     42  C   UNL A   1      39.759  29.585  30.111  1.00  0.00     0.074 A 
ATOM     43  C   UNL A   1      38.843  29.810  29.015  1.00  0.00     0.031 C 
ATOM     44  C   UNL A   1      38.013  34.049  34.396  1.00  0.00     0.029 A 
ATOM     45  C   UNL A   1      39.068  33.049  34.533  1.00  0.00     0.049 A 
ATOM     46  H   UNL A   1      39.737  31.712  33.081  1.00  0.00     0.167 HD
ATOM     47  C   UNL A   1      40.693  28.605  30.132  1.00  0.00     0.034 A 
ATOM     48  C   UNL A   1      39.803  32.836  35.643  1.00  0.00     0.034 A 
ATOM     49  C   UNL A   1      41.633  28.419  31.202  1.00  0.00     0.049 A 
ATOM     50  C   UNL A   1      40.853  31.756  35.631  1.00  0.00     0.074 A 
ATOM     51  C   UNL A   1      42.680  27.518  31.277  1.00  0.00     0.029 A 
ATOM     52  N   UNL A   1      41.634  29.138  32.387  1.00  0.00    -0.354 N 
ATOM     53  N   UNL A   1      41.177  30.934  34.663  1.00  0.00    -0.248 NA
ATOM     54  C   UNL A   1      41.658  31.595  36.850  1.00  0.00     0.031 C 
ATOM     55  C   UNL A   1      43.291  27.667  32.525  1.00  0.00     0.029 A 
ATOM     56  C   UNL A   1      42.656  28.693  33.205  1.00  0.00     0.049 A 
ATOM     57  H   UNL A   1      41.003  29.858  32.612  1.00  0.00     0.167 HD
ATOM     58  C   UNL A   1      42.259  30.198  35.135  1.00  0.00     0.074 A 
ATOM     59  C   UNL A   1      42.532  30.669  36.476  1.00  0.00     0.031 C 
ATOM     60  C   UNL A   1      42.960  29.220  34.511  1.00  0.00     0.034 A 
BRANCH  47  61
ATOM     61  C   UNL A   1      40.763  27.675  28.949  1.00  0.00     0.023 A 
ATOM     62  C   UNL A   1      39.841  26.615  28.829  1.00  0.00     0.012 A 
ATOM     63  C   UNL A   1      41.710  27.885  27.927  1.00  0.00     0.148 A 
ATOM     64  C   UNL A   1      39.889  25.754  27.734  1.00  0.00     0.002 A 
ATOM     65  C   UNL A   1      41.718  27.054  26.814  1.00  0.00     0.091 A 
ATOM     66  F   UNL A   1      42.593  28.885  28.069  1.00  0.00    -0.205 F 
ATOM     67  C   UNL A   1      40.819  25.980  26.723  1.00  0.00     0.022 A 
BRANCH  65  68
ATOM     68  S   UNL A   1      42.819  27.316  25.420  1.00  0.00     0.127 S 
ATOM     69  O   UNL A   1      42.721  26.035  24.722  1.00  0.00    -0.237 OA
ATOM     70  O   UNL A   1      42.178  28.437  24.730  1.00  0.00    -0.237 OA
ATOM     71  O   UNL A   1      44.123  27.620  25.989  1.00  0.00    -0.744 OA
ENDBRANCH  65  68
ENDBRANCH  47  61
BRANCH  48  72
ATOM     72  C   UNL A   1      39.617  33.704  36.841  1.00  0.00     0.023 A 
ATOM     73  C   UNL A   1      40.103  35.026  36.814  1.00  0.00     0.012 A 
ATOM     74  C   UNL A   1      38.949  33.242  37.991  1.00  0.00     0.148 A 
ATOM     75  C   UNL A   1      39.960  35.861  37.922  1.00  0.00     0.002 A 
ATOM     76  C   UNL A   1      38.761  34.097  39.072  1.00  0.00     0.091 A 
ATOM     77  F   UNL A   1      38.497  31.981  37.999  1.00  0.00    -0.205 F 
ATOM     78  C   UNL A   1      39.282  35.400  39.048  1.00  0.00     0.022 A 
BRANCH  76  79
ATOM     79  S   UNL A   1      37.795  33.634  40.513  1.00  0.00     0.127 S 
ATOM     80  O   UNL A   1      36.538  33.201  39.908  1.00  0.00    -0.237 OA
ATOM     81  O   UNL A   1      38.606  32.558  41.085  1.00  0.00    -0.237 OA
ATOM     82  O   UNL A   1      37.716  34.832  41.340  1.00  0.00    -0.744 OA
ENDBRANCH  76  79
ENDBRANCH  48  72
BRANCH  60  83
ATOM     83  C   UNL A   1      44.150  28.632  35.223  1.00  0.00     0.023 A 
ATOM     84  C   UNL A   1      45.422  29.217  35.087  1.00  0.00     0.012 A 
ATOM     85  C   UNL A   1      43.968  27.566  36.129  1.00  0.00     0.148 A 
ATOM     86  C   UNL A   1      46.502  28.736  35.828  1.00  0.00     0.002 A 
ATOM     87  C   UNL A   1      45.035  27.130  36.902  1.00  0.00     0.091 A 
ATOM     88  F   UNL A   1      42.750  27.016  36.229  1.00  0.00    -0.205 F 
ATOM     89  C   UNL A   1      46.305  27.706  36.745  1.00  0.00     0.022 A 
BRANCH  87  90
ATOM     90  S   UNL A   1      44.851  25.886  38.185  1.00  0.00     0.127 S 
ATOM     91  O   UNL A   1      44.116  24.838  37.478  1.00  0.00    -0.237 OA
ATOM     92  O   UNL A   1      46.241  25.554  38.495  1.00  0.00    -0.237 OA
ATOM     93  O   UNL A   1      44.123  26.529  39.271  1.00  0.00    -0.744 OA
ENDBRANCH  87  90
ENDBRANCH  60  83
ENDBRANCH  34  35
ENDBRANCH  26  29
ENDBRANCH  24  25
ENDBRANCH  23  24
ENDBRANCH  22  23
ENDBRANCH  21  22
ENDBRANCH   1  21
TORSDOF 22
ENDMDL
