MODEL 1
REMARK VINA RESULT:     -10.6      0.000      0.000
REMARK SMILES CC[NH2+][C@H](CC[N@H+](C)C1CCC(C)(C)CC1)C(=O)NCCCCCCNC(=O)c1ccc(-c2c3nc(c(-c4cccc(S(=O)(=O)[O-])c4F)c4ccc([nH]4)c(-c4cccc(S(=O)(=O)[O-])c4F)c4nc(c(-c5cccc(S(=O)(=O)[O-])c5F)c5ccc2[nH]5)C=C4)C=C3)cc1
REMARK SMILES IDX 22 1 21 2 20 3 19 4 17 5 18 6 4 8 3 9 2 12 1 13 5 14 6 15
REMARK SMILES IDX 7 16 8 17 9 19 10 20 16 21 11 22 15 23 12 24 13 25 14 26
REMARK SMILES IDX 23 27 24 28 25 29 26 30 27 31 28 33 29 34 30 35 91 36 31 37
REMARK SMILES IDX 90 38 32 39 33 40 34 41 84 42 35 43 89 44 83 45 85 46 36 47
REMARK SMILES IDX 88 48 82 49 81 50 37 52 69 53 49 54 68 55 50 56 53 57 67 58
REMARK SMILES IDX 86 59 51 60 52 61 66 63 87 64 54 65 38 66 39 67 47 68 40 69
REMARK SMILES IDX 42 70 48 71 41 72 43 73 44 74 45 75 46 76 70 77 71 78 79 79
REMARK SMILES IDX 72 80 74 81 80 82 73 83 75 84 76 85 77 86 78 87 55 88 56 89
REMARK SMILES IDX 64 90 57 91 59 92 65 93 58 94 60 95 61 96 62 97 63 98
REMARK H PARENT 19 7 3 10 3 11 7 18 26 32 85 51 53 62
REMARK Flexibility Score: inf
ROOT
ATOM      1  C   UNL A   1      37.740  22.300  25.185  1.00  0.00     0.002 C 
ENDROOT
BRANCH   1   2
ATOM      2  C   UNL A   1      36.807  23.292  25.876  1.00  0.00     0.021 C 
BRANCH   2   3
ATOM      3  C   UNL A   1      35.289  23.148  25.763  1.00  0.00     0.116 C 
BRANCH   3   4
ATOM      4  N   UNL A   1      34.501  23.048  26.978  1.00  0.00    -0.351 N 
ATOM      5  C   UNL A   1      33.148  23.114  27.165  1.00  0.00     0.278 C 
ATOM      6  O   UNL A   1      32.687  22.432  28.090  1.00  0.00    -0.268 OA
ATOM      7  H   UNL A   1      35.025  22.908  27.800  1.00  0.00     0.163 HD
BRANCH   5   8
ATOM      8  C   UNL A   1      32.213  24.037  26.355  1.00  0.00     0.278 C 
BRANCH   8   9
ATOM      9  N   UNL A   1      32.052  25.393  26.959  1.00  0.00    -0.336 N 
ATOM     10  H   UNL A   1      31.591  25.267  27.861  1.00  0.00     0.346 HD
ATOM     11  H   UNL A   1      33.000  25.768  26.988  1.00  0.00     0.346 HD
BRANCH   9  12
ATOM     12  C   UNL A   1      31.292  26.396  26.225  1.00  0.00     0.257 C 
ATOM     13  C   UNL A   1      31.688  27.832  26.556  1.00  0.00     0.071 C 
ENDBRANCH   9  12
ENDBRANCH   8   9
BRANCH   8  14
ATOM     14  C   UNL A   1      30.940  23.367  25.807  1.00  0.00     0.137 C 
BRANCH  14  15
ATOM     15  C   UNL A   1      31.070  22.671  24.424  1.00  0.00     0.269 C 
BRANCH  15  16
ATOM     16  N   UNL A   1      32.273  21.983  23.904  1.00  0.00    -0.335 N 
ATOM     17  C   UNL A   1      32.624  22.496  22.574  1.00  0.00     0.332 C 
ATOM     18  H   UNL A   1      32.975  22.247  24.595  1.00  0.00     0.348 HD
BRANCH  16  19
ATOM     19  C   UNL A   1      32.415  20.524  24.027  1.00  0.00     0.183 C 
ATOM     20  C   UNL A   1      32.366  19.766  22.704  1.00  0.00     0.065 C 
ATOM     21  C   UNL A   1      33.700  20.137  24.809  1.00  0.00     0.065 C 
ATOM     22  C   UNL A   1      32.379  18.251  22.899  1.00  0.00     0.012 C 
ATOM     23  C   UNL A   1      34.289  18.754  24.463  1.00  0.00     0.012 C 
ATOM     24  C   UNL A   1      33.265  17.696  24.025  1.00  0.00    -0.035 C 
ATOM     25  C   UNL A   1      33.975  16.436  23.488  1.00  0.00     0.011 C 
ATOM     26  C   UNL A   1      32.406  17.242  25.223  1.00  0.00     0.011 C 
ENDBRANCH  16  19
ENDBRANCH  15  16
ENDBRANCH  14  15
ENDBRANCH   8  14
ENDBRANCH   5   8
ENDBRANCH   3   4
ENDBRANCH   2   3
ENDBRANCH   1   2
BRANCH   1  27
ATOM     27  C   UNL A   1      37.210  20.895  24.907  1.00  0.00     0.002 C 
BRANCH  27  28
ATOM     28  C   UNL A   1      38.271  19.803  24.957  1.00  0.00     0.021 C 
BRANCH  28  29
ATOM     29  C   UNL A   1      39.269  19.958  26.094  1.00  0.00     0.116 C 
BRANCH  29  30
ATOM     30  N   UNL A   1      40.508  19.211  25.892  1.00  0.00    -0.352 N 
ATOM     31  C   UNL A   1      41.791  19.689  26.051  1.00  0.00     0.251 C 
ATOM     32  H   UNL A   1      40.417  18.271  25.614  1.00  0.00     0.163 HD
ATOM     33  O   UNL A   1      42.773  19.017  25.804  1.00  0.00    -0.269 OA
BRANCH  31  34
ATOM     34  C   UNL A   1      41.907  21.084  26.513  1.00  0.00     0.039 A 
ATOM     35  C   UNL A   1      42.289  21.326  27.832  1.00  0.00     0.014 A 
ATOM     36  C   UNL A   1      41.871  22.104  25.559  1.00  0.00     0.014 A 
ATOM     37  C   UNL A   1      42.715  22.606  28.185  1.00  0.00     0.010 A 
ATOM     38  C   UNL A   1      42.372  23.352  25.896  1.00  0.00     0.010 A 
ATOM     39  C   UNL A   1      42.804  23.612  27.208  1.00  0.00    -0.014 A 
BRANCH  39  40
ATOM     40  C   UNL A   1      43.368  24.947  27.518  1.00  0.00     0.031 A 
ATOM     41  C   UNL A   1      42.463  26.022  28.050  1.00  0.00     0.074 A 
ATOM     42  C   UNL A   1      44.648  25.225  27.194  1.00  0.00     0.049 A 
ATOM     43  N   UNL A   1      42.729  27.280  28.278  1.00  0.00    -0.248 NA
ATOM     44  C   UNL A   1      41.066  25.644  28.322  1.00  0.00     0.031 C 
ATOM     45  C   UNL A   1      45.589  24.290  26.570  1.00  0.00     0.029 A 
ATOM     46  N   UNL A   1      45.366  26.390  27.303  1.00  0.00    -0.354 N 
ATOM     47  C   UNL A   1      41.523  27.853  28.660  1.00  0.00     0.074 A 
ATOM     48  C   UNL A   1      40.520  26.815  28.612  1.00  0.00     0.031 C 
ATOM     49  C   UNL A   1      46.754  24.920  26.345  1.00  0.00     0.029 A 
ATOM     50  C   UNL A   1      46.637  26.307  26.783  1.00  0.00     0.049 A 
ATOM     51  H   UNL A   1      45.006  27.208  27.717  1.00  0.00     0.167 HD
ATOM     52  C   UNL A   1      41.282  29.126  29.048  1.00  0.00     0.034 A 
ATOM     53  C   UNL A   1      47.594  27.250  26.659  1.00  0.00     0.034 A 
ATOM     54  C   UNL A   1      42.303  30.127  29.177  1.00  0.00     0.049 A 
ATOM     55  C   UNL A   1      47.317  28.637  27.176  1.00  0.00     0.074 A 
ATOM     56  C   UNL A   1      42.196  31.395  29.718  1.00  0.00     0.029 A 
ATOM     57  N   UNL A   1      43.612  29.976  28.753  1.00  0.00    -0.354 N 
ATOM     58  N   UNL A   1      46.231  29.102  27.743  1.00  0.00    -0.248 NA
ATOM     59  C   UNL A   1      48.405  29.621  27.067  1.00  0.00     0.031 C 
ATOM     60  C   UNL A   1      43.440  32.021  29.599  1.00  0.00     0.029 A 
ATOM     61  C   UNL A   1      44.321  31.138  28.997  1.00  0.00     0.049 A 
ATOM     62  H   UNL A   1      43.983  29.164  28.340  1.00  0.00     0.167 HD
ATOM     63  C   UNL A   1      46.510  30.422  28.076  1.00  0.00     0.074 A 
ATOM     64  C   UNL A   1      47.879  30.675  27.677  1.00  0.00     0.031 C 
ATOM     65  C   UNL A   1      45.700  31.351  28.640  1.00  0.00     0.034 A 
BRANCH  52  66
ATOM     66  C   UNL A   1      39.875  29.498  29.424  1.00  0.00     0.023 A 
ATOM     67  C   UNL A   1      38.928  29.754  28.411  1.00  0.00     0.012 A 
ATOM     68  C   UNL A   1      39.472  29.517  30.772  1.00  0.00     0.148 A 
ATOM     69  C   UNL A   1      37.605  30.044  28.735  1.00  0.00     0.002 A 
ATOM     70  C   UNL A   1      38.141  29.767  31.086  1.00  0.00     0.091 A 
ATOM     71  F   UNL A   1      40.394  29.295  31.719  1.00  0.00    -0.205 F 
ATOM     72  C   UNL A   1      37.209  30.038  30.070  1.00  0.00     0.022 A 
BRANCH  70  73
ATOM     73  S   UNL A   1      37.512  29.710  32.768  1.00  0.00     0.127 S 
ATOM     74  O   UNL A   1      37.493  28.270  33.025  1.00  0.00    -0.237 OA
ATOM     75  O   UNL A   1      38.540  30.447  33.502  1.00  0.00    -0.237 OA
ATOM     76  O   UNL A   1      36.206  30.351  32.732  1.00  0.00    -0.744 OA
ENDBRANCH  70  73
ENDBRANCH  52  66
BRANCH  53  77
ATOM     77  C   UNL A   1      48.917  26.907  26.063  1.00  0.00     0.023 A 
ATOM     78  C   UNL A   1      49.848  26.169  26.819  1.00  0.00     0.012 A 
ATOM     79  C   UNL A   1      49.257  27.299  24.753  1.00  0.00     0.148 A 
ATOM     80  C   UNL A   1      51.104  25.858  26.296  1.00  0.00     0.002 A 
ATOM     81  C   UNL A   1      50.489  26.939  24.219  1.00  0.00     0.091 A 
ATOM     82  F   UNL A   1      48.369  28.019  24.052  1.00  0.00    -0.205 F 
ATOM     83  C   UNL A   1      51.422  26.233  24.995  1.00  0.00     0.022 A 
BRANCH  81  84
ATOM     84  S   UNL A   1      50.912  27.269  22.504  1.00  0.00     0.127 S 
ATOM     85  O   UNL A   1      50.933  28.729  22.476  1.00  0.00    -0.237 OA
ATOM     86  O   UNL A   1      52.223  26.632  22.381  1.00  0.00    -0.237 OA
ATOM     87  O   UNL A   1      49.864  26.627  21.722  1.00  0.00    -0.744 OA
ENDBRANCH  81  84
ENDBRANCH  53  77
BRANCH  65  88
ATOM     88  C   UNL A   1      46.263  32.726  28.872  1.00  0.00     0.023 A 
ATOM     89  C   UNL A   1      47.038  32.970  30.022  1.00  0.00     0.012 A 
ATOM     90  C   UNL A   1      46.115  33.739  27.905  1.00  0.00     0.148 A 
ATOM     91  C   UNL A   1      47.644  34.210  30.216  1.00  0.00     0.002 A 
ATOM     92  C   UNL A   1      46.761  34.956  28.082  1.00  0.00     0.091 A 
ATOM     93  F   UNL A   1      45.360  33.487  26.826  1.00  0.00    -0.205 F 
ATOM     94  C   UNL A   1      47.517  35.196  29.241  1.00  0.00     0.022 A 
BRANCH  92  95
ATOM     95  S   UNL A   1      46.737  36.251  26.838  1.00  0.00     0.127 S 
ATOM     96  O   UNL A   1      47.280  35.556  25.673  1.00  0.00    -0.237 OA
ATOM     97  O   UNL A   1      45.312  36.570  26.750  1.00  0.00    -0.237 OA
ATOM     98  O   UNL A   1      47.566  37.329  27.363  1.00  0.00    -0.744 OA
ENDBRANCH  92  95
ENDBRANCH  65  88
ENDBRANCH  39  40
ENDBRANCH  31  34
ENDBRANCH  29  30
ENDBRANCH  28  29
ENDBRANCH  27  28
ENDBRANCH   1  27
TORSDOF 22
ENDMDL
MODEL 2
REMARK VINA RESULT:     -10.0      5.377      9.169
REMARK SMILES CC[NH2+][C@H](CC[N@H+](C)C1CCC(C)(C)CC1)C(=O)NCCCCCCNC(=O)c1ccc(-c2c3nc(c(-c4cccc(S(=O)(=O)[O-])c4F)c4ccc([nH]4)c(-c4cccc(S(=O)(=O)[O-])c4F)c4nc(c(-c5cccc(S(=O)(=O)[O-])c5F)c5ccc2[nH]5)C=C4)C=C3)cc1
REMARK SMILES IDX 22 1 21 2 20 3 19 4 17 5 18 6 4 8 3 9 2 12 1 13 5 14 6 15
REMARK SMILES IDX 7 16 8 17 9 19 10 20 16 21 11 22 15 23 12 24 13 25 14 26
REMARK SMILES IDX 23 27 24 28 25 29 26 30 27 31 28 33 29 34 30 35 91 36 31 37
REMARK SMILES IDX 90 38 32 39 33 40 34 41 84 42 35 43 89 44 83 45 85 46 36 47
REMARK SMILES IDX 88 48 82 49 81 50 37 52 69 53 49 54 68 55 50 56 53 57 67 58
REMARK SMILES IDX 86 59 51 60 52 61 66 63 87 64 54 65 38 66 39 67 47 68 40 69
REMARK SMILES IDX 42 70 48 71 41 72 43 73 44 74 45 75 46 76 70 77 71 78 79 79
REMARK SMILES IDX 72 80 74 81 80 82 73 83 75 84 76 85 77 86 78 87 55 88 56 89
REMARK SMILES IDX 64 90 57 91 59 92 65 93 58 94 60 95 61 96 62 97 63 98
REMARK H PARENT 19 7 3 10 3 11 7 18 26 32 85 51 53 62
REMARK Flexibility Score: inf
ROOT
ATOM      1  C   UNL A   1      32.263  26.527  26.567  1.00  0.00     0.002 C 
ENDROOT
BRANCH   1   2
ATOM      2  C   UNL A   1      33.409  26.451  25.561  1.00  0.00     0.021 C 
BRANCH   2   3
ATOM      3  C   UNL A   1      34.139  25.132  25.303  1.00  0.00     0.116 C 
BRANCH   3   4
ATOM      4  N   UNL A   1      34.374  24.716  23.933  1.00  0.00    -0.351 N 
ATOM      5  C   UNL A   1      33.497  24.300  22.969  1.00  0.00     0.278 C 
ATOM      6  O   UNL A   1      33.793  24.580  21.800  1.00  0.00    -0.268 OA
ATOM      7  H   UNL A   1      35.318  24.736  23.651  1.00  0.00     0.163 HD
BRANCH   5   8
ATOM      8  C   UNL A   1      32.241  23.452  23.259  1.00  0.00     0.278 C 
BRANCH   8   9
ATOM      9  N   UNL A   1      32.348  22.048  22.765  1.00  0.00    -0.336 N 
ATOM     10  H   UNL A   1      31.482  21.836  22.269  1.00  0.00     0.346 HD
ATOM     11  H   UNL A   1      33.200  22.046  22.202  1.00  0.00     0.346 HD
BRANCH   9  12
ATOM     12  C   UNL A   1      32.560  20.983  23.736  1.00  0.00     0.257 C 
ATOM     13  C   UNL A   1      33.582  21.328  24.815  1.00  0.00     0.071 C 
ENDBRANCH   9  12
ENDBRANCH   8   9
BRANCH   8  14
ATOM     14  C   UNL A   1      30.897  24.167  23.027  1.00  0.00     0.137 C 
BRANCH  14  15
ATOM     15  C   UNL A   1      30.938  25.720  23.011  1.00  0.00     0.269 C 
BRANCH  15  16
ATOM     16  N   UNL A   1      30.099  26.623  23.830  1.00  0.00    -0.335 N 
ATOM     17  C   UNL A   1      29.129  25.851  24.617  1.00  0.00     0.332 C 
ATOM     18  H   UNL A   1      30.796  27.060  24.433  1.00  0.00     0.348 HD
BRANCH  16  19
ATOM     19  C   UNL A   1      29.539  27.856  23.254  1.00  0.00     0.183 C 
ATOM     20  C   UNL A   1      28.068  28.099  23.576  1.00  0.00     0.065 C 
ATOM     21  C   UNL A   1      30.378  29.103  23.644  1.00  0.00     0.065 C 
ATOM     22  C   UNL A   1      27.504  29.314  22.842  1.00  0.00     0.012 C 
ATOM     23  C   UNL A   1      29.601  30.435  23.674  1.00  0.00     0.012 C 
ATOM     24  C   UNL A   1      28.427  30.532  22.688  1.00  0.00    -0.035 C 
ATOM     25  C   UNL A   1      27.587  31.797  22.959  1.00  0.00     0.011 C 
ATOM     26  C   UNL A   1      28.942  30.646  21.239  1.00  0.00     0.011 C 
ENDBRANCH  16  19
ENDBRANCH  15  16
ENDBRANCH  14  15
ENDBRANCH   8  14
ENDBRANCH   5   8
ENDBRANCH   3   4
ENDBRANCH   2   3
ENDBRANCH   1   2
BRANCH   1  27
ATOM     27  C   UNL A   1      32.085  27.824  27.353  1.00  0.00     0.002 C 
BRANCH  27  28
ATOM     28  C   UNL A   1      31.762  29.039  26.492  1.00  0.00     0.021 C 
BRANCH  28  29
ATOM     29  C   UNL A   1      32.932  29.992  26.299  1.00  0.00     0.116 C 
BRANCH  29  30
ATOM     30  N   UNL A   1      32.662  31.351  26.762  1.00  0.00    -0.352 N 
ATOM     31  C   UNL A   1      33.488  32.133  27.541  1.00  0.00     0.251 C 
ATOM     32  H   UNL A   1      31.804  31.748  26.489  1.00  0.00     0.163 HD
ATOM     33  O   UNL A   1      33.162  33.236  27.933  1.00  0.00    -0.269 OA
BRANCH  31  34
ATOM     34  C   UNL A   1      34.788  31.539  27.899  1.00  0.00     0.039 A 
ATOM     35  C   UNL A   1      35.893  32.377  28.048  1.00  0.00     0.014 A 
ATOM     36  C   UNL A   1      34.816  30.206  28.315  1.00  0.00     0.014 A 
ATOM     37  C   UNL A   1      37.027  31.887  28.695  1.00  0.00     0.010 A 
ATOM     38  C   UNL A   1      35.915  29.750  29.027  1.00  0.00     0.010 A 
ATOM     39  C   UNL A   1      37.025  30.587  29.229  1.00  0.00    -0.014 A 
BRANCH  39  40
ATOM     40  C   UNL A   1      38.164  30.076  30.029  1.00  0.00     0.031 A 
ATOM     41  C   UNL A   1      38.376  30.598  31.422  1.00  0.00     0.074 A 
ATOM     42  C   UNL A   1      39.071  29.257  29.457  1.00  0.00     0.049 A 
ATOM     43  N   UNL A   1      39.366  30.370  32.242  1.00  0.00    -0.248 NA
ATOM     44  C   UNL A   1      37.365  31.534  31.945  1.00  0.00     0.031 C 
ATOM     45  C   UNL A   1      39.025  28.772  28.075  1.00  0.00     0.029 A 
ATOM     46  N   UNL A   1      40.233  28.723  29.955  1.00  0.00    -0.354 N 
ATOM     47  C   UNL A   1      39.128  31.175  33.349  1.00  0.00     0.074 A 
ATOM     48  C   UNL A   1      37.916  31.916  33.088  1.00  0.00     0.031 C 
ATOM     49  C   UNL A   1      40.113  28.022  27.835  1.00  0.00     0.029 A 
ATOM     50  C   UNL A   1      40.945  27.991  29.032  1.00  0.00     0.049 A 
ATOM     51  H   UNL A   1      40.529  28.851  30.885  1.00  0.00     0.167 HD
ATOM     52  C   UNL A   1      39.842  31.264  34.494  1.00  0.00     0.034 A 
ATOM     53  C   UNL A   1      42.143  27.379  29.138  1.00  0.00     0.034 A 
ATOM     54  C   UNL A   1      40.995  30.458  34.779  1.00  0.00     0.049 A 
ATOM     55  C   UNL A   1      42.871  27.432  30.455  1.00  0.00     0.074 A 
ATOM     56  C   UNL A   1      41.691  30.349  35.969  1.00  0.00     0.029 A 
ATOM     57  N   UNL A   1      41.625  29.633  33.863  1.00  0.00    -0.354 N 
ATOM     58  N   UNL A   1      42.514  28.024  31.569  1.00  0.00    -0.248 NA
ATOM     59  C   UNL A   1      44.149  26.710  30.542  1.00  0.00     0.031 C 
ATOM     60  C   UNL A   1      42.761  29.472  35.764  1.00  0.00     0.029 A 
ATOM     61  C   UNL A   1      42.720  29.028  34.452  1.00  0.00     0.049 A 
ATOM     62  H   UNL A   1      41.338  29.498  32.932  1.00  0.00     0.167 HD
ATOM     63  C   UNL A   1      43.509  27.729  32.493  1.00  0.00     0.074 A 
ATOM     64  C   UNL A   1      44.468  26.879  31.819  1.00  0.00     0.031 C 
ATOM     65  C   UNL A   1      43.633  28.142  33.778  1.00  0.00     0.034 A 
BRANCH  52  66
ATOM     66  C   UNL A   1      39.365  32.217  35.554  1.00  0.00     0.023 A 
ATOM     67  C   UNL A   1      38.468  31.766  36.544  1.00  0.00     0.012 A 
ATOM     68  C   UNL A   1      39.864  33.532  35.616  1.00  0.00     0.148 A 
ATOM     69  C   UNL A   1      38.057  32.616  37.568  1.00  0.00     0.002 A 
ATOM     70  C   UNL A   1      39.482  34.361  36.664  1.00  0.00     0.091 A 
ATOM     71  F   UNL A   1      40.696  33.946  34.650  1.00  0.00    -0.205 F 
ATOM     72  C   UNL A   1      38.573  33.908  37.635  1.00  0.00     0.022 A 
BRANCH  70  73
ATOM     73  S   UNL A   1      40.144  36.016  36.884  1.00  0.00     0.127 S 
ATOM     74  O   UNL A   1      41.565  35.738  37.097  1.00  0.00    -0.237 OA
ATOM     75  O   UNL A   1      39.831  36.643  35.600  1.00  0.00    -0.237 OA
ATOM     76  O   UNL A   1      39.444  36.582  38.028  1.00  0.00    -0.744 OA
ENDBRANCH  70  73
ENDBRANCH  52  66
BRANCH  53  77
ATOM     77  C   UNL A   1      42.708  26.625  27.983  1.00  0.00     0.023 A 
ATOM     78  C   UNL A   1      43.500  27.301  27.035  1.00  0.00     0.012 A 
ATOM     79  C   UNL A   1      42.475  25.245  27.821  1.00  0.00     0.148 A 
ATOM     80  C   UNL A   1      44.019  26.625  25.929  1.00  0.00     0.002 A 
ATOM     81  C   UNL A   1      43.041  24.568  26.747  1.00  0.00     0.091 A 
ATOM     82  F   UNL A   1      41.703  24.619  28.721  1.00  0.00    -0.205 F 
ATOM     83  C   UNL A   1      43.799  25.258  25.789  1.00  0.00     0.022 A 
BRANCH  81  84
ATOM     84  S   UNL A   1      42.913  22.783  26.579  1.00  0.00     0.127 S 
ATOM     85  O   UNL A   1      41.562  22.627  26.048  1.00  0.00    -0.237 OA
ATOM     86  O   UNL A   1      43.986  22.484  25.630  1.00  0.00    -0.237 OA
ATOM     87  O   UNL A   1      43.142  22.256  27.918  1.00  0.00    -0.744 OA
ENDBRANCH  81  84
ENDBRANCH  53  77
BRANCH  65  88
ATOM     88  C   UNL A   1      44.838  27.681  34.551  1.00  0.00     0.023 A 
ATOM     89  C   UNL A   1      45.956  28.531  34.659  1.00  0.00     0.012 A 
ATOM     90  C   UNL A   1      44.821  26.461  35.255  1.00  0.00     0.148 A 
ATOM     91  C   UNL A   1      47.049  28.165  35.443  1.00  0.00     0.002 A 
ATOM     92  C   UNL A   1      45.893  26.125  36.071  1.00  0.00     0.091 A 
ATOM     93  F   UNL A   1      43.751  25.663  35.123  1.00  0.00    -0.205 F 
ATOM     94  C   UNL A   1      47.011  26.971  36.158  1.00  0.00     0.022 A 
BRANCH  92  95
ATOM     95  S   UNL A   1      45.895  24.657  37.105  1.00  0.00     0.127 S 
ATOM     96  O   UNL A   1      45.946  25.237  38.446  1.00  0.00    -0.237 OA
ATOM     97  O   UNL A   1      44.618  24.031  36.759  1.00  0.00    -0.237 OA
ATOM     98  O   UNL A   1      47.071  23.890  36.714  1.00  0.00    -0.744 OA
ENDBRANCH  92  95
ENDBRANCH  65  88
ENDBRANCH  39  40
ENDBRANCH  31  34
ENDBRANCH  29  30
ENDBRANCH  28  29
ENDBRANCH  27  28
ENDBRANCH   1  27
TORSDOF 22
ENDMDL
MODEL 3
REMARK VINA RESULT:      -9.8      5.424     10.462
REMARK SMILES CC[NH2+][C@H](CC[N@H+](C)C1CCC(C)(C)CC1)C(=O)NCCCCCCNC(=O)c1ccc(-c2c3nc(c(-c4cccc(S(=O)(=O)[O-])c4F)c4ccc([nH]4)c(-c4cccc(S(=O)(=O)[O-])c4F)c4nc(c(-c5cccc(S(=O)(=O)[O-])c5F)c5ccc2[nH]5)C=C4)C=C3)cc1
REMARK SMILES IDX 22 1 21 2 20 3 19 4 17 5 18 6 4 8 3 9 2 12 1 13 5 14 6 15
REMARK SMILES IDX 7 16 8 17 9 19 10 20 16 21 11 22 15 23 12 24 13 25 14 26
REMARK SMILES IDX 23 27 24 28 25 29 26 30 27 31 28 33 29 34 30 35 91 36 31 37
REMARK SMILES IDX 90 38 32 39 33 40 34 41 84 42 35 43 89 44 83 45 85 46 36 47
REMARK SMILES IDX 88 48 82 49 81 50 37 52 69 53 49 54 68 55 50 56 53 57 67 58
REMARK SMILES IDX 86 59 51 60 52 61 66 63 87 64 54 65 38 66 39 67 47 68 40 69
REMARK SMILES IDX 42 70 48 71 41 72 43 73 44 74 45 75 46 76 70 77 71 78 79 79
REMARK SMILES IDX 72 80 74 81 80 82 73 83 75 84 76 85 77 86 78 87 55 88 56 89
REMARK SMILES IDX 64 90 57 91 59 92 65 93 58 94 60 95 61 96 62 97 63 98
REMARK H PARENT 19 7 3 10 3 11 7 18 26 32 85 51 53 62
REMARK Flexibility Score: inf
ROOT
ATOM      1  C   UNL A   1      33.707  25.186  25.872  1.00  0.00     0.002 C 
ENDROOT
BRANCH   1   2
ATOM      2  C   UNL A   1      35.047  24.673  25.351  1.00  0.00     0.021 C 
BRANCH   2   3
ATOM      3  C   UNL A   1      35.169  23.271  24.752  1.00  0.00     0.116 C 
BRANCH   3   4
ATOM      4  N   UNL A   1      34.733  23.050  23.386  1.00  0.00    -0.351 N 
ATOM      5  C   UNL A   1      33.570  23.404  22.758  1.00  0.00     0.278 C 
ATOM      6  O   UNL A   1      33.656  23.665  21.550  1.00  0.00    -0.268 OA
ATOM      7  H   UNL A   1      35.379  22.568  22.819  1.00  0.00     0.163 HD
BRANCH   5   8
ATOM      8  C   UNL A   1      32.190  23.410  23.447  1.00  0.00     0.278 C 
BRANCH   8   9
ATOM      9  N   UNL A   1      31.760  22.062  23.922  1.00  0.00    -0.336 N 
ATOM     10  H   UNL A   1      30.790  21.937  23.634  1.00  0.00     0.346 HD
ATOM     11  H   UNL A   1      32.438  21.423  23.506  1.00  0.00     0.346 HD
BRANCH   9  12
ATOM     12  C   UNL A   1      31.825  21.774  25.349  1.00  0.00     0.257 C 
ATOM     13  C   UNL A   1      30.984  22.715  26.206  1.00  0.00     0.071 C 
ENDBRANCH   9  12
ENDBRANCH   8   9
BRANCH   8  14
ATOM     14  C   UNL A   1      31.117  24.277  22.762  1.00  0.00     0.137 C 
BRANCH  14  15
ATOM     15  C   UNL A   1      31.217  25.809  23.001  1.00  0.00     0.269 C 
BRANCH  15  16
ATOM     16  N   UNL A   1      30.292  26.627  23.816  1.00  0.00    -0.335 N 
ATOM     17  C   UNL A   1      29.313  25.771  24.498  1.00  0.00     0.332 C 
ATOM     18  H   UNL A   1      30.931  27.057  24.485  1.00  0.00     0.348 HD
BRANCH  16  19
ATOM     19  C   UNL A   1      29.711  27.867  23.276  1.00  0.00     0.183 C 
ATOM     20  C   UNL A   1      28.224  28.050  23.560  1.00  0.00     0.065 C 
ATOM     21  C   UNL A   1      30.497  29.121  23.748  1.00  0.00     0.065 C 
ATOM     22  C   UNL A   1      27.644  29.279  22.862  1.00  0.00     0.012 C 
ATOM     23  C   UNL A   1      29.677  30.426  23.811  1.00  0.00     0.012 C 
ATOM     24  C   UNL A   1      28.533  30.531  22.792  1.00  0.00    -0.035 C 
ATOM     25  C   UNL A   1      27.644  31.757  23.090  1.00  0.00     0.011 C 
ATOM     26  C   UNL A   1      29.090  30.726  21.367  1.00  0.00     0.011 C 
ENDBRANCH  16  19
ENDBRANCH  15  16
ENDBRANCH  14  15
ENDBRANCH   8  14
ENDBRANCH   5   8
ENDBRANCH   3   4
ENDBRANCH   2   3
ENDBRANCH   1   2
BRANCH   1  27
ATOM     27  C   UNL A   1      33.596  26.668  26.221  1.00  0.00     0.002 C 
BRANCH  27  28
ATOM     28  C   UNL A   1      33.794  27.607  25.038  1.00  0.00     0.021 C 
BRANCH  28  29
ATOM     29  C   UNL A   1      34.283  28.995  25.422  1.00  0.00     0.116 C 
BRANCH  29  30
ATOM     30  N   UNL A   1      33.206  29.965  25.608  1.00  0.00    -0.352 N 
ATOM     31  C   UNL A   1      33.066  30.848  26.656  1.00  0.00     0.251 C 
ATOM     32  H   UNL A   1      32.510  29.990  24.912  1.00  0.00     0.163 HD
ATOM     33  O   UNL A   1      32.106  31.585  26.766  1.00  0.00    -0.269 OA
BRANCH  31  34
ATOM     34  C   UNL A   1      34.143  30.828  27.663  1.00  0.00     0.039 A 
ATOM     35  C   UNL A   1      34.384  29.649  28.367  1.00  0.00     0.014 A 
ATOM     36  C   UNL A   1      35.036  31.901  27.699  1.00  0.00     0.014 A 
ATOM     37  C   UNL A   1      35.583  29.516  29.066  1.00  0.00     0.010 A 
ATOM     38  C   UNL A   1      36.259  31.732  28.329  1.00  0.00     0.010 A 
ATOM     39  C   UNL A   1      36.546  30.537  29.011  1.00  0.00    -0.014 A 
BRANCH  39  40
ATOM     40  C   UNL A   1      37.880  30.380  29.638  1.00  0.00     0.031 A 
ATOM     41  C   UNL A   1      38.895  29.479  28.991  1.00  0.00     0.074 A 
ATOM     42  C   UNL A   1      38.123  30.933  30.845  1.00  0.00     0.049 A 
ATOM     43  N   UNL A   1      40.069  29.117  29.431  1.00  0.00    -0.248 NA
ATOM     44  C   UNL A   1      38.522  28.872  27.701  1.00  0.00     0.031 C 
ATOM     45  C   UNL A   1      37.172  31.736  31.618  1.00  0.00     0.029 A 
ATOM     46  N   UNL A   1      39.230  30.865  31.654  1.00  0.00    -0.354 N 
ATOM     47  C   UNL A   1      40.548  28.199  28.505  1.00  0.00     0.074 A 
ATOM     48  C   UNL A   1      39.531  28.039  27.493  1.00  0.00     0.031 C 
ATOM     49  C   UNL A   1      37.734  32.078  32.789  1.00  0.00     0.029 A 
ATOM     50  C   UNL A   1      39.070  31.499  32.864  1.00  0.00     0.049 A 
ATOM     51  H   UNL A   1      40.061  30.406  31.391  1.00  0.00     0.167 HD
ATOM     52  C   UNL A   1      41.745  27.569  28.486  1.00  0.00     0.034 A 
ATOM     53  C   UNL A   1      39.904  31.588  33.921  1.00  0.00     0.034 A 
ATOM     54  C   UNL A   1      42.784  27.802  29.449  1.00  0.00     0.049 A 
ATOM     55  C   UNL A   1      41.261  30.941  33.831  1.00  0.00     0.074 A 
ATOM     56  C   UNL A   1      44.089  27.345  29.430  1.00  0.00     0.029 A 
ATOM     57  N   UNL A   1      42.632  28.548  30.606  1.00  0.00    -0.354 N 
ATOM     58  N   UNL A   1      41.782  30.255  32.843  1.00  0.00    -0.248 NA
ATOM     59  C   UNL A   1      42.158  31.105  34.986  1.00  0.00     0.031 C 
ATOM     60  C   UNL A   1      44.721  27.797  30.591  1.00  0.00     0.029 A 
ATOM     61  C   UNL A   1      43.814  28.545  31.324  1.00  0.00     0.049 A 
ATOM     62  H   UNL A   1      41.808  29.011  30.877  1.00  0.00     0.167 HD
ATOM     63  C   UNL A   1      43.070  29.924  33.245  1.00  0.00     0.074 A 
ATOM     64  C   UNL A   1      43.264  30.512  34.555  1.00  0.00     0.031 C 
ATOM     65  C   UNL A   1      44.003  29.181  32.602  1.00  0.00     0.034 A 
BRANCH  52  66
ATOM     66  C   UNL A   1      42.026  26.616  27.358  1.00  0.00     0.023 A 
ATOM     67  C   UNL A   1      42.656  27.088  26.189  1.00  0.00     0.012 A 
ATOM     68  C   UNL A   1      41.739  25.244  27.488  1.00  0.00     0.148 A 
ATOM     69  C   UNL A   1      42.977  26.212  25.154  1.00  0.00     0.002 A 
ATOM     70  C   UNL A   1      42.100  24.369  26.469  1.00  0.00     0.091 A 
ATOM     71  F   UNL A   1      41.118  24.822  28.598  1.00  0.00    -0.205 F 
ATOM     72  C   UNL A   1      42.711  24.853  25.300  1.00  0.00     0.022 A 
BRANCH  70  73
ATOM     73  S   UNL A   1      41.870  22.592  26.588  1.00  0.00     0.127 S 
ATOM     74  O   UNL A   1      40.413  22.480  26.522  1.00  0.00    -0.237 OA
ATOM     75  O   UNL A   1      42.573  22.113  25.398  1.00  0.00    -0.237 OA
ATOM     76  O   UNL A   1      42.467  22.192  27.854  1.00  0.00    -0.744 OA
ENDBRANCH  70  73
ENDBRANCH  52  66
BRANCH  53  77
ATOM     77  C   UNL A   1      39.503  32.355  35.135  1.00  0.00     0.023 A 
ATOM     78  C   UNL A   1      38.640  31.761  36.076  1.00  0.00     0.012 A 
ATOM     79  C   UNL A   1      39.975  33.661  35.368  1.00  0.00     0.148 A 
ATOM     80  C   UNL A   1      38.226  32.466  37.208  1.00  0.00     0.002 A 
ATOM     81  C   UNL A   1      39.602  34.337  36.525  1.00  0.00     0.091 A 
ATOM     82  F   UNL A   1      40.780  34.221  34.453  1.00  0.00    -0.205 F 
ATOM     83  C   UNL A   1      38.714  33.749  37.438  1.00  0.00     0.022 A 
BRANCH  81  84
ATOM     84  S   UNL A   1      40.299  35.937  36.954  1.00  0.00     0.127 S 
ATOM     85  O   UNL A   1      39.751  36.794  35.906  1.00  0.00    -0.237 OA
ATOM     86  O   UNL A   1      39.747  36.167  38.289  1.00  0.00    -0.237 OA
ATOM     87  O   UNL A   1      41.743  35.742  36.934  1.00  0.00    -0.744 OA
ENDBRANCH  81  84
ENDBRANCH  53  77
BRANCH  65  88
ATOM     88  C   UNL A   1      45.323  28.962  33.288  1.00  0.00     0.023 A 
ATOM     89  C   UNL A   1      46.353  29.908  33.124  1.00  0.00     0.012 A 
ATOM     90  C   UNL A   1      45.505  27.882  34.175  1.00  0.00     0.148 A 
ATOM     91  C   UNL A   1      47.553  29.773  33.819  1.00  0.00     0.002 A 
ATOM     92  C   UNL A   1      46.685  27.781  34.899  1.00  0.00     0.091 A 
ATOM     93  F   UNL A   1      44.515  26.986  34.302  1.00  0.00    -0.205 F 
ATOM     94  C   UNL A   1      47.713  28.719  34.715  1.00  0.00     0.022 A 
BRANCH  92  95
ATOM     95  S   UNL A   1      46.946  26.516  36.147  1.00  0.00     0.127 S 
ATOM     96  O   UNL A   1      48.383  26.626  36.389  1.00  0.00    -0.237 OA
ATOM     97  O   UNL A   1      46.103  26.987  37.247  1.00  0.00    -0.237 OA
ATOM     98  O   UNL A   1      46.510  25.262  35.546  1.00  0.00    -0.744 OA
ENDBRANCH  92  95
ENDBRANCH  65  88
ENDBRANCH  39  40
ENDBRANCH  31  34
ENDBRANCH  29  30
ENDBRANCH  28  29
ENDBRANCH  27  28
ENDBRANCH   1  27
TORSDOF 22
ENDMDL
