MODEL 1
REMARK VINA RESULT:     -12.0      0.000      0.000
REMARK SMILES Cc1ccc(C)c(-n2nc(C)c(/C=C(/C#N)C(=O)NCCCCCCNC(=O)c3ccc(-c4c5nc(c(-c6cccc(S(=O)(=O)[O-])c6F)c6ccc([nH]6)c(-c6cccc(S(=O)(=O)[O-])c6F)c6nc(c(-c7cccc(S(=O)(=O)[O-])c7F)c7ccc4[nH]7)C=C6)C=C5)cc3)c2Cl)c1
REMARK SMILES IDX 23 1 22 2 21 3 20 4 19 5 17 6 18 7 14 9 13 10 12 11 8 12
REMARK SMILES IDX 9 13 92 14 10 15 93 16 11 17 7 18 1 19 2 20 3 21 94 22 4 23
REMARK SMILES IDX 5 24 6 25 15 26 16 27 24 28 25 29 26 30 27 31 28 33 29 34
REMARK SMILES IDX 30 35 91 36 31 37 90 38 32 39 33 40 34 41 84 42 35 43 89 44
REMARK SMILES IDX 83 45 85 46 36 47 88 48 82 49 81 50 37 52 69 53 49 54 68 55
REMARK SMILES IDX 50 56 53 57 67 58 86 59 51 60 52 61 66 63 87 64 54 65 38 66
REMARK SMILES IDX 39 67 47 68 40 69 42 70 48 71 41 72 43 73 44 74 45 75 46 76
REMARK SMILES IDX 70 77 71 78 79 79 72 80 74 81 80 82 73 83 75 84 76 85 77 86
REMARK SMILES IDX 78 87 55 88 56 89 64 90 57 91 59 92 65 93 58 94 60 95 61 96
REMARK SMILES IDX 62 97 63 98
REMARK H PARENT 19 8 26 32 85 51 53 62
REMARK Flexibility Score: inf
ROOT
ATOM      1  C   UNL A   1      33.978  30.291  27.280  1.00  0.00     0.002 C 
ENDROOT
BRANCH   1   2
ATOM      2  C   UNL A   1      34.362  28.874  26.829  1.00  0.00     0.002 C 
BRANCH   2   3
ATOM      3  C   UNL A   1      33.200  27.983  26.379  1.00  0.00     0.021 C 
BRANCH   3   4
ATOM      4  C   UNL A   1      32.121  28.785  25.646  1.00  0.00     0.116 C 
BRANCH   4   5
ATOM      5  N   UNL A   1      32.651  29.231  24.363  1.00  0.00    -0.351 N 
ATOM      6  C   UNL A   1      32.390  28.842  23.079  1.00  0.00     0.261 C 
ATOM      7  O   UNL A   1      33.292  29.008  22.259  1.00  0.00    -0.268 OA
ATOM      8  H   UNL A   1      33.324  29.946  24.436  1.00  0.00     0.163 HD
BRANCH   6   9
ATOM      9  C   UNL A   1      31.038  28.353  22.670  1.00  0.00     0.117 C 
ATOM     10  C   UNL A   1      30.791  27.067  22.356  1.00  0.00     0.038 C 
BRANCH  10  11
ATOM     11  C   UNL A   1      31.674  25.923  22.316  1.00  0.00     0.036 A 
ATOM     12  N   UNL A   1      32.855  24.185  23.085  1.00  0.00    -0.221 N 
ATOM     13  N   UNL A   1      33.222  24.299  21.787  1.00  0.00    -0.171 NA
ATOM     14  C   UNL A   1      31.878  25.098  23.405  1.00  0.00     0.140 A 
ATOM     15  C   UNL A   1      32.501  25.326  21.308  1.00  0.00     0.069 A 
ATOM     16  Cl  UNL A   1      31.232  25.168  24.990  1.00  0.00    -0.061 Cl
ATOM     17  C   UNL A   1      32.678  25.619  19.860  1.00  0.00     0.069 C 
BRANCH  12  18
ATOM     18  C   UNL A   1      33.330  23.072  23.823  1.00  0.00     0.069 A 
ATOM     19  C   UNL A   1      32.528  19.349  24.016  1.00  0.00     0.044 C 
ATOM     20  C   UNL A   1      33.174  20.680  24.256  1.00  0.00    -0.049 A 
ATOM     21  C   UNL A   1      34.259  20.789  25.131  1.00  0.00     0.004 A 
ATOM     22  C   UNL A   1      32.704  21.831  23.615  1.00  0.00     0.032 A 
ATOM     23  C   UNL A   1      34.883  22.022  25.339  1.00  0.00     0.006 A 
ATOM     24  C   UNL A   1      34.440  23.182  24.681  1.00  0.00    -0.025 A 
ATOM     25  C   UNL A   1      35.140  24.474  25.008  1.00  0.00     0.047 C 
ENDBRANCH  12  18
ENDBRANCH  10  11
BRANCH   9  26
ATOM     26  C   UNL A   1      29.950  29.409  22.787  1.00  0.00     0.105 C 
ATOM     27  N   UNL A   1      29.048  30.285  22.885  1.00  0.00    -0.192 NA
ENDBRANCH   9  26
ENDBRANCH   6   9
ENDBRANCH   4   5
ENDBRANCH   3   4
ENDBRANCH   2   3
ENDBRANCH   1   2
BRANCH   1  28
ATOM     28  C   UNL A   1      35.084  31.304  27.633  1.00  0.00     0.021 C 
BRANCH  28  29
ATOM     29  C   UNL A   1      34.692  32.719  28.074  1.00  0.00     0.116 C 
BRANCH  29  30
ATOM     30  N   UNL A   1      34.486  32.830  29.512  1.00  0.00    -0.352 N 
ATOM     31  C   UNL A   1      35.082  32.248  30.611  1.00  0.00     0.251 C 
ATOM     32  H   UNL A   1      33.765  33.457  29.751  1.00  0.00     0.163 HD
ATOM     33  O   UNL A   1      34.528  32.369  31.695  1.00  0.00    -0.269 OA
BRANCH  31  34
ATOM     34  C   UNL A   1      36.364  31.503  30.525  1.00  0.00     0.039 A 
ATOM     35  C   UNL A   1      36.375  30.107  30.658  1.00  0.00     0.014 A 
ATOM     36  C   UNL A   1      37.572  32.168  30.372  1.00  0.00     0.014 A 
ATOM     37  C   UNL A   1      37.589  29.417  30.626  1.00  0.00     0.010 A 
ATOM     38  C   UNL A   1      38.759  31.496  30.242  1.00  0.00     0.010 A 
ATOM     39  C   UNL A   1      38.779  30.128  30.432  1.00  0.00    -0.014 A 
BRANCH  39  40
ATOM     40  C   UNL A   1      40.064  29.464  30.302  1.00  0.00     0.031 A 
ATOM     41  C   UNL A   1      40.744  29.191  31.588  1.00  0.00     0.074 A 
ATOM     42  C   UNL A   1      40.477  28.857  29.170  1.00  0.00     0.049 A 
ATOM     43  N   UNL A   1      41.784  29.784  32.066  1.00  0.00    -0.248 NA
ATOM     44  C   UNL A   1      40.108  28.244  32.515  1.00  0.00     0.031 C 
ATOM     45  C   UNL A   1      39.720  28.653  27.929  1.00  0.00     0.029 A 
ATOM     46  N   UNL A   1      41.621  28.151  28.953  1.00  0.00    -0.354 N 
ATOM     47  C   UNL A   1      42.083  29.101  33.242  1.00  0.00     0.074 A 
ATOM     48  C   UNL A   1      40.899  28.357  33.583  1.00  0.00     0.031 C 
ATOM     49  C   UNL A   1      40.319  27.689  27.196  1.00  0.00     0.029 A 
ATOM     50  C   UNL A   1      41.576  27.335  27.830  1.00  0.00     0.049 A 
ATOM     51  H   UNL A   1      42.409  28.213  29.539  1.00  0.00     0.167 HD
ATOM     52  C   UNL A   1      43.368  28.979  33.677  1.00  0.00     0.034 A 
ATOM     53  C   UNL A   1      42.493  26.406  27.471  1.00  0.00     0.034 A 
ATOM     54  C   UNL A   1      44.254  29.844  32.931  1.00  0.00     0.049 A 
ATOM     55  C   UNL A   1      43.743  26.725  28.198  1.00  0.00     0.074 A 
ATOM     56  C   UNL A   1      44.319  31.196  32.663  1.00  0.00     0.029 A 
ATOM     57  N   UNL A   1      45.064  29.230  32.006  1.00  0.00    -0.354 N 
ATOM     58  N   UNL A   1      44.479  27.777  27.968  1.00  0.00    -0.248 NA
ATOM     59  C   UNL A   1      44.014  26.040  29.453  1.00  0.00     0.031 C 
ATOM     60  C   UNL A   1      44.818  31.288  31.330  1.00  0.00     0.029 A 
ATOM     61  C   UNL A   1      45.076  29.994  30.871  1.00  0.00     0.049 A 
ATOM     62  H   UNL A   1      45.554  28.386  32.137  1.00  0.00     0.167 HD
ATOM     63  C   UNL A   1      44.968  28.139  29.215  1.00  0.00     0.074 A 
ATOM     64  C   UNL A   1      44.781  26.957  30.047  1.00  0.00     0.031 C 
ATOM     65  C   UNL A   1      45.194  29.451  29.532  1.00  0.00     0.034 A 
BRANCH  52  66
ATOM     66  C   UNL A   1      43.920  27.831  34.497  1.00  0.00     0.023 A 
ATOM     67  C   UNL A   1      44.722  28.173  35.611  1.00  0.00     0.012 A 
ATOM     68  C   UNL A   1      43.923  26.471  34.112  1.00  0.00     0.148 A 
ATOM     69  C   UNL A   1      45.530  27.234  36.259  1.00  0.00     0.002 A 
ATOM     70  C   UNL A   1      44.652  25.522  34.820  1.00  0.00     0.091 A 
ATOM     71  F   UNL A   1      43.337  26.087  32.975  1.00  0.00    -0.205 F 
ATOM     72  C   UNL A   1      45.488  25.903  35.871  1.00  0.00     0.022 A 
BRANCH  70  73
ATOM     73  S   UNL A   1      44.564  23.775  34.406  1.00  0.00     0.127 S 
ATOM     74  O   UNL A   1      45.372  23.720  33.192  1.00  0.00    -0.237 OA
ATOM     75  O   UNL A   1      45.171  23.154  35.584  1.00  0.00    -0.237 OA
ATOM     76  O   UNL A   1      43.143  23.487  34.250  1.00  0.00    -0.744 OA
ENDBRANCH  70  73
ENDBRANCH  52  66
BRANCH  53  77
ATOM     77  C   UNL A   1      42.362  25.183  26.649  1.00  0.00     0.023 A 
ATOM     78  C   UNL A   1      43.292  24.949  25.617  1.00  0.00     0.012 A 
ATOM     79  C   UNL A   1      41.504  24.124  27.024  1.00  0.00     0.148 A 
ATOM     80  C   UNL A   1      43.400  23.694  25.009  1.00  0.00     0.002 A 
ATOM     81  C   UNL A   1      41.606  22.879  26.408  1.00  0.00     0.091 A 
ATOM     82  F   UNL A   1      40.659  24.307  28.048  1.00  0.00    -0.205 F 
ATOM     83  C   UNL A   1      42.563  22.656  25.409  1.00  0.00     0.022 A 
BRANCH  81  84
ATOM     84  S   UNL A   1      40.564  21.491  26.883  1.00  0.00     0.127 S 
ATOM     85  O   UNL A   1      40.796  21.408  28.326  1.00  0.00    -0.237 OA
ATOM     86  O   UNL A   1      39.238  21.966  26.504  1.00  0.00    -0.237 OA
ATOM     87  O   UNL A   1      41.071  20.347  26.134  1.00  0.00    -0.744 OA
ENDBRANCH  81  84
ENDBRANCH  53  77
BRANCH  65  88
ATOM     88  C   UNL A   1      45.282  30.459  28.412  1.00  0.00     0.023 A 
ATOM     89  C   UNL A   1      44.139  31.022  27.807  1.00  0.00     0.012 A 
ATOM     90  C   UNL A   1      46.547  30.980  28.081  1.00  0.00     0.148 A 
ATOM     91  C   UNL A   1      44.258  32.058  26.875  1.00  0.00     0.002 A 
ATOM     92  C   UNL A   1      46.657  32.048  27.197  1.00  0.00     0.091 A 
ATOM     93  F   UNL A   1      47.631  30.437  28.657  1.00  0.00    -0.205 F 
ATOM     94  C   UNL A   1      45.515  32.582  26.583  1.00  0.00     0.022 A 
BRANCH  92  95
ATOM     95  S   UNL A   1      48.235  32.852  26.904  1.00  0.00     0.127 S 
ATOM     96  O   UNL A   1      49.071  31.739  26.465  1.00  0.00    -0.237 OA
ATOM     97  O   UNL A   1      47.911  33.823  25.856  1.00  0.00    -0.237 OA
ATOM     98  O   UNL A   1      48.606  33.461  28.176  1.00  0.00    -0.744 OA
ENDBRANCH  92  95
ENDBRANCH  65  88
ENDBRANCH  39  40
ENDBRANCH  31  34
ENDBRANCH  29  30
ENDBRANCH  28  29
ENDBRANCH   1  28
TORSDOF 19
ENDMDL
MODEL 2
REMARK VINA RESULT:     -12.0      1.425      2.216
REMARK SMILES Cc1ccc(C)c(-n2nc(C)c(/C=C(/C#N)C(=O)NCCCCCCNC(=O)c3ccc(-c4c5nc(c(-c6cccc(S(=O)(=O)[O-])c6F)c6ccc([nH]6)c(-c6cccc(S(=O)(=O)[O-])c6F)c6nc(c(-c7cccc(S(=O)(=O)[O-])c7F)c7ccc4[nH]7)C=C6)C=C5)cc3)c2Cl)c1
REMARK SMILES IDX 23 1 22 2 21 3 20 4 19 5 17 6 18 7 14 9 13 10 12 11 8 12
REMARK SMILES IDX 9 13 92 14 10 15 93 16 11 17 7 18 1 19 2 20 3 21 94 22 4 23
REMARK SMILES IDX 5 24 6 25 15 26 16 27 24 28 25 29 26 30 27 31 28 33 29 34
REMARK SMILES IDX 30 35 91 36 31 37 90 38 32 39 33 40 34 41 84 42 35 43 89 44
REMARK SMILES IDX 83 45 85 46 36 47 88 48 82 49 81 50 37 52 69 53 49 54 68 55
REMARK SMILES IDX 50 56 53 57 67 58 86 59 51 60 52 61 66 63 87 64 54 65 38 66
REMARK SMILES IDX 39 67 47 68 40 69 42 70 48 71 41 72 43 73 44 74 45 75 46 76
REMARK SMILES IDX 70 77 71 78 79 79 72 80 74 81 80 82 73 83 75 84 76 85 77 86
REMARK SMILES IDX 78 87 55 88 56 89 64 90 57 91 59 92 65 93 58 94 60 95 61 96
REMARK SMILES IDX 62 97 63 98
REMARK H PARENT 19 8 26 32 85 51 53 62
REMARK Flexibility Score: inf
ROOT
ATOM      1  C   UNL A   1      33.820  29.503  27.460  1.00  0.00     0.002 C 
ENDROOT
BRANCH   1   2
ATOM      2  C   UNL A   1      34.476  28.792  26.267  1.00  0.00     0.002 C 
BRANCH   2   3
ATOM      3  C   UNL A   1      33.706  28.864  24.945  1.00  0.00     0.021 C 
BRANCH   3   4
ATOM      4  C   UNL A   1      33.719  27.523  24.207  1.00  0.00     0.116 C 
BRANCH   4   5
ATOM      5  N   UNL A   1      32.347  27.062  24.034  1.00  0.00    -0.351 N 
ATOM      6  C   UNL A   1      31.599  26.135  24.706  1.00  0.00     0.261 C 
ATOM      7  O   UNL A   1      30.691  25.597  24.076  1.00  0.00    -0.268 OA
ATOM      8  H   UNL A   1      31.869  27.500  23.293  1.00  0.00     0.163 HD
BRANCH   6   9
ATOM      9  C   UNL A   1      31.801  25.878  26.165  1.00  0.00     0.117 C 
ATOM     10  C   UNL A   1      32.454  24.798  26.633  1.00  0.00     0.038 C 
BRANCH  10  11
ATOM     11  C   UNL A   1      33.067  23.693  25.931  1.00  0.00     0.036 A 
ATOM     12  N   UNL A   1      33.257  21.647  25.046  1.00  0.00    -0.221 N 
ATOM     13  N   UNL A   1      34.486  22.194  24.905  1.00  0.00    -0.171 NA
ATOM     14  C   UNL A   1      32.372  22.548  25.590  1.00  0.00     0.140 A 
ATOM     15  C   UNL A   1      34.378  23.433  25.413  1.00  0.00     0.069 A 
ATOM     16  Cl  UNL A   1      30.740  22.111  25.874  1.00  0.00    -0.061 Cl
ATOM     17  C   UNL A   1      35.599  24.278  25.319  1.00  0.00     0.069 C 
BRANCH  12  18
ATOM     18  C   UNL A   1      33.009  20.386  24.448  1.00  0.00     0.069 A 
ATOM     19  C   UNL A   1      33.332  16.732  25.488  1.00  0.00     0.044 C 
ATOM     20  C   UNL A   1      33.029  17.962  24.687  1.00  0.00    -0.049 A 
ATOM     21  C   UNL A   1      32.450  17.852  23.420  1.00  0.00     0.004 A 
ATOM     22  C   UNL A   1      33.320  19.234  25.191  1.00  0.00     0.032 A 
ATOM     23  C   UNL A   1      32.140  18.997  22.679  1.00  0.00     0.006 A 
ATOM     24  C   UNL A   1      32.400  20.282  23.183  1.00  0.00    -0.025 A 
ATOM     25  C   UNL A   1      32.081  21.453  22.293  1.00  0.00     0.047 C 
ENDBRANCH  12  18
ENDBRANCH  10  11
BRANCH   9  26
ATOM     26  C   UNL A   1      31.331  27.022  27.052  1.00  0.00     0.105 C 
ATOM     27  N   UNL A   1      30.942  27.969  27.788  1.00  0.00    -0.192 NA
ENDBRANCH   9  26
ENDBRANCH   6   9
ENDBRANCH   4   5
ENDBRANCH   3   4
ENDBRANCH   2   3
ENDBRANCH   1   2
BRANCH   1  28
ATOM     28  C   UNL A   1      33.388  30.975  27.326  1.00  0.00     0.021 C 
BRANCH  28  29
ATOM     29  C   UNL A   1      34.375  32.084  27.709  1.00  0.00     0.116 C 
BRANCH  29  30
ATOM     30  N   UNL A   1      34.285  32.466  29.112  1.00  0.00    -0.352 N 
ATOM     31  C   UNL A   1      34.983  32.112  30.247  1.00  0.00     0.251 C 
ATOM     32  H   UNL A   1      33.570  33.120  29.288  1.00  0.00     0.163 HD
ATOM     33  O   UNL A   1      34.516  32.433  31.331  1.00  0.00    -0.269 OA
BRANCH  31  34
ATOM     34  C   UNL A   1      36.273  31.378  30.195  1.00  0.00     0.039 A 
ATOM     35  C   UNL A   1      36.285  29.976  30.243  1.00  0.00     0.014 A 
ATOM     36  C   UNL A   1      37.483  32.054  30.159  1.00  0.00     0.014 A 
ATOM     37  C   UNL A   1      37.503  29.293  30.245  1.00  0.00     0.010 A 
ATOM     38  C   UNL A   1      38.681  31.395  30.062  1.00  0.00     0.010 A 
ATOM     39  C   UNL A   1      38.698  30.018  30.169  1.00  0.00    -0.014 A 
BRANCH  39  40
ATOM     40  C   UNL A   1      39.993  29.367  30.079  1.00  0.00     0.031 A 
ATOM     41  C   UNL A   1      40.648  29.126  31.384  1.00  0.00     0.074 A 
ATOM     42  C   UNL A   1      40.438  28.744  28.969  1.00  0.00     0.049 A 
ATOM     43  N   UNL A   1      41.671  29.740  31.873  1.00  0.00    -0.248 NA
ATOM     44  C   UNL A   1      40.004  28.189  32.316  1.00  0.00     0.031 C 
ATOM     45  C   UNL A   1      39.710  28.508  27.716  1.00  0.00     0.029 A 
ATOM     46  N   UNL A   1      41.594  28.047  28.789  1.00  0.00    -0.354 N 
ATOM     47  C   UNL A   1      41.952  29.084  33.068  1.00  0.00     0.074 A 
ATOM     48  C   UNL A   1      40.771  28.332  33.398  1.00  0.00     0.031 C 
ATOM     49  C   UNL A   1      40.336  27.537  27.014  1.00  0.00     0.029 A 
ATOM     50  C   UNL A   1      41.582  27.209  27.681  1.00  0.00     0.049 A 
ATOM     51  H   UNL A   1      42.368  28.129  29.391  1.00  0.00     0.167 HD
ATOM     52  C   UNL A   1      43.229  28.985  33.532  1.00  0.00     0.034 A 
ATOM     53  C   UNL A   1      42.517  26.285  27.360  1.00  0.00     0.034 A 
ATOM     54  C   UNL A   1      44.121  29.846  32.789  1.00  0.00     0.049 A 
ATOM     55  C   UNL A   1      43.748  26.633  28.107  1.00  0.00     0.074 A 
ATOM     56  C   UNL A   1      44.177  31.193  32.497  1.00  0.00     0.029 A 
ATOM     57  N   UNL A   1      44.958  29.225  31.893  1.00  0.00    -0.354 N 
ATOM     58  N   UNL A   1      44.476  27.689  27.872  1.00  0.00    -0.248 NA
ATOM     59  C   UNL A   1      44.000  25.974  29.380  1.00  0.00     0.031 C 
ATOM     60  C   UNL A   1      44.703  31.267  31.174  1.00  0.00     0.029 A 
ATOM     61  C   UNL A   1      44.985  29.967  30.744  1.00  0.00     0.049 A 
ATOM     62  H   UNL A   1      45.454  28.389  32.051  1.00  0.00     0.167 HD
ATOM     63  C   UNL A   1      44.935  28.080  29.122  1.00  0.00     0.074 A 
ATOM     64  C   UNL A   1      44.743  26.912  29.973  1.00  0.00     0.031 C 
ATOM     65  C   UNL A   1      45.138  29.400  29.419  1.00  0.00     0.034 A 
BRANCH  52  66
ATOM     66  C   UNL A   1      43.776  27.859  34.386  1.00  0.00     0.023 A 
ATOM     67  C   UNL A   1      44.489  28.232  35.550  1.00  0.00     0.012 A 
ATOM     68  C   UNL A   1      43.864  26.502  34.000  1.00  0.00     0.148 A 
ATOM     69  C   UNL A   1      45.293  27.327  36.249  1.00  0.00     0.002 A 
ATOM     70  C   UNL A   1      44.587  25.583  34.754  1.00  0.00     0.091 A 
ATOM     71  F   UNL A   1      43.372  26.097  32.828  1.00  0.00    -0.205 F 
ATOM     72  C   UNL A   1      45.335  25.996  35.857  1.00  0.00     0.022 A 
BRANCH  70  73
ATOM     73  S   UNL A   1      44.603  23.835  34.334  1.00  0.00     0.127 S 
ATOM     74  O   UNL A   1      43.202  23.475  34.523  1.00  0.00    -0.237 OA
ATOM     75  O   UNL A   1      45.055  23.863  32.943  1.00  0.00    -0.237 OA
ATOM     76  O   UNL A   1      45.557  23.227  35.255  1.00  0.00    -0.744 OA
ENDBRANCH  70  73
ENDBRANCH  52  66
BRANCH  53  77
ATOM     77  C   UNL A   1      42.418  25.045  26.558  1.00  0.00     0.023 A 
ATOM     78  C   UNL A   1      43.395  24.784  25.578  1.00  0.00     0.012 A 
ATOM     79  C   UNL A   1      41.536  24.000  26.914  1.00  0.00     0.148 A 
ATOM     80  C   UNL A   1      43.524  23.516  25.003  1.00  0.00     0.002 A 
ATOM     81  C   UNL A   1      41.659  22.742  26.330  1.00  0.00     0.091 A 
ATOM     82  F   UNL A   1      40.643  24.209  27.891  1.00  0.00    -0.205 F 
ATOM     83  C   UNL A   1      42.662  22.492  25.384  1.00  0.00     0.022 A 
BRANCH  81  84
ATOM     84  S   UNL A   1      40.586  21.369  26.784  1.00  0.00     0.127 S 
ATOM     85  O   UNL A   1      39.266  21.865  26.392  1.00  0.00    -0.237 OA
ATOM     86  O   UNL A   1      41.106  20.292  25.947  1.00  0.00    -0.237 OA
ATOM     87  O   UNL A   1      40.754  21.199  28.222  1.00  0.00    -0.744 OA
ENDBRANCH  81  84
ENDBRANCH  53  77
BRANCH  65  88
ATOM     88  C   UNL A   1      45.239  30.388  28.282  1.00  0.00     0.023 A 
ATOM     89  C   UNL A   1      44.104  30.888  27.609  1.00  0.00     0.012 A 
ATOM     90  C   UNL A   1      46.495  30.958  28.002  1.00  0.00     0.148 A 
ATOM     91  C   UNL A   1      44.225  31.908  26.661  1.00  0.00     0.002 A 
ATOM     92  C   UNL A   1      46.603  32.010  27.100  1.00  0.00     0.091 A 
ATOM     93  F   UNL A   1      47.571  30.474  28.643  1.00  0.00    -0.205 F 
ATOM     94  C   UNL A   1      45.471  32.482  26.419  1.00  0.00     0.022 A 
BRANCH  92  95
ATOM     95  S   UNL A   1      48.158  32.878  26.867  1.00  0.00     0.127 S 
ATOM     96  O   UNL A   1      48.405  33.429  28.197  1.00  0.00    -0.237 OA
ATOM     97  O   UNL A   1      49.069  31.801  26.473  1.00  0.00    -0.237 OA
ATOM     98  O   UNL A   1      47.908  33.853  25.813  1.00  0.00    -0.744 OA
ENDBRANCH  92  95
ENDBRANCH  65  88
ENDBRANCH  39  40
ENDBRANCH  31  34
ENDBRANCH  29  30
ENDBRANCH  28  29
ENDBRANCH   1  28
TORSDOF 19
ENDMDL
MODEL 3
REMARK VINA RESULT:     -11.9      3.341      8.839
REMARK SMILES Cc1ccc(C)c(-n2nc(C)c(/C=C(/C#N)C(=O)NCCCCCCNC(=O)c3ccc(-c4c5nc(c(-c6cccc(S(=O)(=O)[O-])c6F)c6ccc([nH]6)c(-c6cccc(S(=O)(=O)[O-])c6F)c6nc(c(-c7cccc(S(=O)(=O)[O-])c7F)c7ccc4[nH]7)C=C6)C=C5)cc3)c2Cl)c1
REMARK SMILES IDX 23 1 22 2 21 3 20 4 19 5 17 6 18 7 14 9 13 10 12 11 8 12
REMARK SMILES IDX 9 13 92 14 10 15 93 16 11 17 7 18 1 19 2 20 3 21 94 22 4 23
REMARK SMILES IDX 5 24 6 25 15 26 16 27 24 28 25 29 26 30 27 31 28 33 29 34
REMARK SMILES IDX 30 35 91 36 31 37 90 38 32 39 33 40 34 41 84 42 35 43 89 44
REMARK SMILES IDX 83 45 85 46 36 47 88 48 82 49 81 50 37 52 69 53 49 54 68 55
REMARK SMILES IDX 50 56 53 57 67 58 86 59 51 60 52 61 66 63 87 64 54 65 38 66
REMARK SMILES IDX 39 67 47 68 40 69 42 70 48 71 41 72 43 73 44 74 45 75 46 76
REMARK SMILES IDX 70 77 71 78 79 79 72 80 74 81 80 82 73 83 75 84 76 85 77 86
REMARK SMILES IDX 78 87 55 88 56 89 64 90 57 91 59 92 65 93 58 94 60 95 61 96
REMARK SMILES IDX 62 97 63 98
REMARK H PARENT 19 8 26 32 85 51 53 62
REMARK Flexibility Score: inf
ROOT
ATOM      1  C   UNL A   1      38.949  23.170  26.457  1.00  0.00     0.002 C 
ENDROOT
BRANCH   1   2
ATOM      2  C   UNL A   1      37.813  23.707  25.573  1.00  0.00     0.002 C 
BRANCH   2   3
ATOM      3  C   UNL A   1      36.396  23.502  26.117  1.00  0.00     0.021 C 
BRANCH   3   4
ATOM      4  C   UNL A   1      35.902  22.071  25.889  1.00  0.00     0.116 C 
BRANCH   4   5
ATOM      5  N   UNL A   1      34.931  21.733  26.923  1.00  0.00    -0.351 N 
ATOM      6  C   UNL A   1      33.571  21.601  26.895  1.00  0.00     0.261 C 
ATOM      7  O   UNL A   1      32.976  21.801  27.952  1.00  0.00    -0.268 OA
ATOM      8  H   UNL A   1      35.331  21.571  27.807  1.00  0.00     0.163 HD
BRANCH   6   9
ATOM      9  C   UNL A   1      32.857  21.121  25.672  1.00  0.00     0.117 C 
ATOM     10  C   UNL A   1      31.899  21.840  25.057  1.00  0.00     0.038 C 
BRANCH  10  11
ATOM     11  C   UNL A   1      31.340  23.133  25.381  1.00  0.00     0.036 A 
ATOM     12  N   UNL A   1      31.076  25.354  25.321  1.00  0.00    -0.221 N 
ATOM     13  N   UNL A   1      30.256  24.941  26.315  1.00  0.00    -0.171 NA
ATOM     14  C   UNL A   1      31.679  24.286  24.700  1.00  0.00     0.140 A 
ATOM     15  C   UNL A   1      30.389  23.605  26.345  1.00  0.00     0.069 A 
ATOM     16  Cl  UNL A   1      32.768  24.530  23.400  1.00  0.00    -0.061 Cl
ATOM     17  C   UNL A   1      29.530  22.893  27.330  1.00  0.00     0.069 C 
BRANCH  12  18
ATOM     18  C   UNL A   1      31.031  26.717  24.934  1.00  0.00     0.069 A 
ATOM     19  C   UNL A   1      28.843  28.865  22.667  1.00  0.00     0.044 C 
ATOM     20  C   UNL A   1      29.905  28.445  23.638  1.00  0.00    -0.049 A 
ATOM     21  C   UNL A   1      30.768  29.395  24.192  1.00  0.00     0.004 A 
ATOM     22  C   UNL A   1      30.050  27.103  24.003  1.00  0.00     0.032 A 
ATOM     23  C   UNL A   1      31.743  29.013  25.118  1.00  0.00     0.006 A 
ATOM     24  C   UNL A   1      31.884  27.673  25.516  1.00  0.00    -0.025 A 
ATOM     25  C   UNL A   1      32.995  27.349  26.479  1.00  0.00     0.047 C 
ENDBRANCH  12  18
ENDBRANCH  10  11
BRANCH   9  26
ATOM     26  C   UNL A   1      33.419  19.824  25.112  1.00  0.00     0.105 C 
ATOM     27  N   UNL A   1      33.885  18.749  24.647  1.00  0.00    -0.192 NA
ENDBRANCH   9  26
ENDBRANCH   6   9
ENDBRANCH   4   5
ENDBRANCH   3   4
ENDBRANCH   2   3
ENDBRANCH   1   2
BRANCH   1  28
ATOM     28  C   UNL A   1      39.556  21.786  26.161  1.00  0.00     0.021 C 
BRANCH  28  29
ATOM     29  C   UNL A   1      40.958  21.453  26.685  1.00  0.00     0.116 C 
BRANCH  29  30
ATOM     30  N   UNL A   1      42.013  21.795  25.741  1.00  0.00    -0.352 N 
ATOM     31  C   UNL A   1      42.624  22.976  25.375  1.00  0.00     0.251 C 
ATOM     32  H   UNL A   1      42.368  21.013  25.259  1.00  0.00     0.163 HD
ATOM     33  O   UNL A   1      43.327  22.972  24.374  1.00  0.00    -0.269 OA
BRANCH  31  34
ATOM     34  C   UNL A   1      42.471  24.230  26.156  1.00  0.00     0.039 A 
ATOM     35  C   UNL A   1      41.704  25.287  25.643  1.00  0.00     0.014 A 
ATOM     36  C   UNL A   1      43.123  24.407  27.367  1.00  0.00     0.014 A 
ATOM     37  C   UNL A   1      41.605  26.482  26.358  1.00  0.00     0.010 A 
ATOM     38  C   UNL A   1      42.956  25.536  28.124  1.00  0.00     0.010 A 
ATOM     39  C   UNL A   1      42.250  26.600  27.594  1.00  0.00    -0.014 A 
BRANCH  39  40
ATOM     40  C   UNL A   1      42.116  27.781  28.428  1.00  0.00     0.031 A 
ATOM     41  C   UNL A   1      43.086  28.857  28.124  1.00  0.00     0.074 A 
ATOM     42  C   UNL A   1      41.032  28.036  29.189  1.00  0.00     0.049 A 
ATOM     43  N   UNL A   1      44.102  29.219  28.831  1.00  0.00    -0.248 NA
ATOM     44  C   UNL A   1      42.998  29.512  26.811  1.00  0.00     0.031 C 
ATOM     45  C   UNL A   1      39.779  27.275  29.256  1.00  0.00     0.029 A 
ATOM     46  N   UNL A   1      40.767  29.132  29.952  1.00  0.00    -0.354 N 
ATOM     47  C   UNL A   1      44.629  30.325  28.169  1.00  0.00     0.074 A 
ATOM     48  C   UNL A   1      44.079  30.294  26.840  1.00  0.00     0.031 C 
ATOM     49  C   UNL A   1      38.820  28.044  29.817  1.00  0.00     0.029 A 
ATOM     50  C   UNL A   1      39.428  29.273  30.294  1.00  0.00     0.049 A 
ATOM     51  H   UNL A   1      41.462  29.769  30.235  1.00  0.00     0.167 HD
ATOM     52  C   UNL A   1      45.243  31.328  28.856  1.00  0.00     0.034 A 
ATOM     53  C   UNL A   1      38.857  30.343  30.893  1.00  0.00     0.034 A 
ATOM     54  C   UNL A   1      45.485  30.947  30.229  1.00  0.00     0.049 A 
ATOM     55  C   UNL A   1      39.947  31.119  31.530  1.00  0.00     0.074 A 
ATOM     56  C   UNL A   1      46.140  29.913  30.865  1.00  0.00     0.029 A 
ATOM     57  N   UNL A   1      44.662  31.517  31.171  1.00  0.00    -0.354 N 
ATOM     58  N   UNL A   1      40.639  30.707  32.556  1.00  0.00    -0.248 NA
ATOM     59  C   UNL A   1      40.522  32.239  30.801  1.00  0.00     0.031 C 
ATOM     60  C   UNL A   1      45.365  29.641  32.030  1.00  0.00     0.029 A 
ATOM     61  C   UNL A   1      44.304  30.550  32.071  1.00  0.00     0.049 A 
ATOM     62  H   UNL A   1      44.379  32.460  31.195  1.00  0.00     0.167 HD
ATOM     63  C   UNL A   1      41.917  31.201  32.334  1.00  0.00     0.074 A 
ATOM     64  C   UNL A   1      41.744  32.252  31.339  1.00  0.00     0.031 C 
ATOM     65  C   UNL A   1      43.023  30.509  32.747  1.00  0.00     0.034 A 
BRANCH  52  66
ATOM     66  C   UNL A   1      45.295  32.784  28.438  1.00  0.00     0.023 A 
ATOM     67  C   UNL A   1      46.559  33.416  28.494  1.00  0.00     0.012 A 
ATOM     68  C   UNL A   1      44.176  33.627  28.248  1.00  0.00     0.148 A 
ATOM     69  C   UNL A   1      46.696  34.807  28.434  1.00  0.00     0.002 A 
ATOM     70  C   UNL A   1      44.326  35.001  28.091  1.00  0.00     0.091 A 
ATOM     71  F   UNL A   1      42.937  33.142  28.355  1.00  0.00    -0.205 F 
ATOM     72  C   UNL A   1      45.578  35.601  28.221  1.00  0.00     0.022 A 
BRANCH  70  73
ATOM     73  S   UNL A   1      42.918  36.059  27.730  1.00  0.00     0.127 S 
ATOM     74  O   UNL A   1      42.463  35.518  26.454  1.00  0.00    -0.237 OA
ATOM     75  O   UNL A   1      42.038  35.789  28.868  1.00  0.00    -0.237 OA
ATOM     76  O   UNL A   1      43.454  37.416  27.704  1.00  0.00    -0.744 OA
ENDBRANCH  70  73
ENDBRANCH  52  66
BRANCH  53  77
ATOM     77  C   UNL A   1      37.463  30.838  30.868  1.00  0.00     0.023 A 
ATOM     78  C   UNL A   1      36.814  31.118  32.087  1.00  0.00     0.012 A 
ATOM     79  C   UNL A   1      36.854  31.282  29.673  1.00  0.00     0.148 A 
ATOM     80  C   UNL A   1      35.625  31.854  32.123  1.00  0.00     0.002 A 
ATOM     81  C   UNL A   1      35.664  32.004  29.711  1.00  0.00     0.091 A 
ATOM     82  F   UNL A   1      37.489  31.084  28.510  1.00  0.00    -0.205 F 
ATOM     83  C   UNL A   1      35.053  32.305  30.937  1.00  0.00     0.022 A 
BRANCH  81  84
ATOM     84  S   UNL A   1      34.875  32.627  28.218  1.00  0.00     0.127 S 
ATOM     85  O   UNL A   1      34.547  31.392  27.503  1.00  0.00    -0.237 OA
ATOM     86  O   UNL A   1      33.724  33.341  28.760  1.00  0.00    -0.237 OA
ATOM     87  O   UNL A   1      35.882  33.447  27.555  1.00  0.00    -0.744 OA
ENDBRANCH  81  84
ENDBRANCH  53  77
BRANCH  65  88
ATOM     88  C   UNL A   1      42.849  29.416  33.774  1.00  0.00     0.023 A 
ATOM     89  C   UNL A   1      42.205  28.196  33.482  1.00  0.00     0.012 A 
ATOM     90  C   UNL A   1      43.504  29.555  35.012  1.00  0.00     0.148 A 
ATOM     91  C   UNL A   1      42.191  27.153  34.413  1.00  0.00     0.002 A 
ATOM     92  C   UNL A   1      43.535  28.495  35.911  1.00  0.00     0.091 A 
ATOM     93  F   UNL A   1      44.111  30.721  35.285  1.00  0.00    -0.205 F 
ATOM     94  C   UNL A   1      42.870  27.296  35.620  1.00  0.00     0.022 A 
BRANCH  92  95
ATOM     95  S   UNL A   1      44.520  28.579  37.410  1.00  0.00     0.127 S 
ATOM     96  O   UNL A   1      45.881  28.615  36.883  1.00  0.00    -0.237 OA
ATOM     97  O   UNL A   1      44.068  29.831  38.022  1.00  0.00    -0.237 OA
ATOM     98  O   UNL A   1      44.169  27.389  38.177  1.00  0.00    -0.744 OA
ENDBRANCH  92  95
ENDBRANCH  65  88
ENDBRANCH  39  40
ENDBRANCH  31  34
ENDBRANCH  29  30
ENDBRANCH  28  29
ENDBRANCH   1  28
TORSDOF 19
ENDMDL
