MODEL 1
REMARK VINA RESULT:     -10.7      0.000      0.000
REMARK SMILES [NH3+]C[C@H]1CC[C@@H](C(=O)N[C@@H]2C=C[C@@H](C(=O)NCCCCCCNC(=O)c3ccc(-c4c5nc(c(-c6cccc(S(=O)(=O)[O-])c6F)c6ccc([nH]6)c(-c6cccc(S(=O)(=O)[O-])c6F)c6nc(c(-c7cccc(S(=O)(=O)[O-])c7F)c7ccc4[nH]7)C=C6)C=C5)cc3)C2)CC1
REMARK SMILES IDX 19 1 18 2 17 3 16 4 14 5 15 6 13 8 10 9 11 10 89 11 12 12
REMARK SMILES IDX 9 13 7 14 8 15 6 17 3 18 4 19 91 20 5 21 90 22 2 23 1 24
REMARK SMILES IDX 20 28 21 29 22 30 23 31 24 32 25 34 26 35 27 36 88 37 28 38
REMARK SMILES IDX 87 39 29 40 30 41 31 42 81 43 32 44 86 45 80 46 82 47 33 48
REMARK SMILES IDX 85 49 79 50 78 51 34 53 66 54 46 55 65 56 47 57 50 58 64 59
REMARK SMILES IDX 83 60 48 61 49 62 63 64 84 65 51 66 35 67 36 68 44 69 37 70
REMARK SMILES IDX 39 71 45 72 38 73 40 74 41 75 42 76 43 77 67 78 68 79 76 80
REMARK SMILES IDX 69 81 71 82 77 83 70 84 72 85 73 86 74 87 75 88 52 89 53 90
REMARK SMILES IDX 61 91 54 92 56 93 62 94 55 95 57 96 58 97 59 98 60 99
REMARK H PARENT 16 7 9 16 1 25 1 26 1 27 23 33 82 52 50 63
REMARK Flexibility Score: inf
ROOT
ATOM      1  C   UNL A   1      34.678  31.829  28.352  1.00  0.00     0.002 C 
ENDROOT
BRANCH   1   2
ATOM      2  C   UNL A   1      33.621  31.178  27.458  1.00  0.00     0.021 C 
BRANCH   2   3
ATOM      3  C   UNL A   1      33.998  29.803  26.879  1.00  0.00     0.116 C 
BRANCH   3   4
ATOM      4  N   UNL A   1      33.661  29.734  25.453  1.00  0.00    -0.356 N 
ATOM      5  C   UNL A   1      33.157  28.872  24.543  1.00  0.00     0.227 C 
ATOM      6  O   UNL A   1      33.202  29.328  23.384  1.00  0.00    -0.274 OA
ATOM      7  H   UNL A   1      33.869  30.593  25.019  1.00  0.00     0.163 HD
BRANCH   5   8
ATOM      8  C   UNL A   1      32.547  27.407  24.685  1.00  0.00     0.103 C 
ATOM      9  C   UNL A   1      30.231  25.903  26.449  1.00  0.00     0.106 C 
ATOM     10  C   UNL A   1      29.936  25.857  24.674  1.00  0.00    -0.006 C 
ATOM     11  C   UNL A   1      31.939  26.961  26.551  1.00  0.00     0.047 C 
ATOM     12  C   UNL A   1      31.171  26.503  23.576  1.00  0.00    -0.016 C 
BRANCH   9  13
ATOM     13  N   UNL A   1      29.888  24.376  26.420  1.00  0.00    -0.350 N 
ATOM     14  C   UNL A   1      30.831  23.254  26.262  1.00  0.00     0.223 C 
ATOM     15  O   UNL A   1      30.410  22.195  25.792  1.00  0.00    -0.275 OA
ATOM     16  H   UNL A   1      28.937  24.139  26.516  1.00  0.00     0.164 HD
BRANCH  14  17
ATOM     17  C   UNL A   1      32.472  23.377  26.839  1.00  0.00     0.078 C 
ATOM     18  C   UNL A   1      33.256  20.559  24.377  1.00  0.00     0.044 C 
ATOM     19  C   UNL A   1      32.926  22.745  24.005  1.00  0.00     0.010 C 
ATOM     20  C   UNL A   1      33.653  20.259  26.352  1.00  0.00     0.010 C 
ATOM     21  C   UNL A   1      33.041  23.970  25.425  1.00  0.00     0.014 C 
ATOM     22  C   UNL A   1      33.433  21.841  27.488  1.00  0.00     0.014 C 
BRANCH  18  23
ATOM     23  C   UNL A   1      32.528  19.113  24.034  1.00  0.00     0.262 C 
BRANCH  23  24
ATOM     24  N   UNL A   1      33.345  18.029  23.500  1.00  0.00    -0.357 N 
ATOM     25  H   UNL A   1      32.777  17.185  23.417  1.00  0.00     0.344 HD
ATOM     26  H   UNL A   1      34.128  17.851  24.128  1.00  0.00     0.344 HD
ATOM     27  H   UNL A   1      33.699  18.292  22.580  1.00  0.00     0.344 HD
ENDBRANCH  23  24
ENDBRANCH  18  23
ENDBRANCH  14  17
ENDBRANCH   9  13
ENDBRANCH   5   8
ENDBRANCH   3   4
ENDBRANCH   2   3
ENDBRANCH   1   2
BRANCH   1  28
ATOM     28  C   UNL A   1      34.825  33.343  28.198  1.00  0.00     0.002 C 
BRANCH  28  29
ATOM     29  C   UNL A   1      33.539  34.151  28.379  1.00  0.00     0.021 C 
BRANCH  29  30
ATOM     30  C   UNL A   1      33.746  35.598  28.824  1.00  0.00     0.116 C 
BRANCH  30  31
ATOM     31  N   UNL A   1      32.932  35.921  29.987  1.00  0.00    -0.352 N 
ATOM     32  C   UNL A   1      32.976  35.373  31.245  1.00  0.00     0.251 C 
ATOM     33  H   UNL A   1      32.259  36.626  29.853  1.00  0.00     0.163 HD
ATOM     34  O   UNL A   1      32.045  35.537  32.027  1.00  0.00    -0.269 OA
BRANCH  32  35
ATOM     35  C   UNL A   1      34.162  34.593  31.646  1.00  0.00     0.039 A 
ATOM     36  C   UNL A   1      34.026  33.238  31.949  1.00  0.00     0.014 A 
ATOM     37  C   UNL A   1      35.409  35.220  31.729  1.00  0.00     0.014 A 
ATOM     38  C   UNL A   1      35.157  32.496  32.298  1.00  0.00     0.010 A 
ATOM     39  C   UNL A   1      36.541  34.464  32.000  1.00  0.00     0.010 A 
ATOM     40  C   UNL A   1      36.425  33.101  32.308  1.00  0.00    -0.014 A 
BRANCH  40  41
ATOM     41  C   UNL A   1      37.647  32.339  32.665  1.00  0.00     0.031 A 
ATOM     42  C   UNL A   1      38.296  32.563  34.004  1.00  0.00     0.074 A 
ATOM     43  C   UNL A   1      38.219  31.526  31.757  1.00  0.00     0.049 A 
ATOM     44  N   UNL A   1      39.409  32.067  34.476  1.00  0.00    -0.248 NA
ATOM     45  C   UNL A   1      37.620  33.495  34.924  1.00  0.00     0.031 C 
ATOM     46  C   UNL A   1      37.715  31.280  30.405  1.00  0.00     0.029 A 
ATOM     47  N   UNL A   1      39.365  30.777  31.826  1.00  0.00    -0.354 N 
ATOM     48  C   UNL A   1      39.586  32.653  35.724  1.00  0.00     0.074 A 
ATOM     49  C   UNL A   1      38.489  33.574  35.919  1.00  0.00     0.031 C 
ATOM     50  C   UNL A   1      38.543  30.432  29.775  1.00  0.00     0.029 A 
ATOM     51  C   UNL A   1      39.654  30.102  30.663  1.00  0.00     0.049 A 
ATOM     52  H   UNL A   1      39.930  30.726  32.632  1.00  0.00     0.167 HD
ATOM     53  C   UNL A   1      40.557  32.423  36.640  1.00  0.00     0.034 A 
ATOM     54  C   UNL A   1      40.699  29.313  30.348  1.00  0.00     0.034 A 
ATOM     55  C   UNL A   1      41.624  31.478  36.452  1.00  0.00     0.049 A 
ATOM     56  C   UNL A   1      41.758  29.060  31.387  1.00  0.00     0.074 A 
ATOM     57  C   UNL A   1      42.614  31.108  37.342  1.00  0.00     0.029 A 
ATOM     58  N   UNL A   1      41.842  30.758  35.287  1.00  0.00    -0.354 N 
ATOM     59  N   UNL A   1      41.832  29.511  32.617  1.00  0.00    -0.248 NA
ATOM     60  C   UNL A   1      42.859  28.163  31.010  1.00  0.00     0.031 C 
ATOM     61  C   UNL A   1      43.450  30.185  36.704  1.00  0.00     0.029 A 
ATOM     62  C   UNL A   1      42.958  29.953  35.430  1.00  0.00     0.049 A 
ATOM     63  H   UNL A   1      41.285  30.811  34.476  1.00  0.00     0.167 HD
ATOM     64  C   UNL A   1      42.959  28.918  33.174  1.00  0.00     0.074 A 
ATOM     65  C   UNL A   1      43.531  28.067  32.150  1.00  0.00     0.031 C 
ATOM     66  C   UNL A   1      43.478  29.068  34.418  1.00  0.00     0.034 A 
BRANCH  53  67
ATOM     67  C   UNL A   1      40.481  33.178  37.942  1.00  0.00     0.023 A 
ATOM     68  C   UNL A   1      39.652  32.701  38.979  1.00  0.00     0.012 A 
ATOM     69  C   UNL A   1      41.248  34.341  38.155  1.00  0.00     0.148 A 
ATOM     70  C   UNL A   1      39.548  33.392  40.185  1.00  0.00     0.002 A 
ATOM     71  C   UNL A   1      41.178  34.997  39.379  1.00  0.00     0.091 A 
ATOM     72  F   UNL A   1      42.015  34.794  37.153  1.00  0.00    -0.205 F 
ATOM     73  C   UNL A   1      40.317  34.534  40.388  1.00  0.00     0.022 A 
BRANCH  71  74
ATOM     74  S   UNL A   1      42.191  36.428  39.768  1.00  0.00     0.127 S 
ATOM     75  O   UNL A   1      41.826  37.349  38.693  1.00  0.00    -0.237 OA
ATOM     76  O   UNL A   1      41.692  36.807  41.091  1.00  0.00    -0.237 OA
ATOM     77  O   UNL A   1      43.569  35.960  39.752  1.00  0.00    -0.744 OA
ENDBRANCH  71  74
ENDBRANCH  53  67
BRANCH  54  78
ATOM     78  C   UNL A   1      40.756  28.643  29.017  1.00  0.00     0.023 A 
ATOM     79  C   UNL A   1      41.325  29.331  27.927  1.00  0.00     0.012 A 
ATOM     80  C   UNL A   1      40.282  27.331  28.829  1.00  0.00     0.148 A 
ATOM     81  C   UNL A   1      41.390  28.737  26.666  1.00  0.00     0.002 A 
ATOM     82  C   UNL A   1      40.400  26.725  27.583  1.00  0.00     0.091 A 
ATOM     83  F   UNL A   1      39.740  26.696  29.878  1.00  0.00    -0.205 F 
ATOM     84  C   UNL A   1      40.937  27.432  26.496  1.00  0.00     0.022 A 
BRANCH  82  85
ATOM     85  S   UNL A   1      39.962  25.006  27.300  1.00  0.00     0.127 S 
ATOM     86  O   UNL A   1      38.529  25.013  27.586  1.00  0.00    -0.237 OA
ATOM     87  O   UNL A   1      40.309  24.836  25.889  1.00  0.00    -0.237 OA
ATOM     88  O   UNL A   1      40.785  24.232  28.219  1.00  0.00    -0.744 OA
ENDBRANCH  82  85
ENDBRANCH  54  78
BRANCH  66  89
ATOM     89  C   UNL A   1      44.696  28.257  34.772  1.00  0.00     0.023 A 
ATOM     90  C   UNL A   1      45.982  28.818  34.638  1.00  0.00     0.012 A 
ATOM     91  C   UNL A   1      44.556  26.969  35.326  1.00  0.00     0.148 A 
ATOM     92  C   UNL A   1      47.111  28.096  35.025  1.00  0.00     0.002 A 
ATOM     93  C   UNL A   1      45.679  26.279  35.758  1.00  0.00     0.091 A 
ATOM     94  F   UNL A   1      43.324  26.449  35.427  1.00  0.00    -0.205 F 
ATOM     95  C   UNL A   1      46.959  26.835  35.598  1.00  0.00     0.022 A 
BRANCH  93  96
ATOM     96  S   UNL A   1      45.574  24.695  36.600  1.00  0.00     0.127 S 
ATOM     97  O   UNL A   1      45.934  23.765  35.531  1.00  0.00    -0.237 OA
ATOM     98  O   UNL A   1      46.583  24.838  37.651  1.00  0.00    -0.237 OA
ATOM     99  O   UNL A   1      44.206  24.586  37.085  1.00  0.00    -0.744 OA
ENDBRANCH  93  96
ENDBRANCH  66  89
ENDBRANCH  40  41
ENDBRANCH  32  35
ENDBRANCH  30  31
ENDBRANCH  29  30
ENDBRANCH  28  29
ENDBRANCH   1  28
TORSDOF 20
ENDMDL
MODEL 2
REMARK VINA RESULT:     -10.4      3.175      8.722
REMARK SMILES [NH3+]C[C@H]1CC[C@@H](C(=O)N[C@@H]2C=C[C@@H](C(=O)NCCCCCCNC(=O)c3ccc(-c4c5nc(c(-c6cccc(S(=O)(=O)[O-])c6F)c6ccc([nH]6)c(-c6cccc(S(=O)(=O)[O-])c6F)c6nc(c(-c7cccc(S(=O)(=O)[O-])c7F)c7ccc4[nH]7)C=C6)C=C5)cc3)C2)CC1
REMARK SMILES IDX 19 1 18 2 17 3 16 4 14 5 15 6 13 8 10 9 11 10 89 11 12 12
REMARK SMILES IDX 9 13 7 14 8 15 6 17 3 18 4 19 91 20 5 21 90 22 2 23 1 24
REMARK SMILES IDX 20 28 21 29 22 30 23 31 24 32 25 34 26 35 27 36 88 37 28 38
REMARK SMILES IDX 87 39 29 40 30 41 31 42 81 43 32 44 86 45 80 46 82 47 33 48
REMARK SMILES IDX 85 49 79 50 78 51 34 53 66 54 46 55 65 56 47 57 50 58 64 59
REMARK SMILES IDX 83 60 48 61 49 62 63 64 84 65 51 66 35 67 36 68 44 69 37 70
REMARK SMILES IDX 39 71 45 72 38 73 40 74 41 75 42 76 43 77 67 78 68 79 76 80
REMARK SMILES IDX 69 81 71 82 77 83 70 84 72 85 73 86 74 87 75 88 52 89 53 90
REMARK SMILES IDX 61 91 54 92 56 93 62 94 55 95 57 96 58 97 59 98 60 99
REMARK H PARENT 16 7 9 16 1 25 1 26 1 27 23 33 82 52 50 63
REMARK Flexibility Score: inf
ROOT
ATOM      1  C   UNL A   1      33.294  29.034  26.796  1.00  0.00     0.002 C 
ENDROOT
BRANCH   1   2
ATOM      2  C   UNL A   1      32.867  28.934  25.330  1.00  0.00     0.021 C 
BRANCH   2   3
ATOM      3  C   UNL A   1      31.771  29.922  24.891  1.00  0.00     0.116 C 
BRANCH   3   4
ATOM      4  N   UNL A   1      30.954  29.341  23.819  1.00  0.00    -0.356 N 
ATOM      5  C   UNL A   1      30.457  28.152  23.418  1.00  0.00     0.227 C 
ATOM      6  O   UNL A   1      29.897  28.223  22.307  1.00  0.00    -0.274 OA
ATOM      7  H   UNL A   1      30.679  30.047  23.189  1.00  0.00     0.163 HD
BRANCH   5   8
ATOM      8  C   UNL A   1      30.475  26.707  24.089  1.00  0.00     0.103 C 
ATOM      9  C   UNL A   1      32.702  24.585  25.219  1.00  0.00     0.106 C 
ATOM     10  C   UNL A   1      31.542  25.154  26.471  1.00  0.00    -0.006 C 
ATOM     11  C   UNL A   1      32.089  25.609  23.599  1.00  0.00     0.047 C 
ATOM     12  C   UNL A   1      30.189  26.195  25.986  1.00  0.00    -0.016 C 
BRANCH   9  13
ATOM     13  N   UNL A   1      32.417  23.153  25.783  1.00  0.00    -0.350 N 
ATOM     14  C   UNL A   1      31.959  21.973  25.028  1.00  0.00     0.223 C 
ATOM     15  O   UNL A   1      31.338  21.095  25.630  1.00  0.00    -0.275 OA
ATOM     16  H   UNL A   1      32.557  23.027  26.750  1.00  0.00     0.164 HD
BRANCH  14  17
ATOM     17  C   UNL A   1      32.388  21.762  23.351  1.00  0.00     0.078 C 
ATOM     18  C   UNL A   1      36.006  21.635  24.577  1.00  0.00     0.044 C 
ATOM     19  C   UNL A   1      34.404  20.069  24.654  1.00  0.00     0.010 C 
ATOM     20  C   UNL A   1      35.492  23.064  23.220  1.00  0.00     0.010 C 
ATOM     21  C   UNL A   1      32.886  20.218  23.558  1.00  0.00     0.014 C 
ATOM     22  C   UNL A   1      33.681  22.894  22.488  1.00  0.00     0.014 C 
BRANCH  18  23
ATOM     23  C   UNL A   1      36.888  22.569  25.620  1.00  0.00     0.262 C 
BRANCH  23  24
ATOM     24  N   UNL A   1      38.343  22.508  25.553  1.00  0.00    -0.357 N 
ATOM     25  H   UNL A   1      38.658  21.578  25.832  1.00  0.00     0.344 HD
ATOM     26  H   UNL A   1      38.743  23.204  26.182  1.00  0.00     0.344 HD
ATOM     27  H   UNL A   1      38.648  22.697  24.598  1.00  0.00     0.344 HD
ENDBRANCH  23  24
ENDBRANCH  18  23
ENDBRANCH  14  17
ENDBRANCH   9  13
ENDBRANCH   5   8
ENDBRANCH   3   4
ENDBRANCH   2   3
ENDBRANCH   1   2
BRANCH   1  28
ATOM     28  C   UNL A   1      34.798  28.914  27.050  1.00  0.00     0.002 C 
BRANCH  28  29
ATOM     29  C   UNL A   1      35.322  29.678  28.268  1.00  0.00     0.021 C 
BRANCH  29  30
ATOM     30  C   UNL A   1      35.375  31.195  28.101  1.00  0.00     0.116 C 
BRANCH  30  31
ATOM     31  N   UNL A   1      34.907  31.881  29.296  1.00  0.00    -0.352 N 
ATOM     32  C   UNL A   1      35.435  31.856  30.563  1.00  0.00     0.251 C 
ATOM     33  H   UNL A   1      34.104  32.438  29.182  1.00  0.00     0.163 HD
ATOM     34  O   UNL A   1      34.773  32.243  31.521  1.00  0.00    -0.269 OA
BRANCH  32  35
ATOM     35  C   UNL A   1      36.813  31.366  30.756  1.00  0.00     0.039 A 
ATOM     36  C   UNL A   1      37.036  30.210  31.506  1.00  0.00     0.014 A 
ATOM     37  C   UNL A   1      37.884  32.068  30.195  1.00  0.00     0.014 A 
ATOM     38  C   UNL A   1      38.339  29.733  31.660  1.00  0.00     0.010 A 
ATOM     39  C   UNL A   1      39.168  31.549  30.284  1.00  0.00     0.010 A 
ATOM     40  C   UNL A   1      39.412  30.389  31.033  1.00  0.00    -0.014 A 
BRANCH  40  41
ATOM     41  C   UNL A   1      40.807  29.903  31.169  1.00  0.00     0.031 A 
ATOM     42  C   UNL A   1      41.308  28.819  30.253  1.00  0.00     0.074 A 
ATOM     43  C   UNL A   1      41.584  30.365  32.167  1.00  0.00     0.049 A 
ATOM     44  N   UNL A   1      42.458  28.198  30.259  1.00  0.00    -0.248 NA
ATOM     45  C   UNL A   1      40.380  28.349  29.209  1.00  0.00     0.031 C 
ATOM     46  C   UNL A   1      41.184  31.369  33.154  1.00  0.00     0.029 A 
ATOM     47  N   UNL A   1      42.863  30.031  32.531  1.00  0.00    -0.354 N 
ATOM     48  C   UNL A   1      42.377  27.241  29.254  1.00  0.00     0.074 A 
ATOM     49  C   UNL A   1      41.051  27.335  28.686  1.00  0.00     0.031 C 
ATOM     50  C   UNL A   1      42.200  31.575  34.008  1.00  0.00     0.029 A 
ATOM     51  C   UNL A   1      43.309  30.695  33.650  1.00  0.00     0.049 A 
ATOM     52  H   UNL A   1      43.411  29.378  32.039  1.00  0.00     0.167 HD
ATOM     53  C   UNL A   1      43.331  26.383  28.821  1.00  0.00     0.034 A 
ATOM     54  C   UNL A   1      44.476  30.599  34.316  1.00  0.00     0.034 A 
ATOM     55  C   UNL A   1      44.659  26.323  29.368  1.00  0.00     0.049 A 
ATOM     56  C   UNL A   1      45.526  29.648  33.806  1.00  0.00     0.074 A 
ATOM     57  C   UNL A   1      45.726  25.548  28.955  1.00  0.00     0.029 A 
ATOM     58  N   UNL A   1      45.097  27.063  30.455  1.00  0.00    -0.354 N 
ATOM     59  N   UNL A   1      45.484  28.854  32.763  1.00  0.00    -0.248 NA
ATOM     60  C   UNL A   1      46.797  29.605  34.543  1.00  0.00     0.031 C 
ATOM     61  C   UNL A   1      46.803  25.799  29.812  1.00  0.00     0.029 A 
ATOM     62  C   UNL A   1      46.416  26.757  30.736  1.00  0.00     0.049 A 
ATOM     63  H   UNL A   1      44.550  27.712  30.955  1.00  0.00     0.167 HD
ATOM     64  C   UNL A   1      46.736  28.252  32.691  1.00  0.00     0.074 A 
ATOM     65  C   UNL A   1      47.516  28.782  33.791  1.00  0.00     0.031 C 
ATOM     66  C   UNL A   1      47.195  27.339  31.800  1.00  0.00     0.034 A 
BRANCH  53  67
ATOM     67  C   UNL A   1      42.979  25.472  27.672  1.00  0.00     0.023 A 
ATOM     68  C   UNL A   1      43.246  25.882  26.348  1.00  0.00     0.012 A 
ATOM     69  C   UNL A   1      42.415  24.201  27.898  1.00  0.00     0.148 A 
ATOM     70  C   UNL A   1      42.912  25.066  25.268  1.00  0.00     0.002 A 
ATOM     71  C   UNL A   1      42.132  23.372  26.818  1.00  0.00     0.091 A 
ATOM     72  F   UNL A   1      42.149  23.834  29.159  1.00  0.00    -0.205 F 
ATOM     73  C   UNL A   1      42.363  23.810  25.503  1.00  0.00     0.022 A 
BRANCH  71  74
ATOM     74  S   UNL A   1      41.501  21.702  27.020  1.00  0.00     0.127 S 
ATOM     75  O   UNL A   1      41.318  21.286  25.630  1.00  0.00    -0.237 OA
ATOM     76  O   UNL A   1      42.605  21.039  27.714  1.00  0.00    -0.237 OA
ATOM     77  O   UNL A   1      40.280  21.827  27.802  1.00  0.00    -0.744 OA
ENDBRANCH  71  74
ENDBRANCH  53  67
BRANCH  54  78
ATOM     78  C   UNL A   1      44.743  31.479  35.489  1.00  0.00     0.023 A 
ATOM     79  C   UNL A   1      45.401  32.709  35.288  1.00  0.00     0.012 A 
ATOM     80  C   UNL A   1      44.328  31.126  36.787  1.00  0.00     0.148 A 
ATOM     81  C   UNL A   1      45.672  33.555  36.364  1.00  0.00     0.002 A 
ATOM     82  C   UNL A   1      44.553  31.999  37.846  1.00  0.00     0.091 A 
ATOM     83  F   UNL A   1      43.709  29.949  36.957  1.00  0.00    -0.205 F 
ATOM     84  C   UNL A   1      45.240  33.205  37.640  1.00  0.00     0.022 A 
BRANCH  82  85
ATOM     85  S   UNL A   1      43.922  31.693  39.500  1.00  0.00     0.127 S 
ATOM     86  O   UNL A   1      44.390  32.873  40.221  1.00  0.00    -0.237 OA
ATOM     87  O   UNL A   1      42.478  31.645  39.266  1.00  0.00    -0.237 OA
ATOM     88  O   UNL A   1      44.505  30.426  39.917  1.00  0.00    -0.744 OA
ENDBRANCH  82  85
ENDBRANCH  54  78
BRANCH  66  89
ATOM     89  C   UNL A   1      48.626  26.888  31.933  1.00  0.00     0.023 A 
ATOM     90  C   UNL A   1      49.670  27.703  31.454  1.00  0.00     0.012 A 
ATOM     91  C   UNL A   1      48.935  25.697  32.619  1.00  0.00     0.148 A 
ATOM     92  C   UNL A   1      51.001  27.324  31.631  1.00  0.00     0.002 A 
ATOM     93  C   UNL A   1      50.261  25.352  32.838  1.00  0.00     0.091 A 
ATOM     94  F   UNL A   1      47.924  24.928  33.050  1.00  0.00    -0.205 F 
ATOM     95  C   UNL A   1      51.295  26.158  32.335  1.00  0.00     0.022 A 
BRANCH  93  96
ATOM     96  S   UNL A   1      50.737  23.926  33.821  1.00  0.00     0.127 S 
ATOM     97  O   UNL A   1      52.192  24.063  33.858  1.00  0.00    -0.237 OA
ATOM     98  O   UNL A   1      50.066  24.192  35.094  1.00  0.00    -0.237 OA
ATOM     99  O   UNL A   1      50.240  22.759  33.106  1.00  0.00    -0.744 OA
ENDBRANCH  93  96
ENDBRANCH  66  89
ENDBRANCH  40  41
ENDBRANCH  32  35
ENDBRANCH  30  31
ENDBRANCH  29  30
ENDBRANCH  28  29
ENDBRANCH   1  28
TORSDOF 20
ENDMDL
MODEL 3
REMARK VINA RESULT:     -10.3      5.057     12.018
REMARK SMILES [NH3+]C[C@H]1CC[C@@H](C(=O)N[C@@H]2C=C[C@@H](C(=O)NCCCCCCNC(=O)c3ccc(-c4c5nc(c(-c6cccc(S(=O)(=O)[O-])c6F)c6ccc([nH]6)c(-c6cccc(S(=O)(=O)[O-])c6F)c6nc(c(-c7cccc(S(=O)(=O)[O-])c7F)c7ccc4[nH]7)C=C6)C=C5)cc3)C2)CC1
REMARK SMILES IDX 19 1 18 2 17 3 16 4 14 5 15 6 13 8 10 9 11 10 89 11 12 12
REMARK SMILES IDX 9 13 7 14 8 15 6 17 3 18 4 19 91 20 5 21 90 22 2 23 1 24
REMARK SMILES IDX 20 28 21 29 22 30 23 31 24 32 25 34 26 35 27 36 88 37 28 38
REMARK SMILES IDX 87 39 29 40 30 41 31 42 81 43 32 44 86 45 80 46 82 47 33 48
REMARK SMILES IDX 85 49 79 50 78 51 34 53 66 54 46 55 65 56 47 57 50 58 64 59
REMARK SMILES IDX 83 60 48 61 49 62 63 64 84 65 51 66 35 67 36 68 44 69 37 70
REMARK SMILES IDX 39 71 45 72 38 73 40 74 41 75 42 76 43 77 67 78 68 79 76 80
REMARK SMILES IDX 69 81 71 82 77 83 70 84 72 85 73 86 74 87 75 88 52 89 53 90
REMARK SMILES IDX 61 91 54 92 56 93 62 94 55 95 57 96 58 97 59 98 60 99
REMARK H PARENT 16 7 9 16 1 25 1 26 1 27 23 33 82 52 50 63
REMARK Flexibility Score: inf
ROOT
ATOM      1  C   UNL A   1      45.278  24.306  25.070  1.00  0.00     0.002 C 
ENDROOT
BRANCH   1   2
ATOM      2  C   UNL A   1      46.264  25.018  25.999  1.00  0.00     0.021 C 
BRANCH   2   3
ATOM      3  C   UNL A   1      46.824  24.165  27.151  1.00  0.00     0.116 C 
BRANCH   3   4
ATOM      4  N   UNL A   1      47.697  24.972  28.012  1.00  0.00    -0.356 N 
ATOM      5  C   UNL A   1      47.702  25.564  29.225  1.00  0.00     0.227 C 
ATOM      6  O   UNL A   1      48.721  26.258  29.409  1.00  0.00    -0.274 OA
ATOM      7  H   UNL A   1      48.557  25.131  27.559  1.00  0.00     0.163 HD
BRANCH   5   8
ATOM      8  C   UNL A   1      46.654  25.548  30.425  1.00  0.00     0.103 C 
ATOM      9  C   UNL A   1      44.562  27.632  31.847  1.00  0.00     0.106 C 
ATOM     10  C   UNL A   1      43.770  26.184  31.132  1.00  0.00    -0.006 C 
ATOM     11  C   UNL A   1      46.494  27.312  31.382  1.00  0.00     0.047 C 
ATOM     12  C   UNL A   1      44.780  24.893  30.451  1.00  0.00    -0.016 C 
BRANCH   9  13
ATOM     13  N   UNL A   1      43.676  27.343  33.104  1.00  0.00    -0.350 N 
ATOM     14  C   UNL A   1      42.393  27.978  33.455  1.00  0.00     0.223 C 
ATOM     15  O   UNL A   1      42.061  28.016  34.641  1.00  0.00    -0.275 OA
ATOM     16  H   UNL A   1      44.013  26.662  33.731  1.00  0.00     0.164 HD
BRANCH  14  17
ATOM     17  C   UNL A   1      41.311  28.555  32.215  1.00  0.00     0.078 C 
ATOM     18  C   UNL A   1      40.421  31.344  34.673  1.00  0.00     0.044 C 
ATOM     19  C   UNL A   1      42.230  31.095  33.372  1.00  0.00     0.010 C 
ATOM     20  C   UNL A   1      38.928  30.134  33.998  1.00  0.00     0.010 C 
ATOM     21  C   UNL A   1      42.189  29.903  31.920  1.00  0.00     0.014 C 
ATOM     22  C   UNL A   1      39.452  28.894  32.573  1.00  0.00     0.014 C 
BRANCH  18  23
ATOM     23  C   UNL A   1      40.036  31.363  36.282  1.00  0.00     0.262 C 
BRANCH  23  24
ATOM     24  N   UNL A   1      40.926  32.056  37.206  1.00  0.00    -0.357 N 
ATOM     25  H   UNL A   1      40.732  33.057  37.178  1.00  0.00     0.344 HD
ATOM     26  H   UNL A   1      41.895  31.891  36.934  1.00  0.00     0.344 HD
ATOM     27  H   UNL A   1      40.774  31.707  38.152  1.00  0.00     0.344 HD
ENDBRANCH  23  24
ENDBRANCH  18  23
ENDBRANCH  14  17
ENDBRANCH   9  13
ENDBRANCH   5   8
ENDBRANCH   3   4
ENDBRANCH   2   3
ENDBRANCH   1   2
BRANCH   1  28
ATOM     28  C   UNL A   1      43.864  24.130  25.626  1.00  0.00     0.002 C 
BRANCH  28  29
ATOM     29  C   UNL A   1      43.046  23.002  24.995  1.00  0.00     0.021 C 
BRANCH  29  30
ATOM     30  C   UNL A   1      42.552  21.939  25.975  1.00  0.00     0.116 C 
BRANCH  30  31
ATOM     31  N   UNL A   1      41.114  21.740  25.867  1.00  0.00    -0.352 N 
ATOM     32  C   UNL A   1      40.099  22.502  26.389  1.00  0.00     0.251 C 
ATOM     33  H   UNL A   1      40.830  20.952  25.350  1.00  0.00     0.163 HD
ATOM     34  O   UNL A   1      38.959  22.054  26.463  1.00  0.00    -0.269 OA
BRANCH  32  35
ATOM     35  C   UNL A   1      40.396  23.872  26.851  1.00  0.00     0.039 A 
ATOM     36  C   UNL A   1      40.903  24.071  28.136  1.00  0.00     0.014 A 
ATOM     37  C   UNL A   1      40.160  24.957  26.003  1.00  0.00     0.014 A 
ATOM     38  C   UNL A   1      41.212  25.366  28.559  1.00  0.00     0.010 A 
ATOM     39  C   UNL A   1      40.540  26.233  26.396  1.00  0.00     0.010 A 
ATOM     40  C   UNL A   1      41.050  26.453  27.684  1.00  0.00    -0.014 A 
BRANCH  40  41
ATOM     41  C   UNL A   1      41.378  27.840  28.098  1.00  0.00     0.031 A 
ATOM     42  C   UNL A   1      42.814  28.290  28.117  1.00  0.00     0.074 A 
ATOM     43  C   UNL A   1      40.402  28.655  28.542  1.00  0.00     0.049 A 
ATOM     44  N   UNL A   1      43.319  29.424  28.524  1.00  0.00    -0.248 NA
ATOM     45  C   UNL A   1      43.820  27.322  27.645  1.00  0.00     0.031 C 
ATOM     46  C   UNL A   1      38.983  28.306  28.628  1.00  0.00     0.029 A 
ATOM     47  N   UNL A   1      40.460  29.935  29.029  1.00  0.00    -0.354 N 
ATOM     48  C   UNL A   1      44.696  29.293  28.395  1.00  0.00     0.074 A 
ATOM     49  C   UNL A   1      44.951  27.954  27.912  1.00  0.00     0.031 C 
ATOM     50  C   UNL A   1      38.304  29.350  29.130  1.00  0.00     0.029 A 
ATOM     51  C   UNL A   1      39.241  30.428  29.433  1.00  0.00     0.049 A 
ATOM     52  H   UNL A   1      41.296  30.454  29.084  1.00  0.00     0.167 HD
ATOM     53  C   UNL A   1      45.662  30.214  28.627  1.00  0.00     0.034 A 
ATOM     54  C   UNL A   1      38.919  31.610  29.991  1.00  0.00     0.034 A 
ATOM     55  C   UNL A   1      45.396  31.555  29.072  1.00  0.00     0.049 A 
ATOM     56  C   UNL A   1      40.008  32.624  30.226  1.00  0.00     0.074 A 
ATOM     57  C   UNL A   1      46.290  32.592  29.263  1.00  0.00     0.029 A 
ATOM     58  N   UNL A   1      44.140  32.040  29.402  1.00  0.00    -0.354 N 
ATOM     59  N   UNL A   1      41.289  32.533  29.962  1.00  0.00    -0.248 NA
ATOM     60  C   UNL A   1      39.602  33.913  30.802  1.00  0.00     0.031 C 
ATOM     61  C   UNL A   1      45.576  33.698  29.738  1.00  0.00     0.029 A 
ATOM     62  C   UNL A   1      44.234  33.359  29.807  1.00  0.00     0.049 A 
ATOM     63  H   UNL A   1      43.303  31.522  29.356  1.00  0.00     0.167 HD
ATOM     64  C   UNL A   1      41.835  33.768  30.296  1.00  0.00     0.074 A 
ATOM     65  C   UNL A   1      40.742  34.592  30.772  1.00  0.00     0.031 C 
ATOM     66  C   UNL A   1      43.125  34.181  30.222  1.00  0.00     0.034 A 
BRANCH  53  67
ATOM     67  C   UNL A   1      47.090  29.809  28.362  1.00  0.00     0.023 A 
ATOM     68  C   UNL A   1      47.478  29.427  27.060  1.00  0.00     0.012 A 
ATOM     69  C   UNL A   1      48.055  29.834  29.388  1.00  0.00     0.148 A 
ATOM     70  C   UNL A   1      48.788  29.030  26.794  1.00  0.00     0.002 A 
ATOM     71  C   UNL A   1      49.371  29.484  29.103  1.00  0.00     0.091 A 
ATOM     72  F   UNL A   1      47.668  30.179  30.624  1.00  0.00    -0.205 F 
ATOM     73  C   UNL A   1      49.735  29.066  27.812  1.00  0.00     0.022 A 
BRANCH  71  74
ATOM     74  S   UNL A   1      50.683  29.579  30.327  1.00  0.00     0.127 S 
ATOM     75  O   UNL A   1      51.864  29.743  29.481  1.00  0.00    -0.237 OA
ATOM     76  O   UNL A   1      50.308  30.772  31.087  1.00  0.00    -0.237 OA
ATOM     77  O   UNL A   1      50.619  28.335  31.080  1.00  0.00    -0.744 OA
ENDBRANCH  71  74
ENDBRANCH  53  67
BRANCH  54  78
ATOM     78  C   UNL A   1      37.495  31.931  30.295  1.00  0.00     0.023 A 
ATOM     79  C   UNL A   1      37.031  31.804  31.619  1.00  0.00     0.012 A 
ATOM     80  C   UNL A   1      36.611  32.385  29.297  1.00  0.00     0.148 A 
ATOM     81  C   UNL A   1      35.703  32.091  31.938  1.00  0.00     0.002 A 
ATOM     82  C   UNL A   1      35.304  32.720  29.633  1.00  0.00     0.091 A 
ATOM     83  F   UNL A   1      37.071  32.492  28.043  1.00  0.00    -0.205 F 
ATOM     84  C   UNL A   1      34.843  32.558  30.949  1.00  0.00     0.022 A 
BRANCH  82  85
ATOM     85  S   UNL A   1      34.162  33.449  28.453  1.00  0.00     0.127 S 
ATOM     86  O   UNL A   1      33.609  32.264  27.802  1.00  0.00    -0.237 OA
ATOM     87  O   UNL A   1      33.233  34.159  29.334  1.00  0.00    -0.237 OA
ATOM     88  O   UNL A   1      34.968  34.317  27.606  1.00  0.00    -0.744 OA
ENDBRANCH  82  85
ENDBRANCH  54  78
BRANCH  66  89
ATOM     89  C   UNL A   1      43.429  35.604  30.610  1.00  0.00     0.023 A 
ATOM     90  C   UNL A   1      43.495  36.606  29.623  1.00  0.00     0.012 A 
ATOM     91  C   UNL A   1      43.555  35.958  31.968  1.00  0.00     0.148 A 
ATOM     92  C   UNL A   1      43.711  37.937  29.981  1.00  0.00     0.002 A 
ATOM     93  C   UNL A   1      43.717  37.291  32.320  1.00  0.00     0.091 A 
ATOM     94  F   UNL A   1      43.506  34.985  32.889  1.00  0.00    -0.205 F 
ATOM     95  C   UNL A   1      43.807  38.281  31.328  1.00  0.00     0.022 A 
BRANCH  93  96
ATOM     96  S   UNL A   1      43.747  37.840  34.030  1.00  0.00     0.127 S 
ATOM     97  O   UNL A   1      44.942  37.170  34.537  1.00  0.00    -0.237 OA
ATOM     98  O   UNL A   1      43.875  39.291  33.885  1.00  0.00    -0.237 OA
ATOM     99  O   UNL A   1      42.489  37.400  34.618  1.00  0.00    -0.744 OA
ENDBRANCH  93  96
ENDBRANCH  66  89
ENDBRANCH  40  41
ENDBRANCH  32  35
ENDBRANCH  30  31
ENDBRANCH  29  30
ENDBRANCH  28  29
ENDBRANCH   1  28
TORSDOF 20
ENDMDL
