MODEL 1
REMARK VINA RESULT:     -12.3      0.000      0.000
REMARK SMILES CS(=O)(=O)c1ccc(N2N=C(C(=O)NCCCCCCNC(=O)c3ccc(-c4c5nc(c(-c6cccc(S(=O)(=O)[O-])c6F)c6ccc([nH]6)c(-c6cccc(S(=O)(=O)[O-])c6F)c6nc(c(-c7cccc(S(=O)(=O)[O-])c7F)c7ccc4[nH]7)C=C6)C=C5)cc3)C[C@H]2c2ccco2)cc1
REMARK SMILES IDX 18 1 17 2 16 3 15 4 14 5 12 6 13 7 11 9 9 10 10 11 88 12
REMARK SMILES IDX 87 13 8 14 5 15 6 16 95 17 7 18 94 19 2 20 1 21 3 22 4 23
REMARK SMILES IDX 89 24 90 25 93 26 91 27 92 28 19 29 20 30 21 31 22 32 23 34
REMARK SMILES IDX 24 35 25 36 86 37 26 38 85 39 27 40 28 41 29 42 79 43 30 44
REMARK SMILES IDX 84 45 78 46 80 47 31 48 83 49 77 50 76 51 32 53 64 54 44 55
REMARK SMILES IDX 63 56 45 57 48 58 62 59 81 60 46 61 47 62 61 64 82 65 49 66
REMARK SMILES IDX 33 67 34 68 42 69 35 70 37 71 43 72 36 73 38 74 39 75 40 76
REMARK SMILES IDX 41 77 65 78 66 79 74 80 67 81 69 82 75 83 68 84 70 85 71 86
REMARK SMILES IDX 72 87 73 88 50 89 51 90 59 91 52 92 54 93 60 94 53 95 55 96
REMARK SMILES IDX 56 97 57 98 58 99
REMARK H PARENT 14 8 21 33 80 52 48 63
REMARK Flexibility Score: inf
ROOT
ATOM      1  C   UNL A   1      31.746  28.658  27.541  1.00  0.00     0.002 C 
ENDROOT
BRANCH   1   2
ATOM      2  C   UNL A   1      31.511  27.347  26.782  1.00  0.00     0.002 C 
BRANCH   2   3
ATOM      3  C   UNL A   1      30.919  27.502  25.379  1.00  0.00     0.021 C 
BRANCH   3   4
ATOM      4  C   UNL A   1      30.225  26.252  24.844  1.00  0.00     0.116 C 
BRANCH   4   5
ATOM      5  N   UNL A   1      29.872  25.349  25.922  1.00  0.00    -0.351 N 
ATOM      6  C   UNL A   1      30.293  24.101  26.300  1.00  0.00     0.267 C 
ATOM      7  O   UNL A   1      29.705  23.567  27.240  1.00  0.00    -0.268 OA
ATOM      8  H   UNL A   1      29.174  25.715  26.513  1.00  0.00     0.163 HD
BRANCH   6   9
ATOM      9  C   UNL A   1      31.461  23.364  25.664  1.00  0.00     0.128 C 
ATOM     10  N   UNL A   1      32.808  21.752  25.290  1.00  0.00    -0.254 N 
ATOM     11  N   UNL A   1      31.599  22.080  25.819  1.00  0.00    -0.171 NA
ATOM     12  C   UNL A   1      33.462  22.854  24.576  1.00  0.00     0.180 C 
ATOM     13  C   UNL A   1      32.521  24.028  24.853  1.00  0.00     0.099 C 
BRANCH  10  14
ATOM     14  C   UNL A   1      33.139  20.422  25.067  1.00  0.00     0.060 A 
ATOM     15  C   UNL A   1      33.769  17.717  24.649  1.00  0.00     0.067 A 
ATOM     16  C   UNL A   1      34.776  18.681  24.578  1.00  0.00     0.022 A 
ATOM     17  C   UNL A   1      32.452  18.088  24.917  1.00  0.00     0.022 A 
ATOM     18  C   UNL A   1      34.454  20.028  24.781  1.00  0.00     0.029 A 
ATOM     19  C   UNL A   1      32.148  19.434  25.110  1.00  0.00     0.029 A 
BRANCH  15  20
ATOM     20  S   UNL A   1      34.153  16.012  24.354  1.00  0.00     0.175 S 
ATOM     21  C   UNL A   1      35.633  15.710  25.286  1.00  0.00     0.163 C 
ATOM     22  O   UNL A   1      34.473  15.888  22.944  1.00  0.00    -0.224 OA
ATOM     23  O   UNL A   1      33.104  15.211  24.957  1.00  0.00    -0.224 OA
ENDBRANCH  15  20
ENDBRANCH  10  14
BRANCH  12  24
ATOM     24  C   UNL A   1      34.889  23.165  24.919  1.00  0.00     0.128 A 
ATOM     25  C   UNL A   1      35.518  23.484  26.109  1.00  0.00     0.048 A 
ATOM     26  O   UNL A   1      35.815  23.127  23.914  1.00  0.00    -0.467 OA
ATOM     27  C   UNL A   1      36.891  23.649  25.810  1.00  0.00     0.042 A 
ATOM     28  C   UNL A   1      37.024  23.397  24.466  1.00  0.00     0.195 A 
ENDBRANCH  12  24
ENDBRANCH   6   9
ENDBRANCH   4   5
ENDBRANCH   3   4
ENDBRANCH   2   3
ENDBRANCH   1   2
BRANCH   1  29
ATOM     29  C   UNL A   1      31.802  29.919  26.674  1.00  0.00     0.021 C 
BRANCH  29  30
ATOM     30  C   UNL A   1      33.181  30.561  26.557  1.00  0.00     0.116 C 
BRANCH  30  31
ATOM     31  N   UNL A   1      33.165  31.966  26.928  1.00  0.00    -0.352 N 
ATOM     32  C   UNL A   1      33.974  32.639  27.808  1.00  0.00     0.251 C 
ATOM     33  H   UNL A   1      32.475  32.512  26.487  1.00  0.00     0.163 HD
ATOM     34  O   UNL A   1      33.697  33.789  28.138  1.00  0.00    -0.269 OA
BRANCH  32  35
ATOM     35  C   UNL A   1      35.169  31.973  28.370  1.00  0.00     0.039 A 
ATOM     36  C   UNL A   1      36.388  32.656  28.366  1.00  0.00     0.014 A 
ATOM     37  C   UNL A   1      35.092  30.677  28.890  1.00  0.00     0.014 A 
ATOM     38  C   UNL A   1      37.519  32.060  28.927  1.00  0.00     0.010 A 
ATOM     39  C   UNL A   1      36.202  30.114  29.514  1.00  0.00     0.010 A 
ATOM     40  C   UNL A   1      37.429  30.794  29.530  1.00  0.00    -0.014 A 
BRANCH  40  41
ATOM     41  C   UNL A   1      38.605  30.173  30.192  1.00  0.00     0.031 A 
ATOM     42  C   UNL A   1      39.035  30.622  31.560  1.00  0.00     0.074 A 
ATOM     43  C   UNL A   1      39.345  29.271  29.517  1.00  0.00     0.049 A 
ATOM     44  N   UNL A   1      40.062  30.233  32.270  1.00  0.00    -0.248 NA
ATOM     45  C   UNL A   1      38.223  31.668  32.204  1.00  0.00     0.031 C 
ATOM     46  C   UNL A   1      39.088  28.824  28.147  1.00  0.00     0.029 A 
ATOM     47  N   UNL A   1      40.485  28.597  29.878  1.00  0.00    -0.354 N 
ATOM     48  C   UNL A   1      40.047  31.013  33.421  1.00  0.00     0.074 A 
ATOM     49  C   UNL A   1      38.926  31.919  33.300  1.00  0.00     0.031 C 
ATOM     50  C   UNL A   1      40.043  27.954  27.782  1.00  0.00     0.029 A 
ATOM     51  C   UNL A   1      40.995  27.802  28.879  1.00  0.00     0.049 A 
ATOM     52  H   UNL A   1      40.898  28.674  30.769  1.00  0.00     0.167 HD
ATOM     53  C   UNL A   1      40.875  30.965  34.491  1.00  0.00     0.034 A 
ATOM     54  C   UNL A   1      42.109  27.044  28.843  1.00  0.00     0.034 A 
ATOM     55  C   UNL A   1      41.960  30.029  34.627  1.00  0.00     0.049 A 
ATOM     56  C   UNL A   1      42.975  26.955  30.068  1.00  0.00     0.074 A 
ATOM     57  C   UNL A   1      42.780  29.817  35.721  1.00  0.00     0.029 A 
ATOM     58  N   UNL A   1      42.385  29.160  33.635  1.00  0.00    -0.354 N 
ATOM     59  N   UNL A   1      42.836  27.564  31.220  1.00  0.00    -0.248 NA
ATOM     60  C   UNL A   1      44.127  26.043  30.005  1.00  0.00     0.031 C 
ATOM     61  C   UNL A   1      43.721  28.840  35.378  1.00  0.00     0.029 A 
ATOM     62  C   UNL A   1      43.468  28.423  34.082  1.00  0.00     0.049 A 
ATOM     63  H   UNL A   1      41.978  29.080  32.742  1.00  0.00     0.167 HD
ATOM     64  C   UNL A   1      43.863  27.091  32.030  1.00  0.00     0.074 A 
ATOM     65  C   UNL A   1      44.602  26.126  31.241  1.00  0.00     0.031 C 
ATOM     66  C   UNL A   1      44.172  27.434  33.305  1.00  0.00     0.034 A 
BRANCH  53  67
ATOM     67  C   UNL A   1      40.612  31.925  35.622  1.00  0.00     0.023 A 
ATOM     68  C   UNL A   1      41.503  32.993  35.855  1.00  0.00     0.012 A 
ATOM     69  C   UNL A   1      39.464  31.797  36.427  1.00  0.00     0.148 A 
ATOM     70  C   UNL A   1      41.280  33.893  36.895  1.00  0.00     0.002 A 
ATOM     71  C   UNL A   1      39.223  32.725  37.435  1.00  0.00     0.091 A 
ATOM     72  F   UNL A   1      38.639  30.763  36.209  1.00  0.00    -0.205 F 
ATOM     73  C   UNL A   1      40.135  33.765  37.678  1.00  0.00     0.022 A 
BRANCH  71  74
ATOM     74  S   UNL A   1      37.736  32.691  38.442  1.00  0.00     0.127 S 
ATOM     75  O   UNL A   1      37.781  31.334  38.986  1.00  0.00    -0.237 OA
ATOM     76  O   UNL A   1      37.998  33.748  39.419  1.00  0.00    -0.237 OA
ATOM     77  O   UNL A   1      36.633  32.968  37.533  1.00  0.00    -0.744 OA
ENDBRANCH  71  74
ENDBRANCH  53  67
BRANCH  54  78
ATOM     78  C   UNL A   1      42.422  26.262  27.614  1.00  0.00     0.023 A 
ATOM     79  C   UNL A   1      43.189  26.853  26.592  1.00  0.00     0.012 A 
ATOM     80  C   UNL A   1      42.021  24.918  27.483  1.00  0.00     0.148 A 
ATOM     81  C   UNL A   1      43.530  26.128  25.451  1.00  0.00     0.002 A 
ATOM     82  C   UNL A   1      42.412  24.184  26.371  1.00  0.00     0.091 A 
ATOM     83  F   UNL A   1      41.285  24.378  28.466  1.00  0.00    -0.205 F 
ATOM     84  C   UNL A   1      43.153  24.791  25.345  1.00  0.00     0.022 A 
BRANCH  82  85
ATOM     85  S   UNL A   1      42.094  22.422  26.217  1.00  0.00     0.127 S 
ATOM     86  O   UNL A   1      42.662  21.905  27.459  1.00  0.00    -0.237 OA
ATOM     87  O   UNL A   1      40.633  22.386  26.144  1.00  0.00    -0.237 OA
ATOM     88  O   UNL A   1      42.765  22.004  24.993  1.00  0.00    -0.744 OA
ENDBRANCH  82  85
ENDBRANCH  54  78
BRANCH  66  89
ATOM     89  C   UNL A   1      45.350  26.749  33.948  1.00  0.00     0.023 A 
ATOM     90  C   UNL A   1      46.626  27.343  33.885  1.00  0.00     0.012 A 
ATOM     91  C   UNL A   1      45.177  25.560  34.683  1.00  0.00     0.148 A 
ATOM     92  C   UNL A   1      47.717  26.748  34.517  1.00  0.00     0.002 A 
ATOM     93  C   UNL A   1      46.259  24.999  35.350  1.00  0.00     0.091 A 
ATOM     94  F   UNL A   1      43.959  24.999  34.715  1.00  0.00    -0.205 F 
ATOM     95  C   UNL A   1      47.531  25.585  35.259  1.00  0.00     0.022 A 
BRANCH  93  96
ATOM     96  S   UNL A   1      46.092  23.556  36.409  1.00  0.00     0.127 S 
ATOM     97  O   UNL A   1      45.515  22.577  35.489  1.00  0.00    -0.237 OA
ATOM     98  O   UNL A   1      47.479  23.290  36.793  1.00  0.00    -0.237 OA
ATOM     99  O   UNL A   1      45.231  23.965  37.510  1.00  0.00    -0.744 OA
ENDBRANCH  93  96
ENDBRANCH  66  89
ENDBRANCH  40  41
ENDBRANCH  32  35
ENDBRANCH  30  31
ENDBRANCH  29  30
ENDBRANCH   1  29
TORSDOF 19
ENDMDL
MODEL 2
REMARK VINA RESULT:     -12.1      2.325      2.736
REMARK SMILES CS(=O)(=O)c1ccc(N2N=C(C(=O)NCCCCCCNC(=O)c3ccc(-c4c5nc(c(-c6cccc(S(=O)(=O)[O-])c6F)c6ccc([nH]6)c(-c6cccc(S(=O)(=O)[O-])c6F)c6nc(c(-c7cccc(S(=O)(=O)[O-])c7F)c7ccc4[nH]7)C=C6)C=C5)cc3)C[C@H]2c2ccco2)cc1
REMARK SMILES IDX 18 1 17 2 16 3 15 4 14 5 12 6 13 7 11 9 9 10 10 11 88 12
REMARK SMILES IDX 87 13 8 14 5 15 6 16 95 17 7 18 94 19 2 20 1 21 3 22 4 23
REMARK SMILES IDX 89 24 90 25 93 26 91 27 92 28 19 29 20 30 21 31 22 32 23 34
REMARK SMILES IDX 24 35 25 36 86 37 26 38 85 39 27 40 28 41 29 42 79 43 30 44
REMARK SMILES IDX 84 45 78 46 80 47 31 48 83 49 77 50 76 51 32 53 64 54 44 55
REMARK SMILES IDX 63 56 45 57 48 58 62 59 81 60 46 61 47 62 61 64 82 65 49 66
REMARK SMILES IDX 33 67 34 68 42 69 35 70 37 71 43 72 36 73 38 74 39 75 40 76
REMARK SMILES IDX 41 77 65 78 66 79 74 80 67 81 69 82 75 83 68 84 70 85 71 86
REMARK SMILES IDX 72 87 73 88 50 89 51 90 59 91 52 92 54 93 60 94 53 95 55 96
REMARK SMILES IDX 56 97 57 98 58 99
REMARK H PARENT 14 8 21 33 80 52 48 63
REMARK Flexibility Score: inf
ROOT
ATOM      1  C   UNL A   1      31.979  28.250  27.066  1.00  0.00     0.002 C 
ENDROOT
BRANCH   1   2
ATOM      2  C   UNL A   1      31.389  27.402  25.934  1.00  0.00     0.002 C 
BRANCH   2   3
ATOM      3  C   UNL A   1      31.122  25.937  26.286  1.00  0.00     0.021 C 
BRANCH   3   4
ATOM      4  C   UNL A   1      30.162  25.223  25.338  1.00  0.00     0.116 C 
BRANCH   4   5
ATOM      5  N   UNL A   1      30.372  25.646  23.967  1.00  0.00    -0.351 N 
ATOM      6  C   UNL A   1      31.323  25.375  23.018  1.00  0.00     0.267 C 
ATOM      7  O   UNL A   1      31.251  25.987  21.954  1.00  0.00    -0.268 OA
ATOM      8  H   UNL A   1      29.676  26.265  23.647  1.00  0.00     0.163 HD
BRANCH   6   9
ATOM      9  C   UNL A   1      32.425  24.339  23.184  1.00  0.00     0.128 C 
ATOM     10  N   UNL A   1      33.324  22.491  23.755  1.00  0.00    -0.254 N 
ATOM     11  N   UNL A   1      32.139  23.115  23.518  1.00  0.00    -0.171 NA
ATOM     12  C   UNL A   1      34.499  23.291  23.395  1.00  0.00     0.180 C 
ATOM     13  C   UNL A   1      33.875  24.632  23.005  1.00  0.00     0.099 C 
BRANCH  10  14
ATOM     14  C   UNL A   1      33.376  21.108  23.880  1.00  0.00     0.060 A 
ATOM     15  C   UNL A   1      33.535  18.316  24.137  1.00  0.00     0.067 A 
ATOM     16  C   UNL A   1      32.490  18.886  23.406  1.00  0.00     0.022 A 
ATOM     17  C   UNL A   1      34.495  19.123  24.747  1.00  0.00     0.022 A 
ATOM     18  C   UNL A   1      32.414  20.278  23.288  1.00  0.00     0.029 A 
ATOM     19  C   UNL A   1      34.399  20.508  24.624  1.00  0.00     0.029 A 
BRANCH  15  20
ATOM     20  S   UNL A   1      33.624  16.556  24.330  1.00  0.00     0.175 S 
ATOM     21  C   UNL A   1      35.051  16.281  25.348  1.00  0.00     0.163 C 
ATOM     22  O   UNL A   1      33.891  15.999  23.017  1.00  0.00    -0.224 OA
ATOM     23  O   UNL A   1      32.469  16.136  25.100  1.00  0.00    -0.224 OA
ENDBRANCH  15  20
ENDBRANCH  10  14
BRANCH  12  24
ATOM     24  C   UNL A   1      35.590  23.437  24.415  1.00  0.00     0.128 A 
ATOM     25  C   UNL A   1      35.671  24.135  25.606  1.00  0.00     0.048 A 
ATOM     26  O   UNL A   1      36.760  22.760  24.208  1.00  0.00    -0.467 OA
ATOM     27  C   UNL A   1      36.951  23.871  26.146  1.00  0.00     0.042 A 
ATOM     28  C   UNL A   1      37.566  23.010  25.270  1.00  0.00     0.195 A 
ENDBRANCH  12  24
ENDBRANCH   6   9
ENDBRANCH   4   5
ENDBRANCH   3   4
ENDBRANCH   2   3
ENDBRANCH   1   2
BRANCH   1  29
ATOM     29  C   UNL A   1      33.506  28.223  27.183  1.00  0.00     0.021 C 
BRANCH  29  30
ATOM     30  C   UNL A   1      34.231  29.321  26.412  1.00  0.00     0.116 C 
BRANCH  30  31
ATOM     31  N   UNL A   1      33.940  30.644  26.939  1.00  0.00    -0.352 N 
ATOM     32  C   UNL A   1      34.570  31.336  27.942  1.00  0.00     0.251 C 
ATOM     33  H   UNL A   1      33.181  31.110  26.517  1.00  0.00     0.163 HD
ATOM     34  O   UNL A   1      34.071  32.368  28.381  1.00  0.00    -0.269 OA
BRANCH  32  35
ATOM     35  C   UNL A   1      35.841  30.828  28.503  1.00  0.00     0.039 A 
ATOM     36  C   UNL A   1      35.796  29.885  29.533  1.00  0.00     0.014 A 
ATOM     37  C   UNL A   1      37.072  31.286  28.024  1.00  0.00     0.014 A 
ATOM     38  C   UNL A   1      36.985  29.365  30.049  1.00  0.00     0.010 A 
ATOM     39  C   UNL A   1      38.253  30.714  28.489  1.00  0.00     0.010 A 
ATOM     40  C   UNL A   1      38.223  29.755  29.512  1.00  0.00    -0.014 A 
BRANCH  40  41
ATOM     41  C   UNL A   1      39.494  29.163  30.002  1.00  0.00     0.031 A 
ATOM     42  C   UNL A   1      40.244  29.801  31.138  1.00  0.00     0.074 A 
ATOM     43  C   UNL A   1      40.024  28.105  29.357  1.00  0.00     0.049 A 
ATOM     44  N   UNL A   1      41.390  29.458  31.664  1.00  0.00    -0.248 NA
ATOM     45  C   UNL A   1      39.643  31.001  31.743  1.00  0.00     0.031 C 
ATOM     46  C   UNL A   1      39.442  27.455  28.182  1.00  0.00     0.029 A 
ATOM     47  N   UNL A   1      41.190  27.414  29.577  1.00  0.00    -0.354 N 
ATOM     48  C   UNL A   1      41.671  30.419  32.629  1.00  0.00     0.074 A 
ATOM     49  C   UNL A   1      40.587  31.377  32.594  1.00  0.00     0.031 C 
ATOM     50  C   UNL A   1      40.254  26.464  27.780  1.00  0.00     0.029 A 
ATOM     51  C   UNL A   1      41.426  26.425  28.651  1.00  0.00     0.049 A 
ATOM     52  H   UNL A   1      41.799  27.607  30.326  1.00  0.00     0.167 HD
ATOM     53  C   UNL A   1      42.719  30.486  33.482  1.00  0.00     0.034 A 
ATOM     54  C   UNL A   1      42.471  25.585  28.511  1.00  0.00     0.034 A 
ATOM     55  C   UNL A   1      43.770  29.504  33.545  1.00  0.00     0.049 A 
ATOM     56  C   UNL A   1      43.591  25.636  29.512  1.00  0.00     0.074 A 
ATOM     57  C   UNL A   1      44.810  29.416  34.453  1.00  0.00     0.029 A 
ATOM     58  N   UNL A   1      43.922  28.450  32.659  1.00  0.00    -0.354 N 
ATOM     59  N   UNL A   1      43.744  26.439  30.536  1.00  0.00    -0.248 NA
ATOM     60  C   UNL A   1      44.662  24.639  29.365  1.00  0.00     0.031 C 
ATOM     61  C   UNL A   1      45.609  28.324  34.096  1.00  0.00     0.029 A 
ATOM     62  C   UNL A   1      45.049  27.715  32.984  1.00  0.00     0.049 A 
ATOM     63  H   UNL A   1      43.317  28.253  31.907  1.00  0.00     0.167 HD
ATOM     64  C   UNL A   1      44.910  26.030  31.173  1.00  0.00     0.074 A 
ATOM     65  C   UNL A   1      45.411  24.891  30.430  1.00  0.00     0.031 C 
ATOM     66  C   UNL A   1      45.517  26.558  32.265  1.00  0.00     0.034 A 
BRANCH  53  67
ATOM     67  C   UNL A   1      42.760  31.641  34.449  1.00  0.00     0.023 A 
ATOM     68  C   UNL A   1      43.371  32.853  34.066  1.00  0.00     0.012 A 
ATOM     69  C   UNL A   1      42.159  31.543  35.719  1.00  0.00     0.148 A 
ATOM     70  C   UNL A   1      43.421  33.934  34.945  1.00  0.00     0.002 A 
ATOM     71  C   UNL A   1      42.173  32.641  36.573  1.00  0.00     0.091 A 
ATOM     72  F   UNL A   1      41.604  30.377  36.078  1.00  0.00    -0.205 F 
ATOM     73  C   UNL A   1      42.813  33.831  36.194  1.00  0.00     0.022 A 
BRANCH  71  74
ATOM     74  S   UNL A   1      41.346  32.630  38.168  1.00  0.00     0.127 S 
ATOM     75  O   UNL A   1      42.130  31.634  38.899  1.00  0.00    -0.237 OA
ATOM     76  O   UNL A   1      41.535  34.007  38.625  1.00  0.00    -0.237 OA
ATOM     77  O   UNL A   1      39.963  32.267  37.898  1.00  0.00    -0.744 OA
ENDBRANCH  71  74
ENDBRANCH  53  67
BRANCH  54  78
ATOM     78  C   UNL A   1      42.463  24.585  27.406  1.00  0.00     0.023 A 
ATOM     79  C   UNL A   1      43.100  24.891  26.189  1.00  0.00     0.012 A 
ATOM     80  C   UNL A   1      41.886  23.312  27.580  1.00  0.00     0.148 A 
ATOM     81  C   UNL A   1      43.143  23.956  25.155  1.00  0.00     0.002 A 
ATOM     82  C   UNL A   1      41.981  22.365  26.568  1.00  0.00     0.091 A 
ATOM     83  F   UNL A   1      41.278  23.045  28.745  1.00  0.00    -0.205 F 
ATOM     84  C   UNL A   1      42.595  22.690  25.348  1.00  0.00     0.022 A 
BRANCH  82  85
ATOM     85  S   UNL A   1      41.431  20.668  26.780  1.00  0.00     0.127 S 
ATOM     86  O   UNL A   1      42.189  20.251  27.958  1.00  0.00    -0.237 OA
ATOM     87  O   UNL A   1      39.995  20.843  27.000  1.00  0.00    -0.237 OA
ATOM     88  O   UNL A   1      41.767  19.984  25.539  1.00  0.00    -0.744 OA
ENDBRANCH  82  85
ENDBRANCH  54  78
BRANCH  66  89
ATOM     89  C   UNL A   1      46.783  25.901  32.748  1.00  0.00     0.023 A 
ATOM     90  C   UNL A   1      46.731  24.968  33.804  1.00  0.00     0.012 A 
ATOM     91  C   UNL A   1      48.012  26.146  32.104  1.00  0.00     0.148 A 
ATOM     92  C   UNL A   1      47.886  24.314  34.230  1.00  0.00     0.002 A 
ATOM     93  C   UNL A   1      49.149  25.454  32.503  1.00  0.00     0.091 A 
ATOM     94  F   UNL A   1      48.046  27.051  31.115  1.00  0.00    -0.205 F 
ATOM     95  C   UNL A   1      49.091  24.547  33.572  1.00  0.00     0.022 A 
BRANCH  93  96
ATOM     96  S   UNL A   1      50.722  25.619  31.650  1.00  0.00     0.127 S 
ATOM     97  O   UNL A   1      50.706  24.452  30.769  1.00  0.00    -0.237 OA
ATOM     98  O   UNL A   1      50.572  26.904  30.964  1.00  0.00    -0.237 OA
ATOM     99  O   UNL A   1      51.744  25.606  32.687  1.00  0.00    -0.744 OA
ENDBRANCH  93  96
ENDBRANCH  66  89
ENDBRANCH  40  41
ENDBRANCH  32  35
ENDBRANCH  30  31
ENDBRANCH  29  30
ENDBRANCH   1  29
TORSDOF 19
ENDMDL
MODEL 3
REMARK VINA RESULT:     -11.7      5.762      9.798
REMARK SMILES CS(=O)(=O)c1ccc(N2N=C(C(=O)NCCCCCCNC(=O)c3ccc(-c4c5nc(c(-c6cccc(S(=O)(=O)[O-])c6F)c6ccc([nH]6)c(-c6cccc(S(=O)(=O)[O-])c6F)c6nc(c(-c7cccc(S(=O)(=O)[O-])c7F)c7ccc4[nH]7)C=C6)C=C5)cc3)C[C@H]2c2ccco2)cc1
REMARK SMILES IDX 18 1 17 2 16 3 15 4 14 5 12 6 13 7 11 9 9 10 10 11 88 12
REMARK SMILES IDX 87 13 8 14 5 15 6 16 95 17 7 18 94 19 2 20 1 21 3 22 4 23
REMARK SMILES IDX 89 24 90 25 93 26 91 27 92 28 19 29 20 30 21 31 22 32 23 34
REMARK SMILES IDX 24 35 25 36 86 37 26 38 85 39 27 40 28 41 29 42 79 43 30 44
REMARK SMILES IDX 84 45 78 46 80 47 31 48 83 49 77 50 76 51 32 53 64 54 44 55
REMARK SMILES IDX 63 56 45 57 48 58 62 59 81 60 46 61 47 62 61 64 82 65 49 66
REMARK SMILES IDX 33 67 34 68 42 69 35 70 37 71 43 72 36 73 38 74 39 75 40 76
REMARK SMILES IDX 41 77 65 78 66 79 74 80 67 81 69 82 75 83 68 84 70 85 71 86
REMARK SMILES IDX 72 87 73 88 50 89 51 90 59 91 52 92 54 93 60 94 53 95 55 96
REMARK SMILES IDX 56 97 57 98 58 99
REMARK H PARENT 14 8 21 33 80 52 48 63
REMARK Flexibility Score: inf
ROOT
ATOM      1  C   UNL A   1      37.647  21.314  25.170  1.00  0.00     0.002 C 
ENDROOT
BRANCH   1   2
ATOM      2  C   UNL A   1      37.170  22.728  24.820  1.00  0.00     0.002 C 
BRANCH   2   3
ATOM      3  C   UNL A   1      35.652  22.921  24.807  1.00  0.00     0.021 C 
BRANCH   3   4
ATOM      4  C   UNL A   1      35.057  23.347  26.146  1.00  0.00     0.116 C 
BRANCH   4   5
ATOM      5  N   UNL A   1      33.621  23.149  26.166  1.00  0.00    -0.351 N 
ATOM      6  C   UNL A   1      32.540  23.974  25.996  1.00  0.00     0.267 C 
ATOM      7  O   UNL A   1      31.424  23.486  26.169  1.00  0.00    -0.268 OA
ATOM      8  H   UNL A   1      33.366  22.214  26.339  1.00  0.00     0.163 HD
BRANCH   6   9
ATOM      9  C   UNL A   1      32.635  25.431  25.568  1.00  0.00     0.128 C 
ATOM     10  N   UNL A   1      32.661  27.553  25.784  1.00  0.00    -0.254 N 
ATOM     11  N   UNL A   1      32.784  26.373  26.450  1.00  0.00    -0.171 NA
ATOM     12  C   UNL A   1      32.593  27.407  24.327  1.00  0.00     0.180 C 
ATOM     13  C   UNL A   1      32.549  25.887  24.151  1.00  0.00     0.099 C 
BRANCH  10  14
ATOM     14  C   UNL A   1      33.025  28.745  26.396  1.00  0.00     0.060 A 
ATOM     15  C   UNL A   1      33.727  31.183  27.601  1.00  0.00     0.067 A 
ATOM     16  C   UNL A   1      34.670  30.157  27.515  1.00  0.00     0.022 A 
ATOM     17  C   UNL A   1      32.438  31.004  27.101  1.00  0.00     0.022 A 
ATOM     18  C   UNL A   1      34.311  28.943  26.919  1.00  0.00     0.029 A 
ATOM     19  C   UNL A   1      32.097  29.786  26.516  1.00  0.00     0.029 A 
BRANCH  15  20
ATOM     20  S   UNL A   1      34.153  32.713  28.388  1.00  0.00     0.175 S 
ATOM     21  C   UNL A   1      35.839  33.012  27.923  1.00  0.00     0.163 C 
ATOM     22  O   UNL A   1      34.114  32.477  29.820  1.00  0.00    -0.224 OA
ATOM     23  O   UNL A   1      33.355  33.761  27.781  1.00  0.00    -0.224 OA
ENDBRANCH  15  20
ENDBRANCH  10  14
BRANCH  12  24
ATOM     24  C   UNL A   1      31.479  28.104  23.602  1.00  0.00     0.128 A 
ATOM     25  C   UNL A   1      31.458  29.178  22.730  1.00  0.00     0.048 A 
ATOM     26  O   UNL A   1      30.208  27.631  23.768  1.00  0.00    -0.467 OA
ATOM     27  C   UNL A   1      30.108  29.366  22.352  1.00  0.00     0.042 A 
ATOM     28  C   UNL A   1      29.390  28.385  22.990  1.00  0.00     0.195 A 
ENDBRANCH  12  24
ENDBRANCH   6   9
ENDBRANCH   4   5
ENDBRANCH   3   4
ENDBRANCH   2   3
ENDBRANCH   1   2
BRANCH   1  29
ATOM     29  C   UNL A   1      39.153  21.165  25.403  1.00  0.00     0.021 C 
BRANCH  29  30
ATOM     30  C   UNL A   1      39.540  20.257  26.565  1.00  0.00     0.116 C 
BRANCH  30  31
ATOM     31  N   UNL A   1      40.596  19.326  26.206  1.00  0.00    -0.352 N 
ATOM     32  C   UNL A   1      41.928  19.569  25.985  1.00  0.00     0.251 C 
ATOM     33  H   UNL A   1      40.316  18.387  26.107  1.00  0.00     0.163 HD
ATOM     34  O   UNL A   1      42.639  18.690  25.508  1.00  0.00    -0.269 OA
BRANCH  32  35
ATOM     35  C   UNL A   1      42.500  20.895  26.305  1.00  0.00     0.039 A 
ATOM     36  C   UNL A   1      42.799  21.772  25.260  1.00  0.00     0.014 A 
ATOM     37  C   UNL A   1      42.750  21.268  27.629  1.00  0.00     0.014 A 
ATOM     38  C   UNL A   1      43.302  23.043  25.545  1.00  0.00     0.010 A 
ATOM     39  C   UNL A   1      43.184  22.560  27.914  1.00  0.00     0.010 A 
ATOM     40  C   UNL A   1      43.474  23.458  26.876  1.00  0.00    -0.014 A 
BRANCH  40  41
ATOM     41  C   UNL A   1      43.945  24.829  27.199  1.00  0.00     0.031 A 
ATOM     42  C   UNL A   1      42.998  25.844  27.776  1.00  0.00     0.074 A 
ATOM     43  C   UNL A   1      45.204  25.189  26.881  1.00  0.00     0.049 A 
ATOM     44  N   UNL A   1      43.215  27.098  28.072  1.00  0.00    -0.248 NA
ATOM     45  C   UNL A   1      41.616  25.400  28.024  1.00  0.00     0.031 C 
ATOM     46  C   UNL A   1      46.190  24.326  26.230  1.00  0.00     0.029 A 
ATOM     47  N   UNL A   1      45.858  26.388  27.029  1.00  0.00    -0.354 N 
ATOM     48  C   UNL A   1      41.994  27.606  28.499  1.00  0.00     0.074 A 
ATOM     49  C   UNL A   1      41.032  26.531  28.394  1.00  0.00     0.031 C 
ATOM     50  C   UNL A   1      47.321  25.022  26.030  1.00  0.00     0.029 A 
ATOM     51  C   UNL A   1      47.132  26.387  26.512  1.00  0.00     0.049 A 
ATOM     52  H   UNL A   1      45.453  27.173  27.464  1.00  0.00     0.167 HD
ATOM     53  C   UNL A   1      41.703  28.846  28.959  1.00  0.00     0.034 A 
ATOM     54  C   UNL A   1      48.045  27.375  26.426  1.00  0.00     0.034 A 
ATOM     55  C   UNL A   1      42.674  29.898  29.106  1.00  0.00     0.049 A 
ATOM     56  C   UNL A   1      47.721  28.724  27.005  1.00  0.00     0.074 A 
ATOM     57  C   UNL A   1      42.506  31.148  29.674  1.00  0.00     0.029 A 
ATOM     58  N   UNL A   1      43.987  29.829  28.670  1.00  0.00    -0.354 N 
ATOM     59  N   UNL A   1      46.614  29.130  27.578  1.00  0.00    -0.248 NA
ATOM     60  C   UNL A   1      48.784  29.739  26.966  1.00  0.00     0.031 C 
ATOM     61  C   UNL A   1      43.713  31.847  29.555  1.00  0.00     0.029 A 
ATOM     62  C   UNL A   1      44.639  31.020  28.939  1.00  0.00     0.049 A 
ATOM     63  H   UNL A   1      44.397  29.048  28.233  1.00  0.00     0.167 HD
ATOM     64  C   UNL A   1      46.853  30.436  27.992  1.00  0.00     0.074 A 
ATOM     65  C   UNL A   1      48.221  30.743  27.624  1.00  0.00     0.031 C 
ATOM     66  C   UNL A   1      46.013  31.304  28.608  1.00  0.00     0.034 A 
BRANCH  53  67
ATOM     67  C   UNL A   1      40.281  29.120  29.378  1.00  0.00     0.023 A 
ATOM     68  C   UNL A   1      39.327  29.500  28.412  1.00  0.00     0.012 A 
ATOM     69  C   UNL A   1      39.879  28.962  30.718  1.00  0.00     0.148 A 
ATOM     70  C   UNL A   1      38.007  29.759  28.777  1.00  0.00     0.002 A 
ATOM     71  C   UNL A   1      38.551  29.177  31.068  1.00  0.00     0.091 A 
ATOM     72  F   UNL A   1      40.803  28.624  31.630  1.00  0.00    -0.205 F 
ATOM     73  C   UNL A   1      37.618  29.588  30.103  1.00  0.00     0.022 A 
BRANCH  71  74
ATOM     74  S   UNL A   1      37.937  28.903  32.735  1.00  0.00     0.127 S 
ATOM     75  O   UNL A   1      36.564  29.397  32.627  1.00  0.00    -0.237 OA
ATOM     76  O   UNL A   1      38.052  27.451  32.872  1.00  0.00    -0.237 OA
ATOM     77  O   UNL A   1      38.813  29.665  33.612  1.00  0.00    -0.744 OA
ENDBRANCH  71  74
ENDBRANCH  53  67
BRANCH  54  78
ATOM     78  C   UNL A   1      49.375  27.092  25.819  1.00  0.00     0.023 A 
ATOM     79  C   UNL A   1      50.342  26.390  26.562  1.00  0.00     0.012 A 
ATOM     80  C   UNL A   1      49.661  27.457  24.489  1.00  0.00     0.148 A 
ATOM     81  C   UNL A   1      51.580  26.076  26.000  1.00  0.00     0.002 A 
ATOM     82  C   UNL A   1      50.873  27.093  23.916  1.00  0.00     0.091 A 
ATOM     83  F   UNL A   1      48.727  28.132  23.802  1.00  0.00    -0.205 F 
ATOM     84  C   UNL A   1      51.841  26.417  24.675  1.00  0.00     0.022 A 
BRANCH  82  85
ATOM     85  S   UNL A   1      51.239  27.364  22.178  1.00  0.00     0.127 S 
ATOM     86  O   UNL A   1      50.908  28.778  22.018  1.00  0.00    -0.237 OA
ATOM     87  O   UNL A   1      52.668  27.054  22.120  1.00  0.00    -0.237 OA
ATOM     88  O   UNL A   1      50.394  26.431  21.445  1.00  0.00    -0.744 OA
ENDBRANCH  82  85
ENDBRANCH  54  78
BRANCH  66  89
ATOM     89  C   UNL A   1      46.546  32.670  28.952  1.00  0.00     0.023 A 
ATOM     90  C   UNL A   1      47.205  32.877  30.180  1.00  0.00     0.012 A 
ATOM     91  C   UNL A   1      46.466  33.727  28.024  1.00  0.00     0.148 A 
ATOM     92  C   UNL A   1      47.749  34.122  30.492  1.00  0.00     0.002 A 
ATOM     93  C   UNL A   1      47.052  34.952  28.322  1.00  0.00     0.091 A 
ATOM     94  F   UNL A   1      45.817  33.517  26.869  1.00  0.00    -0.205 F 
ATOM     95  C   UNL A   1      47.683  35.154  29.560  1.00  0.00     0.022 A 
BRANCH  93  96
ATOM     96  S   UNL A   1      47.101  36.306  27.143  1.00  0.00     0.127 S 
ATOM     97  O   UNL A   1      47.761  37.353  27.920  1.00  0.00    -0.237 OA
ATOM     98  O   UNL A   1      47.913  35.747  26.060  1.00  0.00    -0.237 OA
ATOM     99  O   UNL A   1      45.716  36.573  26.781  1.00  0.00    -0.744 OA
ENDBRANCH  93  96
ENDBRANCH  66  89
ENDBRANCH  40  41
ENDBRANCH  32  35
ENDBRANCH  30  31
ENDBRANCH  29  30
ENDBRANCH   1  29
TORSDOF 19
ENDMDL
