MODEL 1
REMARK VINA RESULT:     -10.9      0.000      0.000
REMARK SMILES COC(=O)c1ccc2c(c1)=N[C@H](c1cn(CCC(=O)NCCCCCCNC(=O)c3ccc(-c4c5nc(c(-c6cccc(S(=O)(=O)[O-])c6F)c6ccc([nH]6)c(-c6cccc(S(=O)(=O)[O-])c6F)c6nc(c(-c7cccc(S(=O)(=O)[O-])c7F)c7ccc4[nH]7)C=C6)C=C5)cc3)c3ccccc13)N=2
REMARK SMILES IDX 22 1 21 2 20 3 18 4 19 5 17 7 16 8 15 9 13 10 14 11 98 12
REMARK SMILES IDX 93 13 97 14 94 15 96 16 95 17 12 18 5 19 6 20 10 21 7 22
REMARK SMILES IDX 9 23 8 24 11 25 99 26 3 27 4 28 2 29 1 30 23 31 24 32 25 33
REMARK SMILES IDX 26 34 27 35 28 36 29 38 30 39 31 40 92 41 32 42 91 43 33 44
REMARK SMILES IDX 34 45 35 46 85 47 36 48 90 49 84 50 86 51 37 52 89 53 83 54
REMARK SMILES IDX 82 55 38 57 70 58 50 59 69 60 51 61 54 62 68 63 87 64 52 65
REMARK SMILES IDX 53 66 67 68 88 69 55 70 39 71 40 72 48 73 41 74 43 75 49 76
REMARK SMILES IDX 42 77 44 78 45 79 46 80 47 81 71 82 72 83 80 84 73 85 75 86
REMARK SMILES IDX 81 87 74 88 76 89 77 90 78 91 79 92 56 93 57 94 65 95 58 96
REMARK SMILES IDX 60 97 66 98 59 99 61 100 62 101 63 102 64 103
REMARK H PARENT 20 6 27 37 86 56 54 67
REMARK Flexibility Score: inf
ROOT
ATOM      1  C   UNL A   1      35.038  26.125  25.490  1.00  0.00     0.021 C 
ENDROOT
BRANCH   1   2
ATOM      2  C   UNL A   1      35.319  24.736  26.104  1.00  0.00     0.116 C 
BRANCH   2   3
ATOM      3  N   UNL A   1      36.107  23.822  25.286  1.00  0.00    -0.356 N 
ATOM      4  C   UNL A   1      36.052  22.474  25.083  1.00  0.00     0.221 C 
ATOM      5  O   UNL A   1      36.790  21.997  24.213  1.00  0.00    -0.275 OA
ATOM      6  H   UNL A   1      36.823  24.267  24.779  1.00  0.00     0.163 HD
BRANCH   4   7
ATOM      7  C   UNL A   1      35.075  21.576  25.820  1.00  0.00     0.122 C 
BRANCH   7   8
ATOM      8  C   UNL A   1      34.285  20.635  24.873  1.00  0.00     0.132 C 
BRANCH   8   9
ATOM      9  N   UNL A   1      33.057  21.213  24.299  1.00  0.00    -0.347 N 
ATOM     10  C   UNL A   1      32.715  23.243  23.488  1.00  0.00     0.024 A 
ATOM     11  C   UNL A   1      33.122  21.952  23.140  1.00  0.00     0.094 A 
ATOM     12  C   UNL A   1      32.544  23.185  24.927  1.00  0.00     0.007 A 
ATOM     13  C   UNL A   1      32.107  21.873  25.050  1.00  0.00     0.048 A 
ATOM     14  C   UNL A   1      32.158  24.016  25.982  1.00  0.00     0.011 A 
ATOM     15  C   UNL A   1      30.808  21.636  25.524  1.00  0.00     0.027 A 
ATOM     16  C   UNL A   1      30.972  23.766  26.660  1.00  0.00     0.001 A 
ATOM     17  C   UNL A   1      30.222  22.662  26.290  1.00  0.00     0.002 A 
BRANCH  10  18
ATOM     18  C   UNL A   1      32.441  24.299  22.453  1.00  0.00     0.255 C 
ATOM     19  C   UNL A   1      31.151  28.563  23.240  1.00  0.00     0.062 A 
ATOM     20  C   UNL A   1      32.461  28.801  22.649  1.00  0.00     0.018 A 
ATOM     21  C   UNL A   1      30.635  27.326  23.349  1.00  0.00     0.046 A 
ATOM     22  C   UNL A   1      33.305  27.817  22.311  1.00  0.00     0.031 A 
ATOM     23  C   UNL A   1      31.461  26.198  22.904  1.00  0.00     0.087 A 
ATOM     24  C   UNL A   1      32.855  26.431  22.486  1.00  0.00     0.086 A 
ATOM     25  N   UNL A   1      31.145  24.955  22.832  1.00  0.00    -0.252 NA
ATOM     26  N   UNL A   1      33.492  25.330  22.290  1.00  0.00    -0.252 NA
BRANCH  19  27
ATOM     27  C   UNL A   1      30.345  29.685  23.796  1.00  0.00     0.337 C 
ATOM     28  O   UNL A   1      30.695  30.376  24.757  1.00  0.00    -0.246 OA
BRANCH  27  29
ATOM     29  O   UNL A   1      29.204  29.844  23.088  1.00  0.00    -0.465 OA
ATOM     30  C   UNL A   1      29.370  30.412  21.788  1.00  0.00     0.282 C 
ENDBRANCH  27  29
ENDBRANCH  19  27
ENDBRANCH  10  18
ENDBRANCH   8   9
ENDBRANCH   7   8
ENDBRANCH   4   7
ENDBRANCH   2   3
ENDBRANCH   1   2
BRANCH   1  31
ATOM     31  C   UNL A   1      33.664  26.763  25.773  1.00  0.00     0.002 C 
BRANCH  31  32
ATOM     32  C   UNL A   1      33.605  27.788  26.902  1.00  0.00     0.002 C 
BRANCH  32  33
ATOM     33  C   UNL A   1      33.540  29.247  26.465  1.00  0.00     0.021 C 
BRANCH  33  34
ATOM     34  C   UNL A   1      34.599  30.178  27.060  1.00  0.00     0.116 C 
BRANCH  34  35
ATOM     35  N   UNL A   1      34.228  31.045  28.172  1.00  0.00    -0.352 N 
ATOM     36  C   UNL A   1      34.947  31.578  29.216  1.00  0.00     0.251 C 
ATOM     37  H   UNL A   1      33.277  31.299  28.175  1.00  0.00     0.163 HD
ATOM     38  O   UNL A   1      34.442  32.463  29.903  1.00  0.00    -0.269 OA
BRANCH  36  39
ATOM     39  C   UNL A   1      36.251  31.009  29.599  1.00  0.00     0.039 A 
ATOM     40  C   UNL A   1      37.416  31.766  29.596  1.00  0.00     0.014 A 
ATOM     41  C   UNL A   1      36.306  29.625  29.815  1.00  0.00     0.014 A 
ATOM     42  C   UNL A   1      38.627  31.120  29.487  1.00  0.00     0.010 A 
ATOM     43  C   UNL A   1      37.533  28.982  29.833  1.00  0.00     0.010 A 
ATOM     44  C   UNL A   1      38.681  29.722  29.565  1.00  0.00    -0.014 A 
BRANCH  44  45
ATOM     45  C   UNL A   1      40.010  29.126  29.520  1.00  0.00     0.031 A 
ATOM     46  C   UNL A   1      40.635  29.009  30.869  1.00  0.00     0.074 A 
ATOM     47  C   UNL A   1      40.596  28.676  28.394  1.00  0.00     0.049 A 
ATOM     48  N   UNL A   1      41.714  29.582  31.292  1.00  0.00    -0.248 NA
ATOM     49  C   UNL A   1      39.846  28.358  31.930  1.00  0.00     0.031 C 
ATOM     50  C   UNL A   1      40.011  28.542  27.058  1.00  0.00     0.029 A 
ATOM     51  N   UNL A   1      41.820  28.097  28.247  1.00  0.00    -0.354 N 
ATOM     52  C   UNL A   1      41.853  29.179  32.618  1.00  0.00     0.074 A 
ATOM     53  C   UNL A   1      40.595  28.599  33.005  1.00  0.00     0.031 C 
ATOM     54  C   UNL A   1      40.755  27.674  26.337  1.00  0.00     0.029 A 
ATOM     55  C   UNL A   1      41.921  27.295  27.113  1.00  0.00     0.049 A 
ATOM     56  H   UNL A   1      42.561  28.232  28.880  1.00  0.00     0.167 HD
ATOM     57  C   UNL A   1      43.067  29.132  33.226  1.00  0.00     0.034 A 
ATOM     58  C   UNL A   1      42.837  26.314  26.903  1.00  0.00     0.034 A 
ATOM     59  C   UNL A   1      44.039  29.939  32.543  1.00  0.00     0.049 A 
ATOM     60  C   UNL A   1      43.986  26.607  27.796  1.00  0.00     0.074 A 
ATOM     61  C   UNL A   1      44.139  31.282  32.237  1.00  0.00     0.029 A 
ATOM     62  N   UNL A   1      44.925  29.291  31.718  1.00  0.00    -0.354 N 
ATOM     63  N   UNL A   1      44.749  27.657  27.661  1.00  0.00    -0.248 NA
ATOM     64  C   UNL A   1      44.010  25.976  29.107  1.00  0.00     0.031 C 
ATOM     65  C   UNL A   1      44.705  31.314  30.932  1.00  0.00     0.029 A 
ATOM     66  C   UNL A   1      44.977  29.999  30.548  1.00  0.00     0.049 A 
ATOM     67  H   UNL A   1      45.428  28.471  31.929  1.00  0.00     0.167 HD
ATOM     68  C   UNL A   1      44.981  28.080  28.963  1.00  0.00     0.074 A 
ATOM     69  C   UNL A   1      44.588  26.954  29.809  1.00  0.00     0.031 C 
ATOM     70  C   UNL A   1      45.182  29.398  29.251  1.00  0.00     0.034 A 
BRANCH  57  71
ATOM     71  C   UNL A   1      43.469  28.059  34.207  1.00  0.00     0.023 A 
ATOM     72  C   UNL A   1      43.920  28.470  35.480  1.00  0.00     0.012 A 
ATOM     73  C   UNL A   1      43.704  26.712  33.845  1.00  0.00     0.148 A 
ATOM     74  C   UNL A   1      44.609  27.595  36.328  1.00  0.00     0.002 A 
ATOM     75  C   UNL A   1      44.325  25.830  34.718  1.00  0.00     0.091 A 
ATOM     76  F   UNL A   1      43.457  26.301  32.599  1.00  0.00    -0.205 F 
ATOM     77  C   UNL A   1      44.806  26.273  35.950  1.00  0.00     0.022 A 
BRANCH  75  78
ATOM     78  S   UNL A   1      44.583  24.108  34.276  1.00  0.00     0.127 S 
ATOM     79  O   UNL A   1      45.227  23.592  35.481  1.00  0.00    -0.237 OA
ATOM     80  O   UNL A   1      43.212  23.647  34.058  1.00  0.00    -0.237 OA
ATOM     81  O   UNL A   1      45.402  24.130  33.071  1.00  0.00    -0.744 OA
ENDBRANCH  75  78
ENDBRANCH  57  71
BRANCH  58  82
ATOM     82  C   UNL A   1      42.671  24.996  26.230  1.00  0.00     0.023 A 
ATOM     83  C   UNL A   1      43.626  24.581  25.276  1.00  0.00     0.012 A 
ATOM     84  C   UNL A   1      41.753  24.026  26.694  1.00  0.00     0.148 A 
ATOM     85  C   UNL A   1      43.692  23.250  24.838  1.00  0.00     0.002 A 
ATOM     86  C   UNL A   1      41.806  22.711  26.240  1.00  0.00     0.091 A 
ATOM     87  F   UNL A   1      40.885  24.355  27.658  1.00  0.00    -0.205 F 
ATOM     88  C   UNL A   1      42.785  22.313  25.325  1.00  0.00     0.022 A 
BRANCH  86  89
ATOM     89  S   UNL A   1      40.654  21.461  26.831  1.00  0.00     0.127 S 
ATOM     90  O   UNL A   1      39.363  22.008  26.413  1.00  0.00    -0.237 OA
ATOM     91  O   UNL A   1      41.085  20.277  26.094  1.00  0.00    -0.237 OA
ATOM     92  O   UNL A   1      40.837  21.412  28.277  1.00  0.00    -0.744 OA
ENDBRANCH  86  89
ENDBRANCH  58  82
BRANCH  70  93
ATOM     93  C   UNL A   1      45.361  30.368  28.114  1.00  0.00     0.023 A 
ATOM     94  C   UNL A   1      44.262  30.997  27.490  1.00  0.00     0.012 A 
ATOM     95  C   UNL A   1      46.658  30.845  27.861  1.00  0.00     0.148 A 
ATOM     96  C   UNL A   1      44.456  32.088  26.639  1.00  0.00     0.002 A 
ATOM     97  C   UNL A   1      46.841  31.955  27.050  1.00  0.00     0.091 A 
ATOM     98  F   UNL A   1      47.682  30.239  28.479  1.00  0.00    -0.205 F 
ATOM     99  C   UNL A   1      45.743  32.579  26.433  1.00  0.00     0.022 A 
BRANCH  97 100
ATOM    100  S   UNL A   1      48.450  32.721  26.848  1.00  0.00     0.127 S 
ATOM    101  O   UNL A   1      48.746  33.172  28.206  1.00  0.00    -0.237 OA
ATOM    102  O   UNL A   1      49.270  31.601  26.383  1.00  0.00    -0.237 OA
ATOM    103  O   UNL A   1      48.276  33.785  25.866  1.00  0.00    -0.744 OA
ENDBRANCH  97 100
ENDBRANCH  70  93
ENDBRANCH  44  45
ENDBRANCH  36  39
ENDBRANCH  34  35
ENDBRANCH  33  34
ENDBRANCH  32  33
ENDBRANCH  31  32
ENDBRANCH   1  31
TORSDOF 21
ENDMDL
MODEL 2
REMARK VINA RESULT:     -10.9      2.781      7.871
REMARK SMILES COC(=O)c1ccc2c(c1)=N[C@H](c1cn(CCC(=O)NCCCCCCNC(=O)c3ccc(-c4c5nc(c(-c6cccc(S(=O)(=O)[O-])c6F)c6ccc([nH]6)c(-c6cccc(S(=O)(=O)[O-])c6F)c6nc(c(-c7cccc(S(=O)(=O)[O-])c7F)c7ccc4[nH]7)C=C6)C=C5)cc3)c3ccccc13)N=2
REMARK SMILES IDX 22 1 21 2 20 3 18 4 19 5 17 7 16 8 15 9 13 10 14 11 98 12
REMARK SMILES IDX 93 13 97 14 94 15 96 16 95 17 12 18 5 19 6 20 10 21 7 22
REMARK SMILES IDX 9 23 8 24 11 25 99 26 3 27 4 28 2 29 1 30 23 31 24 32 25 33
REMARK SMILES IDX 26 34 27 35 28 36 29 38 30 39 31 40 92 41 32 42 91 43 33 44
REMARK SMILES IDX 34 45 35 46 85 47 36 48 90 49 84 50 86 51 37 52 89 53 83 54
REMARK SMILES IDX 82 55 38 57 70 58 50 59 69 60 51 61 54 62 68 63 87 64 52 65
REMARK SMILES IDX 53 66 67 68 88 69 55 70 39 71 40 72 48 73 41 74 43 75 49 76
REMARK SMILES IDX 42 77 44 78 45 79 46 80 47 81 71 82 72 83 80 84 73 85 75 86
REMARK SMILES IDX 81 87 74 88 76 89 77 90 78 91 79 92 56 93 57 94 65 95 58 96
REMARK SMILES IDX 60 97 66 98 59 99 61 100 62 101 63 102 64 103
REMARK H PARENT 20 6 27 37 86 56 54 67
REMARK Flexibility Score: inf
ROOT
ATOM      1  C   UNL A   1      39.275  23.734  26.783  1.00  0.00     0.021 C 
ENDROOT
BRANCH   1   2
ATOM      2  C   UNL A   1      37.883  23.356  26.233  1.00  0.00     0.116 C 
BRANCH   2   3
ATOM      3  N   UNL A   1      37.762  23.299  24.782  1.00  0.00    -0.356 N 
ATOM      4  C   UNL A   1      36.709  23.062  23.945  1.00  0.00     0.221 C 
ATOM      5  O   UNL A   1      36.899  23.211  22.733  1.00  0.00    -0.275 OA
ATOM      6  H   UNL A   1      38.609  23.464  24.309  1.00  0.00     0.163 HD
BRANCH   4   7
ATOM      7  C   UNL A   1      35.324  22.708  24.455  1.00  0.00     0.122 C 
BRANCH   7   8
ATOM      8  C   UNL A   1      34.305  22.458  23.313  1.00  0.00     0.132 C 
BRANCH   8   9
ATOM      9  N   UNL A   1      33.197  23.426  23.241  1.00  0.00    -0.347 N 
ATOM     10  C   UNL A   1      33.226  25.612  23.579  1.00  0.00     0.024 A 
ATOM     11  C   UNL A   1      33.376  24.629  22.597  1.00  0.00     0.094 A 
ATOM     12  C   UNL A   1      33.077  24.863  24.811  1.00  0.00     0.007 A 
ATOM     13  C   UNL A   1      32.403  23.753  24.321  1.00  0.00     0.048 A 
ATOM     14  C   UNL A   1      32.875  25.096  26.174  1.00  0.00     0.011 A 
ATOM     15  C   UNL A   1      31.092  23.511  24.758  1.00  0.00     0.027 A 
ATOM     16  C   UNL A   1      31.678  24.722  26.769  1.00  0.00     0.001 A 
ATOM     17  C   UNL A   1      30.726  24.085  25.991  1.00  0.00     0.002 A 
BRANCH  10  18
ATOM     18  C   UNL A   1      33.136  27.074  23.236  1.00  0.00     0.255 C 
ATOM     19  C   UNL A   1      29.350  29.532  22.928  1.00  0.00     0.062 A 
ATOM     20  C   UNL A   1      29.981  30.183  24.068  1.00  0.00     0.018 A 
ATOM     21  C   UNL A   1      29.953  28.537  22.254  1.00  0.00     0.046 A 
ATOM     22  C   UNL A   1      31.124  29.754  24.619  1.00  0.00     0.031 A 
ATOM     23  C   UNL A   1      31.260  28.076  22.737  1.00  0.00     0.087 A 
ATOM     24  C   UNL A   1      31.803  28.610  24.000  1.00  0.00     0.086 A 
ATOM     25  N   UNL A   1      32.051  27.213  22.208  1.00  0.00    -0.252 NA
ATOM     26  N   UNL A   1      32.867  27.988  24.371  1.00  0.00    -0.252 NA
BRANCH  19  27
ATOM     27  C   UNL A   1      27.978  29.912  22.490  1.00  0.00     0.337 C 
ATOM     28  O   UNL A   1      26.959  29.705  23.156  1.00  0.00    -0.246 OA
BRANCH  27  29
ATOM     29  O   UNL A   1      28.019  30.525  21.287  1.00  0.00    -0.465 OA
ATOM     30  C   UNL A   1      28.168  31.945  21.334  1.00  0.00     0.282 C 
ENDBRANCH  27  29
ENDBRANCH  19  27
ENDBRANCH  10  18
ENDBRANCH   8   9
ENDBRANCH   7   8
ENDBRANCH   4   7
ENDBRANCH   2   3
ENDBRANCH   1   2
BRANCH   1  31
ATOM     31  C   UNL A   1      40.091  22.625  27.476  1.00  0.00     0.002 C 
BRANCH  31  32
ATOM     32  C   UNL A   1      41.593  22.860  27.606  1.00  0.00     0.002 C 
BRANCH  32  33
ATOM     33  C   UNL A   1      42.478  21.653  27.317  1.00  0.00     0.021 C 
BRANCH  33  34
ATOM     34  C   UNL A   1      42.431  21.108  25.888  1.00  0.00     0.116 C 
BRANCH  34  35
ATOM     35  N   UNL A   1      43.685  20.906  25.171  1.00  0.00    -0.352 N 
ATOM     36  C   UNL A   1      44.869  21.603  25.153  1.00  0.00     0.251 C 
ATOM     37  H   UNL A   1      43.682  20.114  24.586  1.00  0.00     0.163 HD
ATOM     38  O   UNL A   1      45.856  21.097  24.625  1.00  0.00    -0.269 OA
BRANCH  36  39
ATOM     39  C   UNL A   1      44.930  22.994  25.635  1.00  0.00     0.039 A 
ATOM     40  C   UNL A   1      45.655  23.353  26.765  1.00  0.00     0.014 A 
ATOM     41  C   UNL A   1      44.096  23.927  25.003  1.00  0.00     0.014 A 
ATOM     42  C   UNL A   1      45.310  24.505  27.436  1.00  0.00     0.010 A 
ATOM     43  C   UNL A   1      43.843  25.145  25.613  1.00  0.00     0.010 A 
ATOM     44  C   UNL A   1      44.372  25.383  26.879  1.00  0.00    -0.014 A 
BRANCH  44  45
ATOM     45  C   UNL A   1      44.126  26.616  27.616  1.00  0.00     0.031 A 
ATOM     46  C   UNL A   1      45.239  27.600  27.481  1.00  0.00     0.074 A 
ATOM     47  C   UNL A   1      42.996  26.869  28.303  1.00  0.00     0.049 A 
ATOM     48  N   UNL A   1      46.002  28.063  28.416  1.00  0.00    -0.248 NA
ATOM     49  C   UNL A   1      45.692  27.931  26.118  1.00  0.00     0.031 C 
ATOM     50  C   UNL A   1      41.761  26.084  28.339  1.00  0.00     0.029 A 
ATOM     51  N   UNL A   1      42.665  27.985  29.011  1.00  0.00    -0.354 N 
ATOM     52  C   UNL A   1      46.894  28.920  27.776  1.00  0.00     0.074 A 
ATOM     53  C   UNL A   1      46.784  28.652  26.368  1.00  0.00     0.031 C 
ATOM     54  C   UNL A   1      40.752  26.871  28.773  1.00  0.00     0.029 A 
ATOM     55  C   UNL A   1      41.291  28.162  29.156  1.00  0.00     0.049 A 
ATOM     56  H   UNL A   1      43.332  28.605  29.384  1.00  0.00     0.167 HD
ATOM     57  C   UNL A   1      47.482  29.956  28.430  1.00  0.00     0.034 A 
ATOM     58  C   UNL A   1      40.660  29.327  29.454  1.00  0.00     0.034 A 
ATOM     59  C   UNL A   1      47.445  29.778  29.855  1.00  0.00     0.049 A 
ATOM     60  C   UNL A   1      41.666  30.199  30.112  1.00  0.00     0.074 A 
ATOM     61  C   UNL A   1      47.938  28.826  30.725  1.00  0.00     0.029 A 
ATOM     62  N   UNL A   1      46.483  30.470  30.549  1.00  0.00    -0.354 N 
ATOM     63  N   UNL A   1      42.199  29.931  31.271  1.00  0.00    -0.248 NA
ATOM     64  C   UNL A   1      42.410  31.131  29.277  1.00  0.00     0.031 C 
ATOM     65  C   UNL A   1      46.922  28.676  31.710  1.00  0.00     0.029 A 
ATOM     66  C   UNL A   1      45.905  29.589  31.422  1.00  0.00     0.049 A 
ATOM     67  H   UNL A   1      46.252  31.421  30.440  1.00  0.00     0.167 HD
ATOM     68  C   UNL A   1      43.534  30.284  31.124  1.00  0.00     0.074 A 
ATOM     69  C   UNL A   1      43.583  31.107  29.915  1.00  0.00     0.031 C 
ATOM     70  C   UNL A   1      44.516  29.636  31.814  1.00  0.00     0.034 A 
BRANCH  57  71
ATOM     71  C   UNL A   1      47.743  31.302  27.802  1.00  0.00     0.023 A 
ATOM     72  C   UNL A   1      49.001  31.899  28.029  1.00  0.00     0.012 A 
ATOM     73  C   UNL A   1      46.728  32.124  27.258  1.00  0.00     0.148 A 
ATOM     74  C   UNL A   1      49.222  33.257  27.770  1.00  0.00     0.002 A 
ATOM     75  C   UNL A   1      46.974  33.452  26.937  1.00  0.00     0.091 A 
ATOM     76  F   UNL A   1      45.474  31.674  27.173  1.00  0.00    -0.205 F 
ATOM     77  C   UNL A   1      48.211  34.033  27.218  1.00  0.00     0.022 A 
BRANCH  75  78
ATOM     78  S   UNL A   1      45.699  34.485  26.204  1.00  0.00     0.127 S 
ATOM     79  O   UNL A   1      45.385  33.742  24.988  1.00  0.00    -0.237 OA
ATOM     80  O   UNL A   1      44.663  34.457  27.237  1.00  0.00    -0.237 OA
ATOM     81  O   UNL A   1      46.314  35.793  26.016  1.00  0.00    -0.744 OA
ENDBRANCH  75  78
ENDBRANCH  57  71
BRANCH  58  82
ATOM     82  C   UNL A   1      39.362  29.854  28.950  1.00  0.00     0.023 A 
ATOM     83  C   UNL A   1      38.849  29.374  27.724  1.00  0.00     0.012 A 
ATOM     84  C   UNL A   1      38.491  30.611  29.767  1.00  0.00     0.148 A 
ATOM     85  C   UNL A   1      37.517  29.600  27.351  1.00  0.00     0.002 A 
ATOM     86  C   UNL A   1      37.174  30.853  29.382  1.00  0.00     0.091 A 
ATOM     87  F   UNL A   1      38.909  31.014  30.972  1.00  0.00    -0.205 F 
ATOM     88  C   UNL A   1      36.677  30.335  28.183  1.00  0.00     0.022 A 
BRANCH  86  89
ATOM     89  S   UNL A   1      36.048  31.802  30.416  1.00  0.00     0.127 S 
ATOM     90  O   UNL A   1      35.829  30.898  31.546  1.00  0.00    -0.237 OA
ATOM     91  O   UNL A   1      36.843  32.987  30.725  1.00  0.00    -0.237 OA
ATOM     92  O   UNL A   1      34.861  32.028  29.599  1.00  0.00    -0.744 OA
ENDBRANCH  86  89
ENDBRANCH  58  82
BRANCH  70  93
ATOM     93  C   UNL A   1      44.120  28.672  32.900  1.00  0.00     0.023 A 
ATOM     94  C   UNL A   1      43.989  27.288  32.658  1.00  0.00     0.012 A 
ATOM     95  C   UNL A   1      44.147  29.136  34.225  1.00  0.00     0.148 A 
ATOM     96  C   UNL A   1      43.898  26.385  33.720  1.00  0.00     0.002 A 
ATOM     97  C   UNL A   1      44.099  28.232  35.277  1.00  0.00     0.091 A 
ATOM     98  F   UNL A   1      44.287  30.454  34.427  1.00  0.00    -0.205 F 
ATOM     99  C   UNL A   1      43.972  26.855  35.030  1.00  0.00     0.022 A 
BRANCH  97 100
ATOM    100  S   UNL A   1      44.323  28.751  36.979  1.00  0.00     0.127 S 
ATOM    101  O   UNL A   1      45.587  29.482  36.912  1.00  0.00    -0.237 OA
ATOM    102  O   UNL A   1      43.144  29.589  37.204  1.00  0.00    -0.237 OA
ATOM    103  O   UNL A   1      44.354  27.531  37.778  1.00  0.00    -0.744 OA
ENDBRANCH  97 100
ENDBRANCH  70  93
ENDBRANCH  44  45
ENDBRANCH  36  39
ENDBRANCH  34  35
ENDBRANCH  33  34
ENDBRANCH  32  33
ENDBRANCH  31  32
ENDBRANCH   1  31
TORSDOF 21
ENDMDL
MODEL 3
REMARK VINA RESULT:     -10.5      3.421      8.448
REMARK SMILES COC(=O)c1ccc2c(c1)=N[C@H](c1cn(CCC(=O)NCCCCCCNC(=O)c3ccc(-c4c5nc(c(-c6cccc(S(=O)(=O)[O-])c6F)c6ccc([nH]6)c(-c6cccc(S(=O)(=O)[O-])c6F)c6nc(c(-c7cccc(S(=O)(=O)[O-])c7F)c7ccc4[nH]7)C=C6)C=C5)cc3)c3ccccc13)N=2
REMARK SMILES IDX 22 1 21 2 20 3 18 4 19 5 17 7 16 8 15 9 13 10 14 11 98 12
REMARK SMILES IDX 93 13 97 14 94 15 96 16 95 17 12 18 5 19 6 20 10 21 7 22
REMARK SMILES IDX 9 23 8 24 11 25 99 26 3 27 4 28 2 29 1 30 23 31 24 32 25 33
REMARK SMILES IDX 26 34 27 35 28 36 29 38 30 39 31 40 92 41 32 42 91 43 33 44
REMARK SMILES IDX 34 45 35 46 85 47 36 48 90 49 84 50 86 51 37 52 89 53 83 54
REMARK SMILES IDX 82 55 38 57 70 58 50 59 69 60 51 61 54 62 68 63 87 64 52 65
REMARK SMILES IDX 53 66 67 68 88 69 55 70 39 71 40 72 48 73 41 74 43 75 49 76
REMARK SMILES IDX 42 77 44 78 45 79 46 80 47 81 71 82 72 83 80 84 73 85 75 86
REMARK SMILES IDX 81 87 74 88 76 89 77 90 78 91 79 92 56 93 57 94 65 95 58 96
REMARK SMILES IDX 60 97 66 98 59 99 61 100 62 101 63 102 64 103
REMARK H PARENT 20 6 27 37 86 56 54 67
REMARK Flexibility Score: inf
ROOT
ATOM      1  C   UNL A   1      40.057  23.951  27.367  1.00  0.00     0.021 C 
ENDROOT
BRANCH   1   2
ATOM      2  C   UNL A   1      38.868  23.775  26.398  1.00  0.00     0.116 C 
BRANCH   2   3
ATOM      3  N   UNL A   1      38.608  22.414  25.944  1.00  0.00    -0.356 N 
ATOM      4  C   UNL A   1      37.466  21.753  25.593  1.00  0.00     0.221 C 
ATOM      5  O   UNL A   1      37.587  20.619  25.117  1.00  0.00    -0.275 OA
ATOM      6  H   UNL A   1      39.418  21.860  25.877  1.00  0.00     0.163 HD
BRANCH   4   7
ATOM      7  C   UNL A   1      36.091  22.389  25.693  1.00  0.00     0.122 C 
BRANCH   7   8
ATOM      8  C   UNL A   1      34.939  21.357  25.579  1.00  0.00     0.132 C 
BRANCH   8   9
ATOM      9  N   UNL A   1      33.782  21.798  24.779  1.00  0.00    -0.347 N 
ATOM     10  C   UNL A   1      33.467  23.711  23.713  1.00  0.00     0.024 A 
ATOM     11  C   UNL A   1      33.981  22.419  23.567  1.00  0.00     0.094 A 
ATOM     12  C   UNL A   1      33.091  23.786  25.111  1.00  0.00     0.007 A 
ATOM     13  C   UNL A   1      32.702  22.469  25.313  1.00  0.00     0.048 A 
ATOM     14  C   UNL A   1      32.515  24.694  26.006  1.00  0.00     0.011 A 
ATOM     15  C   UNL A   1      31.360  22.200  25.621  1.00  0.00     0.027 A 
ATOM     16  C   UNL A   1      31.256  24.439  26.533  1.00  0.00     0.001 A 
ATOM     17  C   UNL A   1      30.621  23.260  26.183  1.00  0.00     0.002 A 
BRANCH  10  18
ATOM     18  C   UNL A   1      33.299  24.639  22.542  1.00  0.00     0.255 C 
ATOM     19  C   UNL A   1      30.890  28.468  22.472  1.00  0.00     0.062 A 
ATOM     20  C   UNL A   1      32.228  29.009  22.278  1.00  0.00     0.018 A 
ATOM     21  C   UNL A   1      30.662  27.144  22.547  1.00  0.00     0.046 A 
ATOM     22  C   UNL A   1      33.336  28.257  22.309  1.00  0.00     0.031 A 
ATOM     23  C   UNL A   1      31.820  26.246  22.485  1.00  0.00     0.087 A 
ATOM     24  C   UNL A   1      33.183  26.808  22.481  1.00  0.00     0.086 A 
ATOM     25  N   UNL A   1      31.836  24.962  22.449  1.00  0.00    -0.252 NA
ATOM     26  N   UNL A   1      34.084  25.896  22.596  1.00  0.00    -0.252 NA
BRANCH  19  27
ATOM     27  C   UNL A   1      29.716  29.368  22.645  1.00  0.00     0.337 C 
ATOM     28  O   UNL A   1      28.831  29.520  21.797  1.00  0.00    -0.246 OA
BRANCH  27  29
ATOM     29  O   UNL A   1      29.753  29.965  23.857  1.00  0.00    -0.465 OA
ATOM     30  C   UNL A   1      29.210  31.286  23.900  1.00  0.00     0.282 C 
ENDBRANCH  27  29
ENDBRANCH  19  27
ENDBRANCH  10  18
ENDBRANCH   8   9
ENDBRANCH   7   8
ENDBRANCH   4   7
ENDBRANCH   2   3
ENDBRANCH   1   2
BRANCH   1  31
ATOM     31  C   UNL A   1      40.766  22.676  27.863  1.00  0.00     0.002 C 
BRANCH  31  32
ATOM     32  C   UNL A   1      41.855  22.864  28.915  1.00  0.00     0.002 C 
BRANCH  32  33
ATOM     33  C   UNL A   1      43.244  22.376  28.521  1.00  0.00     0.021 C 
BRANCH  33  34
ATOM     34  C   UNL A   1      44.153  23.401  27.841  1.00  0.00     0.116 C 
BRANCH  34  35
ATOM     35  N   UNL A   1      43.824  23.848  26.493  1.00  0.00    -0.352 N 
ATOM     36  C   UNL A   1      43.465  25.071  25.980  1.00  0.00     0.251 C 
ATOM     37  H   UNL A   1      43.869  23.133  25.818  1.00  0.00     0.163 HD
ATOM     38  O   UNL A   1      43.453  25.232  24.761  1.00  0.00    -0.269 OA
BRANCH  36  39
ATOM     39  C   UNL A   1      42.968  26.141  26.863  1.00  0.00     0.039 A 
ATOM     40  C   UNL A   1      41.946  27.001  26.480  1.00  0.00     0.014 A 
ATOM     41  C   UNL A   1      43.675  26.366  28.053  1.00  0.00     0.014 A 
ATOM     42  C   UNL A   1      41.848  28.229  27.094  1.00  0.00     0.010 A 
ATOM     43  C   UNL A   1      43.488  27.550  28.748  1.00  0.00     0.010 A 
ATOM     44  C   UNL A   1      42.649  28.521  28.205  1.00  0.00    -0.014 A 
BRANCH  44  45
ATOM     45  C   UNL A   1      42.424  29.812  28.841  1.00  0.00     0.031 A 
ATOM     46  C   UNL A   1      43.505  30.797  28.544  1.00  0.00     0.074 A 
ATOM     47  C   UNL A   1      41.335  30.111  29.574  1.00  0.00     0.049 A 
ATOM     48  N   UNL A   1      44.316  31.356  29.381  1.00  0.00    -0.248 NA
ATOM     49  C   UNL A   1      43.863  31.007  27.130  1.00  0.00     0.031 C 
ATOM     50  C   UNL A   1      40.121  29.313  29.762  1.00  0.00     0.029 A 
ATOM     51  N   UNL A   1      41.026  31.282  30.197  1.00  0.00    -0.354 N 
ATOM     52  C   UNL A   1      45.147  32.164  28.609  1.00  0.00     0.074 A 
ATOM     53  C   UNL A   1      44.953  31.765  27.241  1.00  0.00     0.031 C 
ATOM     54  C   UNL A   1      39.126  30.122  30.187  1.00  0.00     0.029 A 
ATOM     55  C   UNL A   1      39.661  31.451  30.415  1.00  0.00     0.049 A 
ATOM     56  H   UNL A   1      41.702  31.945  30.468  1.00  0.00     0.167 HD
ATOM     57  C   UNL A   1      45.753  33.265  29.126  1.00  0.00     0.034 A 
ATOM     58  C   UNL A   1      39.025  32.628  30.646  1.00  0.00     0.034 A 
ATOM     59  C   UNL A   1      45.810  33.219  30.561  1.00  0.00     0.049 A 
ATOM     60  C   UNL A   1      40.051  33.573  31.153  1.00  0.00     0.074 A 
ATOM     61  C   UNL A   1      46.378  32.359  31.480  1.00  0.00     0.029 A 
ATOM     62  N   UNL A   1      44.880  33.957  31.250  1.00  0.00    -0.354 N 
ATOM     63  N   UNL A   1      40.663  33.422  32.295  1.00  0.00    -0.248 NA
ATOM     64  C   UNL A   1      40.721  34.435  30.190  1.00  0.00     0.031 C 
ATOM     65  C   UNL A   1      45.430  32.285  32.539  1.00  0.00     0.029 A 
ATOM     66  C   UNL A   1      44.378  33.152  32.235  1.00  0.00     0.049 A 
ATOM     67  H   UNL A   1      44.623  34.890  31.069  1.00  0.00     0.167 HD
ATOM     68  C   UNL A   1      41.978  33.780  32.030  1.00  0.00     0.074 A 
ATOM     69  C   UNL A   1      41.932  34.488  30.751  1.00  0.00     0.031 C 
ATOM     70  C   UNL A   1      43.015  33.214  32.710  1.00  0.00     0.034 A 
BRANCH  57  71
ATOM     71  C   UNL A   1      45.945  34.550  28.362  1.00  0.00     0.023 A 
ATOM     72  C   UNL A   1      47.266  35.010  28.171  1.00  0.00     0.012 A 
ATOM     73  C   UNL A   1      44.900  35.462  28.085  1.00  0.00     0.148 A 
ATOM     74  C   UNL A   1      47.531  36.324  27.771  1.00  0.00     0.002 A 
ATOM     75  C   UNL A   1      45.167  36.743  27.619  1.00  0.00     0.091 A 
ATOM     76  F   UNL A   1      43.640  35.154  28.400  1.00  0.00    -0.205 F 
ATOM     77  C   UNL A   1      46.482  37.190  27.488  1.00  0.00     0.022 A 
BRANCH  75  78
ATOM     78  S   UNL A   1      43.839  37.887  27.225  1.00  0.00     0.127 S 
ATOM     79  O   UNL A   1      43.367  38.255  28.556  1.00  0.00    -0.237 OA
ATOM     80  O   UNL A   1      44.558  38.941  26.507  1.00  0.00    -0.237 OA
ATOM     81  O   UNL A   1      42.905  37.135  26.398  1.00  0.00    -0.744 OA
ENDBRANCH  75  78
ENDBRANCH  57  71
BRANCH  58  82
ATOM     82  C   UNL A   1      37.686  33.086  30.181  1.00  0.00     0.023 A 
ATOM     83  C   UNL A   1      37.265  32.774  28.869  1.00  0.00     0.012 A 
ATOM     84  C   UNL A   1      36.712  33.586  31.075  1.00  0.00     0.148 A 
ATOM     85  C   UNL A   1      35.924  32.911  28.481  1.00  0.00     0.002 A 
ATOM     86  C   UNL A   1      35.386  33.743  30.678  1.00  0.00     0.091 A 
ATOM     87  F   UNL A   1      37.050  33.817  32.349  1.00  0.00    -0.205 F 
ATOM     88  C   UNL A   1      34.983  33.390  29.387  1.00  0.00     0.022 A 
BRANCH  86  89
ATOM     89  S   UNL A   1      34.130  34.364  31.808  1.00  0.00     0.127 S 
ATOM     90  O   UNL A   1      33.057  34.754  30.892  1.00  0.00    -0.237 OA
ATOM     91  O   UNL A   1      33.844  33.187  32.622  1.00  0.00    -0.237 OA
ATOM     92  O   UNL A   1      34.750  35.485  32.505  1.00  0.00    -0.744 OA
ENDBRANCH  86  89
ENDBRANCH  58  82
BRANCH  70  93
ATOM     93  C   UNL A   1      42.710  32.348  33.904  1.00  0.00     0.023 A 
ATOM     94  C   UNL A   1      42.464  32.898  35.180  1.00  0.00     0.012 A 
ATOM     95  C   UNL A   1      42.405  30.998  33.670  1.00  0.00     0.148 A 
ATOM     96  C   UNL A   1      41.915  32.115  36.199  1.00  0.00     0.002 A 
ATOM     97  C   UNL A   1      41.819  30.236  34.671  1.00  0.00     0.091 A 
ATOM     98  F   UNL A   1      42.634  30.505  32.444  1.00  0.00    -0.205 F 
ATOM     99  C   UNL A   1      41.575  30.790  35.939  1.00  0.00     0.022 A 
BRANCH  97 100
ATOM    100  S   UNL A   1      41.234  28.568  34.368  1.00  0.00     0.127 S 
ATOM    101  O   UNL A   1      42.404  27.940  33.757  1.00  0.00    -0.237 OA
ATOM    102  O   UNL A   1      40.924  28.099  35.719  1.00  0.00    -0.237 OA
ATOM    103  O   UNL A   1      40.072  28.695  33.495  1.00  0.00    -0.744 OA
ENDBRANCH  97 100
ENDBRANCH  70  93
ENDBRANCH  44  45
ENDBRANCH  36  39
ENDBRANCH  34  35
ENDBRANCH  33  34
ENDBRANCH  32  33
ENDBRANCH  31  32
ENDBRANCH   1  31
TORSDOF 21
ENDMDL
