MODEL 1
REMARK VINA RESULT:     -11.5      0.000      0.000
REMARK SMILES Cc1cc(CS(=O)(=O)[C@@H](C)CC(=O)NCCCCCCNC(=O)c2ccc(-c3c4nc(c(-c5cccc(S(=O)(=O)[O-])c5F)c5ccc([nH]5)c(-c5cccc(S(=O)(=O)[O-])c5F)c5nc(c(-c6cccc(S(=O)(=O)[O-])c6F)c6ccc3[nH]6)C=C5)C=C4)cc2)c2ccccc2n1
REMARK SMILES IDX 17 1 16 2 15 3 14 4 12 5 13 6 11 8 9 9 10 10 6 11 7 12 8 13
REMARK SMILES IDX 5 14 4 15 1 16 2 17 3 18 93 19 92 20 87 21 91 22 88 23 90 24
REMARK SMILES IDX 89 25 18 26 19 27 20 28 21 29 22 30 23 32 24 33 25 34 86 35
REMARK SMILES IDX 26 36 85 37 27 38 28 39 29 40 79 41 30 42 84 43 78 44 80 45
REMARK SMILES IDX 31 46 83 47 77 48 76 49 32 51 64 52 44 53 63 54 45 55 48 56
REMARK SMILES IDX 62 57 81 58 46 59 47 60 61 62 82 63 49 64 33 65 34 66 42 67
REMARK SMILES IDX 35 68 37 69 43 70 36 71 38 72 39 73 40 74 41 75 65 76 66 77
REMARK SMILES IDX 74 78 67 79 69 80 75 81 68 82 70 83 71 84 72 85 73 86 50 87
REMARK SMILES IDX 51 88 59 89 52 90 54 91 60 92 53 93 55 94 56 95 57 96 58 97
REMARK H PARENT 14 7 21 31 80 50 48 61
REMARK Flexibility Score: inf
ROOT
ATOM      1  C   UNL A   1      30.652  28.680  24.587  1.00  0.00     0.002 C 
ENDROOT
BRANCH   1   2
ATOM      2  C   UNL A   1      30.630  28.709  23.057  1.00  0.00     0.021 C 
BRANCH   2   3
ATOM      3  C   UNL A   1      30.687  27.319  22.421  1.00  0.00     0.116 C 
BRANCH   3   4
ATOM      4  N   UNL A   1      32.003  26.987  21.921  1.00  0.00    -0.356 N 
ATOM      5  C   UNL A   1      32.770  25.889  22.161  1.00  0.00     0.221 C 
ATOM      6  O   UNL A   1      33.804  25.740  21.509  1.00  0.00    -0.275 OA
ATOM      7  H   UNL A   1      32.404  27.654  21.317  1.00  0.00     0.163 HD
BRANCH   5   8
ATOM      8  C   UNL A   1      32.349  24.865  23.197  1.00  0.00     0.119 C 
BRANCH   8   9
ATOM      9  C   UNL A   1      32.448  25.369  24.630  1.00  0.00     0.115 C 
ATOM     10  C   UNL A   1      33.880  25.784  24.993  1.00  0.00     0.025 C 
BRANCH   9  11
ATOM     11  S   UNL A   1      31.719  24.371  25.973  1.00  0.00     0.157 S 
ATOM     12  O   UNL A   1      30.701  23.560  25.319  1.00  0.00    -0.228 OA
ATOM     13  O   UNL A   1      31.274  25.319  26.984  1.00  0.00    -0.228 OA
BRANCH  11  14
ATOM     14  C   UNL A   1      32.781  23.194  26.858  1.00  0.00     0.173 C 
BRANCH  14  15
ATOM     15  C   UNL A   1      33.450  22.124  26.039  1.00  0.00    -0.022 A 
ATOM     16  C   UNL A   1      32.513  19.017  24.110  1.00  0.00     0.067 C 
ATOM     17  C   UNL A   1      33.302  20.043  24.859  1.00  0.00     0.038 A 
ATOM     18  C   UNL A   1      32.675  21.075  25.539  1.00  0.00     0.029 A 
ATOM     19  N   UNL A   1      34.646  19.951  24.750  1.00  0.00    -0.253 NA
ATOM     20  C   UNL A   1      35.395  20.989  25.138  1.00  0.00     0.071 A 
ATOM     21  C   UNL A   1      34.841  22.157  25.702  1.00  0.00     0.004 A 
ATOM     22  C   UNL A   1      36.771  20.895  24.965  1.00  0.00     0.029 A 
ATOM     23  C   UNL A   1      35.709  23.261  25.890  1.00  0.00     0.010 A 
ATOM     24  C   UNL A   1      37.623  21.965  25.230  1.00  0.00     0.002 A 
ATOM     25  C   UNL A   1      37.082  23.168  25.645  1.00  0.00     0.001 A 
ENDBRANCH  14  15
ENDBRANCH  11  14
ENDBRANCH   9  11
ENDBRANCH   8   9
ENDBRANCH   5   8
ENDBRANCH   3   4
ENDBRANCH   2   3
ENDBRANCH   1   2
BRANCH   1  26
ATOM     26  C   UNL A   1      32.015  28.965  25.227  1.00  0.00     0.002 C 
BRANCH  26  27
ATOM     27  C   UNL A   1      32.133  28.664  26.723  1.00  0.00     0.021 C 
BRANCH  27  28
ATOM     28  C   UNL A   1      33.494  28.988  27.330  1.00  0.00     0.116 C 
BRANCH  28  29
ATOM     29  N   UNL A   1      33.645  30.413  27.588  1.00  0.00    -0.352 N 
ATOM     30  C   UNL A   1      34.617  31.086  28.286  1.00  0.00     0.251 C 
ATOM     31  H   UNL A   1      32.941  30.983  27.203  1.00  0.00     0.163 HD
ATOM     32  O   UNL A   1      34.429  32.253  28.625  1.00  0.00    -0.269 OA
BRANCH  30  33
ATOM     33  C   UNL A   1      35.884  30.410  28.630  1.00  0.00     0.039 A 
ATOM     34  C   UNL A   1      36.985  30.539  27.780  1.00  0.00     0.014 A 
ATOM     35  C   UNL A   1      35.977  29.634  29.788  1.00  0.00     0.014 A 
ATOM     36  C   UNL A   1      38.202  29.949  28.128  1.00  0.00     0.010 A 
ATOM     37  C   UNL A   1      37.208  29.117  30.174  1.00  0.00     0.010 A 
ATOM     38  C   UNL A   1      38.333  29.268  29.350  1.00  0.00    -0.014 A 
BRANCH  38  39
ATOM     39  C   UNL A   1      39.636  28.727  29.811  1.00  0.00     0.031 A 
ATOM     40  C   UNL A   1      40.402  29.430  30.899  1.00  0.00     0.074 A 
ATOM     41  C   UNL A   1      40.186  27.684  29.158  1.00  0.00     0.049 A 
ATOM     42  N   UNL A   1      41.607  29.190  31.346  1.00  0.00    -0.248 NA
ATOM     43  C   UNL A   1      39.741  30.577  31.545  1.00  0.00     0.031 C 
ATOM     44  C   UNL A   1      39.575  26.976  28.031  1.00  0.00     0.029 A 
ATOM     45  N   UNL A   1      41.400  27.065  29.318  1.00  0.00    -0.354 N 
ATOM     46  C   UNL A   1      41.866  30.177  32.289  1.00  0.00     0.074 A 
ATOM     47  C   UNL A   1      40.704  31.038  32.331  1.00  0.00     0.031 C 
ATOM     48  C   UNL A   1      40.418  26.026  27.597  1.00  0.00     0.029 A 
ATOM     49  C   UNL A   1      41.642  26.080  28.388  1.00  0.00     0.049 A 
ATOM     50  H   UNL A   1      42.037  27.302  30.030  1.00  0.00     0.167 HD
ATOM     51  C   UNL A   1      42.960  30.337  33.070  1.00  0.00     0.034 A 
ATOM     52  C   UNL A   1      42.735  25.320  28.182  1.00  0.00     0.034 A 
ATOM     53  C   UNL A   1      44.089  29.446  33.058  1.00  0.00     0.049 A 
ATOM     54  C   UNL A   1      43.923  25.491  29.090  1.00  0.00     0.074 A 
ATOM     55  C   UNL A   1      45.197  29.451  33.887  1.00  0.00     0.029 A 
ATOM     56  N   UNL A   1      44.260  28.399  32.166  1.00  0.00    -0.354 N 
ATOM     57  N   UNL A   1      44.078  26.319  30.096  1.00  0.00    -0.248 NA
ATOM     58  C   UNL A   1      45.073  24.607  28.857  1.00  0.00     0.031 C 
ATOM     59  C   UNL A   1      46.050  28.421  33.479  1.00  0.00     0.029 A 
ATOM     60  C   UNL A   1      45.463  27.761  32.411  1.00  0.00     0.049 A 
ATOM     61  H   UNL A   1      43.619  28.146  31.463  1.00  0.00     0.167 HD
ATOM     62  C   UNL A   1      45.330  26.040  30.629  1.00  0.00     0.074 A 
ATOM     63  C   UNL A   1      45.881  24.947  29.852  1.00  0.00     0.031 C 
ATOM     64  C   UNL A   1      45.976  26.646  31.656  1.00  0.00     0.034 A 
BRANCH  51  65
ATOM     65  C   UNL A   1      42.967  31.486  34.045  1.00  0.00     0.023 A 
ATOM     66  C   UNL A   1      43.571  32.705  33.677  1.00  0.00     0.012 A 
ATOM     67  C   UNL A   1      42.328  31.382  35.296  1.00  0.00     0.148 A 
ATOM     68  C   UNL A   1      43.573  33.791  34.551  1.00  0.00     0.002 A 
ATOM     69  C   UNL A   1      42.295  32.484  36.145  1.00  0.00     0.091 A 
ATOM     70  F   UNL A   1      41.777  30.209  35.638  1.00  0.00    -0.205 F 
ATOM     71  C   UNL A   1      42.926  33.683  35.779  1.00  0.00     0.022 A 
BRANCH  69  72
ATOM     72  S   UNL A   1      41.420  32.469  37.714  1.00  0.00     0.127 S 
ATOM     73  O   UNL A   1      41.372  33.898  38.037  1.00  0.00    -0.237 OA
ATOM     74  O   UNL A   1      40.126  31.891  37.336  1.00  0.00    -0.237 OA
ATOM     75  O   UNL A   1      42.212  31.652  38.611  1.00  0.00    -0.744 OA
ENDBRANCH  69  72
ENDBRANCH  51  65
BRANCH  52  76
ATOM     76  C   UNL A   1      42.732  24.293  27.102  1.00  0.00     0.023 A 
ATOM     77  C   UNL A   1      43.356  24.581  25.874  1.00  0.00     0.012 A 
ATOM     78  C   UNL A   1      42.158  23.021  27.299  1.00  0.00     0.148 A 
ATOM     79  C   UNL A   1      43.386  23.634  24.849  1.00  0.00     0.002 A 
ATOM     80  C   UNL A   1      42.241  22.062  26.294  1.00  0.00     0.091 A 
ATOM     81  F   UNL A   1      41.559  22.767  28.470  1.00  0.00    -0.205 F 
ATOM     82  C   UNL A   1      42.838  22.372  25.064  1.00  0.00     0.022 A 
BRANCH  80  83
ATOM     83  S   UNL A   1      41.690  20.368  26.538  1.00  0.00     0.127 S 
ATOM     84  O   UNL A   1      42.303  20.037  27.824  1.00  0.00    -0.237 OA
ATOM     85  O   UNL A   1      40.235  20.525  26.573  1.00  0.00    -0.237 OA
ATOM     86  O   UNL A   1      42.183  19.624  25.390  1.00  0.00    -0.744 OA
ENDBRANCH  80  83
ENDBRANCH  52  76
BRANCH  64  87
ATOM     87  C   UNL A   1      47.347  26.139  32.014  1.00  0.00     0.023 A 
ATOM     88  C   UNL A   1      48.474  26.641  31.334  1.00  0.00     0.012 A 
ATOM     89  C   UNL A   1      47.526  25.233  33.079  1.00  0.00     0.148 A 
ATOM     90  C   UNL A   1      49.757  26.231  31.690  1.00  0.00     0.002 A 
ATOM     91  C   UNL A   1      48.811  24.867  33.460  1.00  0.00     0.091 A 
ATOM     92  F   UNL A   1      46.439  24.756  33.702  1.00  0.00    -0.205 F 
ATOM     93  C   UNL A   1      49.926  25.355  32.760  1.00  0.00     0.022 A 
BRANCH  91  94
ATOM     94  S   UNL A   1      49.134  23.818  34.883  1.00  0.00     0.127 S 
ATOM     95  O   UNL A   1      50.591  23.705  34.845  1.00  0.00    -0.237 OA
ATOM     96  O   UNL A   1      48.613  24.627  35.986  1.00  0.00    -0.237 OA
ATOM     97  O   UNL A   1      48.406  22.580  34.644  1.00  0.00    -0.744 OA
ENDBRANCH  91  94
ENDBRANCH  64  87
ENDBRANCH  38  39
ENDBRANCH  30  33
ENDBRANCH  28  29
ENDBRANCH  27  28
ENDBRANCH  26  27
ENDBRANCH   1  26
TORSDOF 20
ENDMDL
MODEL 2
REMARK VINA RESULT:     -11.2      1.310      2.127
REMARK SMILES Cc1cc(CS(=O)(=O)[C@@H](C)CC(=O)NCCCCCCNC(=O)c2ccc(-c3c4nc(c(-c5cccc(S(=O)(=O)[O-])c5F)c5ccc([nH]5)c(-c5cccc(S(=O)(=O)[O-])c5F)c5nc(c(-c6cccc(S(=O)(=O)[O-])c6F)c6ccc3[nH]6)C=C5)C=C4)cc2)c2ccccc2n1
REMARK SMILES IDX 17 1 16 2 15 3 14 4 12 5 13 6 11 8 9 9 10 10 6 11 7 12 8 13
REMARK SMILES IDX 5 14 4 15 1 16 2 17 3 18 93 19 92 20 87 21 91 22 88 23 90 24
REMARK SMILES IDX 89 25 18 26 19 27 20 28 21 29 22 30 23 32 24 33 25 34 86 35
REMARK SMILES IDX 26 36 85 37 27 38 28 39 29 40 79 41 30 42 84 43 78 44 80 45
REMARK SMILES IDX 31 46 83 47 77 48 76 49 32 51 64 52 44 53 63 54 45 55 48 56
REMARK SMILES IDX 62 57 81 58 46 59 47 60 61 62 82 63 49 64 33 65 34 66 42 67
REMARK SMILES IDX 35 68 37 69 43 70 36 71 38 72 39 73 40 74 41 75 65 76 66 77
REMARK SMILES IDX 74 78 67 79 69 80 75 81 68 82 70 83 71 84 72 85 73 86 50 87
REMARK SMILES IDX 51 88 59 89 52 90 54 91 60 92 53 93 55 94 56 95 57 96 58 97
REMARK H PARENT 14 7 21 31 80 50 48 61
REMARK Flexibility Score: inf
ROOT
ATOM      1  C   UNL A   1      31.095  26.962  26.277  1.00  0.00     0.002 C 
ENDROOT
BRANCH   1   2
ATOM      2  C   UNL A   1      30.541  26.747  24.866  1.00  0.00     0.021 C 
BRANCH   2   3
ATOM      3  C   UNL A   1      31.243  25.624  24.102  1.00  0.00     0.116 C 
BRANCH   3   4
ATOM      4  N   UNL A   1      32.176  26.119  23.113  1.00  0.00    -0.356 N 
ATOM      5  C   UNL A   1      33.498  25.842  22.952  1.00  0.00     0.221 C 
ATOM      6  O   UNL A   1      34.069  26.263  21.946  1.00  0.00    -0.275 OA
ATOM      7  H   UNL A   1      31.798  26.751  22.458  1.00  0.00     0.163 HD
BRANCH   5   8
ATOM      8  C   UNL A   1      34.244  25.016  23.983  1.00  0.00     0.119 C 
BRANCH   8   9
ATOM      9  C   UNL A   1      35.041  23.866  23.384  1.00  0.00     0.115 C 
ATOM     10  C   UNL A   1      34.134  22.840  22.691  1.00  0.00     0.025 C 
BRANCH   9  11
ATOM     11  S   UNL A   1      36.284  23.016  24.415  1.00  0.00     0.157 S 
ATOM     12  O   UNL A   1      36.964  24.088  25.130  1.00  0.00    -0.228 OA
ATOM     13  O   UNL A   1      37.079  22.206  23.504  1.00  0.00    -0.228 OA
BRANCH  11  14
ATOM     14  C   UNL A   1      35.710  21.867  25.699  1.00  0.00     0.173 C 
BRANCH  14  15
ATOM     15  C   UNL A   1      34.339  21.275  25.527  1.00  0.00    -0.022 A 
ATOM     16  C   UNL A   1      32.751  18.106  24.224  1.00  0.00     0.067 C 
ATOM     17  C   UNL A   1      32.948  19.521  24.670  1.00  0.00     0.038 A 
ATOM     18  C   UNL A   1      34.216  20.028  24.909  1.00  0.00     0.029 A 
ATOM     19  N   UNL A   1      31.822  20.227  24.911  1.00  0.00    -0.253 NA
ATOM     20  C   UNL A   1      31.916  21.378  25.586  1.00  0.00     0.071 A 
ATOM     21  C   UNL A   1      33.150  21.908  26.014  1.00  0.00     0.004 A 
ATOM     22  C   UNL A   1      30.739  22.060  25.872  1.00  0.00     0.029 A 
ATOM     23  C   UNL A   1      33.110  23.025  26.886  1.00  0.00     0.010 A 
ATOM     24  C   UNL A   1      30.722  23.203  26.667  1.00  0.00     0.002 A 
ATOM     25  C   UNL A   1      31.907  23.656  27.217  1.00  0.00     0.001 A 
ENDBRANCH  14  15
ENDBRANCH  11  14
ENDBRANCH   9  11
ENDBRANCH   8   9
ENDBRANCH   5   8
ENDBRANCH   3   4
ENDBRANCH   2   3
ENDBRANCH   1   2
BRANCH   1  26
ATOM     26  C   UNL A   1      32.607  27.199  26.357  1.00  0.00     0.002 C 
BRANCH  26  27
ATOM     27  C   UNL A   1      33.100  28.572  25.893  1.00  0.00     0.021 C 
BRANCH  27  28
ATOM     28  C   UNL A   1      34.310  29.102  26.654  1.00  0.00     0.116 C 
BRANCH  28  29
ATOM     29  N   UNL A   1      34.167  30.515  26.979  1.00  0.00    -0.352 N 
ATOM     30  C   UNL A   1      34.826  31.278  27.910  1.00  0.00     0.251 C 
ATOM     31  H   UNL A   1      33.493  30.998  26.449  1.00  0.00     0.163 HD
ATOM     32  O   UNL A   1      34.380  32.380  28.224  1.00  0.00    -0.269 OA
BRANCH  30  33
ATOM     33  C   UNL A   1      36.066  30.775  28.536  1.00  0.00     0.039 A 
ATOM     34  C   UNL A   1      35.990  29.761  29.494  1.00  0.00     0.014 A 
ATOM     35  C   UNL A   1      37.304  31.320  28.185  1.00  0.00     0.014 A 
ATOM     36  C   UNL A   1      37.163  29.243  30.048  1.00  0.00     0.010 A 
ATOM     37  C   UNL A   1      38.472  30.748  28.675  1.00  0.00     0.010 A 
ATOM     38  C   UNL A   1      38.415  29.706  29.611  1.00  0.00    -0.014 A 
BRANCH  38  39
ATOM     39  C   UNL A   1      39.684  29.102  30.088  1.00  0.00     0.031 A 
ATOM     40  C   UNL A   1      40.460  29.755  31.200  1.00  0.00     0.074 A 
ATOM     41  C   UNL A   1      40.201  28.046  29.430  1.00  0.00     0.049 A 
ATOM     42  N   UNL A   1      41.644  29.456  31.666  1.00  0.00    -0.248 NA
ATOM     43  C   UNL A   1      39.837  30.920  31.851  1.00  0.00     0.031 C 
ATOM     44  C   UNL A   1      39.581  27.381  28.281  1.00  0.00     0.029 A 
ATOM     45  N   UNL A   1      41.384  27.372  29.602  1.00  0.00    -0.354 N 
ATOM     46  C   UNL A   1      41.928  30.418  32.628  1.00  0.00     0.074 A 
ATOM     47  C   UNL A   1      40.804  31.328  32.661  1.00  0.00     0.031 C 
ATOM     48  C   UNL A   1      40.391  26.401  27.848  1.00  0.00     0.029 A 
ATOM     49  C   UNL A   1      41.601  26.391  28.662  1.00  0.00     0.049 A 
ATOM     50  H   UNL A   1      42.017  27.571  30.329  1.00  0.00     0.167 HD
ATOM     51  C   UNL A   1      43.013  30.519  33.431  1.00  0.00     0.034 A 
ATOM     52  C   UNL A   1      42.664  25.587  28.464  1.00  0.00     0.034 A 
ATOM     53  C   UNL A   1      44.103  29.580  33.427  1.00  0.00     0.049 A 
ATOM     54  C   UNL A   1      43.840  25.693  29.397  1.00  0.00     0.074 A 
ATOM     55  C   UNL A   1      45.194  29.524  34.275  1.00  0.00     0.029 A 
ATOM     56  N   UNL A   1      44.245  28.539  32.522  1.00  0.00    -0.354 N 
ATOM     57  N   UNL A   1      44.012  26.498  30.417  1.00  0.00    -0.248 NA
ATOM     58  C   UNL A   1      44.954  24.762  29.171  1.00  0.00     0.031 C 
ATOM     59  C   UNL A   1      46.009  28.464  33.867  1.00  0.00     0.029 A 
ATOM     60  C   UNL A   1      45.414  27.845  32.779  1.00  0.00     0.049 A 
ATOM     61  H   UNL A   1      43.606  28.324  31.803  1.00  0.00     0.167 HD
ATOM     62  C   UNL A   1      45.240  26.158  30.969  1.00  0.00     0.074 A 
ATOM     63  C   UNL A   1      45.757  25.053  30.186  1.00  0.00     0.031 C 
ATOM     64  C   UNL A   1      45.892  26.720  32.017  1.00  0.00     0.034 A 
BRANCH  51  65
ATOM     65  C   UNL A   1      43.051  31.652  34.423  1.00  0.00     0.023 A 
ATOM     66  C   UNL A   1      43.633  32.881  34.052  1.00  0.00     0.012 A 
ATOM     67  C   UNL A   1      42.463  31.524  35.697  1.00  0.00     0.148 A 
ATOM     68  C   UNL A   1      43.663  33.953  34.942  1.00  0.00     0.002 A 
ATOM     69  C   UNL A   1      42.457  32.612  36.564  1.00  0.00     0.091 A 
ATOM     70  F   UNL A   1      41.933  30.342  36.042  1.00  0.00    -0.205 F 
ATOM     71  C   UNL A   1      43.066  33.821  36.193  1.00  0.00     0.022 A 
BRANCH  69  72
ATOM     72  S   UNL A   1      41.644  32.566  38.166  1.00  0.00     0.127 S 
ATOM     73  O   UNL A   1      41.819  33.948  38.623  1.00  0.00    -0.237 OA
ATOM     74  O   UNL A   1      40.267  32.222  37.799  1.00  0.00    -0.237 OA
ATOM     75  O   UNL A   1      42.337  31.558  38.943  1.00  0.00    -0.744 OA
ENDBRANCH  69  72
ENDBRANCH  51  65
BRANCH  52  76
ATOM     76  C   UNL A   1      42.636  24.576  27.370  1.00  0.00     0.023 A 
ATOM     77  C   UNL A   1      43.250  24.876  26.139  1.00  0.00     0.012 A 
ATOM     78  C   UNL A   1      42.050  23.308  27.553  1.00  0.00     0.148 A 
ATOM     79  C   UNL A   1      43.257  23.944  25.100  1.00  0.00     0.002 A 
ATOM     80  C   UNL A   1      42.109  22.363  26.534  1.00  0.00     0.091 A 
ATOM     81  F   UNL A   1      41.460  23.044  28.727  1.00  0.00    -0.205 F 
ATOM     82  C   UNL A   1      42.697  22.685  25.302  1.00  0.00     0.022 A 
BRANCH  80  83
ATOM     83  S   UNL A   1      41.542  20.673  26.758  1.00  0.00     0.127 S 
ATOM     84  O   UNL A   1      41.969  20.046  25.508  1.00  0.00    -0.237 OA
ATOM     85  O   UNL A   1      42.293  20.256  27.944  1.00  0.00    -0.237 OA
ATOM     86  O   UNL A   1      40.104  20.764  26.964  1.00  0.00    -0.744 OA
ENDBRANCH  80  83
ENDBRANCH  52  76
BRANCH  64  87
ATOM     87  C   UNL A   1      47.233  26.148  32.392  1.00  0.00     0.023 A 
ATOM     88  C   UNL A   1      48.404  26.693  31.829  1.00  0.00     0.012 A 
ATOM     89  C   UNL A   1      47.338  25.134  33.365  1.00  0.00     0.148 A 
ATOM     90  C   UNL A   1      49.659  26.220  32.208  1.00  0.00     0.002 A 
ATOM     91  C   UNL A   1      48.594  24.701  33.773  1.00  0.00     0.091 A 
ATOM     92  F   UNL A   1      46.211  24.619  33.876  1.00  0.00    -0.205 F 
ATOM     93  C   UNL A   1      49.754  25.235  33.188  1.00  0.00     0.022 A 
BRANCH  91  94
ATOM     94  S   UNL A   1      48.821  23.505  35.094  1.00  0.00     0.127 S 
ATOM     95  O   UNL A   1      48.198  22.311  34.525  1.00  0.00    -0.237 OA
ATOM     96  O   UNL A   1      50.278  23.439  35.204  1.00  0.00    -0.237 OA
ATOM     97  O   UNL A   1      48.150  24.062  36.261  1.00  0.00    -0.744 OA
ENDBRANCH  91  94
ENDBRANCH  64  87
ENDBRANCH  38  39
ENDBRANCH  30  33
ENDBRANCH  28  29
ENDBRANCH  27  28
ENDBRANCH  26  27
ENDBRANCH   1  26
TORSDOF 20
ENDMDL
MODEL 3
REMARK VINA RESULT:     -10.9      4.941      8.851
REMARK SMILES Cc1cc(CS(=O)(=O)[C@@H](C)CC(=O)NCCCCCCNC(=O)c2ccc(-c3c4nc(c(-c5cccc(S(=O)(=O)[O-])c5F)c5ccc([nH]5)c(-c5cccc(S(=O)(=O)[O-])c5F)c5nc(c(-c6cccc(S(=O)(=O)[O-])c6F)c6ccc3[nH]6)C=C5)C=C4)cc2)c2ccccc2n1
REMARK SMILES IDX 17 1 16 2 15 3 14 4 12 5 13 6 11 8 9 9 10 10 6 11 7 12 8 13
REMARK SMILES IDX 5 14 4 15 1 16 2 17 3 18 93 19 92 20 87 21 91 22 88 23 90 24
REMARK SMILES IDX 89 25 18 26 19 27 20 28 21 29 22 30 23 32 24 33 25 34 86 35
REMARK SMILES IDX 26 36 85 37 27 38 28 39 29 40 79 41 30 42 84 43 78 44 80 45
REMARK SMILES IDX 31 46 83 47 77 48 76 49 32 51 64 52 44 53 63 54 45 55 48 56
REMARK SMILES IDX 62 57 81 58 46 59 47 60 61 62 82 63 49 64 33 65 34 66 42 67
REMARK SMILES IDX 35 68 37 69 43 70 36 71 38 72 39 73 40 74 41 75 65 76 66 77
REMARK SMILES IDX 74 78 67 79 69 80 75 81 68 82 70 83 71 84 72 85 73 86 50 87
REMARK SMILES IDX 51 88 59 89 52 90 54 91 60 92 53 93 55 94 56 95 57 96 58 97
REMARK H PARENT 14 7 21 31 80 50 48 61
REMARK Flexibility Score: inf
ROOT
ATOM      1  C   UNL A   1      36.329  21.343  24.603  1.00  0.00     0.002 C 
ENDROOT
BRANCH   1   2
ATOM      2  C   UNL A   1      35.551  20.081  24.986  1.00  0.00     0.021 C 
BRANCH   2   3
ATOM      3  C   UNL A   1      34.091  20.353  25.349  1.00  0.00     0.116 C 
BRANCH   3   4
ATOM      4  N   UNL A   1      33.942  20.948  26.660  1.00  0.00    -0.356 N 
ATOM      5  C   UNL A   1      33.561  22.208  27.002  1.00  0.00     0.221 C 
ATOM      6  O   UNL A   1      33.357  22.458  28.191  1.00  0.00    -0.275 OA
ATOM      7  H   UNL A   1      34.146  20.351  27.417  1.00  0.00     0.163 HD
BRANCH   5   8
ATOM      8  C   UNL A   1      33.377  23.274  25.940  1.00  0.00     0.119 C 
BRANCH   8   9
ATOM      9  C   UNL A   1      31.921  23.634  25.681  1.00  0.00     0.115 C 
ATOM     10  C   UNL A   1      30.977  22.467  26.001  1.00  0.00     0.025 C 
BRANCH   9  11
ATOM     11  S   UNL A   1      31.466  24.397  24.087  1.00  0.00     0.157 S 
ATOM     12  O   UNL A   1      31.120  23.274  23.227  1.00  0.00    -0.228 OA
ATOM     13  O   UNL A   1      32.600  25.219  23.694  1.00  0.00    -0.228 OA
BRANCH  11  14
ATOM     14  C   UNL A   1      30.030  25.508  24.032  1.00  0.00     0.173 C 
BRANCH  14  15
ATOM     15  C   UNL A   1      30.305  26.986  24.042  1.00  0.00    -0.022 A 
ATOM     16  C   UNL A   1      29.764  29.995  21.826  1.00  0.00     0.067 C 
ATOM     17  C   UNL A   1      30.297  29.088  22.890  1.00  0.00     0.038 A 
ATOM     18  C   UNL A   1      29.964  27.742  22.919  1.00  0.00     0.029 A 
ATOM     19  N   UNL A   1      31.033  29.678  23.857  1.00  0.00    -0.253 NA
ATOM     20  C   UNL A   1      31.286  28.997  24.979  1.00  0.00     0.071 A 
ATOM     21  C   UNL A   1      30.856  27.668  25.174  1.00  0.00     0.004 A 
ATOM     22  C   UNL A   1      31.996  29.643  25.984  1.00  0.00     0.029 A 
ATOM     23  C   UNL A   1      31.010  27.120  26.472  1.00  0.00     0.010 A 
ATOM     24  C   UNL A   1      32.210  29.060  27.230  1.00  0.00     0.002 A 
ATOM     25  C   UNL A   1      31.669  27.814  27.491  1.00  0.00     0.001 A 
ENDBRANCH  14  15
ENDBRANCH  11  14
ENDBRANCH   9  11
ENDBRANCH   8   9
ENDBRANCH   5   8
ENDBRANCH   3   4
ENDBRANCH   2   3
ENDBRANCH   1   2
BRANCH   1  26
ATOM     26  C   UNL A   1      37.811  21.342  24.994  1.00  0.00     0.002 C 
BRANCH  26  27
ATOM     27  C   UNL A   1      38.511  19.980  24.980  1.00  0.00     0.021 C 
BRANCH  27  28
ATOM     28  C   UNL A   1      39.206  19.611  26.287  1.00  0.00     0.116 C 
BRANCH  28  29
ATOM     29  N   UNL A   1      40.475  18.936  26.050  1.00  0.00    -0.352 N 
ATOM     30  C   UNL A   1      41.741  19.452  25.932  1.00  0.00     0.251 C 
ATOM     31  H   UNL A   1      40.416  17.957  25.961  1.00  0.00     0.163 HD
ATOM     32  O   UNL A   1      42.643  18.758  25.465  1.00  0.00    -0.269 OA
BRANCH  30  33
ATOM     33  C   UNL A   1      42.019  20.837  26.363  1.00  0.00     0.039 A 
ATOM     34  C   UNL A   1      42.253  21.103  27.715  1.00  0.00     0.014 A 
ATOM     35  C   UNL A   1      42.033  21.877  25.430  1.00  0.00     0.014 A 
ATOM     36  C   UNL A   1      42.572  22.400  28.121  1.00  0.00     0.010 A 
ATOM     37  C   UNL A   1      42.431  23.149  25.822  1.00  0.00     0.010 A 
ATOM     38  C   UNL A   1      42.704  23.426  27.169  1.00  0.00    -0.014 A 
BRANCH  38  39
ATOM     39  C   UNL A   1      43.154  24.789  27.543  1.00  0.00     0.031 A 
ATOM     40  C   UNL A   1      42.171  25.783  28.101  1.00  0.00     0.074 A 
ATOM     41  C   UNL A   1      44.415  25.170  27.255  1.00  0.00     0.049 A 
ATOM     42  N   UNL A   1      42.341  27.052  28.364  1.00  0.00    -0.248 NA
ATOM     43  C   UNL A   1      40.807  25.294  28.364  1.00  0.00     0.031 C 
ATOM     44  C   UNL A   1      45.433  24.320  26.634  1.00  0.00     0.029 A 
ATOM     45  N   UNL A   1      45.043  26.381  27.405  1.00  0.00    -0.354 N 
ATOM     46  C   UNL A   1      41.101  27.523  28.779  1.00  0.00     0.074 A 
ATOM     47  C   UNL A   1      40.179  26.410  28.706  1.00  0.00     0.031 C 
ATOM     48  C   UNL A   1      46.553  25.036  26.449  1.00  0.00     0.029 A 
ATOM     49  C   UNL A   1      46.324  26.402  26.904  1.00  0.00     0.049 A 
ATOM     50  H   UNL A   1      44.617  27.160  27.830  1.00  0.00     0.167 HD
ATOM     51  C   UNL A   1      40.765  28.762  29.208  1.00  0.00     0.034 A 
ATOM     52  C   UNL A   1      47.208  27.414  26.802  1.00  0.00     0.034 A 
ATOM     53  C   UNL A   1      41.700  29.849  29.326  1.00  0.00     0.049 A 
ATOM     54  C   UNL A   1      46.823  28.772  27.324  1.00  0.00     0.074 A 
ATOM     55  C   UNL A   1      41.491  31.110  29.855  1.00  0.00     0.029 A 
ATOM     56  N   UNL A   1      43.018  29.808  28.897  1.00  0.00    -0.354 N 
ATOM     57  N   UNL A   1      45.697  29.153  27.877  1.00  0.00    -0.248 NA
ATOM     58  C   UNL A   1      47.838  29.831  27.236  1.00  0.00     0.031 C 
ATOM     59  C   UNL A   1      42.676  31.839  29.724  1.00  0.00     0.029 A 
ATOM     60  C   UNL A   1      43.630  31.026  29.133  1.00  0.00     0.049 A 
ATOM     61  H   UNL A   1      43.454  29.026  28.486  1.00  0.00     0.167 HD
ATOM     62  C   UNL A   1      45.874  30.486  28.223  1.00  0.00     0.074 A 
ATOM     63  C   UNL A   1      47.228  30.840  27.843  1.00  0.00     0.031 C 
ATOM     64  C   UNL A   1      44.991  31.347  28.787  1.00  0.00     0.034 A 
BRANCH  51  65
ATOM     65  C   UNL A   1      39.340  28.996  29.637  1.00  0.00     0.023 A 
ATOM     66  C   UNL A   1      38.955  28.692  30.959  1.00  0.00     0.012 A 
ATOM     67  C   UNL A   1      38.400  29.570  28.759  1.00  0.00     0.148 A 
ATOM     68  C   UNL A   1      37.648  28.919  31.390  1.00  0.00     0.002 A 
ATOM     69  C   UNL A   1      37.111  29.835  29.209  1.00  0.00     0.091 A 
ATOM     70  F   UNL A   1      38.779  29.834  27.500  1.00  0.00    -0.205 F 
ATOM     71  C   UNL A   1      36.731  29.499  30.518  1.00  0.00     0.022 A 
BRANCH  69  72
ATOM     72  S   UNL A   1      35.880  30.652  28.187  1.00  0.00     0.127 S 
ATOM     73  O   UNL A   1      35.575  29.608  27.204  1.00  0.00    -0.237 OA
ATOM     74  O   UNL A   1      34.804  30.906  29.150  1.00  0.00    -0.237 OA
ATOM     75  O   UNL A   1      36.517  31.841  27.658  1.00  0.00    -0.744 OA
ENDBRANCH  69  72
ENDBRANCH  51  65
BRANCH  52  76
ATOM     76  C   UNL A   1      48.561  27.163  26.231  1.00  0.00     0.023 A 
ATOM     77  C   UNL A   1      49.540  26.536  27.025  1.00  0.00     0.012 A 
ATOM     78  C   UNL A   1      48.870  27.497  24.897  1.00  0.00     0.148 A 
ATOM     79  C   UNL A   1      50.811  26.272  26.514  1.00  0.00     0.002 A 
ATOM     80  C   UNL A   1      50.121  27.179  24.376  1.00  0.00     0.091 A 
ATOM     81  F   UNL A   1      47.931  28.103  24.159  1.00  0.00    -0.205 F 
ATOM     82  C   UNL A   1      51.097  26.582  25.187  1.00  0.00     0.022 A 
BRANCH  80  83
ATOM     83  S   UNL A   1      50.523  27.413  22.640  1.00  0.00     0.127 S 
ATOM     84  O   UNL A   1      51.952  27.101  22.620  1.00  0.00    -0.237 OA
ATOM     85  O   UNL A   1      49.667  26.418  21.993  1.00  0.00    -0.237 OA
ATOM     86  O   UNL A   1      50.170  28.792  22.336  1.00  0.00    -0.744 OA
ENDBRANCH  80  83
ENDBRANCH  52  76
BRANCH  64  87
ATOM     87  C   UNL A   1      45.457  32.756  29.042  1.00  0.00     0.023 A 
ATOM     88  C   UNL A   1      46.014  33.089  30.292  1.00  0.00     0.012 A 
ATOM     89  C   UNL A   1      45.423  33.724  28.019  1.00  0.00     0.148 A 
ATOM     90  C   UNL A   1      46.508  34.370  30.530  1.00  0.00     0.002 A 
ATOM     91  C   UNL A   1      45.960  34.984  28.247  1.00  0.00     0.091 A 
ATOM     92  F   UNL A   1      44.873  33.391  26.842  1.00  0.00    -0.205 F 
ATOM     93  C   UNL A   1      46.493  35.313  29.505  1.00  0.00     0.022 A 
BRANCH  91  94
ATOM     94  S   UNL A   1      46.071  36.234  26.961  1.00  0.00     0.127 S 
ATOM     95  O   UNL A   1      44.751  36.859  27.038  1.00  0.00    -0.237 OA
ATOM     96  O   UNL A   1      47.171  37.072  27.439  1.00  0.00    -0.237 OA
ATOM     97  O   UNL A   1      46.349  35.516  25.725  1.00  0.00    -0.744 OA
ENDBRANCH  91  94
ENDBRANCH  64  87
ENDBRANCH  38  39
ENDBRANCH  30  33
ENDBRANCH  28  29
ENDBRANCH  27  28
ENDBRANCH  26  27
ENDBRANCH   1  26
TORSDOF 20
ENDMDL
