MODEL 1
REMARK VINA RESULT:     -10.8      0.000      0.000
REMARK SMILES CC[C@@](C)(NC(=O)c1cccc(Br)c1C)C(=O)NCCCCCCNC(=O)c1ccc(-c2c3nc(c(-c4cccc(S(=O)(=O)[O-])c4F)c4ccc([nH]4)c(-c4cccc(S(=O)(=O)[O-])c4F)c4nc(c(-c5cccc(S(=O)(=O)[O-])c5F)c5ccc2[nH]5)C=C4)C=C3)cc1
REMARK SMILES IDX 22 1 21 2 20 3 19 4 18 5 16 6 17 7 3 9 4 10 2 11 1 12 5 13
REMARK SMILES IDX 6 14 7 16 8 17 9 18 14 19 10 20 12 21 15 22 11 23 13 24
REMARK SMILES IDX 23 25 24 26 25 27 26 28 27 30 28 31 29 32 90 33 30 34 89 35
REMARK SMILES IDX 31 36 32 37 33 38 83 39 34 40 88 41 82 42 84 43 35 44 87 45
REMARK SMILES IDX 81 46 80 47 36 49 68 50 48 51 67 52 49 53 52 54 66 55 85 56
REMARK SMILES IDX 50 57 51 58 65 60 86 61 53 62 37 63 38 64 46 65 39 66 41 67
REMARK SMILES IDX 47 68 40 69 42 70 43 71 44 72 45 73 69 74 70 75 78 76 71 77
REMARK SMILES IDX 73 78 79 79 72 80 74 81 75 82 76 83 77 84 54 85 55 86 63 87
REMARK SMILES IDX 56 88 58 89 64 90 57 91 59 92 60 93 61 94 62 95
REMARK H PARENT 18 8 5 15 25 29 84 48 52 59
REMARK Flexibility Score: inf
ROOT
ATOM      1  C   UNL A   1      36.483  20.246  24.996  1.00  0.00     0.002 C 
ENDROOT
BRANCH   1   2
ATOM      2  C   UNL A   1      36.468  21.508  25.824  1.00  0.00     0.002 C 
BRANCH   2   3
ATOM      3  C   UNL A   1      36.364  22.852  25.087  1.00  0.00     0.021 C 
BRANCH   3   4
ATOM      4  C   UNL A   1      36.052  23.125  23.578  1.00  0.00     0.116 C 
BRANCH   4   5
ATOM      5  N   UNL A   1      34.708  23.672  23.184  1.00  0.00    -0.354 N 
ATOM      6  C   UNL A   1      33.347  23.635  23.285  1.00  0.00     0.245 C 
ATOM      7  O   UNL A   1      32.883  24.634  22.688  1.00  0.00    -0.272 OA
ATOM      8  H   UNL A   1      34.902  24.402  22.552  1.00  0.00     0.163 HD
BRANCH   6   9
ATOM      9  C   UNL A   1      32.245  22.733  24.106  1.00  0.00     0.116 C 
ATOM     10  C   UNL A   1      31.038  22.648  23.146  1.00  0.00     0.045 C 
BRANCH   9  11
ATOM     11  C   UNL A   1      32.819  21.272  24.336  1.00  0.00     0.035 C 
ATOM     12  C   UNL A   1      32.437  20.132  23.399  1.00  0.00     0.007 C 
ENDBRANCH   9  11
BRANCH   9  13
ATOM     13  N   UNL A   1      31.626  23.014  25.476  1.00  0.00    -0.338 N 
ATOM     14  C   UNL A   1      31.725  24.132  26.303  1.00  0.00     0.252 C 
ATOM     15  H   UNL A   1      31.067  22.286  25.831  1.00  0.00     0.164 HD
ATOM     16  O   UNL A   1      31.852  24.007  27.516  1.00  0.00    -0.269 OA
BRANCH  14  17
ATOM     17  C   UNL A   1      31.486  25.471  25.722  1.00  0.00     0.043 A 
ATOM     18  C   UNL A   1      30.505  25.754  24.766  1.00  0.00     0.014 A 
ATOM     19  C   UNL A   1      32.478  26.412  25.927  1.00  0.00    -0.024 A 
ATOM     20  C   UNL A   1      30.376  27.047  24.241  1.00  0.00     0.002 A 
ATOM     21  C   UNL A   1      32.136  27.761  25.688  1.00  0.00     0.021 A 
ATOM     22  C   UNL A   1      33.884  25.775  25.809  1.00  0.00     0.046 C 
ATOM     23  C   UNL A   1      31.144  28.070  24.765  1.00  0.00     0.016 A 
ATOM     24  Br  UNL A   1      31.996  29.069  27.121  1.00  0.00    -0.051 Br
ENDBRANCH  14  17
ENDBRANCH   9  13
ENDBRANCH   6   9
ENDBRANCH   4   5
ENDBRANCH   3   4
ENDBRANCH   2   3
ENDBRANCH   1   2
BRANCH   1  25
ATOM     25  C   UNL A   1      37.873  19.656  24.793  1.00  0.00     0.021 C 
BRANCH  25  26
ATOM     26  C   UNL A   1      38.939  20.189  25.750  1.00  0.00     0.116 C 
BRANCH  26  27
ATOM     27  N   UNL A   1      39.964  19.187  26.014  1.00  0.00    -0.352 N 
ATOM     28  C   UNL A   1      41.312  19.398  26.128  1.00  0.00     0.251 C 
ATOM     29  H   UNL A   1      39.654  18.258  26.122  1.00  0.00     0.163 HD
ATOM     30  O   UNL A   1      42.117  18.474  25.981  1.00  0.00    -0.269 OA
BRANCH  28  31
ATOM     31  C   UNL A   1      41.773  20.756  26.450  1.00  0.00     0.039 A 
ATOM     32  C   UNL A   1      42.084  21.097  27.766  1.00  0.00     0.014 A 
ATOM     33  C   UNL A   1      41.932  21.678  25.409  1.00  0.00     0.014 A 
ATOM     34  C   UNL A   1      42.575  22.375  28.035  1.00  0.00     0.010 A 
ATOM     35  C   UNL A   1      42.506  22.911  25.668  1.00  0.00     0.010 A 
ATOM     36  C   UNL A   1      42.796  23.286  26.987  1.00  0.00    -0.014 A 
BRANCH  36  37
ATOM     37  C   UNL A   1      43.262  24.666  27.255  1.00  0.00     0.031 A 
ATOM     38  C   UNL A   1      42.295  25.670  27.824  1.00  0.00     0.074 A 
ATOM     39  C   UNL A   1      44.520  25.024  26.936  1.00  0.00     0.049 A 
ATOM     40  N   UNL A   1      42.477  26.939  28.078  1.00  0.00    -0.248 NA
ATOM     41  C   UNL A   1      40.930  25.195  28.119  1.00  0.00     0.031 C 
ATOM     42  C   UNL A   1      45.517  24.154  26.308  1.00  0.00     0.029 A 
ATOM     43  N   UNL A   1      45.169  26.223  27.077  1.00  0.00    -0.354 N 
ATOM     44  C   UNL A   1      41.254  27.414  28.535  1.00  0.00     0.074 A 
ATOM     45  C   UNL A   1      40.317  26.316  28.469  1.00  0.00     0.031 C 
ATOM     46  C   UNL A   1      46.653  24.848  26.122  1.00  0.00     0.029 A 
ATOM     47  C   UNL A   1      46.454  26.216  26.587  1.00  0.00     0.049 A 
ATOM     48  H   UNL A   1      44.754  27.016  27.489  1.00  0.00     0.167 HD
ATOM     49  C   UNL A   1      40.946  28.642  29.010  1.00  0.00     0.034 A 
ATOM     50  C   UNL A   1      47.362  27.209  26.514  1.00  0.00     0.034 A 
ATOM     51  C   UNL A   1      41.894  29.716  29.110  1.00  0.00     0.049 A 
ATOM     52  C   UNL A   1      47.001  28.558  27.078  1.00  0.00     0.074 A 
ATOM     53  C   UNL A   1      41.705  30.985  29.623  1.00  0.00     0.029 A 
ATOM     54  N   UNL A   1      43.212  29.643  28.690  1.00  0.00    -0.354 N 
ATOM     55  N   UNL A   1      45.875  28.951  27.623  1.00  0.00    -0.248 NA
ATOM     56  C   UNL A   1      48.048  29.589  27.057  1.00  0.00     0.031 C 
ATOM     57  C   UNL A   1      42.907  31.689  29.494  1.00  0.00     0.029 A 
ATOM     58  C   UNL A   1      43.853  30.842  28.938  1.00  0.00     0.049 A 
ATOM     59  H   UNL A   1      43.631  28.853  28.276  1.00  0.00     0.167 HD
ATOM     60  C   UNL A   1      46.095  30.254  28.054  1.00  0.00     0.074 A 
ATOM     61  C   UNL A   1      47.467  30.576  27.724  1.00  0.00     0.031 C 
ATOM     62  C   UNL A   1      45.239  31.113  28.660  1.00  0.00     0.034 A 
BRANCH  49  63
ATOM     63  C   UNL A   1      39.547  28.869  29.520  1.00  0.00     0.023 A 
ATOM     64  C   UNL A   1      39.226  28.513  30.846  1.00  0.00     0.012 A 
ATOM     65  C   UNL A   1      38.573  29.495  28.718  1.00  0.00     0.148 A 
ATOM     66  C   UNL A   1      37.951  28.747  31.358  1.00  0.00     0.002 A 
ATOM     67  C   UNL A   1      37.319  29.771  29.251  1.00  0.00     0.091 A 
ATOM     68  F   UNL A   1      38.892  29.809  27.455  1.00  0.00    -0.205 F 
ATOM     69  C   UNL A   1      37.003  29.388  30.565  1.00  0.00     0.022 A 
BRANCH  67  70
ATOM     70  S   UNL A   1      36.052  30.663  28.343  1.00  0.00     0.127 S 
ATOM     71  O   UNL A   1      35.740  29.721  27.269  1.00  0.00    -0.237 OA
ATOM     72  O   UNL A   1      35.002  30.807  29.351  1.00  0.00    -0.237 OA
ATOM     73  O   UNL A   1      36.664  31.912  27.913  1.00  0.00    -0.744 OA
ENDBRANCH  67  70
ENDBRANCH  49  63
BRANCH  50  74
ATOM     74  C   UNL A   1      48.710  26.961  25.928  1.00  0.00     0.023 A 
ATOM     75  C   UNL A   1      49.719  26.372  26.715  1.00  0.00     0.012 A 
ATOM     76  C   UNL A   1      49.002  27.324  24.600  1.00  0.00     0.148 A 
ATOM     77  C   UNL A   1      51.008  26.200  26.208  1.00  0.00     0.002 A 
ATOM     78  C   UNL A   1      50.271  27.093  24.081  1.00  0.00     0.091 A 
ATOM     79  F   UNL A   1      48.033  27.889  23.867  1.00  0.00    -0.205 F 
ATOM     80  C   UNL A   1      51.282  26.554  24.890  1.00  0.00     0.022 A 
BRANCH  78  81
ATOM     81  S   UNL A   1      50.668  27.397  22.357  1.00  0.00     0.127 S 
ATOM     82  O   UNL A   1      50.577  28.853  22.281  1.00  0.00    -0.237 OA
ATOM     83  O   UNL A   1      52.025  26.858  22.258  1.00  0.00    -0.237 OA
ATOM     84  O   UNL A   1      49.675  26.657  21.590  1.00  0.00    -0.744 OA
ENDBRANCH  78  81
ENDBRANCH  50  74
BRANCH  62  85
ATOM     85  C   UNL A   1      45.776  32.455  29.075  1.00  0.00     0.023 A 
ATOM     86  C   UNL A   1      46.426  32.610  30.315  1.00  0.00     0.012 A 
ATOM     87  C   UNL A   1      45.693  33.552  28.195  1.00  0.00     0.148 A 
ATOM     88  C   UNL A   1      46.949  33.846  30.689  1.00  0.00     0.002 A 
ATOM     89  C   UNL A   1      46.266  34.765  28.549  1.00  0.00     0.091 A 
ATOM     90  F   UNL A   1      45.054  33.387  27.027  1.00  0.00    -0.205 F 
ATOM     91  C   UNL A   1      46.881  34.919  29.803  1.00  0.00     0.022 A 
BRANCH  89  92
ATOM     92  S   UNL A   1      46.317  36.168  27.430  1.00  0.00     0.127 S 
ATOM     93  O   UNL A   1      44.897  36.495  27.299  1.00  0.00    -0.237 OA
ATOM     94  O   UNL A   1      47.099  37.142  28.192  1.00  0.00    -0.237 OA
ATOM     95  O   UNL A   1      46.961  35.691  26.214  1.00  0.00    -0.744 OA
ENDBRANCH  89  92
ENDBRANCH  62  85
ENDBRANCH  36  37
ENDBRANCH  28  31
ENDBRANCH  26  27
ENDBRANCH  25  26
ENDBRANCH   1  25
TORSDOF 19
ENDMDL
MODEL 2
REMARK VINA RESULT:     -10.8      5.545      8.685
REMARK SMILES CC[C@@](C)(NC(=O)c1cccc(Br)c1C)C(=O)NCCCCCCNC(=O)c1ccc(-c2c3nc(c(-c4cccc(S(=O)(=O)[O-])c4F)c4ccc([nH]4)c(-c4cccc(S(=O)(=O)[O-])c4F)c4nc(c(-c5cccc(S(=O)(=O)[O-])c5F)c5ccc2[nH]5)C=C4)C=C3)cc1
REMARK SMILES IDX 22 1 21 2 20 3 19 4 18 5 16 6 17 7 3 9 4 10 2 11 1 12 5 13
REMARK SMILES IDX 6 14 7 16 8 17 9 18 14 19 10 20 12 21 15 22 11 23 13 24
REMARK SMILES IDX 23 25 24 26 25 27 26 28 27 30 28 31 29 32 90 33 30 34 89 35
REMARK SMILES IDX 31 36 32 37 33 38 83 39 34 40 88 41 82 42 84 43 35 44 87 45
REMARK SMILES IDX 81 46 80 47 36 49 68 50 48 51 67 52 49 53 52 54 66 55 85 56
REMARK SMILES IDX 50 57 51 58 65 60 86 61 53 62 37 63 38 64 46 65 39 66 41 67
REMARK SMILES IDX 47 68 40 69 42 70 43 71 44 72 45 73 69 74 70 75 78 76 71 77
REMARK SMILES IDX 73 78 79 79 72 80 74 81 75 82 76 83 77 84 54 85 55 86 63 87
REMARK SMILES IDX 56 88 58 89 64 90 57 91 59 92 60 93 61 94 62 95
REMARK H PARENT 18 8 5 15 25 29 84 48 52 59
REMARK Flexibility Score: inf
ROOT
ATOM      1  C   UNL A   1      33.513  28.471  23.749  1.00  0.00     0.002 C 
ENDROOT
BRANCH   1   2
ATOM      2  C   UNL A   1      33.555  27.015  23.352  1.00  0.00     0.002 C 
BRANCH   2   3
ATOM      3  C   UNL A   1      32.704  26.571  22.152  1.00  0.00     0.021 C 
BRANCH   3   4
ATOM      4  C   UNL A   1      31.510  25.561  22.112  1.00  0.00     0.116 C 
BRANCH   4   5
ATOM      5  N   UNL A   1      31.653  24.215  22.765  1.00  0.00    -0.354 N 
ATOM      6  C   UNL A   1      31.664  23.451  23.897  1.00  0.00     0.245 C 
ATOM      7  O   UNL A   1      31.703  22.247  23.556  1.00  0.00    -0.272 OA
ATOM      8  H   UNL A   1      31.819  23.586  22.026  1.00  0.00     0.163 HD
BRANCH   6   9
ATOM      9  C   UNL A   1      31.473  23.720  25.508  1.00  0.00     0.116 C 
ATOM     10  C   UNL A   1      30.730  25.072  25.577  1.00  0.00     0.045 C 
BRANCH   9  11
ATOM     11  C   UNL A   1      30.545  22.593  26.129  1.00  0.00     0.035 C 
ATOM     12  C   UNL A   1      29.557  22.928  27.241  1.00  0.00     0.007 C 
ENDBRANCH   9  11
BRANCH   9  13
ATOM     13  N   UNL A   1      32.555  23.822  26.583  1.00  0.00    -0.338 N 
ATOM     14  C   UNL A   1      33.734  23.098  26.754  1.00  0.00     0.252 C 
ATOM     15  H   UNL A   1      32.391  24.510  27.267  1.00  0.00     0.164 HD
ATOM     16  O   UNL A   1      34.092  22.732  27.868  1.00  0.00    -0.269 OA
BRANCH  14  17
ATOM     17  C   UNL A   1      34.646  22.940  25.600  1.00  0.00     0.043 A 
ATOM     18  C   UNL A   1      34.945  23.954  24.684  1.00  0.00     0.014 A 
ATOM     19  C   UNL A   1      34.979  21.642  25.258  1.00  0.00    -0.024 A 
ATOM     20  C   UNL A   1      35.790  23.702  23.595  1.00  0.00     0.002 A 
ATOM     21  C   UNL A   1      36.088  21.474  24.401  1.00  0.00     0.021 A 
ATOM     22  C   UNL A   1      33.759  20.699  25.394  1.00  0.00     0.046 C 
ATOM     23  C   UNL A   1      36.427  22.478  23.501  1.00  0.00     0.016 A 
ATOM     24  Br  UNL A   1      37.757  20.675  25.002  1.00  0.00    -0.051 Br
ENDBRANCH  14  17
ENDBRANCH   9  13
ENDBRANCH   6   9
ENDBRANCH   4   5
ENDBRANCH   3   4
ENDBRANCH   2   3
ENDBRANCH   1   2
BRANCH   1  25
ATOM     25  C   UNL A   1      33.998  28.739  25.169  1.00  0.00     0.021 C 
BRANCH  25  26
ATOM     26  C   UNL A   1      32.897  29.117  26.160  1.00  0.00     0.116 C 
BRANCH  26  27
ATOM     27  N   UNL A   1      32.682  30.558  26.191  1.00  0.00    -0.352 N 
ATOM     28  C   UNL A   1      33.240  31.455  27.063  1.00  0.00     0.251 C 
ATOM     29  H   UNL A   1      32.070  30.926  25.513  1.00  0.00     0.163 HD
ATOM     30  O   UNL A   1      32.730  32.563  27.251  1.00  0.00    -0.269 OA
BRANCH  28  31
ATOM     31  C   UNL A   1      34.477  31.066  27.754  1.00  0.00     0.039 A 
ATOM     32  C   UNL A   1      35.549  31.955  27.826  1.00  0.00     0.014 A 
ATOM     33  C   UNL A   1      34.538  29.811  28.371  1.00  0.00     0.014 A 
ATOM     34  C   UNL A   1      36.689  31.583  28.539  1.00  0.00     0.010 A 
ATOM     35  C   UNL A   1      35.633  29.485  29.154  1.00  0.00     0.010 A 
ATOM     36  C   UNL A   1      36.734  30.350  29.213  1.00  0.00    -0.014 A 
BRANCH  36  37
ATOM     37  C   UNL A   1      37.955  29.910  29.927  1.00  0.00     0.031 A 
ATOM     38  C   UNL A   1      38.241  30.460  31.300  1.00  0.00     0.074 A 
ATOM     39  C   UNL A   1      38.821  29.073  29.326  1.00  0.00     0.049 A 
ATOM     40  N   UNL A   1      39.275  30.254  32.071  1.00  0.00    -0.248 NA
ATOM     41  C   UNL A   1      37.249  31.391  31.870  1.00  0.00     0.031 C 
ATOM     42  C   UNL A   1      38.681  28.540  27.968  1.00  0.00     0.029 A 
ATOM     43  N   UNL A   1      40.002  28.539  29.771  1.00  0.00    -0.354 N 
ATOM     44  C   UNL A   1      39.071  31.042  33.197  1.00  0.00     0.074 A 
ATOM     45  C   UNL A   1      37.845  31.778  32.988  1.00  0.00     0.031 C 
ATOM     46  C   UNL A   1      39.736  27.753  27.694  1.00  0.00     0.029 A 
ATOM     47  C   UNL A   1      40.637  27.751  28.841  1.00  0.00     0.049 A 
ATOM     48  H   UNL A   1      40.363  28.706  30.672  1.00  0.00     0.167 HD
ATOM     49  C   UNL A   1      39.812  31.115  34.326  1.00  0.00     0.034 A 
ATOM     50  C   UNL A   1      41.820  27.109  28.908  1.00  0.00     0.034 A 
ATOM     51  C   UNL A   1      41.008  30.349  34.543  1.00  0.00     0.049 A 
ATOM     52  C   UNL A   1      42.609  27.185  30.188  1.00  0.00     0.074 A 
ATOM     53  C   UNL A   1      41.809  30.305  35.668  1.00  0.00     0.029 A 
ATOM     54  N   UNL A   1      41.569  29.490  33.614  1.00  0.00    -0.354 N 
ATOM     55  N   UNL A   1      42.333  27.837  31.291  1.00  0.00    -0.248 NA
ATOM     56  C   UNL A   1      43.851  26.401  30.250  1.00  0.00     0.031 C 
ATOM     57  C   UNL A   1      42.871  29.432  35.411  1.00  0.00     0.029 A 
ATOM     58  C   UNL A   1      42.705  28.903  34.141  1.00  0.00     0.049 A 
ATOM     59  H   UNL A   1      41.213  29.321  32.711  1.00  0.00     0.167 HD
ATOM     60  C   UNL A   1      43.337  27.504  32.192  1.00  0.00     0.074 A 
ATOM     61  C   UNL A   1      44.216  26.576  31.512  1.00  0.00     0.031 C 
ATOM     62  C   UNL A   1      43.524  27.931  33.465  1.00  0.00     0.034 A 
BRANCH  49  63
ATOM     63  C   UNL A   1      39.316  32.002  35.439  1.00  0.00     0.023 A 
ATOM     64  C   UNL A   1      38.386  31.493  36.369  1.00  0.00     0.012 A 
ATOM     65  C   UNL A   1      39.816  33.307  35.606  1.00  0.00     0.148 A 
ATOM     66  C   UNL A   1      37.939  32.277  37.431  1.00  0.00     0.002 A 
ATOM     67  C   UNL A   1      39.405  34.066  36.696  1.00  0.00     0.091 A 
ATOM     68  F   UNL A   1      40.685  33.779  34.701  1.00  0.00    -0.205 F 
ATOM     69  C   UNL A   1      38.458  33.558  37.601  1.00  0.00     0.022 A 
BRANCH  67  70
ATOM     70  S   UNL A   1      40.070  35.695  37.053  1.00  0.00     0.127 S 
ATOM     71  O   UNL A   1      39.653  36.450  35.872  1.00  0.00    -0.237 OA
ATOM     72  O   UNL A   1      39.362  36.048  38.284  1.00  0.00    -0.237 OA
ATOM     73  O   UNL A   1      41.507  35.523  37.201  1.00  0.00    -0.744 OA
ENDBRANCH  67  70
ENDBRANCH  49  63
BRANCH  50  74
ATOM     74  C   UNL A   1      42.312  26.305  27.753  1.00  0.00     0.023 A 
ATOM     75  C   UNL A   1      43.179  26.892  26.809  1.00  0.00     0.012 A 
ATOM     76  C   UNL A   1      41.910  24.968  27.574  1.00  0.00     0.148 A 
ATOM     77  C   UNL A   1      43.591  26.180  25.682  1.00  0.00     0.002 A 
ATOM     78  C   UNL A   1      42.374  24.245  26.482  1.00  0.00     0.091 A 
ATOM     79  F   UNL A   1      41.080  24.428  28.477  1.00  0.00    -0.205 F 
ATOM     80  C   UNL A   1      43.194  24.854  25.521  1.00  0.00     0.022 A 
BRANCH  78  81
ATOM     81  S   UNL A   1      42.018  22.497  26.272  1.00  0.00     0.127 S 
ATOM     82  O   UNL A   1      42.686  22.206  25.006  1.00  0.00    -0.237 OA
ATOM     83  O   UNL A   1      42.653  21.913  27.453  1.00  0.00    -0.237 OA
ATOM     84  O   UNL A   1      40.564  22.393  26.263  1.00  0.00    -0.744 OA
ENDBRANCH  78  81
ENDBRANCH  50  74
BRANCH  62  85
ATOM     85  C   UNL A   1      44.677  27.347  34.235  1.00  0.00     0.023 A 
ATOM     86  C   UNL A   1      45.946  27.955  34.186  1.00  0.00     0.012 A 
ATOM     87  C   UNL A   1      44.476  26.227  35.066  1.00  0.00     0.148 A 
ATOM     88  C   UNL A   1      47.009  27.431  34.920  1.00  0.00     0.002 A 
ATOM     89  C   UNL A   1      45.523  25.746  35.838  1.00  0.00     0.091 A 
ATOM     90  F   UNL A   1      43.263  25.654  35.084  1.00  0.00    -0.205 F 
ATOM     91  C   UNL A   1      46.795  26.336  35.755  1.00  0.00     0.022 A 
BRANCH  89  92
ATOM     92  S   UNL A   1      45.313  24.409  37.018  1.00  0.00     0.127 S 
ATOM     93  O   UNL A   1      44.914  23.304  36.146  1.00  0.00    -0.237 OA
ATOM     94  O   UNL A   1      46.656  24.284  37.585  1.00  0.00    -0.237 OA
ATOM     95  O   UNL A   1      44.297  24.858  37.960  1.00  0.00    -0.744 OA
ENDBRANCH  89  92
ENDBRANCH  62  85
ENDBRANCH  36  37
ENDBRANCH  28  31
ENDBRANCH  26  27
ENDBRANCH  25  26
ENDBRANCH   1  25
TORSDOF 19
ENDMDL
MODEL 3
REMARK VINA RESULT:     -10.7      5.579      8.699
REMARK SMILES CC[C@@](C)(NC(=O)c1cccc(Br)c1C)C(=O)NCCCCCCNC(=O)c1ccc(-c2c3nc(c(-c4cccc(S(=O)(=O)[O-])c4F)c4ccc([nH]4)c(-c4cccc(S(=O)(=O)[O-])c4F)c4nc(c(-c5cccc(S(=O)(=O)[O-])c5F)c5ccc2[nH]5)C=C4)C=C3)cc1
REMARK SMILES IDX 22 1 21 2 20 3 19 4 18 5 16 6 17 7 3 9 4 10 2 11 1 12 5 13
REMARK SMILES IDX 6 14 7 16 8 17 9 18 14 19 10 20 12 21 15 22 11 23 13 24
REMARK SMILES IDX 23 25 24 26 25 27 26 28 27 30 28 31 29 32 90 33 30 34 89 35
REMARK SMILES IDX 31 36 32 37 33 38 83 39 34 40 88 41 82 42 84 43 35 44 87 45
REMARK SMILES IDX 81 46 80 47 36 49 68 50 48 51 67 52 49 53 52 54 66 55 85 56
REMARK SMILES IDX 50 57 51 58 65 60 86 61 53 62 37 63 38 64 46 65 39 66 41 67
REMARK SMILES IDX 47 68 40 69 42 70 43 71 44 72 45 73 69 74 70 75 78 76 71 77
REMARK SMILES IDX 73 78 79 79 72 80 74 81 75 82 76 83 77 84 54 85 55 86 63 87
REMARK SMILES IDX 56 88 58 89 64 90 57 91 59 92 60 93 61 94 62 95
REMARK H PARENT 18 8 5 15 25 29 84 48 52 59
REMARK Flexibility Score: inf
ROOT
ATOM      1  C   UNL A   1      31.255  29.538  25.526  1.00  0.00     0.002 C 
ENDROOT
BRANCH   1   2
ATOM      2  C   UNL A   1      30.900  29.608  24.060  1.00  0.00     0.002 C 
BRANCH   2   3
ATOM      3  C   UNL A   1      30.605  28.290  23.327  1.00  0.00     0.021 C 
BRANCH   3   4
ATOM      4  C   UNL A   1      29.672  27.110  23.759  1.00  0.00     0.116 C 
BRANCH   4   5
ATOM      5  N   UNL A   1      30.060  25.697  23.429  1.00  0.00    -0.354 N 
ATOM      6  C   UNL A   1      30.997  24.804  22.992  1.00  0.00     0.245 C 
ATOM      7  O   UNL A   1      30.545  23.649  23.161  1.00  0.00    -0.272 OA
ATOM      8  H   UNL A   1      29.257  25.158  23.617  1.00  0.00     0.163 HD
BRANCH   6   9
ATOM      9  C   UNL A   1      32.558  24.882  22.485  1.00  0.00     0.116 C 
ATOM     10  C   UNL A   1      32.461  25.459  21.055  1.00  0.00     0.045 C 
BRANCH   9  11
ATOM     11  C   UNL A   1      33.363  25.903  23.395  1.00  0.00     0.035 C 
ATOM     12  C   UNL A   1      33.837  27.238  22.831  1.00  0.00     0.007 C 
ENDBRANCH   9  11
BRANCH   9  13
ATOM     13  N   UNL A   1      33.573  23.744  22.370  1.00  0.00    -0.338 N 
ATOM     14  C   UNL A   1      34.565  23.322  23.253  1.00  0.00     0.252 C 
ATOM     15  H   UNL A   1      33.516  23.225  21.536  1.00  0.00     0.164 HD
ATOM     16  O   UNL A   1      35.672  22.990  22.844  1.00  0.00    -0.269 OA
BRANCH  14  17
ATOM     17  C   UNL A   1      34.208  23.099  24.672  1.00  0.00     0.043 A 
ATOM     18  C   UNL A   1      35.046  23.392  25.753  1.00  0.00     0.014 A 
ATOM     19  C   UNL A   1      33.109  22.294  24.907  1.00  0.00    -0.024 A 
ATOM     20  C   UNL A   1      34.640  23.110  27.064  1.00  0.00     0.002 A 
ATOM     21  C   UNL A   1      32.551  22.340  26.203  1.00  0.00     0.021 A 
ATOM     22  C   UNL A   1      33.071  21.102  23.920  1.00  0.00     0.046 C 
ATOM     23  C   UNL A   1      33.354  22.657  27.291  1.00  0.00     0.016 A 
ATOM     24  Br  UNL A   1      30.800  23.110  26.555  1.00  0.00    -0.051 Br
ENDBRANCH  14  17
ENDBRANCH   9  13
ENDBRANCH   6   9
ENDBRANCH   4   5
ENDBRANCH   3   4
ENDBRANCH   2   3
ENDBRANCH   1   2
BRANCH   1  25
ATOM     25  C   UNL A   1      32.468  28.667  25.827  1.00  0.00     0.021 C 
BRANCH  25  26
ATOM     26  C   UNL A   1      33.759  29.440  26.097  1.00  0.00     0.116 C 
BRANCH  26  27
ATOM     27  N   UNL A   1      33.486  30.834  26.424  1.00  0.00    -0.352 N 
ATOM     28  C   UNL A   1      34.003  31.551  27.469  1.00  0.00     0.251 C 
ATOM     29  H   UNL A   1      32.862  31.310  25.829  1.00  0.00     0.163 HD
ATOM     30  O   UNL A   1      33.447  32.575  27.877  1.00  0.00    -0.269 OA
BRANCH  28  31
ATOM     31  C   UNL A   1      35.252  31.077  28.080  1.00  0.00     0.039 A 
ATOM     32  C   UNL A   1      36.405  31.860  28.017  1.00  0.00     0.014 A 
ATOM     33  C   UNL A   1      35.248  29.852  28.757  1.00  0.00     0.014 A 
ATOM     34  C   UNL A   1      37.561  31.413  28.656  1.00  0.00     0.010 A 
ATOM     35  C   UNL A   1      36.370  29.458  29.466  1.00  0.00     0.010 A 
ATOM     36  C   UNL A   1      37.549  30.214  29.391  1.00  0.00    -0.014 A 
BRANCH  36  37
ATOM     37  C   UNL A   1      38.779  29.690  30.029  1.00  0.00     0.031 A 
ATOM     38  C   UNL A   1      39.215  30.255  31.355  1.00  0.00     0.074 A 
ATOM     39  C   UNL A   1      39.522  28.763  29.396  1.00  0.00     0.049 A 
ATOM     40  N   UNL A   1      40.284  29.983  32.055  1.00  0.00    -0.248 NA
ATOM     41  C   UNL A   1      38.352  31.286  31.962  1.00  0.00     0.031 C 
ATOM     42  C   UNL A   1      39.233  28.203  28.073  1.00  0.00     0.029 A 
ATOM     43  N   UNL A   1      40.684  28.142  29.772  1.00  0.00    -0.354 N 
ATOM     44  C   UNL A   1      40.235  30.820  33.163  1.00  0.00     0.074 A 
ATOM     45  C   UNL A   1      39.063  31.653  33.018  1.00  0.00     0.031 C 
ATOM     46  C   UNL A   1      40.193  27.319  27.751  1.00  0.00     0.029 A 
ATOM     47  C   UNL A   1      41.177  27.273  28.827  1.00  0.00     0.049 A 
ATOM     48  H   UNL A   1      41.126  28.305  30.637  1.00  0.00     0.167 HD
ATOM     49  C   UNL A   1      41.064  30.863  34.230  1.00  0.00     0.034 A 
ATOM     50  C   UNL A   1      42.303  26.533  28.830  1.00  0.00     0.034 A 
ATOM     51  C   UNL A   1      42.204  30.002  34.386  1.00  0.00     0.049 A 
ATOM     52  C   UNL A   1      43.191  26.579  30.044  1.00  0.00     0.074 A 
ATOM     53  C   UNL A   1      43.083  29.923  35.450  1.00  0.00     0.029 A 
ATOM     54  N   UNL A   1      42.617  29.069  33.450  1.00  0.00    -0.354 N 
ATOM     55  N   UNL A   1      43.057  27.286  31.140  1.00  0.00    -0.248 NA
ATOM     56  C   UNL A   1      44.364  25.691  30.044  1.00  0.00     0.031 C 
ATOM     57  C   UNL A   1      44.044  28.953  35.147  1.00  0.00     0.029 A 
ATOM     58  C   UNL A   1      43.736  28.401  33.913  1.00  0.00     0.049 A 
ATOM     59  H   UNL A   1      42.180  28.904  32.583  1.00  0.00     0.167 HD
ATOM     60  C   UNL A   1      44.096  26.894  31.976  1.00  0.00     0.074 A 
ATOM     61  C   UNL A   1      44.838  25.873  31.267  1.00  0.00     0.031 C 
ATOM     62  C   UNL A   1      44.416  27.342  33.215  1.00  0.00     0.034 A 
BRANCH  49  63
ATOM     63  C   UNL A   1      40.732  31.823  35.343  1.00  0.00     0.023 A 
ATOM     64  C   UNL A   1      41.557  32.945  35.560  1.00  0.00     0.012 A 
ATOM     65  C   UNL A   1      39.574  31.655  36.125  1.00  0.00     0.148 A 
ATOM     66  C   UNL A   1      41.253  33.871  36.557  1.00  0.00     0.002 A 
ATOM     67  C   UNL A   1      39.249  32.608  37.084  1.00  0.00     0.091 A 
ATOM     68  F   UNL A   1      38.812  30.572  35.916  1.00  0.00    -0.205 F 
ATOM     69  C   UNL A   1      40.093  33.709  37.309  1.00  0.00     0.022 A 
BRANCH  67  70
ATOM     70  S   UNL A   1      37.738  32.539  38.052  1.00  0.00     0.127 S 
ATOM     71  O   UNL A   1      36.725  32.840  37.040  1.00  0.00    -0.237 OA
ATOM     72  O   UNL A   1      37.740  31.153  38.518  1.00  0.00    -0.237 OA
ATOM     73  O   UNL A   1      37.881  33.539  39.099  1.00  0.00    -0.744 OA
ENDBRANCH  67  70
ENDBRANCH  49  63
BRANCH  50  74
ATOM     74  C   UNL A   1      42.634  25.655  27.672  1.00  0.00     0.023 A 
ATOM     75  C   UNL A   1      43.465  26.137  26.641  1.00  0.00     0.012 A 
ATOM     76  C   UNL A   1      42.116  24.349  27.578  1.00  0.00     0.148 A 
ATOM     77  C   UNL A   1      43.727  25.358  25.514  1.00  0.00     0.002 A 
ATOM     78  C   UNL A   1      42.430  23.555  26.482  1.00  0.00     0.091 A 
ATOM     79  F   UNL A   1      41.322  23.908  28.564  1.00  0.00    -0.205 F 
ATOM     80  C   UNL A   1      43.215  24.065  25.437  1.00  0.00     0.022 A 
BRANCH  78  81
ATOM     81  S   UNL A   1      41.922  21.837  26.369  1.00  0.00     0.127 S 
ATOM     82  O   UNL A   1      40.488  21.964  26.124  1.00  0.00    -0.237 OA
ATOM     83  O   UNL A   1      42.704  21.363  25.226  1.00  0.00    -0.237 OA
ATOM     84  O   UNL A   1      42.298  21.233  27.640  1.00  0.00    -0.744 OA
ENDBRANCH  78  81
ENDBRANCH  50  74
BRANCH  62  85
ATOM     85  C   UNL A   1      45.571  26.683  33.918  1.00  0.00     0.023 A 
ATOM     86  C   UNL A   1      46.864  27.233  33.832  1.00  0.00     0.012 A 
ATOM     87  C   UNL A   1      45.352  25.549  34.725  1.00  0.00     0.148 A 
ATOM     88  C   UNL A   1      47.931  26.640  34.505  1.00  0.00     0.002 A 
ATOM     89  C   UNL A   1      46.407  24.998  35.439  1.00  0.00     0.091 A 
ATOM     90  F   UNL A   1      44.116  25.031  34.779  1.00  0.00    -0.205 F 
ATOM     91  C   UNL A   1      47.701  25.532  35.318  1.00  0.00     0.022 A 
BRANCH  89  92
ATOM     92  S   UNL A   1      46.183  23.637  36.588  1.00  0.00     0.127 S 
ATOM     93  O   UNL A   1      45.787  22.552  35.690  1.00  0.00    -0.237 OA
ATOM     94  O   UNL A   1      47.521  23.495  37.163  1.00  0.00    -0.237 OA
ATOM     95  O   UNL A   1      45.161  24.070  37.531  1.00  0.00    -0.744 OA
ENDBRANCH  89  92
ENDBRANCH  62  85
ENDBRANCH  36  37
ENDBRANCH  28  31
ENDBRANCH  26  27
ENDBRANCH  25  26
ENDBRANCH   1  25
TORSDOF 19
ENDMDL
