MODEL 1
REMARK VINA RESULT:     -10.7      0.000      0.000
REMARK SMILES CCOCCC[N@@H+]1[C@@H](C(=O)NCCCCCCNC(=O)c2ccc(-c3c4nc(c(-c5cccc(S(=O)(=O)[O-])c5F)c5ccc([nH]5)c(-c5cccc(S(=O)(=O)[O-])c5F)c5nc(c(-c6cccc(S(=O)(=O)[O-])c6F)c6ccc3[nH]6)C=C5)C=C4)cc2)CC[C@H]2CCCC[C@H]21
REMARK SMILES IDX 13 1 12 2 11 3 9 4 10 5 8 7 7 8 91 9 84 11 86 12 90 13 85 14
REMARK SMILES IDX 87 15 89 16 88 17 6 18 5 19 4 20 3 21 2 22 1 23 14 24 15 25
REMARK SMILES IDX 16 26 17 27 18 28 19 29 20 31 21 32 22 33 83 34 23 35 82 36
REMARK SMILES IDX 24 37 25 38 26 39 76 40 27 41 81 42 75 43 77 44 28 45 80 46
REMARK SMILES IDX 74 47 73 48 29 50 61 51 41 52 60 53 42 54 45 55 59 56 78 57
REMARK SMILES IDX 43 58 44 59 58 61 79 62 46 63 30 64 31 65 39 66 32 67 34 68
REMARK SMILES IDX 40 69 33 70 35 71 36 72 37 73 38 74 62 75 63 76 71 77 64 78
REMARK SMILES IDX 66 79 72 80 65 81 67 82 68 83 69 84 70 85 47 86 48 87 56 88
REMARK SMILES IDX 49 89 51 90 57 91 50 92 52 93 53 94 54 95 55 96
REMARK H PARENT 11 6 7 10 18 30 77 49 45 60
REMARK Flexibility Score: inf
ROOT
ATOM      1  C   UNL A   1      36.854  23.665  25.230  1.00  0.00     0.021 C 
ENDROOT
BRANCH   1   2
ATOM      2  C   UNL A   1      35.576  23.928  26.024  1.00  0.00     0.116 C 
BRANCH   2   3
ATOM      3  N   UNL A   1      35.178  22.726  26.725  1.00  0.00    -0.351 N 
ATOM      4  C   UNL A   1      33.919  22.252  26.946  1.00  0.00     0.278 C 
ATOM      5  O   UNL A   1      33.784  21.336  27.765  1.00  0.00    -0.268 OA
ATOM      6  H   UNL A   1      35.912  22.181  27.090  1.00  0.00     0.163 HD
BRANCH   4   7
ATOM      7  C   UNL A   1      32.697  22.827  26.190  1.00  0.00     0.274 C 
ATOM      8  N   UNL A   1      32.966  22.919  24.736  1.00  0.00    -0.322 N 
ATOM      9  C   UNL A   1      32.044  23.774  23.956  1.00  0.00     0.187 C 
ATOM     10  H   UNL A   1      33.836  23.450  24.732  1.00  0.00     0.349 HD
ATOM     11  C   UNL A   1      32.214  24.107  26.884  1.00  0.00     0.076 C 
ATOM     12  C   UNL A   1      31.628  25.096  24.645  1.00  0.00     0.048 C 
ATOM     13  C   UNL A   1      32.559  24.144  22.546  1.00  0.00     0.065 C 
ATOM     14  C   UNL A   1      31.145  24.821  26.072  1.00  0.00     0.016 C 
ATOM     15  C   UNL A   1      32.689  26.214  24.613  1.00  0.00     0.010 C 
ATOM     16  C   UNL A   1      33.794  25.027  22.611  1.00  0.00     0.006 C 
ATOM     17  C   UNL A   1      33.502  26.338  23.325  1.00  0.00     0.001 C 
BRANCH   8  18
ATOM     18  C   UNL A   1      33.325  21.646  24.065  1.00  0.00     0.265 C 
BRANCH  18  19
ATOM     19  C   UNL A   1      32.397  20.416  23.933  1.00  0.00     0.090 C 
BRANCH  19  20
ATOM     20  C   UNL A   1      32.935  18.996  24.124  1.00  0.00     0.166 C 
BRANCH  20  21
ATOM     21  O   UNL A   1      32.051  18.082  24.763  1.00  0.00    -0.382 OA
BRANCH  21  22
ATOM     22  C   UNL A   1      32.638  17.091  25.595  1.00  0.00     0.156 C 
ATOM     23  C   UNL A   1      33.256  15.920  24.845  1.00  0.00     0.035 C 
ENDBRANCH  21  22
ENDBRANCH  20  21
ENDBRANCH  19  20
ENDBRANCH  18  19
ENDBRANCH   8  18
ENDBRANCH   4   7
ENDBRANCH   2   3
ENDBRANCH   1   2
BRANCH   1  24
ATOM     24  C   UNL A   1      37.508  22.323  25.575  1.00  0.00     0.002 C 
BRANCH  24  25
ATOM     25  C   UNL A   1      37.385  21.263  24.476  1.00  0.00     0.002 C 
BRANCH  25  26
ATOM     26  C   UNL A   1      38.159  19.972  24.752  1.00  0.00     0.021 C 
BRANCH  26  27
ATOM     27  C   UNL A   1      38.836  19.930  26.117  1.00  0.00     0.116 C 
BRANCH  27  28
ATOM     28  N   UNL A   1      40.067  19.153  26.080  1.00  0.00    -0.352 N 
ATOM     29  C   UNL A   1      41.363  19.594  26.118  1.00  0.00     0.251 C 
ATOM     30  H   UNL A   1      39.952  18.177  26.020  1.00  0.00     0.163 HD
ATOM     31  O   UNL A   1      42.286  18.826  25.844  1.00  0.00    -0.269 OA
BRANCH  29  32
ATOM     32  C   UNL A   1      41.644  20.996  26.478  1.00  0.00     0.039 A 
ATOM     33  C   UNL A   1      42.087  21.290  27.769  1.00  0.00     0.014 A 
ATOM     34  C   UNL A   1      41.481  22.016  25.535  1.00  0.00     0.014 A 
ATOM     35  C   UNL A   1      42.420  22.605  28.099  1.00  0.00     0.010 A 
ATOM     36  C   UNL A   1      41.885  23.311  25.843  1.00  0.00     0.010 A 
ATOM     37  C   UNL A   1      42.353  23.619  27.129  1.00  0.00    -0.014 A 
BRANCH  37  38
ATOM     38  C   UNL A   1      42.804  25.000  27.433  1.00  0.00     0.031 A 
ATOM     39  C   UNL A   1      41.868  25.987  28.070  1.00  0.00     0.074 A 
ATOM     40  C   UNL A   1      44.035  25.389  27.047  1.00  0.00     0.049 A 
ATOM     41  N   UNL A   1      42.077  27.242  28.373  1.00  0.00    -0.248 NA
ATOM     42  C   UNL A   1      40.509  25.513  28.383  1.00  0.00     0.031 C 
ATOM     43  C   UNL A   1      45.001  24.549  26.335  1.00  0.00     0.029 A 
ATOM     44  N   UNL A   1      44.672  26.599  27.169  1.00  0.00    -0.354 N 
ATOM     45  C   UNL A   1      40.871  27.718  28.874  1.00  0.00     0.074 A 
ATOM     46  C   UNL A   1      39.926  26.625  28.807  1.00  0.00     0.031 C 
ATOM     47  C   UNL A   1      46.107  25.267  26.084  1.00  0.00     0.029 A 
ATOM     48  C   UNL A   1      45.916  26.625  26.586  1.00  0.00     0.049 A 
ATOM     49  H   UNL A   1      44.275  27.373  27.629  1.00  0.00     0.167 HD
ATOM     50  C   UNL A   1      40.585  28.947  29.367  1.00  0.00     0.034 A 
ATOM     51  C   UNL A   1      46.802  27.631  26.456  1.00  0.00     0.034 A 
ATOM     52  C   UNL A   1      41.539  30.019  29.461  1.00  0.00     0.049 A 
ATOM     53  C   UNL A   1      46.478  28.973  27.051  1.00  0.00     0.074 A 
ATOM     54  C   UNL A   1      41.380  31.262  30.047  1.00  0.00     0.029 A 
ATOM     55  N   UNL A   1      42.822  29.986  28.936  1.00  0.00    -0.354 N 
ATOM     56  N   UNL A   1      45.397  29.351  27.689  1.00  0.00    -0.248 NA
ATOM     57  C   UNL A   1      47.507  30.015  26.940  1.00  0.00     0.031 C 
ATOM     58  C   UNL A   1      42.554  31.995  29.841  1.00  0.00     0.029 A 
ATOM     59  C   UNL A   1      43.458  31.196  29.161  1.00  0.00     0.049 A 
ATOM     60  H   UNL A   1      43.222  29.215  28.472  1.00  0.00     0.167 HD
ATOM     61  C   UNL A   1      45.623  30.667  28.076  1.00  0.00     0.074 A 
ATOM     62  C   UNL A   1      46.957  31.010  27.625  1.00  0.00     0.031 C 
ATOM     63  C   UNL A   1      44.797  31.517  28.733  1.00  0.00     0.034 A 
BRANCH  50  64
ATOM     64  C   UNL A   1      39.186  29.186  29.875  1.00  0.00     0.023 A 
ATOM     65  C   UNL A   1      38.834  28.778  31.179  1.00  0.00     0.012 A 
ATOM     66  C   UNL A   1      38.234  29.856  29.082  1.00  0.00     0.148 A 
ATOM     67  C   UNL A   1      37.546  28.993  31.668  1.00  0.00     0.002 A 
ATOM     68  C   UNL A   1      36.967  30.110  29.595  1.00  0.00     0.091 A 
ATOM     69  F   UNL A   1      38.578  30.218  27.838  1.00  0.00    -0.205 F 
ATOM     70  C   UNL A   1      36.617  29.667  30.881  1.00  0.00     0.022 A 
BRANCH  68  71
ATOM     71  S   UNL A   1      35.728  31.043  28.690  1.00  0.00     0.127 S 
ATOM     72  O   UNL A   1      34.879  31.535  29.774  1.00  0.00    -0.237 OA
ATOM     73  O   UNL A   1      36.535  32.073  28.034  1.00  0.00    -0.237 OA
ATOM     74  O   UNL A   1      35.098  30.097  27.781  1.00  0.00    -0.744 OA
ENDBRANCH  68  71
ENDBRANCH  50  64
BRANCH  51  75
ATOM     75  C   UNL A   1      48.101  27.381  25.772  1.00  0.00     0.023 A 
ATOM     76  C   UNL A   1      49.197  26.899  26.514  1.00  0.00     0.012 A 
ATOM     77  C   UNL A   1      48.238  27.561  24.381  1.00  0.00     0.148 A 
ATOM     78  C   UNL A   1      50.413  26.625  25.887  1.00  0.00     0.002 A 
ATOM     79  C   UNL A   1      49.432  27.231  23.754  1.00  0.00     0.091 A 
ATOM     80  F   UNL A   1      47.183  28.027  23.697  1.00  0.00    -0.205 F 
ATOM     81  C   UNL A   1      50.527  26.778  24.507  1.00  0.00     0.022 A 
BRANCH  79  82
ATOM     82  S   UNL A   1      49.625  27.263  21.969  1.00  0.00     0.127 S 
ATOM     83  O   UNL A   1      49.367  28.668  21.665  1.00  0.00    -0.237 OA
ATOM     84  O   UNL A   1      51.018  26.844  21.811  1.00  0.00    -0.237 OA
ATOM     85  O   UNL A   1      48.649  26.316  21.447  1.00  0.00    -0.744 OA
ENDBRANCH  79  82
ENDBRANCH  51  75
BRANCH  63  86
ATOM     86  C   UNL A   1      45.310  32.905  29.023  1.00  0.00     0.023 A 
ATOM     87  C   UNL A   1      46.000  33.160  30.224  1.00  0.00     0.012 A 
ATOM     88  C   UNL A   1      45.167  33.938  28.074  1.00  0.00     0.148 A 
ATOM     89  C   UNL A   1      46.510  34.429  30.493  1.00  0.00     0.002 A 
ATOM     90  C   UNL A   1      45.724  35.186  28.326  1.00  0.00     0.091 A 
ATOM     91  F   UNL A   1      44.492  33.680  26.945  1.00  0.00    -0.205 F 
ATOM     92  C   UNL A   1      46.384  35.438  29.540  1.00  0.00     0.022 A 
BRANCH  90  93
ATOM     93  S   UNL A   1      45.694  36.517  27.120  1.00  0.00     0.127 S 
ATOM     94  O   UNL A   1      44.259  36.757  26.977  1.00  0.00    -0.237 OA
ATOM     95  O   UNL A   1      46.425  37.578  27.813  1.00  0.00    -0.237 OA
ATOM     96  O   UNL A   1      46.361  35.999  25.934  1.00  0.00    -0.744 OA
ENDBRANCH  90  93
ENDBRANCH  63  86
ENDBRANCH  37  38
ENDBRANCH  29  32
ENDBRANCH  27  28
ENDBRANCH  26  27
ENDBRANCH  25  26
ENDBRANCH  24  25
ENDBRANCH   1  24
TORSDOF 21
ENDMDL
MODEL 2
REMARK VINA RESULT:     -10.5      1.876      2.482
REMARK SMILES CCOCCC[N@@H+]1[C@@H](C(=O)NCCCCCCNC(=O)c2ccc(-c3c4nc(c(-c5cccc(S(=O)(=O)[O-])c5F)c5ccc([nH]5)c(-c5cccc(S(=O)(=O)[O-])c5F)c5nc(c(-c6cccc(S(=O)(=O)[O-])c6F)c6ccc3[nH]6)C=C5)C=C4)cc2)CC[C@H]2CCCC[C@H]21
REMARK SMILES IDX 13 1 12 2 11 3 9 4 10 5 8 7 7 8 91 9 84 11 86 12 90 13 85 14
REMARK SMILES IDX 87 15 89 16 88 17 6 18 5 19 4 20 3 21 2 22 1 23 14 24 15 25
REMARK SMILES IDX 16 26 17 27 18 28 19 29 20 31 21 32 22 33 83 34 23 35 82 36
REMARK SMILES IDX 24 37 25 38 26 39 76 40 27 41 81 42 75 43 77 44 28 45 80 46
REMARK SMILES IDX 74 47 73 48 29 50 61 51 41 52 60 53 42 54 45 55 59 56 78 57
REMARK SMILES IDX 43 58 44 59 58 61 79 62 46 63 30 64 31 65 39 66 32 67 34 68
REMARK SMILES IDX 40 69 33 70 35 71 36 72 37 73 38 74 62 75 63 76 71 77 64 78
REMARK SMILES IDX 66 79 72 80 65 81 67 82 68 83 69 84 70 85 47 86 48 87 56 88
REMARK SMILES IDX 49 89 51 90 57 91 50 92 52 93 53 94 54 95 55 96
REMARK H PARENT 11 6 7 10 18 30 77 49 45 60
REMARK Flexibility Score: inf
ROOT
ATOM      1  C   UNL A   1      36.417  23.385  25.609  1.00  0.00     0.021 C 
ENDROOT
BRANCH   1   2
ATOM      2  C   UNL A   1      35.239  22.972  24.730  1.00  0.00     0.116 C 
BRANCH   2   3
ATOM      3  N   UNL A   1      35.093  23.907  23.634  1.00  0.00    -0.351 N 
ATOM      4  C   UNL A   1      34.150  24.877  23.468  1.00  0.00     0.278 C 
ATOM      5  O   UNL A   1      34.061  25.409  22.356  1.00  0.00    -0.268 OA
ATOM      6  H   UNL A   1      35.761  23.831  22.916  1.00  0.00     0.163 HD
BRANCH   4   7
ATOM      7  C   UNL A   1      33.227  25.311  24.632  1.00  0.00     0.274 C 
ATOM      8  N   UNL A   1      31.812  25.364  24.199  1.00  0.00    -0.322 N 
ATOM      9  C   UNL A   1      30.886  26.102  25.086  1.00  0.00     0.187 C 
ATOM     10  H   UNL A   1      31.882  25.968  23.380  1.00  0.00     0.349 HD
ATOM     11  C   UNL A   1      33.792  26.573  25.297  1.00  0.00     0.076 C 
ATOM     12  C   UNL A   1      31.452  27.411  25.687  1.00  0.00     0.048 C 
ATOM     13  C   UNL A   1      29.528  26.455  24.436  1.00  0.00     0.065 C 
ATOM     14  C   UNL A   1      32.824  27.157  26.315  1.00  0.00     0.016 C 
ATOM     15  C   UNL A   1      31.485  28.614  24.723  1.00  0.00     0.010 C 
ATOM     16  C   UNL A   1      29.690  27.443  23.293  1.00  0.00     0.006 C 
ATOM     17  C   UNL A   1      30.295  28.754  23.774  1.00  0.00     0.001 C 
BRANCH   8  18
ATOM     18  C   UNL A   1      31.255  24.099  23.659  1.00  0.00     0.265 C 
BRANCH  18  19
ATOM     19  C   UNL A   1      30.861  22.867  24.506  1.00  0.00     0.090 C 
BRANCH  19  20
ATOM     20  C   UNL A   1      31.926  21.933  25.085  1.00  0.00     0.166 C 
BRANCH  20  21
ATOM     21  O   UNL A   1      32.121  20.710  24.383  1.00  0.00    -0.382 OA
BRANCH  21  22
ATOM     22  C   UNL A   1      32.718  19.640  25.103  1.00  0.00     0.156 C 
ATOM     23  C   UNL A   1      34.158  19.341  24.713  1.00  0.00     0.035 C 
ENDBRANCH  21  22
ENDBRANCH  20  21
ENDBRANCH  19  20
ENDBRANCH  18  19
ENDBRANCH   8  18
ENDBRANCH   4   7
ENDBRANCH   2   3
ENDBRANCH   1   2
BRANCH   1  24
ATOM     24  C   UNL A   1      37.661  22.516  25.392  1.00  0.00     0.002 C 
BRANCH  24  25
ATOM     25  C   UNL A   1      37.401  21.239  24.588  1.00  0.00     0.002 C 
BRANCH  25  26
ATOM     26  C   UNL A   1      38.194  20.019  25.062  1.00  0.00     0.021 C 
BRANCH  26  27
ATOM     27  C   UNL A   1      39.346  20.352  26.004  1.00  0.00     0.116 C 
BRANCH  27  28
ATOM     28  N   UNL A   1      40.340  19.289  26.031  1.00  0.00    -0.352 N 
ATOM     29  C   UNL A   1      41.704  19.388  26.082  1.00  0.00     0.251 C 
ATOM     30  H   UNL A   1      39.981  18.371  26.009  1.00  0.00     0.163 HD
ATOM     31  O   UNL A   1      42.406  18.400  25.864  1.00  0.00    -0.269 OA
BRANCH  29  32
ATOM     32  C   UNL A   1      42.327  20.690  26.390  1.00  0.00     0.039 A 
ATOM     33  C   UNL A   1      42.780  21.491  25.340  1.00  0.00     0.014 A 
ATOM     34  C   UNL A   1      42.449  21.121  27.715  1.00  0.00     0.014 A 
ATOM     35  C   UNL A   1      43.307  22.753  25.617  1.00  0.00     0.010 A 
ATOM     36  C   UNL A   1      42.906  22.407  27.982  1.00  0.00     0.010 A 
ATOM     37  C   UNL A   1      43.344  23.233  26.937  1.00  0.00    -0.014 A 
BRANCH  37  38
ATOM     38  C   UNL A   1      43.804  24.612  27.236  1.00  0.00     0.031 A 
ATOM     39  C   UNL A   1      42.837  25.652  27.727  1.00  0.00     0.074 A 
ATOM     40  C   UNL A   1      45.082  24.950  26.973  1.00  0.00     0.049 A 
ATOM     41  N   UNL A   1      43.054  26.912  28.002  1.00  0.00    -0.248 NA
ATOM     42  C   UNL A   1      41.438  25.231  27.906  1.00  0.00     0.031 C 
ATOM     43  C   UNL A   1      46.092  24.053  26.406  1.00  0.00     0.029 A 
ATOM     44  N   UNL A   1      45.742  26.144  27.118  1.00  0.00    -0.354 N 
ATOM     45  C   UNL A   1      41.817  27.443  28.348  1.00  0.00     0.074 A 
ATOM     46  C   UNL A   1      40.849  26.376  28.219  1.00  0.00     0.031 C 
ATOM     47  C   UNL A   1      47.242  24.727  26.251  1.00  0.00     0.029 A 
ATOM     48  C   UNL A   1      47.043  26.110  26.676  1.00  0.00     0.049 A 
ATOM     49  H   UNL A   1      45.324  26.949  27.501  1.00  0.00     0.167 HD
ATOM     50  C   UNL A   1      41.520  28.700  28.758  1.00  0.00     0.034 A 
ATOM     51  C   UNL A   1      47.971  27.084  26.606  1.00  0.00     0.034 A 
ATOM     52  C   UNL A   1      42.493  29.747  28.916  1.00  0.00     0.049 A 
ATOM     53  C   UNL A   1      47.629  28.458  27.110  1.00  0.00     0.074 A 
ATOM     54  C   UNL A   1      42.313  31.017  29.433  1.00  0.00     0.029 A 
ATOM     55  N   UNL A   1      43.824  29.655  28.537  1.00  0.00    -0.354 N 
ATOM     56  N   UNL A   1      46.498  28.894  27.608  1.00  0.00    -0.248 NA
ATOM     57  C   UNL A   1      48.698  29.465  27.072  1.00  0.00     0.031 C 
ATOM     58  C   UNL A   1      43.526  31.707  29.329  1.00  0.00     0.029 A 
ATOM     59  C   UNL A   1      44.472  30.854  28.785  1.00  0.00     0.049 A 
ATOM     60  H   UNL A   1      44.247  28.854  28.151  1.00  0.00     0.167 HD
ATOM     61  C   UNL A   1      46.724  30.218  27.967  1.00  0.00     0.074 A 
ATOM     62  C   UNL A   1      48.109  30.503  27.653  1.00  0.00     0.031 C 
ATOM     63  C   UNL A   1      45.859  31.119  28.495  1.00  0.00     0.034 A 
BRANCH  50  64
ATOM     64  C   UNL A   1      40.082  29.000  29.099  1.00  0.00     0.023 A 
ATOM     65  C   UNL A   1      39.142  29.190  28.065  1.00  0.00     0.012 A 
ATOM     66  C   UNL A   1      39.653  29.049  30.439  1.00  0.00     0.148 A 
ATOM     67  C   UNL A   1      37.807  29.467  28.359  1.00  0.00     0.002 A 
ATOM     68  C   UNL A   1      38.311  29.277  30.724  1.00  0.00     0.091 A 
ATOM     69  F   UNL A   1      40.563  28.888  31.410  1.00  0.00    -0.205 F 
ATOM     70  C   UNL A   1      37.390  29.500  29.687  1.00  0.00     0.022 A 
BRANCH  68  71
ATOM     71  S   UNL A   1      37.661  29.257  32.398  1.00  0.00     0.127 S 
ATOM     72  O   UNL A   1      37.768  27.839  32.739  1.00  0.00    -0.237 OA
ATOM     73  O   UNL A   1      38.604  30.126  33.105  1.00  0.00    -0.237 OA
ATOM     74  O   UNL A   1      36.306  29.779  32.309  1.00  0.00    -0.744 OA
ENDBRANCH  68  71
ENDBRANCH  50  64
BRANCH  51  75
ATOM     75  C   UNL A   1      49.328  26.767  26.080  1.00  0.00     0.023 A 
ATOM     76  C   UNL A   1      50.206  25.979  26.848  1.00  0.00     0.012 A 
ATOM     77  C   UNL A   1      49.729  27.196  24.799  1.00  0.00     0.148 A 
ATOM     78  C   UNL A   1      51.468  25.641  26.359  1.00  0.00     0.002 A 
ATOM     79  C   UNL A   1      50.964  26.807  24.295  1.00  0.00     0.091 A 
ATOM     80  F   UNL A   1      48.880  27.951  24.089  1.00  0.00    -0.205 F 
ATOM     81  C   UNL A   1      51.843  26.044  25.080  1.00  0.00     0.022 A 
BRANCH  79  82
ATOM     82  S   UNL A   1      51.472  27.161  22.609  1.00  0.00     0.127 S 
ATOM     83  O   UNL A   1      52.672  26.339  22.478  1.00  0.00    -0.237 OA
ATOM     84  O   UNL A   1      50.317  26.692  21.844  1.00  0.00    -0.237 OA
ATOM     85  O   UNL A   1      51.685  28.601  22.553  1.00  0.00    -0.744 OA
ENDBRANCH  79  82
ENDBRANCH  51  75
BRANCH  63  86
ATOM     86  C   UNL A   1      46.384  32.502  28.786  1.00  0.00     0.023 A 
ATOM     87  C   UNL A   1      46.947  32.787  30.046  1.00  0.00     0.012 A 
ATOM     88  C   UNL A   1      46.379  33.498  27.789  1.00  0.00     0.148 A 
ATOM     89  C   UNL A   1      47.467  34.051  30.319  1.00  0.00     0.002 A 
ATOM     90  C   UNL A   1      46.946  34.739  28.052  1.00  0.00     0.091 A 
ATOM     91  F   UNL A   1      45.822  33.213  26.603  1.00  0.00    -0.205 F 
ATOM     92  C   UNL A   1      47.478  35.022  29.321  1.00  0.00     0.022 A 
BRANCH  90  93
ATOM     93  S   UNL A   1      47.091  36.018  26.800  1.00  0.00     0.127 S 
ATOM     94  O   UNL A   1      47.387  35.233  25.603  1.00  0.00    -0.237 OA
ATOM     95  O   UNL A   1      45.758  36.622  26.820  1.00  0.00    -0.237 OA
ATOM     96  O   UNL A   1      48.160  36.901  27.247  1.00  0.00    -0.744 OA
ENDBRANCH  90  93
ENDBRANCH  63  86
ENDBRANCH  37  38
ENDBRANCH  29  32
ENDBRANCH  27  28
ENDBRANCH  26  27
ENDBRANCH  25  26
ENDBRANCH  24  25
ENDBRANCH   1  24
TORSDOF 21
ENDMDL
MODEL 3
REMARK VINA RESULT:     -10.0      5.766     11.127
REMARK SMILES CCOCCC[N@@H+]1[C@@H](C(=O)NCCCCCCNC(=O)c2ccc(-c3c4nc(c(-c5cccc(S(=O)(=O)[O-])c5F)c5ccc([nH]5)c(-c5cccc(S(=O)(=O)[O-])c5F)c5nc(c(-c6cccc(S(=O)(=O)[O-])c6F)c6ccc3[nH]6)C=C5)C=C4)cc2)CC[C@H]2CCCC[C@H]21
REMARK SMILES IDX 13 1 12 2 11 3 9 4 10 5 8 7 7 8 91 9 84 11 86 12 90 13 85 14
REMARK SMILES IDX 87 15 89 16 88 17 6 18 5 19 4 20 3 21 2 22 1 23 14 24 15 25
REMARK SMILES IDX 16 26 17 27 18 28 19 29 20 31 21 32 22 33 83 34 23 35 82 36
REMARK SMILES IDX 24 37 25 38 26 39 76 40 27 41 81 42 75 43 77 44 28 45 80 46
REMARK SMILES IDX 74 47 73 48 29 50 61 51 41 52 60 53 42 54 45 55 59 56 78 57
REMARK SMILES IDX 43 58 44 59 58 61 79 62 46 63 30 64 31 65 39 66 32 67 34 68
REMARK SMILES IDX 40 69 33 70 35 71 36 72 37 73 38 74 62 75 63 76 71 77 64 78
REMARK SMILES IDX 66 79 72 80 65 81 67 82 68 83 69 84 70 85 47 86 48 87 56 88
REMARK SMILES IDX 49 89 51 90 57 91 50 92 52 93 53 94 54 95 55 96
REMARK H PARENT 11 6 7 10 18 30 77 49 45 60
REMARK Flexibility Score: inf
ROOT
ATOM      1  C   UNL A   1      33.787  27.684  26.104  1.00  0.00     0.021 C 
ENDROOT
BRANCH   1   2
ATOM      2  C   UNL A   1      32.263  27.591  26.069  1.00  0.00     0.116 C 
BRANCH   2   3
ATOM      3  N   UNL A   1      31.827  26.406  26.777  1.00  0.00    -0.351 N 
ATOM      4  C   UNL A   1      32.050  25.100  26.460  1.00  0.00     0.278 C 
ATOM      5  O   UNL A   1      31.396  24.241  27.063  1.00  0.00    -0.268 OA
ATOM      6  H   UNL A   1      31.301  26.566  27.594  1.00  0.00     0.163 HD
BRANCH   4   7
ATOM      7  C   UNL A   1      33.095  24.697  25.392  1.00  0.00     0.274 C 
ATOM      8  N   UNL A   1      32.472  23.895  24.313  1.00  0.00    -0.322 N 
ATOM      9  C   UNL A   1      33.401  23.148  23.438  1.00  0.00     0.187 C 
ATOM     10  H   UNL A   1      32.019  23.159  24.856  1.00  0.00     0.349 HD
ATOM     11  C   UNL A   1      34.328  24.093  26.076  1.00  0.00     0.076 C 
ATOM     12  C   UNL A   1      34.598  22.483  24.160  1.00  0.00     0.048 C 
ATOM     13  C   UNL A   1      32.726  22.050  22.584  1.00  0.00     0.065 C 
ATOM     14  C   UNL A   1      35.299  23.497  25.067  1.00  0.00     0.016 C 
ATOM     15  C   UNL A   1      34.267  21.182  24.917  1.00  0.00     0.010 C 
ATOM     16  C   UNL A   1      32.168  20.929  23.444  1.00  0.00     0.006 C 
ATOM     17  C   UNL A   1      33.266  20.243  24.243  1.00  0.00     0.001 C 
BRANCH   8  18
ATOM     18  C   UNL A   1      31.350  24.545  23.593  1.00  0.00     0.265 C 
BRANCH  18  19
ATOM     19  C   UNL A   1      31.502  25.513  22.397  1.00  0.00     0.090 C 
BRANCH  19  20
ATOM     20  C   UNL A   1      31.500  27.029  22.603  1.00  0.00     0.166 C 
BRANCH  20  21
ATOM     21  O   UNL A   1      30.318  27.706  22.189  1.00  0.00    -0.382 OA
BRANCH  21  22
ATOM     22  C   UNL A   1      29.594  28.412  23.188  1.00  0.00     0.156 C 
ATOM     23  C   UNL A   1      28.218  28.892  22.752  1.00  0.00     0.035 C 
ENDBRANCH  21  22
ENDBRANCH  20  21
ENDBRANCH  19  20
ENDBRANCH  18  19
ENDBRANCH   8  18
ENDBRANCH   4   7
ENDBRANCH   2   3
ENDBRANCH   1   2
BRANCH   1  24
ATOM     24  C   UNL A   1      34.293  29.093  26.430  1.00  0.00     0.002 C 
BRANCH  24  25
ATOM     25  C   UNL A   1      33.290  29.959  27.199  1.00  0.00     0.002 C 
BRANCH  25  26
ATOM     26  C   UNL A   1      33.104  31.368  26.633  1.00  0.00     0.021 C 
BRANCH  26  27
ATOM     27  C   UNL A   1      31.958  32.148  27.267  1.00  0.00     0.116 C 
BRANCH  27  28
ATOM     28  N   UNL A   1      32.243  33.576  27.312  1.00  0.00    -0.352 N 
ATOM     29  C   UNL A   1      33.240  34.232  27.981  1.00  0.00     0.251 C 
ATOM     30  H   UNL A   1      31.635  34.147  26.789  1.00  0.00     0.163 HD
ATOM     31  O   UNL A   1      33.202  35.457  28.103  1.00  0.00    -0.269 OA
BRANCH  29  32
ATOM     32  C   UNL A   1      34.355  33.461  28.565  1.00  0.00     0.039 A 
ATOM     33  C   UNL A   1      35.631  33.588  28.013  1.00  0.00     0.014 A 
ATOM     34  C   UNL A   1      34.137  32.624  29.664  1.00  0.00     0.014 A 
ATOM     35  C   UNL A   1      36.703  32.916  28.601  1.00  0.00     0.010 A 
ATOM     36  C   UNL A   1      35.219  32.015  30.292  1.00  0.00     0.010 A 
ATOM     37  C   UNL A   1      36.511  32.151  29.764  1.00  0.00    -0.014 A 
BRANCH  37  38
ATOM     38  C   UNL A   1      37.658  31.516  30.460  1.00  0.00     0.031 A 
ATOM     39  C   UNL A   1      38.485  30.467  29.772  1.00  0.00     0.074 A 
ATOM     40  C   UNL A   1      37.893  31.821  31.751  1.00  0.00     0.049 A 
ATOM     41  N   UNL A   1      39.497  29.782  30.237  1.00  0.00    -0.248 NA
ATOM     42  C   UNL A   1      38.112  30.123  28.390  1.00  0.00     0.031 C 
ATOM     43  C   UNL A   1      37.100  32.754  32.556  1.00  0.00     0.029 A 
ATOM     44  N   UNL A   1      38.846  31.357  32.623  1.00  0.00    -0.354 N 
ATOM     45  C   UNL A   1      39.856  28.900  29.224  1.00  0.00     0.074 A 
ATOM     46  C   UNL A   1      38.935  29.117  28.130  1.00  0.00     0.031 C 
ATOM     47  C   UNL A   1      37.598  32.793  33.801  1.00  0.00     0.029 A 
ATOM     48  C   UNL A   1      38.723  31.866  33.894  1.00  0.00     0.049 A 
ATOM     49  H   UNL A   1      39.550  30.720  32.363  1.00  0.00     0.167 HD
ATOM     50  C   UNL A   1      40.875  28.008  29.200  1.00  0.00     0.034 A 
ATOM     51  C   UNL A   1      39.425  31.609  35.013  1.00  0.00     0.034 A 
ATOM     52  C   UNL A   1      41.807  27.821  30.279  1.00  0.00     0.049 A 
ATOM     53  C   UNL A   1      40.580  30.648  34.948  1.00  0.00     0.074 A 
ATOM     54  C   UNL A   1      42.939  27.026  30.309  1.00  0.00     0.029 A 
ATOM     55  N   UNL A   1      41.704  28.417  31.527  1.00  0.00    -0.354 N 
ATOM     56  N   UNL A   1      41.020  29.959  33.923  1.00  0.00    -0.248 NA
ATOM     57  C   UNL A   1      41.354  30.455  36.181  1.00  0.00     0.031 C 
ATOM     58  C   UNL A   1      43.498  27.110  31.589  1.00  0.00     0.029 A 
ATOM     59  C   UNL A   1      42.737  27.988  32.344  1.00  0.00     0.049 A 
ATOM     60  H   UNL A   1      41.000  29.052  31.793  1.00  0.00     0.167 HD
ATOM     61  C   UNL A   1      42.137  29.268  34.380  1.00  0.00     0.074 A 
ATOM     62  C   UNL A   1      42.321  29.645  35.767  1.00  0.00     0.031 C 
ATOM     63  C   UNL A   1      42.929  28.391  33.715  1.00  0.00     0.034 A 
BRANCH  50  64
ATOM     64  C   UNL A   1      41.054  27.188  27.948  1.00  0.00     0.023 A 
ATOM     65  C   UNL A   1      41.693  27.753  26.825  1.00  0.00     0.012 A 
ATOM     66  C   UNL A   1      40.633  25.845  27.898  1.00  0.00     0.148 A 
ATOM     67  C   UNL A   1      41.872  27.010  25.658  1.00  0.00     0.002 A 
ATOM     68  C   UNL A   1      40.858  25.095  26.748  1.00  0.00     0.091 A 
ATOM     69  F   UNL A   1      40.008  25.329  28.966  1.00  0.00    -0.205 F 
ATOM     70  C   UNL A   1      41.463  25.680  25.624  1.00  0.00     0.022 A 
BRANCH  68  71
ATOM     71  S   UNL A   1      40.443  23.351  26.636  1.00  0.00     0.127 S 
ATOM     72  O   UNL A   1      41.471  22.863  25.719  1.00  0.00    -0.237 OA
ATOM     73  O   UNL A   1      40.601  22.907  28.021  1.00  0.00    -0.237 OA
ATOM     74  O   UNL A   1      39.078  23.296  26.133  1.00  0.00    -0.744 OA
ENDBRANCH  68  71
ENDBRANCH  50  64
BRANCH  51  75
ATOM     75  C   UNL A   1      39.078  32.317  36.276  1.00  0.00     0.023 A 
ATOM     76  C   UNL A   1      39.462  33.661  36.450  1.00  0.00     0.012 A 
ATOM     77  C   UNL A   1      38.319  31.683  37.280  1.00  0.00     0.148 A 
ATOM     78  C   UNL A   1      39.116  34.354  37.610  1.00  0.00     0.002 A 
ATOM     79  C   UNL A   1      37.929  32.396  38.407  1.00  0.00     0.091 A 
ATOM     80  F   UNL A   1      37.972  30.402  37.096  1.00  0.00    -0.205 F 
ATOM     81  C   UNL A   1      38.340  33.726  38.582  1.00  0.00     0.022 A 
BRANCH  79  82
ATOM     82  S   UNL A   1      36.816  31.716  39.640  1.00  0.00     0.127 S 
ATOM     83  O   UNL A   1      37.748  31.274  40.674  1.00  0.00    -0.237 OA
ATOM     84  O   UNL A   1      36.011  32.885  39.994  1.00  0.00    -0.237 OA
ATOM     85  O   UNL A   1      36.075  30.657  38.966  1.00  0.00    -0.744 OA
ENDBRANCH  79  82
ENDBRANCH  51  75
BRANCH  63  86
ATOM     86  C   UNL A   1      44.083  27.783  34.469  1.00  0.00     0.023 A 
ATOM     87  C   UNL A   1      45.363  28.367  34.382  1.00  0.00     0.012 A 
ATOM     88  C   UNL A   1      43.885  26.675  35.317  1.00  0.00     0.148 A 
ATOM     89  C   UNL A   1      46.434  27.836  35.099  1.00  0.00     0.002 A 
ATOM     90  C   UNL A   1      44.946  26.185  36.070  1.00  0.00     0.091 A 
ATOM     91  F   UNL A   1      42.665  26.123  35.373  1.00  0.00    -0.205 F 
ATOM     92  C   UNL A   1      46.224  26.755  35.951  1.00  0.00     0.022 A 
BRANCH  90  93
ATOM     93  S   UNL A   1      44.749  24.857  37.264  1.00  0.00     0.127 S 
ATOM     94  O   UNL A   1      43.738  24.022  36.618  1.00  0.00    -0.237 OA
ATOM     95  O   UNL A   1      46.091  24.273  37.300  1.00  0.00    -0.237 OA
ATOM     96  O   UNL A   1      44.333  25.492  38.506  1.00  0.00    -0.744 OA
ENDBRANCH  90  93
ENDBRANCH  63  86
ENDBRANCH  37  38
ENDBRANCH  29  32
ENDBRANCH  27  28
ENDBRANCH  26  27
ENDBRANCH  25  26
ENDBRANCH  24  25
ENDBRANCH   1  24
TORSDOF 21
ENDMDL
