MODEL 1
REMARK VINA RESULT:      -9.3      0.000      0.000
REMARK SMILES C[C@@H]([NH+]1CCC(CCC(=O)NCCCCCCNC(=O)c2ccc(-c3c4nc(c(-c5cccc(S(=O)(=O)[O-])c5F)c5ccc([nH]5)c(-c5cccc(S(=O)(=O)[O-])c5F)c5nc(c(-c6cccc(S(=O)(=O)[O-])c6F)c6ccc3[nH]6)C=C5)C=C4)cc2)CC1)C1(C)CC1
REMARK SMILES IDX 14 1 13 2 12 3 11 4 9 5 10 6 8 8 7 9 6 10 3 11 4 12 85 13
REMARK SMILES IDX 5 15 84 16 2 17 1 18 86 19 87 20 88 21 89 22 15 23 16 24
REMARK SMILES IDX 17 25 18 26 19 27 20 29 21 30 22 31 83 32 23 33 82 34 24 35
REMARK SMILES IDX 25 36 26 37 76 38 27 39 81 40 75 41 77 42 28 43 80 44 74 45
REMARK SMILES IDX 73 46 29 48 61 49 41 50 60 51 42 52 45 53 59 54 78 55 43 56
REMARK SMILES IDX 44 57 58 59 79 60 46 61 30 62 31 63 39 64 32 65 34 66 40 67
REMARK SMILES IDX 33 68 35 69 36 70 37 71 38 72 62 73 63 74 71 75 64 76 66 77
REMARK SMILES IDX 72 78 65 79 67 80 68 81 69 82 70 83 47 84 48 85 56 86 49 87
REMARK SMILES IDX 51 88 57 89 50 90 52 91 53 92 54 93 55 94
REMARK H PARENT 11 7 3 14 18 28 77 47 45 58
REMARK Flexibility Score: inf
ROOT
ATOM      1  C   UNL A   1      40.164  22.683  26.573  1.00  0.00     0.002 C 
ENDROOT
BRANCH   1   2
ATOM      2  C   UNL A   1      39.174  23.808  26.908  1.00  0.00     0.021 C 
BRANCH   2   3
ATOM      3  C   UNL A   1      37.809  23.800  26.214  1.00  0.00     0.116 C 
BRANCH   3   4
ATOM      4  N   UNL A   1      37.262  22.455  26.144  1.00  0.00    -0.356 N 
ATOM      5  C   UNL A   1      36.601  21.809  25.141  1.00  0.00     0.220 C 
ATOM      6  O   UNL A   1      36.136  20.693  25.390  1.00  0.00    -0.275 OA
ATOM      7  H   UNL A   1      37.391  21.919  26.959  1.00  0.00     0.163 HD
BRANCH   5   8
ATOM      8  C   UNL A   1      36.483  22.396  23.742  1.00  0.00     0.100 C 
BRANCH   8   9
ATOM      9  C   UNL A   1      35.069  22.835  23.317  1.00  0.00     0.014 C 
BRANCH   9  10
ATOM     10  C   UNL A   1      34.726  24.281  23.690  1.00  0.00     0.000 C 
ATOM     11  N   UNL A   1      33.321  26.742  24.425  1.00  0.00    -0.332 N 
ATOM     12  C   UNL A   1      33.661  26.430  23.040  1.00  0.00     0.262 C 
ATOM     13  C   UNL A   1      34.033  25.954  25.443  1.00  0.00     0.262 C 
ATOM     14  H   UNL A   1      32.358  26.410  24.491  1.00  0.00     0.348 HD
ATOM     15  C   UNL A   1      33.704  24.931  22.756  1.00  0.00     0.065 C 
ATOM     16  C   UNL A   1      34.177  24.454  25.113  1.00  0.00     0.065 C 
BRANCH  11  17
ATOM     17  C   UNL A   1      33.236  28.194  24.740  1.00  0.00     0.186 C 
ATOM     18  C   UNL A   1      33.969  28.543  26.048  1.00  0.00     0.076 C 
BRANCH  17  19
ATOM     19  C   UNL A   1      31.851  28.863  24.747  1.00  0.00     0.019 C 
ATOM     20  C   UNL A   1      31.698  29.956  25.780  1.00  0.00     0.018 C 
ATOM     21  C   UNL A   1      31.137  29.081  23.421  1.00  0.00     0.013 C 
ATOM     22  C   UNL A   1      30.626  28.092  24.476  1.00  0.00     0.013 C 
ENDBRANCH  17  19
ENDBRANCH  11  17
ENDBRANCH   9  10
ENDBRANCH   8   9
ENDBRANCH   5   8
ENDBRANCH   3   4
ENDBRANCH   2   3
ENDBRANCH   1   2
BRANCH   1  23
ATOM     23  C   UNL A   1      40.737  21.852  27.735  1.00  0.00     0.002 C 
BRANCH  23  24
ATOM     24  C   UNL A   1      41.242  20.430  27.434  1.00  0.00     0.021 C 
BRANCH  24  25
ATOM     25  C   UNL A   1      41.111  19.915  25.989  1.00  0.00     0.116 C 
BRANCH  25  26
ATOM     26  N   UNL A   1      42.343  19.447  25.394  1.00  0.00    -0.352 N 
ATOM     27  C   UNL A   1      43.543  20.102  25.220  1.00  0.00     0.251 C 
ATOM     28  H   UNL A   1      42.320  18.520  25.061  1.00  0.00     0.163 HD
ATOM     29  O   UNL A   1      44.458  19.503  24.656  1.00  0.00    -0.269 OA
BRANCH  27  30
ATOM     30  C   UNL A   1      43.769  21.514  25.648  1.00  0.00     0.039 A 
ATOM     31  C   UNL A   1      44.241  21.729  26.948  1.00  0.00     0.014 A 
ATOM     32  C   UNL A   1      43.441  22.625  24.867  1.00  0.00     0.014 A 
ATOM     33  C   UNL A   1      44.420  23.031  27.443  1.00  0.00     0.010 A 
ATOM     34  C   UNL A   1      43.659  23.933  25.358  1.00  0.00     0.010 A 
ATOM     35  C   UNL A   1      44.160  24.162  26.650  1.00  0.00    -0.014 A 
BRANCH  35  36
ATOM     36  C   UNL A   1      44.461  25.536  27.185  1.00  0.00     0.031 A 
ATOM     37  C   UNL A   1      45.844  26.147  27.140  1.00  0.00     0.074 A 
ATOM     38  C   UNL A   1      43.465  26.273  27.726  1.00  0.00     0.049 A 
ATOM     39  N   UNL A   1      46.212  27.375  27.424  1.00  0.00    -0.248 NA
ATOM     40  C   UNL A   1      46.959  25.272  26.754  1.00  0.00     0.031 C 
ATOM     41  C   UNL A   1      42.099  25.803  27.959  1.00  0.00     0.029 A 
ATOM     42  N   UNL A   1      43.443  27.575  28.175  1.00  0.00    -0.354 N 
ATOM     43  C   UNL A   1      47.593  27.419  27.261  1.00  0.00     0.074 A 
ATOM     44  C   UNL A   1      48.003  26.077  26.902  1.00  0.00     0.031 C 
ATOM     45  C   UNL A   1      41.365  26.807  28.465  1.00  0.00     0.029 A 
ATOM     46  C   UNL A   1      42.207  27.991  28.618  1.00  0.00     0.049 A 
ATOM     47  H   UNL A   1      44.239  28.157  28.178  1.00  0.00     0.167 HD
ATOM     48  C   UNL A   1      48.445  28.473  27.363  1.00  0.00     0.034 A 
ATOM     49  C   UNL A   1      41.780  29.184  29.082  1.00  0.00     0.034 A 
ATOM     50  C   UNL A   1      48.053  29.820  27.699  1.00  0.00     0.049 A 
ATOM     51  C   UNL A   1      42.725  30.355  29.127  1.00  0.00     0.074 A 
ATOM     52  C   UNL A   1      48.839  30.962  27.734  1.00  0.00     0.029 A 
ATOM     53  N   UNL A   1      46.779  30.212  28.076  1.00  0.00    -0.354 N 
ATOM     54  N   UNL A   1      43.986  30.414  28.776  1.00  0.00    -0.248 NA
ATOM     55  C   UNL A   1      42.172  31.638  29.590  1.00  0.00     0.031 C 
ATOM     56  C   UNL A   1      48.047  32.034  28.161  1.00  0.00     0.029 A 
ATOM     57  C   UNL A   1      46.758  31.571  28.356  1.00  0.00     0.049 A 
ATOM     58  H   UNL A   1      46.000  29.612  28.136  1.00  0.00     0.167 HD
ATOM     59  C   UNL A   1      44.370  31.740  28.953  1.00  0.00     0.074 A 
ATOM     60  C   UNL A   1      43.197  32.459  29.403  1.00  0.00     0.031 C 
ATOM     61  C   UNL A   1      45.591  32.303  28.775  1.00  0.00     0.034 A 
BRANCH  48  62
ATOM     62  C   UNL A   1      49.901  28.229  27.040  1.00  0.00     0.023 A 
ATOM     63  C   UNL A   1      50.340  28.336  25.704  1.00  0.00     0.012 A 
ATOM     64  C   UNL A   1      50.846  27.969  28.054  1.00  0.00     0.148 A 
ATOM     65  C   UNL A   1      51.682  28.144  25.376  1.00  0.00     0.002 A 
ATOM     66  C   UNL A   1      52.190  27.825  27.725  1.00  0.00     0.091 A 
ATOM     67  F   UNL A   1      50.414  27.862  29.320  1.00  0.00    -0.205 F 
ATOM     68  C   UNL A   1      52.606  27.898  26.386  1.00  0.00     0.022 A 
BRANCH  66  69
ATOM     69  S   UNL A   1      53.475  27.589  28.959  1.00  0.00     0.127 S 
ATOM     70  O   UNL A   1      53.123  26.278  29.503  1.00  0.00    -0.237 OA
ATOM     71  O   UNL A   1      54.691  27.603  28.143  1.00  0.00    -0.237 OA
ATOM     72  O   UNL A   1      53.351  28.704  29.886  1.00  0.00    -0.744 OA
ENDBRANCH  66  69
ENDBRANCH  48  62
BRANCH  49  73
ATOM     73  C   UNL A   1      40.355  29.354  29.490  1.00  0.00     0.023 A 
ATOM     74  C   UNL A   1      39.384  29.696  28.529  1.00  0.00     0.012 A 
ATOM     75  C   UNL A   1      39.958  29.160  30.827  1.00  0.00     0.148 A 
ATOM     76  C   UNL A   1      38.050  29.877  28.897  1.00  0.00     0.002 A 
ATOM     77  C   UNL A   1      38.617  29.279  31.175  1.00  0.00     0.091 A 
ATOM     78  F   UNL A   1      40.898  28.850  31.730  1.00  0.00    -0.205 F 
ATOM     79  C   UNL A   1      37.665  29.657  30.217  1.00  0.00     0.022 A 
BRANCH  77  80
ATOM     80  S   UNL A   1      38.013  28.873  32.817  1.00  0.00     0.127 S 
ATOM     81  O   UNL A   1      36.604  29.257  32.719  1.00  0.00    -0.237 OA
ATOM     82  O   UNL A   1      38.255  27.431  32.876  1.00  0.00    -0.237 OA
ATOM     83  O   UNL A   1      38.818  29.656  33.740  1.00  0.00    -0.744 OA
ENDBRANCH  77  80
ENDBRANCH  49  73
BRANCH  61  84
ATOM     84  C   UNL A   1      45.725  33.783  29.050  1.00  0.00     0.023 A 
ATOM     85  C   UNL A   1      45.526  34.714  28.010  1.00  0.00     0.012 A 
ATOM     86  C   UNL A   1      46.025  34.257  30.344  1.00  0.00     0.148 A 
ATOM     87  C   UNL A   1      45.674  36.082  28.237  1.00  0.00     0.002 A 
ATOM     88  C   UNL A   1      46.119  35.626  30.575  1.00  0.00     0.091 A 
ATOM     89  F   UNL A   1      46.230  33.363  31.322  1.00  0.00    -0.205 F 
ATOM     90  C   UNL A   1      45.962  36.538  29.521  1.00  0.00     0.022 A 
BRANCH  88  91
ATOM     91  S   UNL A   1      46.396  36.307  32.215  1.00  0.00     0.127 S 
ATOM     92  O   UNL A   1      47.773  35.895  32.482  1.00  0.00    -0.237 OA
ATOM     93  O   UNL A   1      46.224  37.743  31.989  1.00  0.00    -0.237 OA
ATOM     94  O   UNL A   1      45.383  35.708  33.073  1.00  0.00    -0.744 OA
ENDBRANCH  88  91
ENDBRANCH  61  84
ENDBRANCH  35  36
ENDBRANCH  27  30
ENDBRANCH  25  26
ENDBRANCH  24  25
ENDBRANCH  23  24
ENDBRANCH   1  23
TORSDOF 20
ENDMDL
MODEL 2
REMARK VINA RESULT:      -9.0      1.576      7.720
REMARK SMILES C[C@@H]([NH+]1CCC(CCC(=O)NCCCCCCNC(=O)c2ccc(-c3c4nc(c(-c5cccc(S(=O)(=O)[O-])c5F)c5ccc([nH]5)c(-c5cccc(S(=O)(=O)[O-])c5F)c5nc(c(-c6cccc(S(=O)(=O)[O-])c6F)c6ccc3[nH]6)C=C5)C=C4)cc2)CC1)C1(C)CC1
REMARK SMILES IDX 14 1 13 2 12 3 11 4 9 5 10 6 8 8 7 9 6 10 3 11 4 12 85 13
REMARK SMILES IDX 5 15 84 16 2 17 1 18 86 19 87 20 88 21 89 22 15 23 16 24
REMARK SMILES IDX 17 25 18 26 19 27 20 29 21 30 22 31 83 32 23 33 82 34 24 35
REMARK SMILES IDX 25 36 26 37 76 38 27 39 81 40 75 41 77 42 28 43 80 44 74 45
REMARK SMILES IDX 73 46 29 48 61 49 41 50 60 51 42 52 45 53 59 54 78 55 43 56
REMARK SMILES IDX 44 57 58 59 79 60 46 61 30 62 31 63 39 64 32 65 34 66 40 67
REMARK SMILES IDX 33 68 35 69 36 70 37 71 38 72 62 73 63 74 71 75 64 76 66 77
REMARK SMILES IDX 72 78 65 79 67 80 68 81 69 82 70 83 47 84 48 85 56 86 49 87
REMARK SMILES IDX 51 88 57 89 50 90 52 91 53 92 54 93 55 94
REMARK H PARENT 11 7 3 14 18 28 77 47 45 58
REMARK Flexibility Score: inf
ROOT
ATOM      1  C   UNL A   1      39.829  22.295  26.639  1.00  0.00     0.002 C 
ENDROOT
BRANCH   1   2
ATOM      2  C   UNL A   1      39.163  23.647  26.929  1.00  0.00     0.021 C 
BRANCH   2   3
ATOM      3  C   UNL A   1      37.844  23.971  26.219  1.00  0.00     0.116 C 
BRANCH   3   4
ATOM      4  N   UNL A   1      37.002  22.792  26.110  1.00  0.00    -0.356 N 
ATOM      5  C   UNL A   1      35.693  22.657  25.752  1.00  0.00     0.220 C 
ATOM      6  O   UNL A   1      35.184  21.538  25.857  1.00  0.00    -0.275 OA
ATOM      7  H   UNL A   1      37.453  21.946  26.332  1.00  0.00     0.163 HD
BRANCH   5   8
ATOM      8  C   UNL A   1      34.887  23.817  25.184  1.00  0.00     0.100 C 
BRANCH   8   9
ATOM      9  C   UNL A   1      33.835  24.428  26.128  1.00  0.00     0.014 C 
BRANCH   9  10
ATOM     10  C   UNL A   1      33.206  25.725  25.606  1.00  0.00     0.000 C 
ATOM     11  N   UNL A   1      31.541  27.681  24.203  1.00  0.00    -0.332 N 
ATOM     12  C   UNL A   1      32.852  27.278  23.700  1.00  0.00     0.262 C 
ATOM     13  C   UNL A   1      31.273  27.341  25.608  1.00  0.00     0.262 C 
ATOM     14  H   UNL A   1      30.912  27.070  23.680  1.00  0.00     0.348 HD
ATOM     15  C   UNL A   1      33.227  25.849  24.082  1.00  0.00     0.065 C 
ATOM     16  C   UNL A   1      31.747  25.936  26.033  1.00  0.00     0.065 C 
BRANCH  11  17
ATOM     17  C   UNL A   1      31.120  29.058  23.826  1.00  0.00     0.186 C 
ATOM     18  C   UNL A   1      31.271  30.046  24.996  1.00  0.00     0.076 C 
BRANCH  17  19
ATOM     19  C   UNL A   1      29.737  29.251  23.182  1.00  0.00     0.019 C 
ATOM     20  C   UNL A   1      28.896  27.996  23.134  1.00  0.00     0.018 C 
ATOM     21  C   UNL A   1      28.991  30.555  23.426  1.00  0.00     0.013 C 
ATOM     22  C   UNL A   1      29.542  30.169  22.047  1.00  0.00     0.013 C 
ENDBRANCH  17  19
ENDBRANCH  11  17
ENDBRANCH   9  10
ENDBRANCH   8   9
ENDBRANCH   5   8
ENDBRANCH   3   4
ENDBRANCH   2   3
ENDBRANCH   1   2
BRANCH   1  23
ATOM     23  C   UNL A   1      40.816  21.734  27.677  1.00  0.00     0.002 C 
BRANCH  23  24
ATOM     24  C   UNL A   1      41.323  20.293  27.498  1.00  0.00     0.021 C 
BRANCH  24  25
ATOM     25  C   UNL A   1      41.095  19.619  26.133  1.00  0.00     0.116 C 
BRANCH  25  26
ATOM     26  N   UNL A   1      42.281  19.058  25.524  1.00  0.00    -0.352 N 
ATOM     27  C   UNL A   1      43.510  19.636  25.289  1.00  0.00     0.251 C 
ATOM     28  H   UNL A   1      42.197  18.121  25.232  1.00  0.00     0.163 HD
ATOM     29  O   UNL A   1      44.373  18.963  24.726  1.00  0.00    -0.269 OA
BRANCH  27  30
ATOM     30  C   UNL A   1      43.827  21.049  25.650  1.00  0.00     0.039 A 
ATOM     31  C   UNL A   1      43.628  22.028  24.669  1.00  0.00     0.014 A 
ATOM     32  C   UNL A   1      44.402  21.432  26.864  1.00  0.00     0.014 A 
ATOM     33  C   UNL A   1      43.961  23.370  24.913  1.00  0.00     0.010 A 
ATOM     34  C   UNL A   1      44.700  22.791  27.117  1.00  0.00     0.010 A 
ATOM     35  C   UNL A   1      44.478  23.787  26.152  1.00  0.00    -0.014 A 
BRANCH  35  36
ATOM     36  C   UNL A   1      44.726  25.249  26.405  1.00  0.00     0.031 A 
ATOM     37  C   UNL A   1      43.658  26.181  26.934  1.00  0.00     0.074 A 
ATOM     38  C   UNL A   1      45.950  25.769  26.163  1.00  0.00     0.049 A 
ATOM     39  N   UNL A   1      43.777  27.423  27.343  1.00  0.00    -0.248 NA
ATOM     40  C   UNL A   1      42.282  25.670  26.994  1.00  0.00     0.031 C 
ATOM     41  C   UNL A   1      47.064  25.050  25.543  1.00  0.00     0.029 A 
ATOM     42  N   UNL A   1      46.468  27.021  26.411  1.00  0.00    -0.354 N 
ATOM     43  C   UNL A   1      42.499  27.845  27.695  1.00  0.00     0.074 A 
ATOM     44  C   UNL A   1      41.611  26.739  27.404  1.00  0.00     0.031 C 
ATOM     45  C   UNL A   1      48.139  25.853  25.496  1.00  0.00     0.029 A 
ATOM     46  C   UNL A   1      47.794  27.155  26.061  1.00  0.00     0.049 A 
ATOM     47  H   UNL A   1      45.939  27.754  26.802  1.00  0.00     0.167 HD
ATOM     48  C   UNL A   1      42.094  29.022  28.241  1.00  0.00     0.034 A 
ATOM     49  C   UNL A   1      48.649  28.191  26.186  1.00  0.00     0.034 A 
ATOM     50  C   UNL A   1      42.966  30.127  28.557  1.00  0.00     0.049 A 
ATOM     51  C   UNL A   1      48.197  29.463  26.852  1.00  0.00     0.074 A 
ATOM     52  C   UNL A   1      42.650  31.317  29.195  1.00  0.00     0.029 A 
ATOM     53  N   UNL A   1      44.314  30.195  28.248  1.00  0.00    -0.354 N 
ATOM     54  N   UNL A   1      47.026  29.761  27.357  1.00  0.00    -0.248 NA
ATOM     55  C   UNL A   1      49.202  30.528  27.005  1.00  0.00     0.031 C 
ATOM     56  C   UNL A   1      43.800  32.115  29.242  1.00  0.00     0.029 A 
ATOM     57  C   UNL A   1      44.842  31.408  28.669  1.00  0.00     0.049 A 
ATOM     58  H   UNL A   1      44.825  29.485  27.795  1.00  0.00     0.167 HD
ATOM     59  C   UNL A   1      47.158  31.033  27.907  1.00  0.00     0.074 A 
ATOM     60  C   UNL A   1      48.535  31.432  27.709  1.00  0.00     0.031 C 
ATOM     61  C   UNL A   1      46.217  31.804  28.505  1.00  0.00     0.034 A 
BRANCH  48  62
ATOM     62  C   UNL A   1      40.632  29.160  28.601  1.00  0.00     0.023 A 
ATOM     63  C   UNL A   1      39.686  29.376  27.577  1.00  0.00     0.012 A 
ATOM     64  C   UNL A   1      40.184  29.003  29.928  1.00  0.00     0.148 A 
ATOM     65  C   UNL A   1      38.327  29.480  27.872  1.00  0.00     0.002 A 
ATOM     66  C   UNL A   1      38.823  29.060  30.209  1.00  0.00     0.091 A 
ATOM     67  F   UNL A   1      41.095  28.805  30.893  1.00  0.00    -0.205 F 
ATOM     68  C   UNL A   1      37.895  29.313  29.184  1.00  0.00     0.022 A 
BRANCH  66  69
ATOM     69  S   UNL A   1      38.154  28.775  31.852  1.00  0.00     0.127 S 
ATOM     70  O   UNL A   1      38.540  27.385  32.090  1.00  0.00    -0.237 OA
ATOM     71  O   UNL A   1      38.885  29.756  32.656  1.00  0.00    -0.237 OA
ATOM     72  O   UNL A   1      36.723  29.018  31.751  1.00  0.00    -0.744 OA
ENDBRANCH  66  69
ENDBRANCH  48  62
BRANCH  49  73
ATOM     73  C   UNL A   1      50.060  28.048  25.721  1.00  0.00     0.023 A 
ATOM     74  C   UNL A   1      50.381  28.275  24.369  1.00  0.00     0.012 A 
ATOM     75  C   UNL A   1      51.086  27.703  26.621  1.00  0.00     0.148 A 
ATOM     76  C   UNL A   1      51.692  28.127  23.914  1.00  0.00     0.002 A 
ATOM     77  C   UNL A   1      52.400  27.620  26.175  1.00  0.00     0.091 A 
ATOM     78  F   UNL A   1      50.758  27.476  27.901  1.00  0.00    -0.205 F 
ATOM     79  C   UNL A   1      52.702  27.811  24.818  1.00  0.00     0.022 A 
BRANCH  77  80
ATOM     80  S   UNL A   1      53.780  27.363  27.295  1.00  0.00     0.127 S 
ATOM     81  O   UNL A   1      53.589  28.450  28.256  1.00  0.00    -0.237 OA
ATOM     82  O   UNL A   1      53.496  26.025  27.815  1.00  0.00    -0.237 OA
ATOM     83  O   UNL A   1      54.977  27.448  26.475  1.00  0.00    -0.744 OA
ENDBRANCH  77  80
ENDBRANCH  49  73
BRANCH  61  84
ATOM     84  C   UNL A   1      46.644  33.162  29.011  1.00  0.00     0.023 A 
ATOM     85  C   UNL A   1      47.148  33.300  30.321  1.00  0.00     0.012 A 
ATOM     86  C   UNL A   1      46.570  34.302  28.184  1.00  0.00     0.148 A 
ATOM     87  C   UNL A   1      47.521  34.550  30.816  1.00  0.00     0.002 A 
ATOM     88  C   UNL A   1      46.991  35.537  28.667  1.00  0.00     0.091 A 
ATOM     89  F   UNL A   1      46.071  34.164  26.947  1.00  0.00    -0.205 F 
ATOM     90  C   UNL A   1      47.450  35.666  29.987  1.00  0.00     0.022 A 
BRANCH  88  91
ATOM     91  S   UNL A   1      47.023  37.011  27.640  1.00  0.00     0.127 S 
ATOM     92  O   UNL A   1      47.585  38.002  28.557  1.00  0.00    -0.237 OA
ATOM     93  O   UNL A   1      47.916  36.614  26.551  1.00  0.00    -0.237 OA
ATOM     94  O   UNL A   1      45.644  37.243  27.232  1.00  0.00    -0.744 OA
ENDBRANCH  88  91
ENDBRANCH  61  84
ENDBRANCH  35  36
ENDBRANCH  27  30
ENDBRANCH  25  26
ENDBRANCH  24  25
ENDBRANCH  23  24
ENDBRANCH   1  23
TORSDOF 20
ENDMDL
MODEL 3
REMARK VINA RESULT:      -9.0      5.599      9.126
REMARK SMILES C[C@@H]([NH+]1CCC(CCC(=O)NCCCCCCNC(=O)c2ccc(-c3c4nc(c(-c5cccc(S(=O)(=O)[O-])c5F)c5ccc([nH]5)c(-c5cccc(S(=O)(=O)[O-])c5F)c5nc(c(-c6cccc(S(=O)(=O)[O-])c6F)c6ccc3[nH]6)C=C5)C=C4)cc2)CC1)C1(C)CC1
REMARK SMILES IDX 14 1 13 2 12 3 11 4 9 5 10 6 8 8 7 9 6 10 3 11 4 12 85 13
REMARK SMILES IDX 5 15 84 16 2 17 1 18 86 19 87 20 88 21 89 22 15 23 16 24
REMARK SMILES IDX 17 25 18 26 19 27 20 29 21 30 22 31 83 32 23 33 82 34 24 35
REMARK SMILES IDX 25 36 26 37 76 38 27 39 81 40 75 41 77 42 28 43 80 44 74 45
REMARK SMILES IDX 73 46 29 48 61 49 41 50 60 51 42 52 45 53 59 54 78 55 43 56
REMARK SMILES IDX 44 57 58 59 79 60 46 61 30 62 31 63 39 64 32 65 34 66 40 67
REMARK SMILES IDX 33 68 35 69 36 70 37 71 38 72 62 73 63 74 71 75 64 76 66 77
REMARK SMILES IDX 72 78 65 79 67 80 68 81 69 82 70 83 47 84 48 85 56 86 49 87
REMARK SMILES IDX 51 88 57 89 50 90 52 91 53 92 54 93 55 94
REMARK H PARENT 11 7 3 14 18 28 77 47 45 58
REMARK Flexibility Score: inf
ROOT
ATOM      1  C   UNL A   1      39.614  28.580  27.600  1.00  0.00     0.002 C 
ENDROOT
BRANCH   1   2
ATOM      2  C   UNL A   1      39.940  27.079  27.581  1.00  0.00     0.021 C 
BRANCH   2   3
ATOM      3  C   UNL A   1      40.704  26.520  26.377  1.00  0.00     0.116 C 
BRANCH   3   4
ATOM      4  N   UNL A   1      41.478  25.346  26.743  1.00  0.00    -0.356 N 
ATOM      5  C   UNL A   1      41.085  24.117  27.184  1.00  0.00     0.220 C 
ATOM      6  O   UNL A   1      41.966  23.328  27.540  1.00  0.00    -0.275 OA
ATOM      7  H   UNL A   1      42.452  25.455  26.657  1.00  0.00     0.163 HD
BRANCH   5   8
ATOM      8  C   UNL A   1      39.624  23.690  27.191  1.00  0.00     0.100 C 
BRANCH   8   9
ATOM      9  C   UNL A   1      39.268  22.503  26.277  1.00  0.00     0.014 C 
BRANCH   9  10
ATOM     10  C   UNL A   1      37.777  22.402  25.936  1.00  0.00     0.000 C 
ATOM     11  N   UNL A   1      35.177  22.561  24.601  1.00  0.00    -0.332 N 
ATOM     12  C   UNL A   1      35.616  23.570  25.561  1.00  0.00     0.262 C 
ATOM     13  C   UNL A   1      35.932  21.299  24.621  1.00  0.00     0.262 C 
ATOM     14  H   UNL A   1      35.435  22.985  23.709  1.00  0.00     0.348 HD
ATOM     15  C   UNL A   1      37.132  23.746  25.595  1.00  0.00     0.065 C 
ATOM     16  C   UNL A   1      37.459  21.464  24.764  1.00  0.00     0.065 C 
BRANCH  11  17
ATOM     17  C   UNL A   1      33.703  22.379  24.512  1.00  0.00     0.186 C 
ATOM     18  C   UNL A   1      33.315  20.898  24.349  1.00  0.00     0.076 C 
BRANCH  17  19
ATOM     19  C   UNL A   1      32.921  23.218  23.488  1.00  0.00     0.019 C 
ATOM     20  C   UNL A   1      31.444  23.340  23.787  1.00  0.00     0.018 C 
ATOM     21  C   UNL A   1      33.590  24.442  22.880  1.00  0.00     0.013 C 
ATOM     22  C   UNL A   1      33.261  23.191  22.055  1.00  0.00     0.013 C 
ENDBRANCH  17  19
ENDBRANCH  11  17
ENDBRANCH   9  10
ENDBRANCH   8   9
ENDBRANCH   5   8
ENDBRANCH   3   4
ENDBRANCH   2   3
ENDBRANCH   1   2
BRANCH   1  23
ATOM     23  C   UNL A   1      39.081  29.191  28.908  1.00  0.00     0.002 C 
BRANCH  23  24
ATOM     24  C   UNL A   1      37.749  29.959  28.864  1.00  0.00     0.021 C 
BRANCH  24  25
ATOM     25  C   UNL A   1      36.586  29.423  29.718  1.00  0.00     0.116 C 
BRANCH  25  26
ATOM     26  N   UNL A   1      36.323  30.168  30.928  1.00  0.00    -0.352 N 
ATOM     27  C   UNL A   1      37.128  30.375  32.029  1.00  0.00     0.251 C 
ATOM     28  H   UNL A   1      35.436  30.591  30.974  1.00  0.00     0.163 HD
ATOM     29  O   UNL A   1      36.676  31.032  32.966  1.00  0.00    -0.269 OA
BRANCH  27  30
ATOM     30  C   UNL A   1      38.502  29.806  32.151  1.00  0.00     0.039 A 
ATOM     31  C   UNL A   1      38.616  28.425  32.348  1.00  0.00     0.014 A 
ATOM     32  C   UNL A   1      39.665  30.581  32.181  1.00  0.00     0.014 A 
ATOM     33  C   UNL A   1      39.872  27.825  32.533  1.00  0.00     0.010 A 
ATOM     34  C   UNL A   1      40.930  29.966  32.330  1.00  0.00     0.010 A 
ATOM     35  C   UNL A   1      41.059  28.578  32.500  1.00  0.00    -0.014 A 
BRANCH  35  36
ATOM     36  C   UNL A   1      42.389  27.881  32.602  1.00  0.00     0.031 A 
ATOM     37  C   UNL A   1      43.195  27.476  31.387  1.00  0.00     0.074 A 
ATOM     38  C   UNL A   1      42.906  27.605  33.820  1.00  0.00     0.049 A 
ATOM     39  N   UNL A   1      44.422  27.010  31.330  1.00  0.00    -0.248 NA
ATOM     40  C   UNL A   1      42.543  27.580  30.075  1.00  0.00     0.031 C 
ATOM     41  C   UNL A   1      42.219  27.817  35.095  1.00  0.00     0.029 A 
ATOM     42  N   UNL A   1      44.129  27.091  34.190  1.00  0.00    -0.354 N 
ATOM     43  C   UNL A   1      44.685  26.757  29.987  1.00  0.00     0.074 A 
ATOM     44  C   UNL A   1      43.468  27.075  29.268  1.00  0.00     0.031 C 
ATOM     45  C   UNL A   1      43.038  27.478  36.102  1.00  0.00     0.029 A 
ATOM     46  C   UNL A   1      44.306  27.001  35.553  1.00  0.00     0.049 A 
ATOM     47  H   UNL A   1      44.815  26.813  33.540  1.00  0.00     0.167 HD
ATOM     48  C   UNL A   1      45.831  26.335  29.393  1.00  0.00     0.034 A 
ATOM     49  C   UNL A   1      45.361  26.598  36.292  1.00  0.00     0.034 A 
ATOM     50  C   UNL A   1      47.058  26.034  30.089  1.00  0.00     0.049 A 
ATOM     51  C   UNL A   1      46.643  26.196  35.614  1.00  0.00     0.074 A 
ATOM     52  C   UNL A   1      48.290  25.689  29.553  1.00  0.00     0.029 A 
ATOM     53  N   UNL A   1      47.214  26.020  31.465  1.00  0.00    -0.354 N 
ATOM     54  N   UNL A   1      46.925  26.157  34.335  1.00  0.00    -0.248 NA
ATOM     55  C   UNL A   1      47.769  25.825  36.486  1.00  0.00     0.031 C 
ATOM     56  C   UNL A   1      49.178  25.438  30.606  1.00  0.00     0.029 A 
ATOM     57  C   UNL A   1      48.513  25.662  31.798  1.00  0.00     0.049 A 
ATOM     58  H   UNL A   1      46.505  26.234  32.114  1.00  0.00     0.167 HD
ATOM     59  C   UNL A   1      48.263  25.781  34.249  1.00  0.00     0.074 A 
ATOM     60  C   UNL A   1      48.746  25.644  35.607  1.00  0.00     0.031 C 
ATOM     61  C   UNL A   1      49.014  25.553  33.144  1.00  0.00     0.034 A 
BRANCH  48  62
ATOM     62  C   UNL A   1      45.840  26.234  27.885  1.00  0.00     0.023 A 
ATOM     63  C   UNL A   1      45.159  25.168  27.259  1.00  0.00     0.012 A 
ATOM     64  C   UNL A   1      46.452  27.221  27.085  1.00  0.00     0.148 A 
ATOM     65  C   UNL A   1      45.125  25.060  25.870  1.00  0.00     0.002 A 
ATOM     66  C   UNL A   1      46.373  27.133  25.699  1.00  0.00     0.091 A 
ATOM     67  F   UNL A   1      47.102  28.224  27.692  1.00  0.00    -0.205 F 
ATOM     68  C   UNL A   1      45.723  26.046  25.091  1.00  0.00     0.022 A 
BRANCH  66  69
ATOM     69  S   UNL A   1      47.037  28.393  24.604  1.00  0.00     0.127 S 
ATOM     70  O   UNL A   1      46.310  29.581  25.048  1.00  0.00    -0.237 OA
ATOM     71  O   UNL A   1      48.459  28.384  24.952  1.00  0.00    -0.237 OA
ATOM     72  O   UNL A   1      46.739  27.947  23.251  1.00  0.00    -0.744 OA
ENDBRANCH  66  69
ENDBRANCH  48  62
BRANCH  49  73
ATOM     73  C   UNL A   1      45.273  26.615  37.781  1.00  0.00     0.023 A 
ATOM     74  C   UNL A   1      45.012  25.423  38.484  1.00  0.00     0.012 A 
ATOM     75  C   UNL A   1      45.464  27.809  38.503  1.00  0.00     0.148 A 
ATOM     76  C   UNL A   1      44.908  25.425  39.876  1.00  0.00     0.002 A 
ATOM     77  C   UNL A   1      45.424  27.792  39.893  1.00  0.00     0.091 A 
ATOM     78  F   UNL A   1      45.697  28.936  37.815  1.00  0.00    -0.205 F 
ATOM     79  C   UNL A   1      45.126  26.606  40.580  1.00  0.00     0.022 A 
BRANCH  77  80
ATOM     80  S   UNL A   1      45.834  29.234  40.882  1.00  0.00     0.127 S 
ATOM     81  O   UNL A   1      44.719  30.130  40.578  1.00  0.00    -0.237 OA
ATOM     82  O   UNL A   1      45.827  28.679  42.235  1.00  0.00    -0.237 OA
ATOM     83  O   UNL A   1      47.141  29.672  40.419  1.00  0.00    -0.744 OA
ENDBRANCH  77  80
ENDBRANCH  49  73
BRANCH  61  84
ATOM     84  C   UNL A   1      50.454  25.146  33.349  1.00  0.00     0.023 A 
ATOM     85  C   UNL A   1      51.430  26.125  33.632  1.00  0.00     0.012 A 
ATOM     86  C   UNL A   1      50.843  23.792  33.286  1.00  0.00     0.148 A 
ATOM     87  C   UNL A   1      52.769  25.772  33.796  1.00  0.00     0.002 A 
ATOM     88  C   UNL A   1      52.172  23.441  33.502  1.00  0.00     0.091 A 
ATOM     89  F   UNL A   1      49.912  22.871  32.998  1.00  0.00    -0.205 F 
ATOM     90  C   UNL A   1      53.139  24.431  33.740  1.00  0.00     0.022 A 
BRANCH  88  91
ATOM     91  S   UNL A   1      52.722  21.731  33.540  1.00  0.00     0.127 S 
ATOM     92  O   UNL A   1      51.948  21.192  34.657  1.00  0.00    -0.237 OA
ATOM     93  O   UNL A   1      52.312  21.242  32.223  1.00  0.00    -0.237 OA
ATOM     94  O   UNL A   1      54.164  21.780  33.740  1.00  0.00    -0.744 OA
ENDBRANCH  88  91
ENDBRANCH  61  84
ENDBRANCH  35  36
ENDBRANCH  27  30
ENDBRANCH  25  26
ENDBRANCH  24  25
ENDBRANCH  23  24
ENDBRANCH   1  23
TORSDOF 20
ENDMDL
