MODEL 1
REMARK VINA RESULT:     -11.2      0.000      0.000
REMARK SMILES COC(=O)C[C@@H](NC(=O)c1ccccc1C(=O)NCCCCCCNC(=O)c1ccc(-c2c3nc(c(-c4cccc(S(=O)(=O)[O-])c4F)c4ccc([nH]4)c(-c4cccc(S(=O)(=O)[O-])c4F)c4nc(c(-c5cccc(S(=O)(=O)[O-])c5F)c5ccc2[nH]5)C=C4)C=C3)cc1)c1cccc(C)c1C
REMARK SMILES IDX 20 1 19 2 18 3 16 4 17 5 15 7 10 8 11 9 12 10 14 11 13 12
REMARK SMILES IDX 8 13 7 14 9 16 6 17 5 18 3 19 4 20 2 21 1 22 91 23 92 24
REMARK SMILES IDX 97 25 93 26 95 27 98 28 94 29 96 30 21 31 22 32 23 33 24 34
REMARK SMILES IDX 25 35 26 36 27 38 28 39 29 40 90 41 30 42 89 43 31 44 32 45
REMARK SMILES IDX 33 46 83 47 34 48 88 49 82 50 84 51 35 52 87 53 81 54 80 55
REMARK SMILES IDX 36 57 68 58 48 59 67 60 49 61 52 62 66 63 85 64 50 65 51 66
REMARK SMILES IDX 65 68 86 69 53 70 37 71 38 72 46 73 39 74 41 75 47 76 40 77
REMARK SMILES IDX 42 78 43 79 44 80 45 81 69 82 70 83 78 84 71 85 73 86 79 87
REMARK SMILES IDX 72 88 74 89 75 90 76 91 77 92 54 93 55 94 63 95 56 96 58 97
REMARK SMILES IDX 64 98 57 99 59 100 60 101 61 102 62 103
REMARK H PARENT 18 6 7 15 25 37 84 56 52 67
REMARK Flexibility Score: inf
ROOT
ATOM      1  C   UNL A   1      34.541  31.090  28.182  1.00  0.00     0.021 C 
ENDROOT
BRANCH   1   2
ATOM      2  C   UNL A   1      33.717  30.323  27.108  1.00  0.00     0.116 C 
BRANCH   2   3
ATOM      3  N   UNL A   1      32.985  29.136  27.685  1.00  0.00    -0.352 N 
ATOM      4  C   UNL A   1      32.061  28.106  27.399  1.00  0.00     0.252 C 
ATOM      5  O   UNL A   1      31.483  27.757  28.447  1.00  0.00    -0.269 OA
ATOM      6  H   UNL A   1      33.258  29.042  28.627  1.00  0.00     0.163 HD
BRANCH   4   7
ATOM      7  C   UNL A   1      31.778  27.108  26.135  1.00  0.00     0.052 A 
ATOM      8  C   UNL A   1      31.429  25.283  25.587  1.00  0.00     0.052 A 
ATOM      9  C   UNL A   1      30.423  25.004  24.095  1.00  0.00     0.014 A 
ATOM     10  C   UNL A   1      29.846  26.363  23.101  1.00  0.00     0.001 A 
ATOM     11  C   UNL A   1      31.068  28.439  25.076  1.00  0.00     0.014 A 
ATOM     12  C   UNL A   1      30.176  28.053  23.565  1.00  0.00     0.001 A 
BRANCH   8  13
ATOM     13  C   UNL A   1      31.084  23.798  26.191  1.00  0.00     0.252 C 
ATOM     14  N   UNL A   1      31.664  22.528  25.800  1.00  0.00    -0.345 N 
ATOM     15  H   UNL A   1      31.616  21.864  26.524  1.00  0.00     0.164 HD
ATOM     16  O   UNL A   1      30.334  23.785  27.170  1.00  0.00    -0.269 OA
BRANCH  14  17
ATOM     17  C   UNL A   1      32.347  21.945  24.519  1.00  0.00     0.124 C 
BRANCH  17  18
ATOM     18  C   UNL A   1      32.296  20.416  24.415  1.00  0.00     0.152 C 
BRANCH  18  19
ATOM     19  C   UNL A   1      32.759  19.824  25.730  1.00  0.00     0.307 C 
ATOM     20  O   UNL A   1      33.355  20.448  26.596  1.00  0.00    -0.252 OA
BRANCH  19  21
ATOM     21  O   UNL A   1      32.452  18.499  25.782  1.00  0.00    -0.469 OA
ATOM     22  C   UNL A   1      33.281  17.658  24.977  1.00  0.00     0.282 C 
ENDBRANCH  19  21
ENDBRANCH  18  19
ENDBRANCH  17  18
BRANCH  17  23
ATOM     23  C   UNL A   1      33.710  22.574  24.357  1.00  0.00    -0.022 A 
ATOM     24  C   UNL A   1      34.672  22.723  25.341  1.00  0.00     0.006 A 
ATOM     25  C   UNL A   1      33.741  23.418  23.264  1.00  0.00    -0.043 A 
ATOM     26  C   UNL A   1      35.368  23.918  25.464  1.00  0.00     0.001 A 
ATOM     27  C   UNL A   1      34.176  25.019  23.502  1.00  0.00    -0.048 A 
ATOM     28  C   UNL A   1      32.783  22.669  21.979  1.00  0.00     0.045 C 
ATOM     29  C   UNL A   1      35.061  25.044  24.676  1.00  0.00     0.004 A 
ATOM     30  C   UNL A   1      33.470  26.632  22.270  1.00  0.00     0.044 C 
ENDBRANCH  17  23
ENDBRANCH  14  17
ENDBRANCH   8  13
ENDBRANCH   4   7
ENDBRANCH   2   3
ENDBRANCH   1   2
BRANCH   1  31
ATOM     31  C   UNL A   1      35.582  32.087  27.654  1.00  0.00     0.002 C 
BRANCH  31  32
ATOM     32  C   UNL A   1      35.704  33.421  28.399  1.00  0.00     0.002 C 
BRANCH  32  33
ATOM     33  C   UNL A   1      34.632  34.482  28.113  1.00  0.00     0.021 C 
BRANCH  33  34
ATOM     34  C   UNL A   1      33.227  34.209  28.648  1.00  0.00     0.116 C 
BRANCH  34  35
ATOM     35  N   UNL A   1      32.864  35.098  29.744  1.00  0.00    -0.352 N 
ATOM     36  C   UNL A   1      33.317  35.149  31.039  1.00  0.00     0.251 C 
ATOM     37  H   UNL A   1      32.183  35.772  29.519  1.00  0.00     0.163 HD
ATOM     38  O   UNL A   1      32.724  35.846  31.858  1.00  0.00    -0.269 OA
BRANCH  36  39
ATOM     39  C   UNL A   1      34.507  34.374  31.457  1.00  0.00     0.039 A 
ATOM     40  C   UNL A   1      34.350  33.035  31.829  1.00  0.00     0.014 A 
ATOM     41  C   UNL A   1      35.766  34.974  31.528  1.00  0.00     0.014 A 
ATOM     42  C   UNL A   1      35.464  32.288  32.225  1.00  0.00     0.010 A 
ATOM     43  C   UNL A   1      36.885  34.206  31.839  1.00  0.00     0.010 A 
ATOM     44  C   UNL A   1      36.746  32.861  32.210  1.00  0.00    -0.014 A 
BRANCH  44  45
ATOM     45  C   UNL A   1      37.949  32.084  32.605  1.00  0.00     0.031 A 
ATOM     46  C   UNL A   1      38.668  32.416  33.889  1.00  0.00     0.074 A 
ATOM     47  C   UNL A   1      38.433  31.134  31.781  1.00  0.00     0.049 A 
ATOM     48  N   UNL A   1      39.775  31.910  34.369  1.00  0.00    -0.248 NA
ATOM     49  C   UNL A   1      38.082  33.473  34.730  1.00  0.00     0.031 C 
ATOM     50  C   UNL A   1      37.863  30.766  30.483  1.00  0.00     0.029 A 
ATOM     51  N   UNL A   1      39.532  30.318  31.901  1.00  0.00    -0.354 N 
ATOM     52  C   UNL A   1      40.028  32.601  35.548  1.00  0.00     0.074 A 
ATOM     53  C   UNL A   1      38.990  33.598  35.686  1.00  0.00     0.031 C 
ATOM     54  C   UNL A   1      38.611  29.796  29.931  1.00  0.00     0.029 A 
ATOM     55  C   UNL A   1      39.732  29.498  30.815  1.00  0.00     0.049 A 
ATOM     56  H   UNL A   1      40.121  30.321  32.690  1.00  0.00     0.167 HD
ATOM     57  C   UNL A   1      41.012  32.401  36.458  1.00  0.00     0.034 A 
ATOM     58  C   UNL A   1      40.717  28.615  30.557  1.00  0.00     0.034 A 
ATOM     59  C   UNL A   1      42.024  31.388  36.333  1.00  0.00     0.049 A 
ATOM     60  C   UNL A   1      41.797  28.412  31.588  1.00  0.00     0.074 A 
ATOM     61  C   UNL A   1      43.038  31.069  37.217  1.00  0.00     0.029 A 
ATOM     62  N   UNL A   1      42.148  30.526  35.254  1.00  0.00    -0.354 N 
ATOM     63  N   UNL A   1      41.945  28.990  32.755  1.00  0.00    -0.248 NA
ATOM     64  C   UNL A   1      42.825  27.406  31.282  1.00  0.00     0.031 C 
ATOM     65  C   UNL A   1      43.790  30.029  36.663  1.00  0.00     0.029 A 
ATOM     66  C   UNL A   1      43.220  29.673  35.451  1.00  0.00     0.049 A 
ATOM     67  H   UNL A   1      41.561  30.522  34.464  1.00  0.00     0.167 HD
ATOM     68  C   UNL A   1      43.047  28.380  33.344  1.00  0.00     0.074 A 
ATOM     69  C   UNL A   1      43.517  27.377  32.411  1.00  0.00     0.031 C 
ATOM     70  C   UNL A   1      43.629  28.635  34.543  1.00  0.00     0.034 A 
BRANCH  57  71
ATOM     71  C   UNL A   1      41.003  33.253  37.701  1.00  0.00     0.023 A 
ATOM     72  C   UNL A   1      41.892  34.344  37.798  1.00  0.00     0.012 A 
ATOM     73  C   UNL A   1      40.080  33.024  38.741  1.00  0.00     0.148 A 
ATOM     74  C   UNL A   1      41.889  35.170  38.922  1.00  0.00     0.002 A 
ATOM     75  C   UNL A   1      40.049  33.880  39.835  1.00  0.00     0.091 A 
ATOM     76  F   UNL A   1      39.252  31.974  38.638  1.00  0.00    -0.205 F 
ATOM     77  C   UNL A   1      40.961  34.944  39.933  1.00  0.00     0.022 A 
BRANCH  75  78
ATOM     78  S   UNL A   1      38.843  33.729  41.157  1.00  0.00     0.127 S 
ATOM     79  O   UNL A   1      37.583  33.778  40.414  1.00  0.00    -0.237 OA
ATOM     80  O   UNL A   1      39.168  32.418  41.720  1.00  0.00    -0.237 OA
ATOM     81  O   UNL A   1      39.079  34.854  42.051  1.00  0.00    -0.744 OA
ENDBRANCH  75  78
ENDBRANCH  57  71
BRANCH  58  82
ATOM     82  C   UNL A   1      40.712  27.814  29.298  1.00  0.00     0.023 A 
ATOM     83  C   UNL A   1      39.844  26.711  29.181  1.00  0.00     0.012 A 
ATOM     84  C   UNL A   1      41.573  28.122  28.228  1.00  0.00     0.148 A 
ATOM     85  C   UNL A   1      39.874  25.895  28.049  1.00  0.00     0.002 A 
ATOM     86  C   UNL A   1      41.556  27.342  27.078  1.00  0.00     0.091 A 
ATOM     87  F   UNL A   1      42.399  29.171  28.357  1.00  0.00    -0.205 F 
ATOM     88  C   UNL A   1      40.726  26.214  26.996  1.00  0.00     0.022 A 
BRANCH  86  89
ATOM     89  S   UNL A   1      42.523  27.755  25.622  1.00  0.00     0.127 S 
ATOM     90  O   UNL A   1      42.270  26.606  24.758  1.00  0.00    -0.237 OA
ATOM     91  O   UNL A   1      41.897  29.004  25.186  1.00  0.00    -0.237 OA
ATOM     92  O   UNL A   1      43.893  27.909  26.093  1.00  0.00    -0.744 OA
ENDBRANCH  86  89
ENDBRANCH  58  82
BRANCH  70  93
ATOM     93  C   UNL A   1      44.789  27.767  34.953  1.00  0.00     0.023 A 
ATOM     94  C   UNL A   1      46.111  28.203  34.744  1.00  0.00     0.012 A 
ATOM     95  C   UNL A   1      44.559  26.542  35.611  1.00  0.00     0.148 A 
ATOM     96  C   UNL A   1      47.189  27.413  35.146  1.00  0.00     0.002 A 
ATOM     97  C   UNL A   1      45.635  25.788  36.059  1.00  0.00     0.091 A 
ATOM     98  F   UNL A   1      43.292  26.138  35.785  1.00  0.00    -0.205 F 
ATOM     99  C   UNL A   1      46.951  26.213  35.813  1.00  0.00     0.022 A 
BRANCH  97 100
ATOM    100  S   UNL A   1      45.425  24.284  37.016  1.00  0.00     0.127 S 
ATOM    101  O   UNL A   1      46.812  23.897  37.272  1.00  0.00    -0.237 OA
ATOM    102  O   UNL A   1      44.699  24.765  38.192  1.00  0.00    -0.237 OA
ATOM    103  O   UNL A   1      44.669  23.369  36.171  1.00  0.00    -0.744 OA
ENDBRANCH  97 100
ENDBRANCH  70  93
ENDBRANCH  44  45
ENDBRANCH  36  39
ENDBRANCH  34  35
ENDBRANCH  33  34
ENDBRANCH  32  33
ENDBRANCH  31  32
ENDBRANCH   1  31
TORSDOF 22
ENDMDL
MODEL 2
REMARK VINA RESULT:     -10.8      1.494      2.338
REMARK SMILES COC(=O)C[C@@H](NC(=O)c1ccccc1C(=O)NCCCCCCNC(=O)c1ccc(-c2c3nc(c(-c4cccc(S(=O)(=O)[O-])c4F)c4ccc([nH]4)c(-c4cccc(S(=O)(=O)[O-])c4F)c4nc(c(-c5cccc(S(=O)(=O)[O-])c5F)c5ccc2[nH]5)C=C4)C=C3)cc1)c1cccc(C)c1C
REMARK SMILES IDX 20 1 19 2 18 3 16 4 17 5 15 7 10 8 11 9 12 10 14 11 13 12
REMARK SMILES IDX 8 13 7 14 9 16 6 17 5 18 3 19 4 20 2 21 1 22 91 23 92 24
REMARK SMILES IDX 97 25 93 26 95 27 98 28 94 29 96 30 21 31 22 32 23 33 24 34
REMARK SMILES IDX 25 35 26 36 27 38 28 39 29 40 90 41 30 42 89 43 31 44 32 45
REMARK SMILES IDX 33 46 83 47 34 48 88 49 82 50 84 51 35 52 87 53 81 54 80 55
REMARK SMILES IDX 36 57 68 58 48 59 67 60 49 61 52 62 66 63 85 64 50 65 51 66
REMARK SMILES IDX 65 68 86 69 53 70 37 71 38 72 46 73 39 74 41 75 47 76 40 77
REMARK SMILES IDX 42 78 43 79 44 80 45 81 69 82 70 83 78 84 71 85 73 86 79 87
REMARK SMILES IDX 72 88 74 89 75 90 76 91 77 92 54 93 55 94 63 95 56 96 58 97
REMARK SMILES IDX 64 98 57 99 59 100 60 101 61 102 62 103
REMARK H PARENT 18 6 7 15 25 37 84 56 52 67
REMARK Flexibility Score: inf
ROOT
ATOM      1  C   UNL A   1      35.051  31.711  28.290  1.00  0.00     0.021 C 
ENDROOT
BRANCH   1   2
ATOM      2  C   UNL A   1      33.982  31.192  27.285  1.00  0.00     0.116 C 
BRANCH   2   3
ATOM      3  N   UNL A   1      34.338  29.841  26.715  1.00  0.00    -0.352 N 
ATOM      4  C   UNL A   1      33.900  28.802  25.862  1.00  0.00     0.252 C 
ATOM      5  O   UNL A   1      34.423  27.725  26.211  1.00  0.00    -0.269 OA
ATOM      6  H   UNL A   1      35.218  29.583  27.075  1.00  0.00     0.163 HD
BRANCH   4   7
ATOM      7  C   UNL A   1      33.132  28.718  24.421  1.00  0.00     0.052 A 
ATOM      8  C   UNL A   1      32.909  27.704  22.786  1.00  0.00     0.052 A 
ATOM      9  C   UNL A   1      31.296  27.763  21.943  1.00  0.00     0.014 A 
ATOM     10  C   UNL A   1      29.977  28.797  22.542  1.00  0.00     0.001 A 
ATOM     11  C   UNL A   1      31.676  29.693  24.994  1.00  0.00     0.014 A 
ATOM     12  C   UNL A   1      30.163  29.764  24.029  1.00  0.00     0.001 A 
BRANCH   8  13
ATOM     13  C   UNL A   1      33.306  26.272  22.092  1.00  0.00     0.252 C 
ATOM     14  N   UNL A   1      33.164  24.945  22.659  1.00  0.00    -0.345 N 
ATOM     15  H   UNL A   1      33.085  24.255  21.962  1.00  0.00     0.164 HD
ATOM     16  O   UNL A   1      33.653  26.334  20.909  1.00  0.00    -0.269 OA
BRANCH  14  17
ATOM     17  C   UNL A   1      33.103  24.332  24.096  1.00  0.00     0.124 C 
BRANCH  17  18
ATOM     18  C   UNL A   1      33.737  22.940  24.218  1.00  0.00     0.152 C 
BRANCH  18  19
ATOM     19  C   UNL A   1      32.818  21.929  23.564  1.00  0.00     0.307 C 
ATOM     20  O   UNL A   1      32.534  21.922  22.375  1.00  0.00    -0.252 OA
BRANCH  19  21
ATOM     21  O   UNL A   1      32.329  21.068  24.497  1.00  0.00    -0.469 OA
ATOM     22  C   UNL A   1      33.320  20.306  25.189  1.00  0.00     0.282 C 
ENDBRANCH  19  21
ENDBRANCH  18  19
ENDBRANCH  17  18
BRANCH  17  23
ATOM     23  C   UNL A   1      31.698  24.467  24.632  1.00  0.00    -0.022 A 
ATOM     24  C   UNL A   1      30.538  24.576  23.886  1.00  0.00     0.006 A 
ATOM     25  C   UNL A   1      31.705  24.952  25.925  1.00  0.00    -0.043 A 
ATOM     26  C   UNL A   1      29.565  25.504  24.235  1.00  0.00     0.001 A 
ATOM     27  C   UNL A   1      30.856  26.359  26.257  1.00  0.00    -0.048 A 
ATOM     28  C   UNL A   1      33.071  24.212  26.770  1.00  0.00     0.045 C 
ATOM     29  C   UNL A   1      29.757  26.426  25.282  1.00  0.00     0.004 A 
ATOM     30  C   UNL A   1      31.404  27.732  27.816  1.00  0.00     0.044 C 
ENDBRANCH  17  23
ENDBRANCH  14  17
ENDBRANCH   8  13
ENDBRANCH   4   7
ENDBRANCH   2   3
ENDBRANCH   1   2
BRANCH   1  31
ATOM     31  C   UNL A   1      35.680  33.073  27.968  1.00  0.00     0.002 C 
BRANCH  31  32
ATOM     32  C   UNL A   1      35.445  34.202  28.977  1.00  0.00     0.002 C 
BRANCH  32  33
ATOM     33  C   UNL A   1      34.270  35.151  28.702  1.00  0.00     0.021 C 
BRANCH  33  34
ATOM     34  C   UNL A   1      32.915  34.766  29.295  1.00  0.00     0.116 C 
BRANCH  34  35
ATOM     35  N   UNL A   1      32.528  35.624  30.407  1.00  0.00    -0.352 N 
ATOM     36  C   UNL A   1      32.964  35.648  31.709  1.00  0.00     0.251 C 
ATOM     37  H   UNL A   1      31.841  36.294  30.190  1.00  0.00     0.163 HD
ATOM     38  O   UNL A   1      32.352  36.318  32.538  1.00  0.00    -0.269 OA
BRANCH  36  39
ATOM     39  C   UNL A   1      34.158  34.878  32.123  1.00  0.00     0.039 A 
ATOM     40  C   UNL A   1      34.012  33.530  32.470  1.00  0.00     0.014 A 
ATOM     41  C   UNL A   1      35.411  35.488  32.215  1.00  0.00     0.014 A 
ATOM     42  C   UNL A   1      35.130  32.788  32.862  1.00  0.00     0.010 A 
ATOM     43  C   UNL A   1      36.535  34.726  32.521  1.00  0.00     0.010 A 
ATOM     44  C   UNL A   1      36.406  33.374  32.867  1.00  0.00    -0.014 A 
BRANCH  44  45
ATOM     45  C   UNL A   1      37.614  32.601  33.258  1.00  0.00     0.031 A 
ATOM     46  C   UNL A   1      38.372  32.975  34.507  1.00  0.00     0.074 A 
ATOM     47  C   UNL A   1      38.067  31.616  32.458  1.00  0.00     0.049 A 
ATOM     48  N   UNL A   1      39.487  32.478  34.976  1.00  0.00    -0.248 NA
ATOM     49  C   UNL A   1      37.818  34.070  35.323  1.00  0.00     0.031 C 
ATOM     50  C   UNL A   1      37.457  31.204  31.191  1.00  0.00     0.029 A 
ATOM     51  N   UNL A   1      39.162  30.796  32.579  1.00  0.00    -0.354 N 
ATOM     52  C   UNL A   1      39.780  33.212  36.120  1.00  0.00     0.074 A 
ATOM     53  C   UNL A   1      38.754  34.223  36.247  1.00  0.00     0.031 C 
ATOM     54  C   UNL A   1      38.181  30.206  30.657  1.00  0.00     0.029 A 
ATOM     55  C   UNL A   1      39.325  29.933  31.519  1.00  0.00     0.049 A 
ATOM     56  H   UNL A   1      39.773  30.824  33.350  1.00  0.00     0.167 HD
ATOM     57  C   UNL A   1      40.787  33.038  37.008  1.00  0.00     0.034 A 
ATOM     58  C   UNL A   1      40.295  29.032  31.269  1.00  0.00     0.034 A 
ATOM     59  C   UNL A   1      41.787  32.012  36.894  1.00  0.00     0.049 A 
ATOM     60  C   UNL A   1      41.402  28.858  32.276  1.00  0.00     0.074 A 
ATOM     61  C   UNL A   1      42.824  31.719  37.761  1.00  0.00     0.029 A 
ATOM     62  N   UNL A   1      41.873  31.108  35.846  1.00  0.00    -0.354 N 
ATOM     63  N   UNL A   1      41.588  29.479  33.416  1.00  0.00    -0.248 NA
ATOM     64  C   UNL A   1      42.412  27.832  31.981  1.00  0.00     0.031 C 
ATOM     65  C   UNL A   1      43.551  30.651  37.227  1.00  0.00     0.029 A 
ATOM     66  C   UNL A   1      42.944  30.254  36.046  1.00  0.00     0.049 A 
ATOM     67  H   UNL A   1      41.265  31.079  35.074  1.00  0.00     0.167 HD
ATOM     68  C   UNL A   1      42.701  28.883  33.996  1.00  0.00     0.074 A 
ATOM     69  C   UNL A   1      43.137  27.840  33.090  1.00  0.00     0.031 C 
ATOM     70  C   UNL A   1      43.318  29.178  35.167  1.00  0.00     0.034 A 
BRANCH  57  71
ATOM     71  C   UNL A   1      40.820  33.938  38.217  1.00  0.00     0.023 A 
ATOM     72  C   UNL A   1      41.592  35.118  38.180  1.00  0.00     0.012 A 
ATOM     73  C   UNL A   1      40.044  33.659  39.360  1.00  0.00     0.148 A 
ATOM     74  C   UNL A   1      41.621  35.986  39.271  1.00  0.00     0.002 A 
ATOM     75  C   UNL A   1      40.040  34.553  40.424  1.00  0.00     0.091 A 
ATOM     76  F   UNL A   1      39.328  32.526  39.384  1.00  0.00    -0.205 F 
ATOM     77  C   UNL A   1      40.837  35.709  40.386  1.00  0.00     0.022 A 
BRANCH  75  78
ATOM     78  S   UNL A   1      39.005  34.335  41.876  1.00  0.00     0.127 S 
ATOM     79  O   UNL A   1      39.431  35.457  42.713  1.00  0.00    -0.237 OA
ATOM     80  O   UNL A   1      37.661  34.469  41.317  1.00  0.00    -0.237 OA
ATOM     81  O   UNL A   1      39.321  33.015  42.403  1.00  0.00    -0.744 OA
ENDBRANCH  75  78
ENDBRANCH  57  71
BRANCH  58  82
ATOM     82  C   UNL A   1      40.248  28.183  30.042  1.00  0.00     0.023 A 
ATOM     83  C   UNL A   1      39.365  27.085  29.991  1.00  0.00     0.012 A 
ATOM     84  C   UNL A   1      41.083  28.440  28.939  1.00  0.00     0.148 A 
ATOM     85  C   UNL A   1      39.357  26.226  28.891  1.00  0.00     0.002 A 
ATOM     86  C   UNL A   1      41.027  27.616  27.820  1.00  0.00     0.091 A 
ATOM     87  F   UNL A   1      41.922  29.483  29.005  1.00  0.00    -0.205 F 
ATOM     88  C   UNL A   1      40.183  26.495  27.804  1.00  0.00     0.022 A 
BRANCH  86  89
ATOM     89  S   UNL A   1      41.958  27.963  26.325  1.00  0.00     0.127 S 
ATOM     90  O   UNL A   1      41.535  29.326  26.017  1.00  0.00    -0.237 OA
ATOM     91  O   UNL A   1      43.339  27.836  26.790  1.00  0.00    -0.237 OA
ATOM     92  O   UNL A   1      41.555  26.940  25.368  1.00  0.00    -0.744 OA
ENDBRANCH  86  89
ENDBRANCH  58  82
BRANCH  70  93
ATOM     93  C   UNL A   1      44.483  28.316  35.578  1.00  0.00     0.023 A 
ATOM     94  C   UNL A   1      45.776  28.589  35.092  1.00  0.00     0.012 A 
ATOM     95  C   UNL A   1      44.298  27.271  36.506  1.00  0.00     0.148 A 
ATOM     96  C   UNL A   1      46.861  27.808  35.491  1.00  0.00     0.002 A 
ATOM     97  C   UNL A   1      45.391  26.535  36.942  1.00  0.00     0.091 A 
ATOM     98  F   UNL A   1      43.056  27.018  36.945  1.00  0.00    -0.205 F 
ATOM     99  C   UNL A   1      46.671  26.791  36.423  1.00  0.00     0.022 A 
BRANCH  97 100
ATOM    100  S   UNL A   1      45.260  25.276  38.215  1.00  0.00     0.127 S 
ATOM    101  O   UNL A   1      46.665  25.010  38.517  1.00  0.00    -0.237 OA
ATOM    102  O   UNL A   1      44.532  25.981  39.271  1.00  0.00    -0.237 OA
ATOM    103  O   UNL A   1      44.530  24.168  37.614  1.00  0.00    -0.744 OA
ENDBRANCH  97 100
ENDBRANCH  70  93
ENDBRANCH  44  45
ENDBRANCH  36  39
ENDBRANCH  34  35
ENDBRANCH  33  34
ENDBRANCH  32  33
ENDBRANCH  31  32
ENDBRANCH   1  31
TORSDOF 22
ENDMDL
MODEL 3
REMARK VINA RESULT:     -10.2      1.565      2.332
REMARK SMILES COC(=O)C[C@@H](NC(=O)c1ccccc1C(=O)NCCCCCCNC(=O)c1ccc(-c2c3nc(c(-c4cccc(S(=O)(=O)[O-])c4F)c4ccc([nH]4)c(-c4cccc(S(=O)(=O)[O-])c4F)c4nc(c(-c5cccc(S(=O)(=O)[O-])c5F)c5ccc2[nH]5)C=C4)C=C3)cc1)c1cccc(C)c1C
REMARK SMILES IDX 20 1 19 2 18 3 16 4 17 5 15 7 10 8 11 9 12 10 14 11 13 12
REMARK SMILES IDX 8 13 7 14 9 16 6 17 5 18 3 19 4 20 2 21 1 22 91 23 92 24
REMARK SMILES IDX 97 25 93 26 95 27 98 28 94 29 96 30 21 31 22 32 23 33 24 34
REMARK SMILES IDX 25 35 26 36 27 38 28 39 29 40 90 41 30 42 89 43 31 44 32 45
REMARK SMILES IDX 33 46 83 47 34 48 88 49 82 50 84 51 35 52 87 53 81 54 80 55
REMARK SMILES IDX 36 57 68 58 48 59 67 60 49 61 52 62 66 63 85 64 50 65 51 66
REMARK SMILES IDX 65 68 86 69 53 70 37 71 38 72 46 73 39 74 41 75 47 76 40 77
REMARK SMILES IDX 42 78 43 79 44 80 45 81 69 82 70 83 78 84 71 85 73 86 79 87
REMARK SMILES IDX 72 88 74 89 75 90 76 91 77 92 54 93 55 94 63 95 56 96 58 97
REMARK SMILES IDX 64 98 57 99 59 100 60 101 61 102 62 103
REMARK H PARENT 18 6 7 15 25 37 84 56 52 67
REMARK Flexibility Score: inf
ROOT
ATOM      1  C   UNL A   1      34.881  31.554  28.423  1.00  0.00     0.021 C 
ENDROOT
BRANCH   1   2
ATOM      2  C   UNL A   1      33.569  31.203  27.663  1.00  0.00     0.116 C 
BRANCH   2   3
ATOM      3  N   UNL A   1      33.218  29.740  27.767  1.00  0.00    -0.352 N 
ATOM      4  C   UNL A   1      32.969  28.563  27.025  1.00  0.00     0.252 C 
ATOM      5  O   UNL A   1      32.233  27.801  27.682  1.00  0.00    -0.269 OA
ATOM      6  H   UNL A   1      33.129  29.518  28.722  1.00  0.00     0.163 HD
BRANCH   4   7
ATOM      7  C   UNL A   1      33.610  27.862  25.694  1.00  0.00     0.052 A 
ATOM      8  C   UNL A   1      34.493  26.291  24.983  1.00  0.00     0.052 A 
ATOM      9  C   UNL A   1      34.213  25.855  23.237  1.00  0.00     0.014 A 
ATOM     10  C   UNL A   1      33.229  26.889  22.173  1.00  0.00     0.001 A 
ATOM     11  C   UNL A   1      32.553  28.817  24.524  1.00  0.00     0.014 A 
ATOM     12  C   UNL A   1      32.428  28.357  22.793  1.00  0.00     0.001 A 
BRANCH   8  13
ATOM     13  C   UNL A   1      34.911  24.756  25.379  1.00  0.00     0.252 C 
ATOM     14  N   UNL A   1      34.025  23.644  25.664  1.00  0.00    -0.345 N 
ATOM     15  H   UNL A   1      34.456  22.777  25.487  1.00  0.00     0.164 HD
ATOM     16  O   UNL A   1      36.116  24.499  25.308  1.00  0.00    -0.269 OA
BRANCH  14  17
ATOM     17  C   UNL A   1      32.559  23.472  26.180  1.00  0.00     0.124 C 
BRANCH  17  18
ATOM     18  C   UNL A   1      32.405  22.461  27.323  1.00  0.00     0.152 C 
BRANCH  18  19
ATOM     19  C   UNL A   1      33.516  21.437  27.219  1.00  0.00     0.307 C 
ATOM     20  O   UNL A   1      34.580  21.509  27.820  1.00  0.00    -0.252 OA
BRANCH  19  21
ATOM     21  O   UNL A   1      33.173  20.461  26.336  1.00  0.00    -0.469 OA
ATOM     22  C   UNL A   1      34.146  20.200  25.322  1.00  0.00     0.282 C 
ENDBRANCH  19  21
ENDBRANCH  18  19
ENDBRANCH  17  18
BRANCH  17  23
ATOM     23  C   UNL A   1      31.639  23.279  24.999  1.00  0.00    -0.022 A 
ATOM     24  C   UNL A   1      31.964  22.695  23.787  1.00  0.00     0.006 A 
ATOM     25  C   UNL A   1      30.576  24.159  25.049  1.00  0.00    -0.043 A 
ATOM     26  C   UNL A   1      31.546  23.275  22.596  1.00  0.00     0.001 A 
ATOM     27  C   UNL A   1      30.329  25.190  23.751  1.00  0.00    -0.048 A 
ATOM     28  C   UNL A   1      30.078  24.305  26.739  1.00  0.00     0.045 C 
ATOM     29  C   UNL A   1      30.873  24.512  22.565  1.00  0.00     0.004 A 
ATOM     30  C   UNL A   1      29.414  27.126  23.935  1.00  0.00     0.044 C 
ENDBRANCH  17  23
ENDBRANCH  14  17
ENDBRANCH   8  13
ENDBRANCH   4   7
ENDBRANCH   2   3
ENDBRANCH   1   2
BRANCH   1  31
ATOM     31  C   UNL A   1      35.660  32.771  27.907  1.00  0.00     0.002 C 
BRANCH  31  32
ATOM     32  C   UNL A   1      35.671  34.017  28.800  1.00  0.00     0.002 C 
BRANCH  32  33
ATOM     33  C   UNL A   1      34.506  35.003  28.637  1.00  0.00     0.021 C 
BRANCH  33  34
ATOM     34  C   UNL A   1      33.164  34.597  29.246  1.00  0.00     0.116 C 
BRANCH  34  35
ATOM     35  N   UNL A   1      32.795  35.424  30.386  1.00  0.00    -0.352 N 
ATOM     36  C   UNL A   1      33.246  35.409  31.684  1.00  0.00     0.251 C 
ATOM     37  H   UNL A   1      32.109  36.105  30.197  1.00  0.00     0.163 HD
ATOM     38  O   UNL A   1      32.647  36.058  32.538  1.00  0.00    -0.269 OA
BRANCH  36  39
ATOM     39  C   UNL A   1      34.440  34.621  32.061  1.00  0.00     0.039 A 
ATOM     40  C   UNL A   1      34.291  33.263  32.366  1.00  0.00     0.014 A 
ATOM     41  C   UNL A   1      35.697  35.223  32.161  1.00  0.00     0.014 A 
ATOM     42  C   UNL A   1      35.409  32.504  32.723  1.00  0.00     0.010 A 
ATOM     43  C   UNL A   1      36.820  34.447  32.432  1.00  0.00     0.010 A 
ATOM     44  C   UNL A   1      36.688  33.084  32.735  1.00  0.00    -0.014 A 
BRANCH  44  45
ATOM     45  C   UNL A   1      37.896  32.294  33.090  1.00  0.00     0.031 A 
ATOM     46  C   UNL A   1      38.644  32.598  34.365  1.00  0.00     0.074 A 
ATOM     47  C   UNL A   1      38.359  31.359  32.238  1.00  0.00     0.049 A 
ATOM     48  N   UNL A   1      39.757  32.079  34.812  1.00  0.00    -0.248 NA
ATOM     49  C   UNL A   1      38.080  33.641  35.239  1.00  0.00     0.031 C 
ATOM     50  C   UNL A   1      37.760  31.019  30.945  1.00  0.00     0.029 A 
ATOM     51  N   UNL A   1      39.456  30.537  32.319  1.00  0.00    -0.354 N 
ATOM     52  C   UNL A   1      40.038  32.746  35.999  1.00  0.00     0.074 A 
ATOM     53  C   UNL A   1      39.008  33.744  36.177  1.00  0.00     0.031 C 
ATOM     54  C   UNL A   1      38.492  30.057  30.359  1.00  0.00     0.029 A 
ATOM     55  C   UNL A   1      39.630  29.737  31.213  1.00  0.00     0.049 A 
ATOM     56  H   UNL A   1      40.062  30.522  33.095  1.00  0.00     0.167 HD
ATOM     57  C   UNL A   1      41.040  32.524  36.883  1.00  0.00     0.034 A 
ATOM     58  C   UNL A   1      40.605  28.856  30.918  1.00  0.00     0.034 A 
ATOM     59  C   UNL A   1      42.045  31.510  36.717  1.00  0.00     0.049 A 
ATOM     60  C   UNL A   1      41.705  28.628  31.921  1.00  0.00     0.074 A 
ATOM     61  C   UNL A   1      43.076  31.170  37.574  1.00  0.00     0.029 A 
ATOM     62  N   UNL A   1      42.142  30.669  35.619  1.00  0.00    -0.354 N 
ATOM     63  N   UNL A   1      41.881  29.182  33.096  1.00  0.00    -0.248 NA
ATOM     64  C   UNL A   1      42.722  27.624  31.575  1.00  0.00     0.031 C 
ATOM     65  C   UNL A   1      43.812  30.138  36.984  1.00  0.00     0.029 A 
ATOM     66  C   UNL A   1      43.214  29.808  35.778  1.00  0.00     0.049 A 
ATOM     67  H   UNL A   1      41.540  30.683  34.842  1.00  0.00     0.167 HD
ATOM     68  C   UNL A   1      42.992  28.557  33.650  1.00  0.00     0.074 A 
ATOM     69  C   UNL A   1      43.438  27.570  32.688  1.00  0.00     0.031 C 
ATOM     70  C   UNL A   1      43.600  28.786  34.841  1.00  0.00     0.034 A 
BRANCH  57  71
ATOM     71  C   UNL A   1      41.061  33.352  38.143  1.00  0.00     0.023 A 
ATOM     72  C   UNL A   1      40.393  32.880  39.292  1.00  0.00     0.012 A 
ATOM     73  C   UNL A   1      41.789  34.556  38.216  1.00  0.00     0.148 A 
ATOM     74  C   UNL A   1      40.418  33.608  40.481  1.00  0.00     0.002 A 
ATOM     75  C   UNL A   1      41.850  35.252  39.418  1.00  0.00     0.091 A 
ATOM     76  F   UNL A   1      42.406  34.997  37.110  1.00  0.00    -0.205 F 
ATOM     77  C   UNL A   1      41.154  34.786  40.546  1.00  0.00     0.022 A 
BRANCH  75  78
ATOM     78  S   UNL A   1      42.835  36.738  39.635  1.00  0.00     0.127 S 
ATOM     79  O   UNL A   1      43.941  36.498  38.708  1.00  0.00    -0.237 OA
ATOM     80  O   UNL A   1      41.905  37.786  39.216  1.00  0.00    -0.237 OA
ATOM     81  O   UNL A   1      43.205  36.776  41.043  1.00  0.00    -0.744 OA
ENDBRANCH  75  78
ENDBRANCH  57  71
BRANCH  58  82
ATOM     82  C   UNL A   1      40.571  28.079  29.644  1.00  0.00     0.023 A 
ATOM     83  C   UNL A   1      39.648  27.024  29.498  1.00  0.00     0.012 A 
ATOM     84  C   UNL A   1      41.456  28.363  28.586  1.00  0.00     0.148 A 
ATOM     85  C   UNL A   1      39.647  26.229  28.352  1.00  0.00     0.002 A 
ATOM     86  C   UNL A   1      41.409  27.605  27.422  1.00  0.00     0.091 A 
ATOM     87  F   UNL A   1      42.333  29.365  28.742  1.00  0.00    -0.205 F 
ATOM     88  C   UNL A   1      40.523  26.523  27.311  1.00  0.00     0.022 A 
BRANCH  86  89
ATOM     89  S   UNL A   1      42.409  27.996  25.982  1.00  0.00     0.127 S 
ATOM     90  O   UNL A   1      43.761  27.768  26.484  1.00  0.00    -0.237 OA
ATOM     91  O   UNL A   1      41.938  27.010  25.008  1.00  0.00    -0.237 OA
ATOM     92  O   UNL A   1      42.080  29.374  25.640  1.00  0.00    -0.744 OA
ENDBRANCH  86  89
ENDBRANCH  58  82
BRANCH  70  93
ATOM     93  C   UNL A   1      44.765  27.906  35.210  1.00  0.00     0.023 A 
ATOM     94  C   UNL A   1      46.081  28.305  34.910  1.00  0.00     0.012 A 
ATOM     95  C   UNL A   1      44.550  26.707  35.919  1.00  0.00     0.148 A 
ATOM     96  C   UNL A   1      47.164  27.504  35.273  1.00  0.00     0.002 A 
ATOM     97  C   UNL A   1      45.634  25.943  36.327  1.00  0.00     0.091 A 
ATOM     98  F   UNL A   1      43.287  26.336  36.180  1.00  0.00    -0.205 F 
ATOM     99  C   UNL A   1      46.942  26.332  35.991  1.00  0.00     0.022 A 
BRANCH  97 100
ATOM    100  S   UNL A   1      45.452  24.474  37.343  1.00  0.00     0.127 S 
ATOM    101  O   UNL A   1      44.837  23.537  36.404  1.00  0.00    -0.237 OA
ATOM    102  O   UNL A   1      46.839  24.166  37.692  1.00  0.00    -0.237 OA
ATOM    103  O   UNL A   1      44.616  24.864  38.471  1.00  0.00    -0.744 OA
ENDBRANCH  97 100
ENDBRANCH  70  93
ENDBRANCH  44  45
ENDBRANCH  36  39
ENDBRANCH  34  35
ENDBRANCH  33  34
ENDBRANCH  32  33
ENDBRANCH  31  32
ENDBRANCH   1  31
TORSDOF 22
ENDMDL
