MODEL 1
REMARK VINA RESULT:     -10.6      0.000      0.000
REMARK SMILES O=C(CCCN1C(=O)/C(=C/c2cc(Br)ccc2O)SC1=S)NCCCCCCNC(=O)c1ccc(-c2c3nc(c(-c4cccc(S(=O)(=O)[O-])c4F)c4ccc([nH]4)c(-c4cccc(S(=O)(=O)[O-])c4F)c4nc(c(-c5cccc(S(=O)(=O)[O-])c5F)c5ccc2[nH]5)C=C4)C=C3)cc1
REMARK SMILES IDX 24 1 23 2 22 3 1 4 2 5 3 7 4 8 5 9 6 10 7 11 20 12 8 13 9 14
REMARK SMILES IDX 19 15 21 16 10 17 11 18 12 19 17 20 13 21 16 22 14 23 15 24
REMARK SMILES IDX 18 25 25 27 26 28 27 29 28 30 29 31 30 32 31 34 32 35 33 36
REMARK SMILES IDX 94 37 34 38 93 39 35 40 36 41 37 42 87 43 38 44 92 45 86 46
REMARK SMILES IDX 88 47 39 48 91 49 85 50 84 51 40 53 72 54 52 55 71 56 53 57
REMARK SMILES IDX 56 58 70 59 89 60 54 61 55 62 69 64 90 65 57 66 41 67 42 68
REMARK SMILES IDX 50 69 43 70 45 71 51 72 44 73 46 74 47 75 48 76 49 77 73 78
REMARK SMILES IDX 74 79 82 80 75 81 77 82 83 83 76 84 78 85 79 86 80 87 81 88
REMARK SMILES IDX 58 89 59 90 67 91 60 92 62 93 68 94 61 95 63 96 64 97 65 98
REMARK SMILES IDX 66 99
REMARK H PARENT 22 6 18 26 29 33 88 52 56 63
REMARK Flexibility Score: inf
ROOT
ATOM      1  C   UNL A   1      35.675  30.604  27.884  1.00  0.00     0.021 C 
ENDROOT
BRANCH   1   2
ATOM      2  C   UNL A   1      34.817  29.384  27.545  1.00  0.00     0.116 C 
BRANCH   2   3
ATOM      3  N   UNL A   1      34.553  29.293  26.121  1.00  0.00    -0.356 N 
ATOM      4  O   UNL A   1      32.327  29.847  26.245  1.00  0.00    -0.275 OA
ATOM      5  C   UNL A   1      33.311  29.524  25.587  1.00  0.00     0.220 C 
ATOM      6  H   UNL A   1      35.293  29.056  25.516  1.00  0.00     0.163 HD
BRANCH   5   7
ATOM      7  C   UNL A   1      33.220  29.313  24.092  1.00  0.00     0.102 C 
BRANCH   7   8
ATOM      8  C   UNL A   1      31.823  28.926  23.612  1.00  0.00     0.032 C 
BRANCH   8   9
ATOM      9  C   UNL A   1      31.715  27.620  22.811  1.00  0.00     0.128 C 
BRANCH   9  10
ATOM     10  N   UNL A   1      32.290  26.432  23.455  1.00  0.00    -0.293 N 
ATOM     11  C   UNL A   1      33.244  25.704  22.764  1.00  0.00     0.266 C 
ATOM     12  C   UNL A   1      31.893  25.900  24.664  1.00  0.00     0.148 C 
ATOM     13  O   UNL A   1      33.651  25.961  21.641  1.00  0.00    -0.268 OA
ATOM     14  C   UNL A   1      33.713  24.544  23.565  1.00  0.00     0.081 C 
ATOM     15  S   UNL A   1      32.935  24.552  25.096  1.00  0.00    -0.054 SA
ATOM     16  S   UNL A   1      30.634  26.377  25.650  1.00  0.00    -0.052 S 
ATOM     17  C   UNL A   1      34.601  23.655  23.094  1.00  0.00     0.033 C 
BRANCH  17  18
ATOM     18  C   UNL A   1      35.051  22.463  23.828  1.00  0.00     0.019 A 
ATOM     19  C   UNL A   1      34.134  21.438  24.094  1.00  0.00     0.027 A 
ATOM     20  C   UNL A   1      36.381  22.312  24.250  1.00  0.00     0.122 A 
ATOM     21  C   UNL A   1      34.562  20.272  24.731  1.00  0.00     0.018 A 
ATOM     22  C   UNL A   1      36.809  21.141  24.879  1.00  0.00     0.048 A 
ATOM     23  Br  UNL A   1      33.329  18.878  25.069  1.00  0.00    -0.051 Br
ATOM     24  C   UNL A   1      35.894  20.114  25.113  1.00  0.00     0.019 A 
BRANCH  20  25
ATOM     25  O   UNL A   1      37.270  23.332  24.038  1.00  0.00    -0.507 OA
ATOM     26  H   UNL A   1      37.914  23.534  24.688  1.00  0.00     0.293 HD
ENDBRANCH  20  25
ENDBRANCH  17  18
ENDBRANCH   9  10
ENDBRANCH   8   9
ENDBRANCH   7   8
ENDBRANCH   5   7
ENDBRANCH   2   3
ENDBRANCH   1   2
BRANCH   1  27
ATOM     27  C   UNL A   1      34.908  31.926  27.992  1.00  0.00     0.002 C 
BRANCH  27  28
ATOM     28  C   UNL A   1      35.755  33.147  28.364  1.00  0.00     0.002 C 
BRANCH  28  29
ATOM     29  C   UNL A   1      34.957  34.410  28.682  1.00  0.00     0.021 C 
BRANCH  29  30
ATOM     30  C   UNL A   1      33.521  34.153  29.125  1.00  0.00     0.116 C 
BRANCH  30  31
ATOM     31  N   UNL A   1      33.036  35.157  30.063  1.00  0.00    -0.352 N 
ATOM     32  C   UNL A   1      33.427  35.376  31.361  1.00  0.00     0.251 C 
ATOM     33  H   UNL A   1      32.336  35.758  29.719  1.00  0.00     0.163 HD
ATOM     34  O   UNL A   1      32.816  36.174  32.066  1.00  0.00    -0.269 OA
BRANCH  32  35
ATOM     35  C   UNL A   1      34.570  34.618  31.912  1.00  0.00     0.039 A 
ATOM     36  C   UNL A   1      34.399  33.268  32.227  1.00  0.00     0.014 A 
ATOM     37  C   UNL A   1      35.814  35.231  32.085  1.00  0.00     0.014 A 
ATOM     38  C   UNL A   1      35.495  32.517  32.660  1.00  0.00     0.010 A 
ATOM     39  C   UNL A   1      36.918  34.464  32.443  1.00  0.00     0.010 A 
ATOM     40  C   UNL A   1      36.770  33.101  32.739  1.00  0.00    -0.014 A 
BRANCH  40  41
ATOM     41  C   UNL A   1      37.964  32.300  33.113  1.00  0.00     0.031 A 
ATOM     42  C   UNL A   1      38.708  32.596  34.386  1.00  0.00     0.074 A 
ATOM     43  C   UNL A   1      38.434  31.368  32.260  1.00  0.00     0.049 A 
ATOM     44  N   UNL A   1      39.798  32.043  34.852  1.00  0.00    -0.248 NA
ATOM     45  C   UNL A   1      38.177  33.677  35.232  1.00  0.00     0.031 C 
ATOM     46  C   UNL A   1      37.853  31.048  30.955  1.00  0.00     0.029 A 
ATOM     47  N   UNL A   1      39.525  30.541  32.350  1.00  0.00    -0.354 N 
ATOM     48  C   UNL A   1      40.103  32.729  36.021  1.00  0.00     0.074 A 
ATOM     49  C   UNL A   1      39.105  33.764  36.174  1.00  0.00     0.031 C 
ATOM     50  C   UNL A   1      38.592  30.094  30.367  1.00  0.00     0.029 A 
ATOM     51  C   UNL A   1      39.714  29.755  31.237  1.00  0.00     0.049 A 
ATOM     52  H   UNL A   1      40.118  30.513  33.136  1.00  0.00     0.167 HD
ATOM     53  C   UNL A   1      41.105  32.499  36.904  1.00  0.00     0.034 A 
ATOM     54  C   UNL A   1      40.683  28.866  30.946  1.00  0.00     0.034 A 
ATOM     55  C   UNL A   1      42.074  31.445  36.767  1.00  0.00     0.049 A 
ATOM     56  C   UNL A   1      41.761  28.597  31.961  1.00  0.00     0.074 A 
ATOM     57  C   UNL A   1      43.067  31.069  37.653  1.00  0.00     0.029 A 
ATOM     58  N   UNL A   1      42.179  30.607  35.668  1.00  0.00    -0.354 N 
ATOM     59  N   UNL A   1      41.934  29.140  33.142  1.00  0.00    -0.248 NA
ATOM     60  C   UNL A   1      42.753  27.567  31.621  1.00  0.00     0.031 C 
ATOM     61  C   UNL A   1      43.793  30.020  37.076  1.00  0.00     0.029 A 
ATOM     62  C   UNL A   1      43.230  29.722  35.846  1.00  0.00     0.049 A 
ATOM     63  H   UNL A   1      41.594  30.635  34.878  1.00  0.00     0.167 HD
ATOM     64  C   UNL A   1      43.033  28.496  33.700  1.00  0.00     0.074 A 
ATOM     65  C   UNL A   1      43.471  27.508  32.735  1.00  0.00     0.031 C 
ATOM     66  C   UNL A   1      43.630  28.712  34.899  1.00  0.00     0.034 A 
BRANCH  53  67
ATOM     67  C   UNL A   1      41.172  33.384  38.124  1.00  0.00     0.023 A 
ATOM     68  C   UNL A   1      40.401  33.063  39.260  1.00  0.00     0.012 A 
ATOM     69  C   UNL A   1      42.021  34.507  38.162  1.00  0.00     0.148 A 
ATOM     70  C   UNL A   1      40.437  33.870  40.397  1.00  0.00     0.002 A 
ATOM     71  C   UNL A   1      42.087  35.280  39.316  1.00  0.00     0.091 A 
ATOM     72  F   UNL A   1      42.731  34.812  37.066  1.00  0.00    -0.205 F 
ATOM     73  C   UNL A   1      41.286  34.972  40.428  1.00  0.00     0.022 A 
BRANCH  71  74
ATOM     74  S   UNL A   1      43.212  36.671  39.484  1.00  0.00     0.127 S 
ATOM     75  O   UNL A   1      42.705  37.585  38.462  1.00  0.00    -0.237 OA
ATOM     76  O   UNL A   1      42.969  37.100  40.862  1.00  0.00    -0.237 OA
ATOM     77  O   UNL A   1      44.546  36.137  39.244  1.00  0.00    -0.744 OA
ENDBRANCH  71  74
ENDBRANCH  53  67
BRANCH  54  78
ATOM     78  C   UNL A   1      40.633  28.117  29.658  1.00  0.00     0.023 A 
ATOM     79  C   UNL A   1      39.599  27.187  29.438  1.00  0.00     0.012 A 
ATOM     80  C   UNL A   1      41.570  28.359  28.635  1.00  0.00     0.148 A 
ATOM     81  C   UNL A   1      39.513  26.492  28.232  1.00  0.00     0.002 A 
ATOM     82  C   UNL A   1      41.446  27.704  27.415  1.00  0.00     0.091 A 
ATOM     83  F   UNL A   1      42.551  29.243  28.869  1.00  0.00    -0.205 F 
ATOM     84  C   UNL A   1      40.429  26.758  27.218  1.00  0.00     0.022 A 
BRANCH  82  85
ATOM     85  S   UNL A   1      42.495  28.079  26.006  1.00  0.00     0.127 S 
ATOM     86  O   UNL A   1      41.924  27.221  24.971  1.00  0.00    -0.237 OA
ATOM     87  O   UNL A   1      42.251  29.510  25.824  1.00  0.00    -0.237 OA
ATOM     88  O   UNL A   1      43.851  27.747  26.422  1.00  0.00    -0.744 OA
ENDBRANCH  82  85
ENDBRANCH  54  78
BRANCH  66  89
ATOM     89  C   UNL A   1      44.808  27.845  35.259  1.00  0.00     0.023 A 
ATOM     90  C   UNL A   1      46.118  28.304  35.019  1.00  0.00     0.012 A 
ATOM     91  C   UNL A   1      44.616  26.608  35.906  1.00  0.00     0.148 A 
ATOM     92  C   UNL A   1      47.219  27.531  35.390  1.00  0.00     0.002 A 
ATOM     93  C   UNL A   1      45.718  25.867  36.318  1.00  0.00     0.091 A 
ATOM     94  F   UNL A   1      43.362  26.180  36.110  1.00  0.00    -0.205 F 
ATOM     95  C   UNL A   1      47.020  26.320  36.049  1.00  0.00     0.022 A 
BRANCH  93  96
ATOM     96  S   UNL A   1      45.558  24.345  37.259  1.00  0.00     0.127 S 
ATOM     97  O   UNL A   1      44.835  23.489  36.321  1.00  0.00    -0.237 OA
ATOM     98  O   UNL A   1      46.956  23.967  37.478  1.00  0.00    -0.237 OA
ATOM     99  O   UNL A   1      44.832  24.697  38.472  1.00  0.00    -0.744 OA
ENDBRANCH  93  96
ENDBRANCH  66  89
ENDBRANCH  40  41
ENDBRANCH  32  35
ENDBRANCH  30  31
ENDBRANCH  29  30
ENDBRANCH  28  29
ENDBRANCH  27  28
ENDBRANCH   1  27
TORSDOF 21
ENDMDL
MODEL 2
REMARK VINA RESULT:     -10.5      6.055     10.403
REMARK SMILES O=C(CCCN1C(=O)/C(=C/c2cc(Br)ccc2O)SC1=S)NCCCCCCNC(=O)c1ccc(-c2c3nc(c(-c4cccc(S(=O)(=O)[O-])c4F)c4ccc([nH]4)c(-c4cccc(S(=O)(=O)[O-])c4F)c4nc(c(-c5cccc(S(=O)(=O)[O-])c5F)c5ccc2[nH]5)C=C4)C=C3)cc1
REMARK SMILES IDX 24 1 23 2 22 3 1 4 2 5 3 7 4 8 5 9 6 10 7 11 20 12 8 13 9 14
REMARK SMILES IDX 19 15 21 16 10 17 11 18 12 19 17 20 13 21 16 22 14 23 15 24
REMARK SMILES IDX 18 25 25 27 26 28 27 29 28 30 29 31 30 32 31 34 32 35 33 36
REMARK SMILES IDX 94 37 34 38 93 39 35 40 36 41 37 42 87 43 38 44 92 45 86 46
REMARK SMILES IDX 88 47 39 48 91 49 85 50 84 51 40 53 72 54 52 55 71 56 53 57
REMARK SMILES IDX 56 58 70 59 89 60 54 61 55 62 69 64 90 65 57 66 41 67 42 68
REMARK SMILES IDX 50 69 43 70 45 71 51 72 44 73 46 74 47 75 48 76 49 77 73 78
REMARK SMILES IDX 74 79 82 80 75 81 77 82 83 83 76 84 78 85 79 86 80 87 81 88
REMARK SMILES IDX 58 89 59 90 67 91 60 92 62 93 68 94 61 95 63 96 64 97 65 98
REMARK SMILES IDX 66 99
REMARK H PARENT 22 6 18 26 29 33 88 52 56 63
REMARK Flexibility Score: inf
ROOT
ATOM      1  C   UNL A   1      35.225  23.803  25.452  1.00  0.00     0.021 C 
ENDROOT
BRANCH   1   2
ATOM      2  C   UNL A   1      35.022  25.299  25.211  1.00  0.00     0.116 C 
BRANCH   2   3
ATOM      3  N   UNL A   1      33.713  25.742  25.653  1.00  0.00    -0.356 N 
ATOM      4  O   UNL A   1      34.156  27.992  25.528  1.00  0.00    -0.275 OA
ATOM      5  C   UNL A   1      33.391  27.069  25.786  1.00  0.00     0.220 C 
ATOM      6  H   UNL A   1      33.030  25.064  25.865  1.00  0.00     0.163 HD
BRANCH   5   7
ATOM      7  C   UNL A   1      32.001  27.328  26.324  1.00  0.00     0.102 C 
BRANCH   7   8
ATOM      8  C   UNL A   1      30.965  27.601  25.237  1.00  0.00     0.032 C 
BRANCH   8   9
ATOM      9  C   UNL A   1      30.045  26.429  24.862  1.00  0.00     0.128 C 
BRANCH   9  10
ATOM     10  N   UNL A   1      30.725  25.178  24.505  1.00  0.00    -0.293 N 
ATOM     11  C   UNL A   1      30.793  24.171  25.453  1.00  0.00     0.266 C 
ATOM     12  C   UNL A   1      31.405  24.939  23.329  1.00  0.00     0.148 C 
ATOM     13  O   UNL A   1      30.337  24.235  26.585  1.00  0.00    -0.268 OA
ATOM     14  C   UNL A   1      31.511  22.985  24.920  1.00  0.00     0.081 C 
ATOM     15  S   UNL A   1      31.957  23.271  23.286  1.00  0.00    -0.054 SA
ATOM     16  S   UNL A   1      31.719  25.992  22.074  1.00  0.00    -0.052 S 
ATOM     17  C   UNL A   1      31.752  21.894  25.663  1.00  0.00     0.033 C 
BRANCH  17  18
ATOM     18  C   UNL A   1      32.507  20.722  25.196  1.00  0.00     0.019 A 
ATOM     19  C   UNL A   1      32.067  20.034  24.058  1.00  0.00     0.027 A 
ATOM     20  C   UNL A   1      33.672  20.285  25.847  1.00  0.00     0.122 A 
ATOM     21  C   UNL A   1      32.810  18.959  23.565  1.00  0.00     0.018 A 
ATOM     22  C   UNL A   1      34.418  19.216  25.348  1.00  0.00     0.048 A 
ATOM     23  Br  UNL A   1      32.229  18.046  22.015  1.00  0.00    -0.051 Br
ATOM     24  C   UNL A   1      33.987  18.556  24.197  1.00  0.00     0.019 A 
BRANCH  20  25
ATOM     25  O   UNL A   1      34.079  20.921  26.990  1.00  0.00    -0.507 OA
ATOM     26  H   UNL A   1      34.778  20.563  27.501  1.00  0.00     0.293 HD
ENDBRANCH  20  25
ENDBRANCH  17  18
ENDBRANCH   9  10
ENDBRANCH   8   9
ENDBRANCH   7   8
ENDBRANCH   5   7
ENDBRANCH   2   3
ENDBRANCH   1   2
BRANCH   1  27
ATOM     27  C   UNL A   1      35.411  22.963  24.184  1.00  0.00     0.002 C 
BRANCH  27  28
ATOM     28  C   UNL A   1      36.861  22.598  23.847  1.00  0.00     0.002 C 
BRANCH  28  29
ATOM     29  C   UNL A   1      37.383  21.340  24.540  1.00  0.00     0.021 C 
BRANCH  29  30
ATOM     30  C   UNL A   1      38.317  21.609  25.715  1.00  0.00     0.116 C 
BRANCH  30  31
ATOM     31  N   UNL A   1      39.270  20.529  25.932  1.00  0.00    -0.352 N 
ATOM     32  C   UNL A   1      40.584  20.613  26.321  1.00  0.00     0.251 C 
ATOM     33  H   UNL A   1      38.925  19.620  25.783  1.00  0.00     0.163 HD
ATOM     34  O   UNL A   1      41.295  19.611  26.321  1.00  0.00    -0.269 OA
BRANCH  32  35
ATOM     35  C   UNL A   1      41.144  21.925  26.708  1.00  0.00     0.039 A 
ATOM     36  C   UNL A   1      41.573  22.800  25.707  1.00  0.00     0.014 A 
ATOM     37  C   UNL A   1      41.215  22.301  28.052  1.00  0.00     0.014 A 
ATOM     38  C   UNL A   1      42.017  24.079  26.053  1.00  0.00     0.010 A 
ATOM     39  C   UNL A   1      41.586  23.599  28.387  1.00  0.00     0.010 A 
ATOM     40  C   UNL A   1      41.995  24.501  27.393  1.00  0.00    -0.014 A 
BRANCH  40  41
ATOM     41  C   UNL A   1      42.381  25.883  27.774  1.00  0.00     0.031 A 
ATOM     42  C   UNL A   1      43.815  26.325  27.678  1.00  0.00     0.074 A 
ATOM     43  C   UNL A   1      41.455  26.712  28.295  1.00  0.00     0.049 A 
ATOM     44  N   UNL A   1      44.349  27.471  28.014  1.00  0.00    -0.248 NA
ATOM     45  C   UNL A   1      44.783  25.341  27.167  1.00  0.00     0.031 C 
ATOM     46  C   UNL A   1      40.048  26.373  28.522  1.00  0.00     0.029 A 
ATOM     47  N   UNL A   1      41.564  27.999  28.758  1.00  0.00    -0.354 N 
ATOM     48  C   UNL A   1      45.714  27.335  27.792  1.00  0.00     0.074 A 
ATOM     49  C   UNL A   1      45.931  25.982  27.327  1.00  0.00     0.031 C 
ATOM     50  C   UNL A   1      39.427  27.424  29.078  1.00  0.00     0.029 A 
ATOM     51  C   UNL A   1      40.392  28.501  29.275  1.00  0.00     0.049 A 
ATOM     52  H   UNL A   1      42.402  28.516  28.723  1.00  0.00     0.167 HD
ATOM     53  C   UNL A   1      46.694  28.259  27.931  1.00  0.00     0.034 A 
ATOM     54  C   UNL A   1      40.126  29.690  29.850  1.00  0.00     0.034 A 
ATOM     55  C   UNL A   1      46.469  29.614  28.358  1.00  0.00     0.049 A 
ATOM     56  C   UNL A   1      41.221  30.716  29.954  1.00  0.00     0.074 A 
ATOM     57  C   UNL A   1      47.378  30.653  28.440  1.00  0.00     0.029 A 
ATOM     58  N   UNL A   1      45.250  30.114  28.788  1.00  0.00    -0.354 N 
ATOM     59  N   UNL A   1      42.473  30.625  29.579  1.00  0.00    -0.248 NA
ATOM     60  C   UNL A   1      40.857  32.021  30.525  1.00  0.00     0.031 C 
ATOM     61  C   UNL A   1      46.714  31.776  28.947  1.00  0.00     0.029 A 
ATOM     62  C   UNL A   1      45.385  31.445  29.150  1.00  0.00     0.049 A 
ATOM     63  H   UNL A   1      44.411  29.600  28.831  1.00  0.00     0.167 HD
ATOM     64  C   UNL A   1      43.040  31.868  29.836  1.00  0.00     0.074 A 
ATOM     65  C   UNL A   1      41.987  32.701  30.382  1.00  0.00     0.031 C 
ATOM     66  C   UNL A   1      44.319  32.278  29.648  1.00  0.00     0.034 A 
BRANCH  53  67
ATOM     67  C   UNL A   1      48.099  27.842  27.573  1.00  0.00     0.023 A 
ATOM     68  C   UNL A   1      48.975  27.402  28.587  1.00  0.00     0.012 A 
ATOM     69  C   UNL A   1      48.541  27.849  26.236  1.00  0.00     0.148 A 
ATOM     70  C   UNL A   1      50.281  27.021  28.285  1.00  0.00     0.002 A 
ATOM     71  C   UNL A   1      49.830  27.422  25.936  1.00  0.00     0.091 A 
ATOM     72  F   UNL A   1      47.705  28.291  25.286  1.00  0.00    -0.205 F 
ATOM     73  C   UNL A   1      50.706  27.023  26.959  1.00  0.00     0.022 A 
BRANCH  71  74
ATOM     74  S   UNL A   1      50.442  27.309  24.251  1.00  0.00     0.127 S 
ATOM     75  O   UNL A   1      49.368  26.563  23.596  1.00  0.00    -0.237 OA
ATOM     76  O   UNL A   1      50.533  28.717  23.859  1.00  0.00    -0.237 OA
ATOM     77  O   UNL A   1      51.722  26.621  24.336  1.00  0.00    -0.744 OA
ENDBRANCH  71  74
ENDBRANCH  53  67
BRANCH  54  78
ATOM     78  C   UNL A   1      38.739  29.991  30.307  1.00  0.00     0.023 A 
ATOM     79  C   UNL A   1      38.346  29.629  31.609  1.00  0.00     0.012 A 
ATOM     80  C   UNL A   1      37.830  30.678  29.480  1.00  0.00     0.148 A 
ATOM     81  C   UNL A   1      37.063  29.923  32.072  1.00  0.00     0.002 A 
ATOM     82  C   UNL A   1      36.573  31.017  29.966  1.00  0.00     0.091 A 
ATOM     83  F   UNL A   1      38.224  31.007  28.241  1.00  0.00    -0.205 F 
ATOM     84  C   UNL A   1      36.181  30.625  31.255  1.00  0.00     0.022 A 
BRANCH  82  85
ATOM     85  S   UNL A   1      35.420  32.037  29.038  1.00  0.00     0.127 S 
ATOM     86  O   UNL A   1      34.370  32.274  30.025  1.00  0.00    -0.237 OA
ATOM     87  O   UNL A   1      36.243  33.203  28.719  1.00  0.00    -0.237 OA
ATOM     88  O   UNL A   1      35.030  31.240  27.882  1.00  0.00    -0.744 OA
ENDBRANCH  82  85
ENDBRANCH  54  78
BRANCH  66  89
ATOM     89  C   UNL A   1      44.656  33.703  30.003  1.00  0.00     0.023 A 
ATOM     90  C   UNL A   1      45.114  34.016  31.298  1.00  0.00     0.012 A 
ATOM     91  C   UNL A   1      44.592  34.718  29.028  1.00  0.00     0.148 A 
ATOM     92  C   UNL A   1      45.473  35.324  31.627  1.00  0.00     0.002 A 
ATOM     93  C   UNL A   1      44.999  36.008  29.348  1.00  0.00     0.091 A 
ATOM     94  F   UNL A   1      44.137  34.405  27.807  1.00  0.00    -0.205 F 
ATOM     95  C   UNL A   1      45.427  36.316  30.650  1.00  0.00     0.022 A 
BRANCH  93  96
ATOM     96  S   UNL A   1      45.068  37.327  28.130  1.00  0.00     0.127 S 
ATOM     97  O   UNL A   1      43.661  37.462  27.757  1.00  0.00    -0.237 OA
ATOM     98  O   UNL A   1      45.602  38.444  28.911  1.00  0.00    -0.237 OA
ATOM     99  O   UNL A   1      45.951  36.853  27.074  1.00  0.00    -0.744 OA
ENDBRANCH  93  96
ENDBRANCH  66  89
ENDBRANCH  40  41
ENDBRANCH  32  35
ENDBRANCH  30  31
ENDBRANCH  29  30
ENDBRANCH  28  29
ENDBRANCH  27  28
ENDBRANCH   1  27
TORSDOF 21
ENDMDL
MODEL 3
REMARK VINA RESULT:     -10.4      5.828      9.643
REMARK SMILES O=C(CCCN1C(=O)/C(=C/c2cc(Br)ccc2O)SC1=S)NCCCCCCNC(=O)c1ccc(-c2c3nc(c(-c4cccc(S(=O)(=O)[O-])c4F)c4ccc([nH]4)c(-c4cccc(S(=O)(=O)[O-])c4F)c4nc(c(-c5cccc(S(=O)(=O)[O-])c5F)c5ccc2[nH]5)C=C4)C=C3)cc1
REMARK SMILES IDX 24 1 23 2 22 3 1 4 2 5 3 7 4 8 5 9 6 10 7 11 20 12 8 13 9 14
REMARK SMILES IDX 19 15 21 16 10 17 11 18 12 19 17 20 13 21 16 22 14 23 15 24
REMARK SMILES IDX 18 25 25 27 26 28 27 29 28 30 29 31 30 32 31 34 32 35 33 36
REMARK SMILES IDX 94 37 34 38 93 39 35 40 36 41 37 42 87 43 38 44 92 45 86 46
REMARK SMILES IDX 88 47 39 48 91 49 85 50 84 51 40 53 72 54 52 55 71 56 53 57
REMARK SMILES IDX 56 58 70 59 89 60 54 61 55 62 69 64 90 65 57 66 41 67 42 68
REMARK SMILES IDX 50 69 43 70 45 71 51 72 44 73 46 74 47 75 48 76 49 77 73 78
REMARK SMILES IDX 74 79 82 80 75 81 77 82 83 83 76 84 78 85 79 86 80 87 81 88
REMARK SMILES IDX 58 89 59 90 67 91 60 92 62 93 68 94 61 95 63 96 64 97 65 98
REMARK SMILES IDX 66 99
REMARK H PARENT 22 6 18 26 29 33 88 52 56 63
REMARK Flexibility Score: inf
ROOT
ATOM      1  C   UNL A   1      35.059  23.198  25.516  1.00  0.00     0.021 C 
ENDROOT
BRANCH   1   2
ATOM      2  C   UNL A   1      35.137  24.713  25.327  1.00  0.00     0.116 C 
BRANCH   2   3
ATOM      3  N   UNL A   1      33.970  25.384  25.870  1.00  0.00    -0.356 N 
ATOM      4  O   UNL A   1      34.126  27.259  24.554  1.00  0.00    -0.275 OA
ATOM      5  C   UNL A   1      33.566  26.621  25.438  1.00  0.00     0.220 C 
ATOM      6  H   UNL A   1      33.449  24.933  26.574  1.00  0.00     0.163 HD
BRANCH   5   7
ATOM      7  C   UNL A   1      32.369  27.183  26.173  1.00  0.00     0.102 C 
BRANCH   7   8
ATOM      8  C   UNL A   1      31.217  27.581  25.253  1.00  0.00     0.032 C 
BRANCH   8   9
ATOM      9  C   UNL A   1      30.197  26.480  24.924  1.00  0.00     0.128 C 
BRANCH   9  10
ATOM     10  N   UNL A   1      30.766  25.189  24.516  1.00  0.00    -0.293 N 
ATOM     11  C   UNL A   1      30.818  24.167  25.450  1.00  0.00     0.266 C 
ATOM     12  C   UNL A   1      31.358  24.919  23.300  1.00  0.00     0.148 C 
ATOM     13  O   UNL A   1      30.435  24.248  26.606  1.00  0.00    -0.268 OA
ATOM     14  C   UNL A   1      31.418  22.941  24.864  1.00  0.00     0.081 C 
ATOM     15  S   UNL A   1      31.788  23.216  23.210  1.00  0.00    -0.054 SA
ATOM     16  S   UNL A   1      31.671  25.963  22.038  1.00  0.00    -0.052 S 
ATOM     17  C   UNL A   1      31.626  21.827  25.582  1.00  0.00     0.033 C 
BRANCH  17  18
ATOM     18  C   UNL A   1      32.268  20.611  25.062  1.00  0.00     0.019 A 
ATOM     19  C   UNL A   1      31.942  20.163  23.775  1.00  0.00     0.027 A 
ATOM     20  C   UNL A   1      33.219  19.898  25.810  1.00  0.00     0.122 A 
ATOM     21  C   UNL A   1      32.593  19.048  23.243  1.00  0.00     0.018 A 
ATOM     22  C   UNL A   1      33.874  18.789  25.273  1.00  0.00     0.048 A 
ATOM     23  Br  UNL A   1      32.169  18.457  21.497  1.00  0.00    -0.051 Br
ATOM     24  C   UNL A   1      33.563  18.368  23.980  1.00  0.00     0.019 A 
BRANCH  20  25
ATOM     25  O   UNL A   1      33.504  20.301  27.088  1.00  0.00    -0.507 OA
ATOM     26  H   UNL A   1      32.821  20.635  27.637  1.00  0.00     0.293 HD
ENDBRANCH  20  25
ENDBRANCH  17  18
ENDBRANCH   9  10
ENDBRANCH   8   9
ENDBRANCH   7   8
ENDBRANCH   5   7
ENDBRANCH   2   3
ENDBRANCH   1   2
BRANCH   1  27
ATOM     27  C   UNL A   1      35.404  22.371  24.273  1.00  0.00     0.002 C 
BRANCH  27  28
ATOM     28  C   UNL A   1      36.899  22.129  24.042  1.00  0.00     0.002 C 
BRANCH  28  29
ATOM     29  C   UNL A   1      37.427  20.803  24.588  1.00  0.00     0.021 C 
BRANCH  29  30
ATOM     30  C   UNL A   1      38.374  20.941  25.774  1.00  0.00     0.116 C 
BRANCH  30  31
ATOM     31  N   UNL A   1      39.312  19.832  25.874  1.00  0.00    -0.352 N 
ATOM     32  C   UNL A   1      40.660  19.872  26.132  1.00  0.00     0.251 C 
ATOM     33  H   UNL A   1      38.928  18.936  25.741  1.00  0.00     0.163 HD
ATOM     34  O   UNL A   1      41.339  18.853  26.043  1.00  0.00    -0.269 OA
BRANCH  32  35
ATOM     35  C   UNL A   1      41.293  21.160  26.489  1.00  0.00     0.039 A 
ATOM     36  C   UNL A   1      41.853  21.942  25.477  1.00  0.00     0.014 A 
ATOM     37  C   UNL A   1      41.304  21.606  27.814  1.00  0.00     0.014 A 
ATOM     38  C   UNL A   1      42.370  23.203  25.786  1.00  0.00     0.010 A 
ATOM     39  C   UNL A   1      41.750  22.890  28.105  1.00  0.00     0.010 A 
ATOM     40  C   UNL A   1      42.292  23.701  27.097  1.00  0.00    -0.014 A 
BRANCH  40  41
ATOM     41  C   UNL A   1      42.757  25.072  27.431  1.00  0.00     0.031 A 
ATOM     42  C   UNL A   1      41.814  26.062  28.058  1.00  0.00     0.074 A 
ATOM     43  C   UNL A   1      44.001  25.455  27.084  1.00  0.00     0.049 A 
ATOM     44  N   UNL A   1      42.022  27.314  28.371  1.00  0.00    -0.248 NA
ATOM     45  C   UNL A   1      40.448  25.592  28.343  1.00  0.00     0.031 C 
ATOM     46  C   UNL A   1      44.982  24.616  26.391  1.00  0.00     0.029 A 
ATOM     47  N   UNL A   1      44.643  26.658  27.237  1.00  0.00    -0.354 N 
ATOM     48  C   UNL A   1      40.810  27.793  28.853  1.00  0.00     0.074 A 
ATOM     49  C   UNL A   1      39.861  26.706  28.756  1.00  0.00     0.031 C 
ATOM     50  C   UNL A   1      46.099  25.328  26.181  1.00  0.00     0.029 A 
ATOM     51  C   UNL A   1      45.908  26.680  26.696  1.00  0.00     0.049 A 
ATOM     52  H   UNL A   1      44.238  27.432  27.691  1.00  0.00     0.167 HD
ATOM     53  C   UNL A   1      40.520  29.015  29.359  1.00  0.00     0.034 A 
ATOM     54  C   UNL A   1      46.810  27.678  26.616  1.00  0.00     0.034 A 
ATOM     55  C   UNL A   1      41.476  30.082  29.487  1.00  0.00     0.049 A 
ATOM     56  C   UNL A   1      46.480  29.015  27.223  1.00  0.00     0.074 A 
ATOM     57  C   UNL A   1      41.307  31.323  30.073  1.00  0.00     0.029 A 
ATOM     58  N   UNL A   1      42.777  30.038  29.010  1.00  0.00    -0.354 N 
ATOM     59  N   UNL A   1      45.383  29.396  27.830  1.00  0.00    -0.248 NA
ATOM     60  C   UNL A   1      47.527  30.045  27.170  1.00  0.00     0.031 C 
ATOM     61  C   UNL A   1      42.499  32.042  29.925  1.00  0.00     0.029 A 
ATOM     62  C   UNL A   1      43.420  31.236  29.276  1.00  0.00     0.049 A 
ATOM     63  H   UNL A   1      43.184  29.270  28.550  1.00  0.00     0.167 HD
ATOM     64  C   UNL A   1      45.616  30.697  28.260  1.00  0.00     0.074 A 
ATOM     65  C   UNL A   1      46.969  31.031  27.861  1.00  0.00     0.031 C 
ATOM     66  C   UNL A   1      44.781  31.542  28.915  1.00  0.00     0.034 A 
BRANCH  53  67
ATOM     67  C   UNL A   1      39.114  29.247  29.854  1.00  0.00     0.023 A 
ATOM     68  C   UNL A   1      38.781  28.917  31.184  1.00  0.00     0.012 A 
ATOM     69  C   UNL A   1      38.134  29.821  29.020  1.00  0.00     0.148 A 
ATOM     70  C   UNL A   1      37.486  29.111  31.663  1.00  0.00     0.002 A 
ATOM     71  C   UNL A   1      36.858  30.056  29.520  1.00  0.00     0.091 A 
ATOM     72  F   UNL A   1      38.460  30.109  27.752  1.00  0.00    -0.205 F 
ATOM     73  C   UNL A   1      36.528  29.688  30.835  1.00  0.00     0.022 A 
BRANCH  71  74
ATOM     74  S   UNL A   1      35.579  30.871  28.558  1.00  0.00     0.127 S 
ATOM     75  O   UNL A   1      36.373  31.712  27.664  1.00  0.00    -0.237 OA
ATOM     76  O   UNL A   1      34.916  29.742  27.904  1.00  0.00    -0.237 OA
ATOM     77  O   UNL A   1      34.750  31.585  29.519  1.00  0.00    -0.744 OA
ENDBRANCH  71  74
ENDBRANCH  53  67
BRANCH  54  78
ATOM     78  C   UNL A   1      48.138  27.421  25.991  1.00  0.00     0.023 A 
ATOM     79  C   UNL A   1      49.205  26.973  26.793  1.00  0.00     0.012 A 
ATOM     80  C   UNL A   1      48.335  27.569  24.604  1.00  0.00     0.148 A 
ATOM     81  C   UNL A   1      50.452  26.700  26.230  1.00  0.00     0.002 A 
ATOM     82  C   UNL A   1      49.563  27.242  24.042  1.00  0.00     0.091 A 
ATOM     83  F   UNL A   1      47.307  28.005  23.861  1.00  0.00    -0.205 F 
ATOM     84  C   UNL A   1      50.628  26.824  24.854  1.00  0.00     0.022 A 
BRANCH  82  85
ATOM     85  S   UNL A   1      49.843  27.241  22.267  1.00  0.00     0.127 S 
ATOM     86  O   UNL A   1      49.662  28.652  21.934  1.00  0.00    -0.237 OA
ATOM     87  O   UNL A   1      51.222  26.759  22.182  1.00  0.00    -0.237 OA
ATOM     88  O   UNL A   1      48.851  26.330  21.710  1.00  0.00    -0.744 OA
ENDBRANCH  82  85
ENDBRANCH  54  78
BRANCH  66  89
ATOM     89  C   UNL A   1      45.310  32.906  29.277  1.00  0.00     0.023 A 
ATOM     90  C   UNL A   1      45.122  33.989  28.397  1.00  0.00     0.012 A 
ATOM     91  C   UNL A   1      45.924  33.128  30.526  1.00  0.00     0.148 A 
ATOM     92  C   UNL A   1      45.565  35.267  28.740  1.00  0.00     0.002 A 
ATOM     93  C   UNL A   1      46.317  34.413  30.882  1.00  0.00     0.091 A 
ATOM     94  F   UNL A   1      46.110  32.081  31.343  1.00  0.00    -0.205 F 
ATOM     95  C   UNL A   1      46.151  35.481  29.985  1.00  0.00     0.022 A 
BRANCH  93  96
ATOM     96  S   UNL A   1      46.991  34.800  32.502  1.00  0.00     0.127 S 
ATOM     97  O   UNL A   1      46.633  36.210  32.644  1.00  0.00    -0.237 OA
ATOM     98  O   UNL A   1      46.245  33.890  33.373  1.00  0.00    -0.237 OA
ATOM     99  O   UNL A   1      48.418  34.522  32.421  1.00  0.00    -0.744 OA
ENDBRANCH  93  96
ENDBRANCH  66  89
ENDBRANCH  40  41
ENDBRANCH  32  35
ENDBRANCH  30  31
ENDBRANCH  29  30
ENDBRANCH  28  29
ENDBRANCH  27  28
ENDBRANCH   1  27
TORSDOF 21
ENDMDL
