MODEL 1
REMARK VINA RESULT:     -11.5      0.000      0.000
REMARK SMILES CCOc1ccc2[nH]c(C)c/c(=N\c3cccc(C(=O)NCCCCCCNC(=O)c4ccc(-c5c6nc(c(-c7cccc(S(=O)(=O)[O-])c7F)c7ccc([nH]7)c(-c7cccc(S(=O)(=O)[O-])c7F)c7nc(c(-c8cccc(S(=O)(=O)[O-])c8F)c8ccc5[nH]8)C=C7)C=C6)cc4)c3)c2c1
REMARK SMILES IDX 24 1 23 2 22 3 21 4 19 5 20 6 18 8 14 9 15 10 94 11 16 12
REMARK SMILES IDX 17 13 13 14 4 15 5 16 96 17 6 18 95 19 7 20 12 21 8 22 11 23
REMARK SMILES IDX 9 24 10 26 3 27 2 28 1 29 25 30 26 31 27 32 28 33 29 34
REMARK SMILES IDX 30 36 31 37 32 38 93 39 33 40 92 41 34 42 35 43 36 44 86 45
REMARK SMILES IDX 37 46 91 47 85 48 87 49 38 50 90 51 84 52 83 53 39 55 71 56
REMARK SMILES IDX 51 57 70 58 52 59 55 60 69 61 88 62 53 63 54 64 68 66 89 67
REMARK SMILES IDX 56 68 40 69 41 70 49 71 42 72 44 73 50 74 43 75 45 76 46 77
REMARK SMILES IDX 47 78 48 79 72 80 73 81 81 82 74 83 76 84 82 85 75 86 77 87
REMARK SMILES IDX 78 88 79 89 80 90 57 91 58 92 66 93 59 94 61 95 67 96 60 97
REMARK SMILES IDX 62 98 63 99 64 100 65 101
REMARK H PARENT 21 7 8 25 28 35 87 54 55 65
REMARK Flexibility Score: inf
ROOT
ATOM      1  C   UNL A   1      33.409  29.131  25.923  1.00  0.00     0.002 C 
ENDROOT
BRANCH   1   2
ATOM      2  C   UNL A   1      33.081  29.246  24.434  1.00  0.00     0.021 C 
BRANCH   2   3
ATOM      3  C   UNL A   1      31.666  28.894  23.993  1.00  0.00     0.116 C 
BRANCH   3   4
ATOM      4  N   UNL A   1      31.591  27.896  22.942  1.00  0.00    -0.352 N 
ATOM      5  C   UNL A   1      31.676  26.523  22.990  1.00  0.00     0.251 C 
ATOM      6  O   UNL A   1      31.585  25.903  21.929  1.00  0.00    -0.269 OA
ATOM      7  H   UNL A   1      31.456  28.266  22.039  1.00  0.00     0.163 HD
BRANCH   5   8
ATOM      8  C   UNL A   1      31.932  25.765  24.248  1.00  0.00     0.041 A 
ATOM      9  C   UNL A   1      33.322  24.396  25.695  1.00  0.00     0.064 A 
ATOM     10  C   UNL A   1      32.250  24.227  26.575  1.00  0.00     0.028 A 
ATOM     11  C   UNL A   1      33.180  25.255  24.603  1.00  0.00     0.042 A 
ATOM     12  C   UNL A   1      31.013  24.802  26.287  1.00  0.00     0.003 A 
ATOM     13  C   UNL A   1      30.849  25.544  25.113  1.00  0.00     0.014 A 
BRANCH   9  14
ATOM     14  N   UNL A   1      34.525  23.682  25.808  1.00  0.00    -0.248 NA
ATOM     15  C   UNL A   1      38.334  21.771  25.579  1.00  0.00     0.120 A 
ATOM     16  C   UNL A   1      38.369  20.398  25.339  1.00  0.00     0.048 A 
ATOM     17  C   UNL A   1      37.117  22.450  25.626  1.00  0.00     0.059 A 
ATOM     18  C   UNL A   1      37.190  19.707  25.068  1.00  0.00     0.030 A 
ATOM     19  C   UNL A   1      35.929  21.755  25.364  1.00  0.00     0.027 A 
ATOM     20  C   UNL A   1      35.964  20.379  25.063  1.00  0.00     0.048 A 
ATOM     21  C   UNL A   1      34.602  22.458  25.360  1.00  0.00     0.075 A 
ATOM     22  N   UNL A   1      34.792  19.691  24.732  1.00  0.00    -0.359 N 
ATOM     23  C   UNL A   1      33.455  21.654  24.805  1.00  0.00     0.050 A 
ATOM     24  C   UNL A   1      33.594  20.340  24.569  1.00  0.00     0.014 A 
ATOM     25  H   UNL A   1      34.827  18.714  24.614  1.00  0.00     0.166 HD
ATOM     26  C   UNL A   1      32.427  19.510  24.112  1.00  0.00     0.064 C 
BRANCH  15  27
ATOM     27  O   UNL A   1      39.481  22.449  25.883  1.00  0.00    -0.494 OA
BRANCH  27  28
ATOM     28  C   UNL A   1      40.172  21.914  27.023  1.00  0.00     0.226 C 
ATOM     29  C   UNL A   1      41.683  22.043  26.891  1.00  0.00     0.049 C 
ENDBRANCH  27  28
ENDBRANCH  15  27
ENDBRANCH   9  14
ENDBRANCH   5   8
ENDBRANCH   3   4
ENDBRANCH   2   3
ENDBRANCH   1   2
BRANCH   1  30
ATOM     30  C   UNL A   1      32.377  29.661  26.919  1.00  0.00     0.002 C 
BRANCH  30  31
ATOM     31  C   UNL A   1      32.094  31.162  26.900  1.00  0.00     0.021 C 
BRANCH  31  32
ATOM     32  C   UNL A   1      33.255  32.078  27.262  1.00  0.00     0.116 C 
BRANCH  32  33
ATOM     33  N   UNL A   1      32.851  33.427  27.616  1.00  0.00    -0.352 N 
ATOM     34  C   UNL A   1      33.350  34.256  28.597  1.00  0.00     0.251 C 
ATOM     35  H   UNL A   1      32.116  33.802  27.079  1.00  0.00     0.163 HD
ATOM     36  O   UNL A   1      32.831  35.347  28.802  1.00  0.00    -0.269 OA
BRANCH  34  37
ATOM     37  C   UNL A   1      34.485  33.799  29.432  1.00  0.00     0.039 A 
ATOM     38  C   UNL A   1      35.798  34.153  29.115  1.00  0.00     0.014 A 
ATOM     39  C   UNL A   1      34.228  32.958  30.519  1.00  0.00     0.014 A 
ATOM     40  C   UNL A   1      36.857  33.529  29.769  1.00  0.00     0.010 A 
ATOM     41  C   UNL A   1      35.294  32.392  31.225  1.00  0.00     0.010 A 
ATOM     42  C   UNL A   1      36.617  32.628  30.820  1.00  0.00    -0.014 A 
BRANCH  42  43
ATOM     43  C   UNL A   1      37.760  31.944  31.482  1.00  0.00     0.031 A 
ATOM     44  C   UNL A   1      38.502  30.830  30.789  1.00  0.00     0.074 A 
ATOM     45  C   UNL A   1      38.153  32.351  32.704  1.00  0.00     0.049 A 
ATOM     46  N   UNL A   1      39.524  30.135  31.218  1.00  0.00    -0.248 NA
ATOM     47  C   UNL A   1      38.043  30.446  29.443  1.00  0.00     0.031 C 
ATOM     48  C   UNL A   1      37.507  33.406  33.486  1.00  0.00     0.029 A 
ATOM     49  N   UNL A   1      39.191  31.935  33.499  1.00  0.00    -0.354 N 
ATOM     50  C   UNL A   1      39.801  29.205  30.224  1.00  0.00     0.074 A 
ATOM     51  C   UNL A   1      38.845  29.426  29.161  1.00  0.00     0.031 C 
ATOM     52  C   UNL A   1      38.184  33.581  34.632  1.00  0.00     0.029 A 
ATOM     53  C   UNL A   1      39.281  32.620  34.687  1.00  0.00     0.049 A 
ATOM     54  H   UNL A   1      39.811  31.214  33.243  1.00  0.00     0.167 HD
ATOM     55  C   UNL A   1      40.775  28.266  30.190  1.00  0.00     0.034 A 
ATOM     56  C   UNL A   1      40.145  32.492  35.713  1.00  0.00     0.034 A 
ATOM     57  C   UNL A   1      41.762  28.079  31.219  1.00  0.00     0.049 A 
ATOM     58  C   UNL A   1      41.234  31.463  35.636  1.00  0.00     0.074 A 
ATOM     59  C   UNL A   1      42.808  27.172  31.249  1.00  0.00     0.029 A 
ATOM     60  N   UNL A   1      41.835  28.815  32.390  1.00  0.00    -0.354 N 
ATOM     61  N   UNL A   1      41.516  30.641  34.655  1.00  0.00    -0.248 NA
ATOM     62  C   UNL A   1      42.132  31.353  36.793  1.00  0.00     0.031 C 
ATOM     63  C   UNL A   1      43.518  27.364  32.438  1.00  0.00     0.029 A 
ATOM     64  C   UNL A   1      42.914  28.391  33.145  1.00  0.00     0.049 A 
ATOM     65  H   UNL A   1      41.211  29.532  32.647  1.00  0.00     0.167 HD
ATOM     66  C   UNL A   1      42.633  29.926  35.069  1.00  0.00     0.074 A 
ATOM     67  C   UNL A   1      42.988  30.424  36.382  1.00  0.00     0.031 C 
ATOM     68  C   UNL A   1      43.289  28.932  34.425  1.00  0.00     0.034 A 
BRANCH  55  69
ATOM     69  C   UNL A   1      40.873  27.388  28.972  1.00  0.00     0.023 A 
ATOM     70  C   UNL A   1      39.946  26.342  28.806  1.00  0.00     0.012 A 
ATOM     71  C   UNL A   1      41.798  27.668  27.947  1.00  0.00     0.148 A 
ATOM     72  C   UNL A   1      39.939  25.581  27.637  1.00  0.00     0.002 A 
ATOM     73  C   UNL A   1      41.769  26.922  26.774  1.00  0.00     0.091 A 
ATOM     74  F   UNL A   1      42.678  28.662  28.136  1.00  0.00    -0.205 F 
ATOM     75  C   UNL A   1      40.843  25.877  26.619  1.00  0.00     0.022 A 
BRANCH  73  76
ATOM     76  S   UNL A   1      42.850  27.258  25.378  1.00  0.00     0.127 S 
ATOM     77  O   UNL A   1      44.119  27.537  26.050  1.00  0.00    -0.237 OA
ATOM     78  O   UNL A   1      42.813  25.991  24.648  1.00  0.00    -0.237 OA
ATOM     79  O   UNL A   1      42.259  28.387  24.673  1.00  0.00    -0.744 OA
ENDBRANCH  73  76
ENDBRANCH  55  69
BRANCH  56  80
ATOM     80  C   UNL A   1      40.037  33.420  36.869  1.00  0.00     0.023 A 
ATOM     81  C   UNL A   1      39.042  33.194  37.839  1.00  0.00     0.012 A 
ATOM     82  C   UNL A   1      40.968  34.459  37.062  1.00  0.00     0.148 A 
ATOM     83  C   UNL A   1      38.975  33.988  38.982  1.00  0.00     0.002 A 
ATOM     84  C   UNL A   1      40.925  35.216  38.226  1.00  0.00     0.091 A 
ATOM     85  F   UNL A   1      41.899  34.656  36.118  1.00  0.00    -0.205 F 
ATOM     86  C   UNL A   1      39.924  34.989  39.183  1.00  0.00     0.022 A 
BRANCH  84  87
ATOM     87  S   UNL A   1      42.176  36.439  38.629  1.00  0.00     0.127 S 
ATOM     88  O   UNL A   1      42.269  37.192  37.381  1.00  0.00    -0.237 OA
ATOM     89  O   UNL A   1      41.545  37.157  39.737  1.00  0.00    -0.237 OA
ATOM     90  O   UNL A   1      43.364  35.683  38.999  1.00  0.00    -0.744 OA
ENDBRANCH  84  87
ENDBRANCH  56  80
BRANCH  68  91
ATOM     91  C   UNL A   1      44.476  28.316  35.108  1.00  0.00     0.023 A 
ATOM     92  C   UNL A   1      45.744  28.907  34.953  1.00  0.00     0.012 A 
ATOM     93  C   UNL A   1      44.315  27.229  35.989  1.00  0.00     0.148 A 
ATOM     94  C   UNL A   1      46.841  28.419  35.660  1.00  0.00     0.002 A 
ATOM     95  C   UNL A   1      45.407  26.766  36.713  1.00  0.00     0.091 A 
ATOM     96  F   UNL A   1      43.100  26.676  36.106  1.00  0.00    -0.205 F 
ATOM     97  C   UNL A   1      46.671  27.358  36.548  1.00  0.00     0.022 A 
BRANCH  95  98
ATOM     98  S   UNL A   1      45.271  25.451  37.930  1.00  0.00     0.127 S 
ATOM     99  O   UNL A   1      46.643  25.366  38.428  1.00  0.00    -0.237 OA
ATOM    100  O   UNL A   1      44.308  26.005  38.881  1.00  0.00    -0.237 OA
ATOM    101  O   UNL A   1      44.799  24.280  37.203  1.00  0.00    -0.744 OA
ENDBRANCH  95  98
ENDBRANCH  68  91
ENDBRANCH  42  43
ENDBRANCH  34  37
ENDBRANCH  32  33
ENDBRANCH  31  32
ENDBRANCH  30  31
ENDBRANCH   1  30
TORSDOF 19
ENDMDL
MODEL 2
REMARK VINA RESULT:     -11.5      5.200     10.010
REMARK SMILES CCOc1ccc2[nH]c(C)c/c(=N\c3cccc(C(=O)NCCCCCCNC(=O)c4ccc(-c5c6nc(c(-c7cccc(S(=O)(=O)[O-])c7F)c7ccc([nH]7)c(-c7cccc(S(=O)(=O)[O-])c7F)c7nc(c(-c8cccc(S(=O)(=O)[O-])c8F)c8ccc5[nH]8)C=C7)C=C6)cc4)c3)c2c1
REMARK SMILES IDX 24 1 23 2 22 3 21 4 19 5 20 6 18 8 14 9 15 10 94 11 16 12
REMARK SMILES IDX 17 13 13 14 4 15 5 16 96 17 6 18 95 19 7 20 12 21 8 22 11 23
REMARK SMILES IDX 9 24 10 26 3 27 2 28 1 29 25 30 26 31 27 32 28 33 29 34
REMARK SMILES IDX 30 36 31 37 32 38 93 39 33 40 92 41 34 42 35 43 36 44 86 45
REMARK SMILES IDX 37 46 91 47 85 48 87 49 38 50 90 51 84 52 83 53 39 55 71 56
REMARK SMILES IDX 51 57 70 58 52 59 55 60 69 61 88 62 53 63 54 64 68 66 89 67
REMARK SMILES IDX 56 68 40 69 41 70 49 71 42 72 44 73 50 74 43 75 45 76 46 77
REMARK SMILES IDX 47 78 48 79 72 80 73 81 81 82 74 83 76 84 82 85 75 86 77 87
REMARK SMILES IDX 78 88 79 89 80 90 57 91 58 92 66 93 59 94 61 95 67 96 60 97
REMARK SMILES IDX 62 98 63 99 64 100 65 101
REMARK H PARENT 21 7 8 25 28 35 87 54 55 65
REMARK Flexibility Score: inf
ROOT
ATOM      1  C   UNL A   1      36.450  22.872  25.604  1.00  0.00     0.002 C 
ENDROOT
BRANCH   1   2
ATOM      2  C   UNL A   1      34.982  22.638  25.966  1.00  0.00     0.021 C 
BRANCH   2   3
ATOM      3  C   UNL A   1      34.157  21.758  25.035  1.00  0.00     0.116 C 
BRANCH   3   4
ATOM      4  N   UNL A   1      32.730  22.014  25.069  1.00  0.00    -0.352 N 
ATOM      5  C   UNL A   1      31.987  23.072  24.595  1.00  0.00     0.251 C 
ATOM      6  O   UNL A   1      30.767  23.041  24.765  1.00  0.00    -0.269 OA
ATOM      7  H   UNL A   1      32.201  21.308  25.508  1.00  0.00     0.163 HD
BRANCH   5   8
ATOM      8  C   UNL A   1      32.595  24.269  23.947  1.00  0.00     0.041 A 
ATOM      9  C   UNL A   1      33.367  26.572  23.966  1.00  0.00     0.064 A 
ATOM     10  C   UNL A   1      33.591  26.515  22.588  1.00  0.00     0.028 A 
ATOM     11  C   UNL A   1      32.980  25.414  24.643  1.00  0.00     0.042 A 
ATOM     12  C   UNL A   1      33.297  25.349  21.880  1.00  0.00     0.003 A 
ATOM     13  C   UNL A   1      32.774  24.241  22.555  1.00  0.00     0.014 A 
BRANCH   9  14
ATOM     14  N   UNL A   1      33.439  27.763  24.704  1.00  0.00    -0.248 NA
ATOM     15  C   UNL A   1      33.437  31.035  27.445  1.00  0.00     0.120 A 
ATOM     16  C   UNL A   1      32.471  32.027  27.285  1.00  0.00     0.048 A 
ATOM     17  C   UNL A   1      33.459  29.926  26.599  1.00  0.00     0.059 A 
ATOM     18  C   UNL A   1      31.471  31.879  26.326  1.00  0.00     0.030 A 
ATOM     19  C   UNL A   1      32.460  29.781  25.628  1.00  0.00     0.027 A 
ATOM     20  C   UNL A   1      31.447  30.751  25.501  1.00  0.00     0.048 A 
ATOM     21  C   UNL A   1      32.420  28.579  24.727  1.00  0.00     0.075 A 
ATOM     22  N   UNL A   1      30.406  30.581  24.581  1.00  0.00    -0.359 N 
ATOM     23  C   UNL A   1      31.155  28.424  23.924  1.00  0.00     0.050 A 
ATOM     24  C   UNL A   1      30.261  29.423  23.859  1.00  0.00     0.014 A 
ATOM     25  H   UNL A   1      29.761  31.313  24.447  1.00  0.00     0.166 HD
ATOM     26  C   UNL A   1      29.047  29.317  22.980  1.00  0.00     0.064 C 
BRANCH  15  27
ATOM     27  O   UNL A   1      34.443  31.190  28.356  1.00  0.00    -0.494 OA
BRANCH  27  28
ATOM     28  C   UNL A   1      35.175  32.414  28.192  1.00  0.00     0.226 C 
ATOM     29  C   UNL A   1      34.951  33.377  29.350  1.00  0.00     0.049 C 
ENDBRANCH  27  28
ENDBRANCH  15  27
ENDBRANCH   9  14
ENDBRANCH   5   8
ENDBRANCH   3   4
ENDBRANCH   2   3
ENDBRANCH   1   2
BRANCH   1  30
ATOM     30  C   UNL A   1      37.058  21.998  24.506  1.00  0.00     0.002 C 
BRANCH  30  31
ATOM     31  C   UNL A   1      37.803  20.740  24.947  1.00  0.00     0.021 C 
BRANCH  31  32
ATOM     32  C   UNL A   1      39.064  20.950  25.775  1.00  0.00     0.116 C 
BRANCH  32  33
ATOM     33  N   UNL A   1      39.954  19.804  25.791  1.00  0.00    -0.352 N 
ATOM     34  C   UNL A   1      41.309  19.757  26.042  1.00  0.00     0.251 C 
ATOM     35  H   UNL A   1      39.531  18.937  25.594  1.00  0.00     0.163 HD
ATOM     36  O   UNL A   1      41.916  18.698  25.939  1.00  0.00    -0.269 OA
BRANCH  34  37
ATOM     37  C   UNL A   1      42.031  21.003  26.388  1.00  0.00     0.039 A 
ATOM     38  C   UNL A   1      42.289  21.338  27.719  1.00  0.00     0.014 A 
ATOM     39  C   UNL A   1      42.407  21.873  25.361  1.00  0.00     0.014 A 
ATOM     40  C   UNL A   1      42.758  22.610  28.031  1.00  0.00     0.010 A 
ATOM     41  C   UNL A   1      42.950  23.123  25.675  1.00  0.00     0.010 A 
ATOM     42  C   UNL A   1      43.078  23.525  27.014  1.00  0.00    -0.014 A 
BRANCH  42  43
ATOM     43  C   UNL A   1      43.542  24.893  27.368  1.00  0.00     0.031 A 
ATOM     44  C   UNL A   1      44.980  25.296  27.174  1.00  0.00     0.074 A 
ATOM     45  C   UNL A   1      42.652  25.788  27.838  1.00  0.00     0.049 A 
ATOM     46  N   UNL A   1      45.548  26.449  27.422  1.00  0.00    -0.248 NA
ATOM     47  C   UNL A   1      45.902  24.283  26.632  1.00  0.00     0.031 C 
ATOM     48  C   UNL A   1      41.236  25.515  28.086  1.00  0.00     0.029 A 
ATOM     49  N   UNL A   1      42.803  27.107  28.184  1.00  0.00    -0.354 N 
ATOM     50  C   UNL A   1      46.894  26.289  27.114  1.00  0.00     0.074 A 
ATOM     51  C   UNL A   1      47.062  24.928  26.652  1.00  0.00     0.031 C 
ATOM     52  C   UNL A   1      40.639  26.640  28.508  1.00  0.00     0.029 A 
ATOM     53  C   UNL A   1      41.637  27.700  28.606  1.00  0.00     0.049 A 
ATOM     54  H   UNL A   1      43.663  27.583  28.134  1.00  0.00     0.167 HD
ATOM     55  C   UNL A   1      47.895  27.197  27.190  1.00  0.00     0.034 A 
ATOM     56  C   UNL A   1      41.392  28.955  29.031  1.00  0.00     0.034 A 
ATOM     57  C   UNL A   1      47.722  28.566  27.596  1.00  0.00     0.049 A 
ATOM     58  C   UNL A   1      42.514  29.950  29.076  1.00  0.00     0.074 A 
ATOM     59  C   UNL A   1      48.678  29.564  27.668  1.00  0.00     0.029 A 
ATOM     60  N   UNL A   1      46.520  29.131  27.986  1.00  0.00    -0.354 N 
ATOM     61  N   UNL A   1      43.764  29.792  28.715  1.00  0.00    -0.248 NA
ATOM     62  C   UNL A   1      42.193  31.297  29.569  1.00  0.00     0.031 C 
ATOM     63  C   UNL A   1      48.051  30.738  28.097  1.00  0.00     0.029 A 
ATOM     64  C   UNL A   1      46.706  30.468  28.289  1.00  0.00     0.049 A 
ATOM     65  H   UNL A   1      45.661  28.653  28.040  1.00  0.00     0.167 HD
ATOM     66  C   UNL A   1      44.376  31.022  28.922  1.00  0.00     0.074 A 
ATOM     67  C   UNL A   1      43.357  31.920  29.423  1.00  0.00     0.031 C 
ATOM     68  C   UNL A   1      45.672  31.366  28.734  1.00  0.00     0.034 A 
BRANCH  55  69
ATOM     69  C   UNL A   1      49.275  26.769  26.771  1.00  0.00     0.023 A 
ATOM     70  C   UNL A   1      49.977  25.847  27.570  1.00  0.00     0.012 A 
ATOM     71  C   UNL A   1      49.823  27.184  25.542  1.00  0.00     0.148 A 
ATOM     72  C   UNL A   1      51.210  25.346  27.155  1.00  0.00     0.002 A 
ATOM     73  C   UNL A   1      51.041  26.661  25.122  1.00  0.00     0.091 A 
ATOM     74  F   UNL A   1      49.139  28.073  24.807  1.00  0.00    -0.205 F 
ATOM     75  C   UNL A   1      51.737  25.745  25.928  1.00  0.00     0.022 A 
BRANCH  73  76
ATOM     76  S   UNL A   1      51.779  27.064  23.534  1.00  0.00     0.127 S 
ATOM     77  O   UNL A   1      52.085  28.485  23.704  1.00  0.00    -0.237 OA
ATOM     78  O   UNL A   1      52.950  26.188  23.508  1.00  0.00    -0.237 OA
ATOM     79  O   UNL A   1      50.767  26.764  22.531  1.00  0.00    -0.744 OA
ENDBRANCH  73  76
ENDBRANCH  55  69
BRANCH  56  80
ATOM     80  C   UNL A   1      40.000  29.341  29.382  1.00  0.00     0.023 A 
ATOM     81  C   UNL A   1      39.064  29.545  28.350  1.00  0.00     0.012 A 
ATOM     82  C   UNL A   1      39.578  29.410  30.724  1.00  0.00     0.148 A 
ATOM     83  C   UNL A   1      37.729  29.814  28.649  1.00  0.00     0.002 A 
ATOM     84  C   UNL A   1      38.238  29.632  31.014  1.00  0.00     0.091 A 
ATOM     85  F   UNL A   1      40.493  29.220  31.685  1.00  0.00    -0.205 F 
ATOM     86  C   UNL A   1      37.313  29.844  29.979  1.00  0.00     0.022 A 
BRANCH  84  87
ATOM     87  S   UNL A   1      37.587  29.562  32.686  1.00  0.00     0.127 S 
ATOM     88  O   UNL A   1      36.280  30.192  32.523  1.00  0.00    -0.237 OA
ATOM     89  O   UNL A   1      37.550  28.121  32.932  1.00  0.00    -0.237 OA
ATOM     90  O   UNL A   1      38.539  30.291  33.512  1.00  0.00    -0.744 OA
ENDBRANCH  84  87
ENDBRANCH  56  80
BRANCH  68  91
ATOM     91  C   UNL A   1      46.078  32.777  29.047  1.00  0.00     0.023 A 
ATOM     92  C   UNL A   1      46.655  33.066  30.298  1.00  0.00     0.012 A 
ATOM     93  C   UNL A   1      45.994  33.784  28.067  1.00  0.00     0.148 A 
ATOM     94  C   UNL A   1      47.137  34.344  30.574  1.00  0.00     0.002 A 
ATOM     95  C   UNL A   1      46.504  35.048  28.338  1.00  0.00     0.091 A 
ATOM     96  F   UNL A   1      45.426  33.485  26.890  1.00  0.00    -0.205 F 
ATOM     97  C   UNL A   1      47.074  35.331  29.591  1.00  0.00     0.022 A 
BRANCH  95  98
ATOM     98  S   UNL A   1      46.529  36.362  27.113  1.00  0.00     0.127 S 
ATOM     99  O   UNL A   1      47.461  37.313  27.717  1.00  0.00    -0.237 OA
ATOM    100  O   UNL A   1      47.039  35.674  25.928  1.00  0.00    -0.237 OA
ATOM    101  O   UNL A   1      45.153  36.828  26.997  1.00  0.00    -0.744 OA
ENDBRANCH  95  98
ENDBRANCH  68  91
ENDBRANCH  42  43
ENDBRANCH  34  37
ENDBRANCH  32  33
ENDBRANCH  31  32
ENDBRANCH  30  31
ENDBRANCH   1  30
TORSDOF 19
ENDMDL
MODEL 3
REMARK VINA RESULT:     -11.3      1.258      7.341
REMARK SMILES CCOc1ccc2[nH]c(C)c/c(=N\c3cccc(C(=O)NCCCCCCNC(=O)c4ccc(-c5c6nc(c(-c7cccc(S(=O)(=O)[O-])c7F)c7ccc([nH]7)c(-c7cccc(S(=O)(=O)[O-])c7F)c7nc(c(-c8cccc(S(=O)(=O)[O-])c8F)c8ccc5[nH]8)C=C7)C=C6)cc4)c3)c2c1
REMARK SMILES IDX 24 1 23 2 22 3 21 4 19 5 20 6 18 8 14 9 15 10 94 11 16 12
REMARK SMILES IDX 17 13 13 14 4 15 5 16 96 17 6 18 95 19 7 20 12 21 8 22 11 23
REMARK SMILES IDX 9 24 10 26 3 27 2 28 1 29 25 30 26 31 27 32 28 33 29 34
REMARK SMILES IDX 30 36 31 37 32 38 93 39 33 40 92 41 34 42 35 43 36 44 86 45
REMARK SMILES IDX 37 46 91 47 85 48 87 49 38 50 90 51 84 52 83 53 39 55 71 56
REMARK SMILES IDX 51 57 70 58 52 59 55 60 69 61 88 62 53 63 54 64 68 66 89 67
REMARK SMILES IDX 56 68 40 69 41 70 49 71 42 72 44 73 50 74 43 75 45 76 46 77
REMARK SMILES IDX 47 78 48 79 72 80 73 81 81 82 74 83 76 84 82 85 75 86 77 87
REMARK SMILES IDX 78 88 79 89 80 90 57 91 58 92 66 93 59 94 61 95 67 96 60 97
REMARK SMILES IDX 62 98 63 99 64 100 65 101
REMARK H PARENT 21 7 8 25 28 35 87 54 55 65
REMARK Flexibility Score: inf
ROOT
ATOM      1  C   UNL A   1      33.040  29.660  26.262  1.00  0.00     0.002 C 
ENDROOT
BRANCH   1   2
ATOM      2  C   UNL A   1      32.972  29.297  24.777  1.00  0.00     0.021 C 
BRANCH   2   3
ATOM      3  C   UNL A   1      31.593  29.074  24.167  1.00  0.00     0.116 C 
BRANCH   3   4
ATOM      4  N   UNL A   1      31.562  28.118  23.077  1.00  0.00    -0.352 N 
ATOM      5  C   UNL A   1      31.645  26.744  23.075  1.00  0.00     0.251 C 
ATOM      6  O   UNL A   1      31.598  26.165  21.989  1.00  0.00    -0.269 OA
ATOM      7  H   UNL A   1      31.465  28.522  22.184  1.00  0.00     0.163 HD
BRANCH   5   8
ATOM      8  C   UNL A   1      31.849  25.938  24.313  1.00  0.00     0.041 A 
ATOM      9  C   UNL A   1      33.169  24.493  25.752  1.00  0.00     0.064 A 
ATOM     10  C   UNL A   1      32.067  24.313  26.592  1.00  0.00     0.028 A 
ATOM     11  C   UNL A   1      33.076  25.393  24.688  1.00  0.00     0.042 A 
ATOM     12  C   UNL A   1      30.849  24.921  26.287  1.00  0.00     0.003 A 
ATOM     13  C   UNL A   1      30.736  25.706  25.135  1.00  0.00     0.014 A 
BRANCH   9  14
ATOM     14  N   UNL A   1      34.356  23.755  25.876  1.00  0.00    -0.248 NA
ATOM     15  C   UNL A   1      38.149  21.806  25.712  1.00  0.00     0.120 A 
ATOM     16  C   UNL A   1      38.181  20.454  25.375  1.00  0.00     0.048 A 
ATOM     17  C   UNL A   1      36.939  22.499  25.744  1.00  0.00     0.059 A 
ATOM     18  C   UNL A   1      37.010  19.802  24.992  1.00  0.00     0.030 A 
ATOM     19  C   UNL A   1      35.760  21.843  25.369  1.00  0.00     0.027 A 
ATOM     20  C   UNL A   1      35.795  20.493  24.971  1.00  0.00     0.048 A 
ATOM     21  C   UNL A   1      34.443  22.565  25.345  1.00  0.00     0.075 A 
ATOM     22  N   UNL A   1      34.634  19.848  24.528  1.00  0.00    -0.359 N 
ATOM     23  C   UNL A   1      33.318  21.822  24.673  1.00  0.00     0.050 A 
ATOM     24  C   UNL A   1      33.454  20.526  24.349  1.00  0.00     0.014 A 
ATOM     25  H   UNL A   1      34.664  18.882  24.341  1.00  0.00     0.166 HD
ATOM     26  C   UNL A   1      32.304  19.750  23.772  1.00  0.00     0.064 C 
BRANCH  15  27
ATOM     27  O   UNL A   1      39.286  22.442  26.125  1.00  0.00    -0.494 OA
BRANCH  27  28
ATOM     28  C   UNL A   1      40.373  21.544  26.397  1.00  0.00     0.226 C 
ATOM     29  C   UNL A   1      41.074  21.871  27.707  1.00  0.00     0.049 C 
ENDBRANCH  27  28
ENDBRANCH  15  27
ENDBRANCH   9  14
ENDBRANCH   5   8
ENDBRANCH   3   4
ENDBRANCH   2   3
ENDBRANCH   1   2
BRANCH   1  30
ATOM     30  C   UNL A   1      31.796  30.280  26.898  1.00  0.00     0.002 C 
BRANCH  30  31
ATOM     31  C   UNL A   1      31.643  31.797  26.799  1.00  0.00     0.021 C 
BRANCH  31  32
ATOM     32  C   UNL A   1      32.910  32.622  26.984  1.00  0.00     0.116 C 
BRANCH  32  33
ATOM     33  N   UNL A   1      32.711  33.842  27.746  1.00  0.00    -0.352 N 
ATOM     34  C   UNL A   1      33.443  34.337  28.803  1.00  0.00     0.251 C 
ATOM     35  H   UNL A   1      31.944  34.393  27.467  1.00  0.00     0.163 HD
ATOM     36  O   UNL A   1      33.081  35.357  29.377  1.00  0.00    -0.269 OA
BRANCH  34  37
ATOM     37  C   UNL A   1      34.641  33.601  29.270  1.00  0.00     0.039 A 
ATOM     38  C   UNL A   1      34.520  32.489  30.107  1.00  0.00     0.014 A 
ATOM     39  C   UNL A   1      35.906  34.067  28.902  1.00  0.00     0.014 A 
ATOM     40  C   UNL A   1      35.654  31.958  30.715  1.00  0.00     0.010 A 
ATOM     41  C   UNL A   1      37.049  33.481  29.455  1.00  0.00     0.010 A 
ATOM     42  C   UNL A   1      36.931  32.459  30.409  1.00  0.00    -0.014 A 
BRANCH  42  43
ATOM     43  C   UNL A   1      38.127  31.903  31.097  1.00  0.00     0.031 A 
ATOM     44  C   UNL A   1      38.532  32.395  32.462  1.00  0.00     0.074 A 
ATOM     45  C   UNL A   1      38.834  30.924  30.501  1.00  0.00     0.049 A 
ATOM     46  N   UNL A   1      39.540  32.013  33.205  1.00  0.00    -0.248 NA
ATOM     47  C   UNL A   1      37.706  33.449  33.077  1.00  0.00     0.031 C 
ATOM     48  C   UNL A   1      38.553  30.374  29.174  1.00  0.00     0.029 A 
ATOM     49  N   UNL A   1      39.926  30.214  30.932  1.00  0.00    -0.354 N 
ATOM     50  C   UNL A   1      39.498  32.804  34.347  1.00  0.00     0.074 A 
ATOM     51  C   UNL A   1      38.361  33.687  34.206  1.00  0.00     0.031 C 
ATOM     52  C   UNL A   1      39.424  29.387  28.914  1.00  0.00     0.029 A 
ATOM     53  C   UNL A   1      40.354  29.267  30.033  1.00  0.00     0.049 A 
ATOM     54  H   UNL A   1      40.360  30.368  31.801  1.00  0.00     0.167 HD
ATOM     55  C   UNL A   1      40.320  32.784  35.422  1.00  0.00     0.034 A 
ATOM     56  C   UNL A   1      41.381  28.398  30.093  1.00  0.00     0.034 A 
ATOM     57  C   UNL A   1      41.418  31.870  35.590  1.00  0.00     0.049 A 
ATOM     58  C   UNL A   1      42.258  28.377  31.310  1.00  0.00     0.074 A 
ATOM     59  C   UNL A   1      42.282  31.759  36.666  1.00  0.00     0.029 A 
ATOM     60  N   UNL A   1      41.797  30.909  34.669  1.00  0.00    -0.354 N 
ATOM     61  N   UNL A   1      42.157  29.090  32.405  1.00  0.00    -0.248 NA
ATOM     62  C   UNL A   1      43.377  27.424  31.310  1.00  0.00     0.031 C 
ATOM     63  C   UNL A   1      43.181  30.722  36.398  1.00  0.00     0.029 A 
ATOM     64  C   UNL A   1      42.874  30.191  35.156  1.00  0.00     0.049 A 
ATOM     65  H   UNL A   1      41.364  30.759  33.798  1.00  0.00     0.167 HD
ATOM     66  C   UNL A   1      43.189  28.663  33.232  1.00  0.00     0.074 A 
ATOM     67  C   UNL A   1      43.893  27.617  32.519  1.00  0.00     0.031 C 
ATOM     68  C   UNL A   1      43.532  29.115  34.461  1.00  0.00     0.034 A 
BRANCH  55  69
ATOM     69  C   UNL A   1      40.040  33.743  36.547  1.00  0.00     0.023 A 
ATOM     70  C   UNL A   1      40.315  35.112  36.364  1.00  0.00     0.012 A 
ATOM     71  C   UNL A   1      39.404  33.312  37.728  1.00  0.00     0.148 A 
ATOM     72  C   UNL A   1      39.966  36.040  37.343  1.00  0.00     0.002 A 
ATOM     73  C   UNL A   1      39.036  34.247  38.688  1.00  0.00     0.091 A 
ATOM     74  F   UNL A   1      39.166  32.002  37.882  1.00  0.00    -0.205 F 
ATOM     75  C   UNL A   1      39.319  35.610  38.500  1.00  0.00     0.022 A 
BRANCH  73  76
ATOM     76  S   UNL A   1      38.147  33.807  40.187  1.00  0.00     0.127 S 
ATOM     77  O   UNL A   1      39.111  32.933  40.855  1.00  0.00    -0.237 OA
ATOM     78  O   UNL A   1      37.958  35.108  40.827  1.00  0.00    -0.237 OA
ATOM     79  O   UNL A   1      36.919  33.157  39.750  1.00  0.00    -0.744 OA
ENDBRANCH  73  76
ENDBRANCH  55  69
BRANCH  56  80
ATOM     80  C   UNL A   1      41.581  27.436  28.977  1.00  0.00     0.023 A 
ATOM     81  C   UNL A   1      40.804  26.263  28.936  1.00  0.00     0.012 A 
ATOM     82  C   UNL A   1      42.461  27.722  27.915  1.00  0.00     0.148 A 
ATOM     83  C   UNL A   1      40.900  25.389  27.854  1.00  0.00     0.002 A 
ATOM     84  C   UNL A   1      42.517  26.870  26.819  1.00  0.00     0.091 A 
ATOM     85  F   UNL A   1      43.195  28.841  27.986  1.00  0.00    -0.205 F 
ATOM     86  C   UNL A   1      41.745  25.699  26.790  1.00  0.00     0.022 A 
BRANCH  84  87
ATOM     87  S   UNL A   1      43.479  27.249  25.350  1.00  0.00     0.127 S 
ATOM     88  O   UNL A   1      43.840  25.915  24.879  1.00  0.00    -0.237 OA
ATOM     89  O   UNL A   1      42.496  27.949  24.523  1.00  0.00    -0.237 OA
ATOM     90  O   UNL A   1      44.586  28.079  25.805  1.00  0.00    -0.744 OA
ENDBRANCH  84  87
ENDBRANCH  56  80
BRANCH  68  91
ATOM     91  C   UNL A   1      44.709  28.478  35.141  1.00  0.00     0.023 A 
ATOM     92  C   UNL A   1      45.988  29.044  34.978  1.00  0.00     0.012 A 
ATOM     93  C   UNL A   1      44.532  27.397  36.026  1.00  0.00     0.148 A 
ATOM     94  C   UNL A   1      47.078  28.538  35.682  1.00  0.00     0.002 A 
ATOM     95  C   UNL A   1      45.618  26.916  36.747  1.00  0.00     0.091 A 
ATOM     96  F   UNL A   1      43.307  26.867  36.150  1.00  0.00    -0.205 F 
ATOM     97  C   UNL A   1      46.892  27.484  36.574  1.00  0.00     0.022 A 
BRANCH  95  98
ATOM     98  S   UNL A   1      45.463  25.609  37.969  1.00  0.00     0.127 S 
ATOM     99  O   UNL A   1      45.023  24.483  37.145  1.00  0.00    -0.237 OA
ATOM    100  O   UNL A   1      46.828  25.497  38.479  1.00  0.00    -0.237 OA
ATOM    101  O   UNL A   1      44.490  26.084  38.943  1.00  0.00    -0.744 OA
ENDBRANCH  95  98
ENDBRANCH  68  91
ENDBRANCH  42  43
ENDBRANCH  34  37
ENDBRANCH  32  33
ENDBRANCH  31  32
ENDBRANCH  30  31
ENDBRANCH   1  30
TORSDOF 19
ENDMDL
