MODEL 1
REMARK VINA RESULT:      -9.8      0.000      0.000
REMARK SMILES CC(C)C[C@H](CNC(=O)c1cc(F)ccc1Br)C(=O)NCCCCCCNC(=O)c1ccc(-c2c3nc(c(-c4cccc(S(=O)(=O)[O-])c4F)c4ccc([nH]4)c(-c4cccc(S(=O)(=O)[O-])c4F)c4nc(c(-c5cccc(S(=O)(=O)[O-])c5F)c5ccc2[nH]5)C=C4)C=C3)cc1
REMARK SMILES IDX 23 1 22 2 21 3 20 4 18 5 19 6 5 8 4 9 2 10 1 11 3 12 6 13
REMARK SMILES IDX 7 14 8 15 9 17 10 18 11 19 16 20 12 21 15 22 17 23 13 24
REMARK SMILES IDX 14 25 24 26 25 27 26 28 27 29 28 30 29 32 30 33 31 34 92 35
REMARK SMILES IDX 32 36 91 37 33 38 34 39 35 40 85 41 36 42 90 43 84 44 86 45
REMARK SMILES IDX 37 46 89 47 83 48 82 49 38 51 70 52 50 53 69 54 51 55 54 56
REMARK SMILES IDX 68 57 87 58 52 59 53 60 67 62 88 63 55 64 39 65 40 66 48 67
REMARK SMILES IDX 41 68 43 69 49 70 42 71 44 72 45 73 46 74 47 75 71 76 72 77
REMARK SMILES IDX 80 78 73 79 75 80 81 81 74 82 76 83 77 84 78 85 79 86 56 87
REMARK SMILES IDX 57 88 65 89 58 90 60 91 66 92 59 93 61 94 62 95 63 96 64 97
REMARK H PARENT 20 7 7 16 27 31 86 50 54 61
REMARK Flexibility Score: inf
ROOT
ATOM      1  C   UNL A   1      36.730  21.665  25.308  1.00  0.00     0.002 C 
ENDROOT
BRANCH   1   2
ATOM      2  C   UNL A   1      36.251  22.370  24.037  1.00  0.00     0.021 C 
BRANCH   2   3
ATOM      3  C   UNL A   1      35.707  23.778  24.279  1.00  0.00     0.116 C 
BRANCH   3   4
ATOM      4  N   UNL A   1      34.543  24.036  23.446  1.00  0.00    -0.356 N 
ATOM      5  C   UNL A   1      33.235  23.706  23.615  1.00  0.00     0.224 C 
ATOM      6  O   UNL A   1      32.450  23.964  22.699  1.00  0.00    -0.275 OA
ATOM      7  H   UNL A   1      34.736  24.534  22.618  1.00  0.00     0.163 HD
BRANCH   5   8
ATOM      8  C   UNL A   1      32.737  23.055  24.900  1.00  0.00     0.098 C 
BRANCH   8   9
ATOM      9  C   UNL A   1      31.991  21.735  24.611  1.00  0.00     0.018 C 
BRANCH   9  10
ATOM     10  C   UNL A   1      32.920  20.571  24.194  1.00  0.00    -0.017 C 
ATOM     11  C   UNL A   1      33.467  19.816  25.409  1.00  0.00     0.007 C 
ATOM     12  C   UNL A   1      32.158  19.603  23.287  1.00  0.00     0.007 C 
ENDBRANCH   9  10
ENDBRANCH   8   9
BRANCH   8  13
ATOM     13  C   UNL A   1      32.004  24.099  25.754  1.00  0.00     0.129 C 
BRANCH  13  14
ATOM     14  N   UNL A   1      30.714  24.512  25.225  1.00  0.00    -0.351 N 
ATOM     15  C   UNL A   1      30.228  25.770  24.995  1.00  0.00     0.252 C 
ATOM     16  H   UNL A   1      30.099  23.776  24.999  1.00  0.00     0.163 HD
ATOM     17  O   UNL A   1      29.080  25.936  24.591  1.00  0.00    -0.269 OA
BRANCH  15  18
ATOM     18  C   UNL A   1      31.109  26.930  25.199  1.00  0.00     0.056 A 
ATOM     19  C   UNL A   1      31.476  27.249  26.514  1.00  0.00     0.054 A 
ATOM     20  C   UNL A   1      31.586  27.693  24.128  1.00  0.00     0.030 A 
ATOM     21  C   UNL A   1      32.267  28.362  26.747  1.00  0.00     0.124 A 
ATOM     22  C   UNL A   1      32.406  28.798  24.382  1.00  0.00     0.019 A 
ATOM     23  Br  UNL A   1      31.126  27.339  22.321  1.00  0.00    -0.050 Br
ATOM     24  F   UNL A   1      32.571  28.702  28.006  1.00  0.00    -0.207 F 
ATOM     25  C   UNL A   1      32.736  29.139  25.695  1.00  0.00     0.040 A 
ENDBRANCH  15  18
ENDBRANCH  13  14
ENDBRANCH   8  13
ENDBRANCH   5   8
ENDBRANCH   3   4
ENDBRANCH   2   3
ENDBRANCH   1   2
BRANCH   1  26
ATOM     26  C   UNL A   1      38.211  21.874  25.635  1.00  0.00     0.002 C 
BRANCH  26  27
ATOM     27  C   UNL A   1      39.117  20.685  25.303  1.00  0.00     0.021 C 
BRANCH  27  28
ATOM     28  C   UNL A   1      39.462  19.803  26.499  1.00  0.00     0.116 C 
BRANCH  28  29
ATOM     29  N   UNL A   1      40.577  18.917  26.213  1.00  0.00    -0.352 N 
ATOM     30  C   UNL A   1      41.896  19.231  25.999  1.00  0.00     0.251 C 
ATOM     31  H   UNL A   1      40.357  17.958  26.164  1.00  0.00     0.163 HD
ATOM     32  O   UNL A   1      42.666  18.383  25.559  1.00  0.00    -0.269 OA
BRANCH  30  33
ATOM     33  C   UNL A   1      42.376  20.597  26.292  1.00  0.00     0.039 A 
ATOM     34  C   UNL A   1      42.701  21.443  25.229  1.00  0.00     0.014 A 
ATOM     35  C   UNL A   1      42.505  21.041  27.611  1.00  0.00     0.014 A 
ATOM     36  C   UNL A   1      43.119  22.750  25.491  1.00  0.00     0.010 A 
ATOM     37  C   UNL A   1      42.842  22.366  27.866  1.00  0.00     0.010 A 
ATOM     38  C   UNL A   1      43.169  23.230  26.811  1.00  0.00    -0.014 A 
BRANCH  38  39
ATOM     39  C   UNL A   1      43.581  24.627  27.108  1.00  0.00     0.031 A 
ATOM     40  C   UNL A   1      42.589  25.595  27.698  1.00  0.00     0.074 A 
ATOM     41  C   UNL A   1      44.822  25.042  26.785  1.00  0.00     0.049 A 
ATOM     42  N   UNL A   1      42.736  26.867  27.960  1.00  0.00    -0.248 NA
ATOM     43  C   UNL A   1      41.248  25.071  28.011  1.00  0.00     0.031 C 
ATOM     44  C   UNL A   1      45.852  24.219  26.144  1.00  0.00     0.029 A 
ATOM     45  N   UNL A   1      45.421  26.269  26.926  1.00  0.00    -0.354 N 
ATOM     46  C   UNL A   1      41.507  27.300  28.442  1.00  0.00     0.074 A 
ATOM     47  C   UNL A   1      40.610  26.167  28.396  1.00  0.00     0.031 C 
ATOM     48  C   UNL A   1      46.952  24.965  25.947  1.00  0.00     0.029 A 
ATOM     49  C   UNL A   1      46.697  26.323  26.413  1.00  0.00     0.049 A 
ATOM     50  H   UNL A   1      44.979  27.037  27.354  1.00  0.00     0.167 HD
ATOM     51  C   UNL A   1      41.162  28.522  28.916  1.00  0.00     0.034 A 
ATOM     52  C   UNL A   1      47.557  27.357  26.315  1.00  0.00     0.034 A 
ATOM     53  C   UNL A   1      42.065  29.637  28.996  1.00  0.00     0.049 A 
ATOM     54  C   UNL A   1      47.153  28.697  26.867  1.00  0.00     0.074 A 
ATOM     55  C   UNL A   1      41.828  30.899  29.512  1.00  0.00     0.029 A 
ATOM     56  N   UNL A   1      43.376  29.627  28.547  1.00  0.00    -0.354 N 
ATOM     57  N   UNL A   1      46.028  29.049  27.441  1.00  0.00    -0.248 NA
ATOM     58  C   UNL A   1      48.151  29.775  26.794  1.00  0.00     0.031 C 
ATOM     59  C   UNL A   1      42.991  31.660  29.356  1.00  0.00     0.029 A 
ATOM     60  C   UNL A   1      43.962  30.860  28.778  1.00  0.00     0.049 A 
ATOM     61  H   UNL A   1      43.824  28.857  28.128  1.00  0.00     0.167 HD
ATOM     62  C   UNL A   1      46.201  30.370  27.839  1.00  0.00     0.074 A 
ATOM     63  C   UNL A   1      47.545  30.749  27.459  1.00  0.00     0.031 C 
ATOM     64  C   UNL A   1      45.322  31.200  28.454  1.00  0.00     0.034 A 
BRANCH  51  65
ATOM     65  C   UNL A   1      39.763  28.703  29.446  1.00  0.00     0.023 A 
ATOM     66  C   UNL A   1      39.463  28.297  30.762  1.00  0.00     0.012 A 
ATOM     67  C   UNL A   1      38.773  29.347  28.678  1.00  0.00     0.148 A 
ATOM     68  C   UNL A   1      38.193  28.503  31.298  1.00  0.00     0.002 A 
ATOM     69  C   UNL A   1      37.524  29.592  29.236  1.00  0.00     0.091 A 
ATOM     70  F   UNL A   1      39.073  29.712  27.424  1.00  0.00    -0.205 F 
ATOM     71  C   UNL A   1      37.228  29.161  30.539  1.00  0.00     0.022 A 
BRANCH  69  72
ATOM     72  S   UNL A   1      36.235  30.503  28.376  1.00  0.00     0.127 S 
ATOM     73  O   UNL A   1      35.796  29.524  27.382  1.00  0.00    -0.237 OA
ATOM     74  O   UNL A   1      35.273  30.755  29.448  1.00  0.00    -0.237 OA
ATOM     75  O   UNL A   1      36.874  31.692  27.833  1.00  0.00    -0.744 OA
ENDBRANCH  69  72
ENDBRANCH  51  65
BRANCH  52  76
ATOM     76  C   UNL A   1      48.904  27.163  25.702  1.00  0.00     0.023 A 
ATOM     77  C   UNL A   1      49.977  26.716  26.498  1.00  0.00     0.012 A 
ATOM     78  C   UNL A   1      49.130  27.437  24.339  1.00  0.00     0.148 A 
ATOM     79  C   UNL A   1      51.259  26.598  25.963  1.00  0.00     0.002 A 
ATOM     80  C   UNL A   1      50.397  27.259  23.798  1.00  0.00     0.091 A 
ATOM     81  F   UNL A   1      48.100  27.870  23.598  1.00  0.00    -0.205 F 
ATOM     82  C   UNL A   1      51.469  26.862  24.612  1.00  0.00     0.022 A 
BRANCH  80  83
ATOM     83  S   UNL A   1      50.723  27.446  22.041  1.00  0.00     0.127 S 
ATOM     84  O   UNL A   1      49.674  26.619  21.453  1.00  0.00    -0.237 OA
ATOM     85  O   UNL A   1      50.553  28.887  21.852  1.00  0.00    -0.237 OA
ATOM     86  O   UNL A   1      52.088  26.976  21.847  1.00  0.00    -0.744 OA
ENDBRANCH  80  83
ENDBRANCH  52  76
BRANCH  64  87
ATOM     87  C   UNL A   1      45.800  32.581  28.819  1.00  0.00     0.023 A 
ATOM     88  C   UNL A   1      46.508  32.793  30.018  1.00  0.00     0.012 A 
ATOM     89  C   UNL A   1      45.605  33.658  27.931  1.00  0.00     0.148 A 
ATOM     90  C   UNL A   1      46.981  34.063  30.346  1.00  0.00     0.002 A 
ATOM     91  C   UNL A   1      46.127  34.907  28.238  1.00  0.00     0.091 A 
ATOM     92  F   UNL A   1      44.914  33.438  26.803  1.00  0.00    -0.205 F 
ATOM     93  C   UNL A   1      46.802  35.115  29.451  1.00  0.00     0.022 A 
BRANCH  91  94
ATOM     94  S   UNL A   1      46.033  36.296  27.102  1.00  0.00     0.127 S 
ATOM     95  O   UNL A   1      46.708  37.347  27.862  1.00  0.00    -0.237 OA
ATOM     96  O   UNL A   1      46.782  35.800  25.947  1.00  0.00    -0.237 OA
ATOM     97  O   UNL A   1      44.615  36.518  26.854  1.00  0.00    -0.744 OA
ENDBRANCH  91  94
ENDBRANCH  64  87
ENDBRANCH  38  39
ENDBRANCH  30  33
ENDBRANCH  28  29
ENDBRANCH  27  28
ENDBRANCH  26  27
ENDBRANCH   1  26
TORSDOF 21
ENDMDL
MODEL 2
REMARK VINA RESULT:      -9.8      3.311      4.439
REMARK SMILES CC(C)C[C@H](CNC(=O)c1cc(F)ccc1Br)C(=O)NCCCCCCNC(=O)c1ccc(-c2c3nc(c(-c4cccc(S(=O)(=O)[O-])c4F)c4ccc([nH]4)c(-c4cccc(S(=O)(=O)[O-])c4F)c4nc(c(-c5cccc(S(=O)(=O)[O-])c5F)c5ccc2[nH]5)C=C4)C=C3)cc1
REMARK SMILES IDX 23 1 22 2 21 3 20 4 18 5 19 6 5 8 4 9 2 10 1 11 3 12 6 13
REMARK SMILES IDX 7 14 8 15 9 17 10 18 11 19 16 20 12 21 15 22 17 23 13 24
REMARK SMILES IDX 14 25 24 26 25 27 26 28 27 29 28 30 29 32 30 33 31 34 92 35
REMARK SMILES IDX 32 36 91 37 33 38 34 39 35 40 85 41 36 42 90 43 84 44 86 45
REMARK SMILES IDX 37 46 89 47 83 48 82 49 38 51 70 52 50 53 69 54 51 55 54 56
REMARK SMILES IDX 68 57 87 58 52 59 53 60 67 62 88 63 55 64 39 65 40 66 48 67
REMARK SMILES IDX 41 68 43 69 49 70 42 71 44 72 45 73 46 74 47 75 71 76 72 77
REMARK SMILES IDX 80 78 73 79 75 80 81 81 74 82 76 83 77 84 78 85 79 86 56 87
REMARK SMILES IDX 57 88 65 89 58 90 60 91 66 92 59 93 61 94 62 95 63 96 64 97
REMARK H PARENT 20 7 7 16 27 31 86 50 54 61
REMARK Flexibility Score: inf
ROOT
ATOM      1  C   UNL A   1      37.403  21.817  25.469  1.00  0.00     0.002 C 
ENDROOT
BRANCH   1   2
ATOM      2  C   UNL A   1      36.134  21.326  24.767  1.00  0.00     0.021 C 
BRANCH   2   3
ATOM      3  C   UNL A   1      35.039  22.387  24.657  1.00  0.00     0.116 C 
BRANCH   3   4
ATOM      4  N   UNL A   1      34.671  22.613  23.268  1.00  0.00    -0.356 N 
ATOM      5  C   UNL A   1      33.750  23.446  22.714  1.00  0.00     0.224 C 
ATOM      6  O   UNL A   1      33.564  23.375  21.497  1.00  0.00    -0.275 OA
ATOM      7  H   UNL A   1      35.174  22.069  22.619  1.00  0.00     0.163 HD
BRANCH   5   8
ATOM      8  C   UNL A   1      32.980  24.455  23.557  1.00  0.00     0.098 C 
BRANCH   8   9
ATOM      9  C   UNL A   1      32.082  23.751  24.598  1.00  0.00     0.018 C 
BRANCH   9  10
ATOM     10  C   UNL A   1      31.975  24.508  25.942  1.00  0.00    -0.017 C 
ATOM     11  C   UNL A   1      30.822  25.515  25.938  1.00  0.00     0.007 C 
ATOM     12  C   UNL A   1      31.779  23.507  27.083  1.00  0.00     0.007 C 
ENDBRANCH   9  10
ENDBRANCH   8   9
BRANCH   8  13
ATOM     13  C   UNL A   1      32.308  25.486  22.639  1.00  0.00     0.129 C 
BRANCH  13  14
ATOM     14  N   UNL A   1      33.223  26.443  22.036  1.00  0.00    -0.351 N 
ATOM     15  C   UNL A   1      33.557  27.705  22.444  1.00  0.00     0.252 C 
ATOM     16  H   UNL A   1      33.667  26.136  21.213  1.00  0.00     0.163 HD
ATOM     17  O   UNL A   1      34.315  28.401  21.774  1.00  0.00    -0.269 OA
BRANCH  15  18
ATOM     18  C   UNL A   1      33.029  28.213  23.719  1.00  0.00     0.056 A 
ATOM     19  C   UNL A   1      33.812  28.035  24.869  1.00  0.00     0.054 A 
ATOM     20  C   UNL A   1      31.794  28.866  23.800  1.00  0.00     0.030 A 
ATOM     21  C   UNL A   1      33.325  28.461  26.094  1.00  0.00     0.124 A 
ATOM     22  C   UNL A   1      31.331  29.312  25.043  1.00  0.00     0.019 A 
ATOM     23  Br  UNL A   1      30.666  29.133  22.297  1.00  0.00    -0.050 Br
ATOM     24  F   UNL A   1      34.045  28.241  27.201  1.00  0.00    -0.207 F 
ATOM     25  C   UNL A   1      32.093  29.097  26.193  1.00  0.00     0.040 A 
ENDBRANCH  15  18
ENDBRANCH  13  14
ENDBRANCH   8  13
ENDBRANCH   5   8
ENDBRANCH   3   4
ENDBRANCH   2   3
ENDBRANCH   1   2
BRANCH   1  26
ATOM     26  C   UNL A   1      37.487  23.335  25.650  1.00  0.00     0.002 C 
BRANCH  26  27
ATOM     27  C   UNL A   1      38.835  23.847  26.164  1.00  0.00     0.021 C 
BRANCH  27  28
ATOM     28  C   UNL A   1      39.661  22.806  26.911  1.00  0.00     0.116 C 
BRANCH  28  29
ATOM     29  N   UNL A   1      40.803  22.360  26.130  1.00  0.00    -0.352 N 
ATOM     30  C   UNL A   1      41.929  23.059  25.772  1.00  0.00     0.251 C 
ATOM     31  H   UNL A   1      40.764  21.429  25.813  1.00  0.00     0.163 HD
ATOM     32  O   UNL A   1      42.696  22.600  24.932  1.00  0.00    -0.269 OA
BRANCH  30  33
ATOM     33  C   UNL A   1      42.202  24.370  26.398  1.00  0.00     0.039 A 
ATOM     34  C   UNL A   1      41.948  25.534  25.669  1.00  0.00     0.014 A 
ATOM     35  C   UNL A   1      42.709  24.449  27.698  1.00  0.00     0.014 A 
ATOM     36  C   UNL A   1      42.164  26.779  26.262  1.00  0.00     0.010 A 
ATOM     37  C   UNL A   1      42.847  25.688  28.314  1.00  0.00     0.010 A 
ATOM     38  C   UNL A   1      42.592  26.867  27.598  1.00  0.00    -0.014 A 
BRANCH  38  39
ATOM     39  C   UNL A   1      42.798  28.183  28.257  1.00  0.00     0.031 A 
ATOM     40  C   UNL A   1      41.620  28.942  28.809  1.00  0.00     0.074 A 
ATOM     41  C   UNL A   1      44.032  28.725  28.298  1.00  0.00     0.049 A 
ATOM     42  N   UNL A   1      41.587  30.130  29.353  1.00  0.00    -0.248 NA
ATOM     43  C   UNL A   1      40.301  28.291  28.715  1.00  0.00     0.031 C 
ATOM     44  C   UNL A   1      45.243  28.120  27.736  1.00  0.00     0.029 A 
ATOM     45  N   UNL A   1      44.469  29.921  28.813  1.00  0.00    -0.354 N 
ATOM     46  C   UNL A   1      40.251  30.380  29.641  1.00  0.00     0.074 A 
ATOM     47  C   UNL A   1      39.496  29.239  29.172  1.00  0.00     0.031 C 
ATOM     48  C   UNL A   1      46.282  28.949  27.935  1.00  0.00     0.029 A 
ATOM     49  C   UNL A   1      45.809  30.155  28.605  1.00  0.00     0.049 A 
ATOM     50  H   UNL A   1      43.878  30.550  29.286  1.00  0.00     0.167 HD
ATOM     51  C   UNL A   1      39.701  31.446  30.271  1.00  0.00     0.034 A 
ATOM     52  C   UNL A   1      46.566  31.229  28.907  1.00  0.00     0.034 A 
ATOM     53  C   UNL A   1      40.457  32.562  30.769  1.00  0.00     0.049 A 
ATOM     54  C   UNL A   1      45.931  32.390  29.625  1.00  0.00     0.074 A 
ATOM     55  C   UNL A   1      40.002  33.663  31.472  1.00  0.00     0.029 A 
ATOM     56  N   UNL A   1      41.826  32.722  30.618  1.00  0.00    -0.354 N 
ATOM     57  N   UNL A   1      44.687  32.546  30.007  1.00  0.00    -0.248 NA
ATOM     58  C   UNL A   1      46.814  33.509  29.990  1.00  0.00     0.031 C 
ATOM     59  C   UNL A   1      41.092  34.501  31.726  1.00  0.00     0.029 A 
ATOM     60  C   UNL A   1      42.231  33.902  31.216  1.00  0.00     0.049 A 
ATOM     61  H   UNL A   1      42.420  32.089  30.154  1.00  0.00     0.167 HD
ATOM     62  C   UNL A   1      44.648  33.753  30.695  1.00  0.00     0.074 A 
ATOM     63  C   UNL A   1      45.996  34.277  30.696  1.00  0.00     0.031 C 
ATOM     64  C   UNL A   1      43.589  34.377  31.266  1.00  0.00     0.034 A 
BRANCH  51  65
ATOM     65  C   UNL A   1      38.215  31.430  30.517  1.00  0.00     0.023 A 
ATOM     66  C   UNL A   1      37.727  31.066  31.788  1.00  0.00     0.012 A 
ATOM     67  C   UNL A   1      37.310  31.854  29.525  1.00  0.00     0.148 A 
ATOM     68  C   UNL A   1      36.360  31.096  32.061  1.00  0.00     0.002 A 
ATOM     69  C   UNL A   1      35.954  31.928  29.819  1.00  0.00     0.091 A 
ATOM     70  F   UNL A   1      37.792  32.182  28.317  1.00  0.00    -0.205 F 
ATOM     71  C   UNL A   1      35.476  31.538  31.080  1.00  0.00     0.022 A 
BRANCH  69  72
ATOM     72  S   UNL A   1      34.738  32.559  28.656  1.00  0.00     0.127 S 
ATOM     73  O   UNL A   1      34.194  31.322  28.098  1.00  0.00    -0.237 OA
ATOM     74  O   UNL A   1      33.823  33.285  29.537  1.00  0.00    -0.237 OA
ATOM     75  O   UNL A   1      35.472  33.393  27.716  1.00  0.00    -0.744 OA
ENDBRANCH  69  72
ENDBRANCH  51  65
BRANCH  52  76
ATOM     76  C   UNL A   1      48.019  31.248  28.569  1.00  0.00     0.023 A 
ATOM     77  C   UNL A   1      48.445  31.807  27.348  1.00  0.00     0.012 A 
ATOM     78  C   UNL A   1      48.978  30.700  29.443  1.00  0.00     0.148 A 
ATOM     79  C   UNL A   1      49.790  31.770  26.979  1.00  0.00     0.002 A 
ATOM     80  C   UNL A   1      50.323  30.722  29.097  1.00  0.00     0.091 A 
ATOM     81  F   UNL A   1      48.554  30.165  30.597  1.00  0.00    -0.205 F 
ATOM     82  C   UNL A   1      50.730  31.235  27.856  1.00  0.00     0.022 A 
BRANCH  80  83
ATOM     83  S   UNL A   1      51.611  30.177  30.224  1.00  0.00     0.127 S 
ATOM     84  O   UNL A   1      52.819  30.609  29.527  1.00  0.00    -0.237 OA
ATOM     85  O   UNL A   1      51.294  30.933  31.436  1.00  0.00    -0.237 OA
ATOM     86  O   UNL A   1      51.431  28.737  30.354  1.00  0.00    -0.744 OA
ENDBRANCH  80  83
ENDBRANCH  52  76
BRANCH  64  87
ATOM     87  C   UNL A   1      43.848  35.666  32.001  1.00  0.00     0.023 A 
ATOM     88  C   UNL A   1      44.114  35.654  33.384  1.00  0.00     0.012 A 
ATOM     89  C   UNL A   1      43.897  36.887  31.298  1.00  0.00     0.148 A 
ATOM     90  C   UNL A   1      44.386  36.840  34.064  1.00  0.00     0.002 A 
ATOM     91  C   UNL A   1      44.223  38.057  31.970  1.00  0.00     0.091 A 
ATOM     92  F   UNL A   1      43.624  36.879  29.985  1.00  0.00    -0.205 F 
ATOM     93  C   UNL A   1      44.454  38.038  33.355  1.00  0.00     0.022 A 
BRANCH  91  94
ATOM     94  S   UNL A   1      44.432  39.628  31.125  1.00  0.00     0.127 S 
ATOM     95  O   UNL A   1      43.114  39.817  30.520  1.00  0.00    -0.237 OA
ATOM     96  O   UNL A   1      44.732  40.536  32.232  1.00  0.00    -0.237 OA
ATOM     97  O   UNL A   1      45.528  39.437  30.184  1.00  0.00    -0.744 OA
ENDBRANCH  91  94
ENDBRANCH  64  87
ENDBRANCH  38  39
ENDBRANCH  30  33
ENDBRANCH  28  29
ENDBRANCH  27  28
ENDBRANCH  26  27
ENDBRANCH   1  26
TORSDOF 21
ENDMDL
MODEL 3
REMARK VINA RESULT:      -9.6      3.245      8.328
REMARK SMILES CC(C)C[C@H](CNC(=O)c1cc(F)ccc1Br)C(=O)NCCCCCCNC(=O)c1ccc(-c2c3nc(c(-c4cccc(S(=O)(=O)[O-])c4F)c4ccc([nH]4)c(-c4cccc(S(=O)(=O)[O-])c4F)c4nc(c(-c5cccc(S(=O)(=O)[O-])c5F)c5ccc2[nH]5)C=C4)C=C3)cc1
REMARK SMILES IDX 23 1 22 2 21 3 20 4 18 5 19 6 5 8 4 9 2 10 1 11 3 12 6 13
REMARK SMILES IDX 7 14 8 15 9 17 10 18 11 19 16 20 12 21 15 22 17 23 13 24
REMARK SMILES IDX 14 25 24 26 25 27 26 28 27 29 28 30 29 32 30 33 31 34 92 35
REMARK SMILES IDX 32 36 91 37 33 38 34 39 35 40 85 41 36 42 90 43 84 44 86 45
REMARK SMILES IDX 37 46 89 47 83 48 82 49 38 51 70 52 50 53 69 54 51 55 54 56
REMARK SMILES IDX 68 57 87 58 52 59 53 60 67 62 88 63 55 64 39 65 40 66 48 67
REMARK SMILES IDX 41 68 43 69 49 70 42 71 44 72 45 73 46 74 47 75 71 76 72 77
REMARK SMILES IDX 80 78 73 79 75 80 81 81 74 82 76 83 77 84 78 85 79 86 56 87
REMARK SMILES IDX 57 88 65 89 58 90 60 91 66 92 59 93 61 94 62 95 63 96 64 97
REMARK H PARENT 20 7 7 16 27 31 86 50 54 61
REMARK Flexibility Score: inf
ROOT
ATOM      1  C   UNL A   1      37.543  21.717  25.211  1.00  0.00     0.002 C 
ENDROOT
BRANCH   1   2
ATOM      2  C   UNL A   1      36.923  22.042  23.849  1.00  0.00     0.021 C 
BRANCH   2   3
ATOM      3  C   UNL A   1      35.787  23.062  23.916  1.00  0.00     0.116 C 
BRANCH   3   4
ATOM      4  N   UNL A   1      34.980  23.021  22.707  1.00  0.00    -0.356 N 
ATOM      5  C   UNL A   1      33.727  23.487  22.456  1.00  0.00     0.224 C 
ATOM      6  O   UNL A   1      33.226  23.234  21.357  1.00  0.00    -0.275 OA
ATOM      7  H   UNL A   1      35.414  22.579  21.941  1.00  0.00     0.163 HD
BRANCH   5   8
ATOM      8  C   UNL A   1      32.963  24.313  23.484  1.00  0.00     0.098 C 
BRANCH   8   9
ATOM      9  C   UNL A   1      32.102  23.417  24.399  1.00  0.00     0.018 C 
BRANCH   9  10
ATOM     10  C   UNL A   1      32.600  23.360  25.863  1.00  0.00    -0.017 C 
ATOM     11  C   UNL A   1      33.453  24.579  26.222  1.00  0.00     0.007 C 
ATOM     12  C   UNL A   1      31.402  23.274  26.811  1.00  0.00     0.007 C 
ENDBRANCH   9  10
ENDBRANCH   8   9
BRANCH   8  13
ATOM     13  C   UNL A   1      32.254  25.479  22.780  1.00  0.00     0.129 C 
BRANCH  13  14
ATOM     14  N   UNL A   1      33.147  26.411  22.110  1.00  0.00    -0.351 N 
ATOM     15  C   UNL A   1      33.506  27.683  22.464  1.00  0.00     0.252 C 
ATOM     16  H   UNL A   1      33.553  26.077  21.278  1.00  0.00     0.163 HD
ATOM     17  O   UNL A   1      34.238  28.353  21.742  1.00  0.00    -0.269 OA
BRANCH  15  18
ATOM     18  C   UNL A   1      33.036  28.233  23.745  1.00  0.00     0.056 A 
ATOM     19  C   UNL A   1      33.854  28.059  24.871  1.00  0.00     0.054 A 
ATOM     20  C   UNL A   1      31.823  28.921  23.854  1.00  0.00     0.030 A 
ATOM     21  C   UNL A   1      33.422  28.524  26.103  1.00  0.00     0.124 A 
ATOM     22  C   UNL A   1      31.415  29.406  25.101  1.00  0.00     0.019 A 
ATOM     23  Br  UNL A   1      30.651  29.186  22.384  1.00  0.00    -0.050 Br
ATOM     24  F   UNL A   1      34.174  28.308  27.189  1.00  0.00    -0.207 F 
ATOM     25  C   UNL A   1      32.212  29.195  26.229  1.00  0.00     0.040 A 
ENDBRANCH  15  18
ENDBRANCH  13  14
ENDBRANCH   8  13
ENDBRANCH   5   8
ENDBRANCH   3   4
ENDBRANCH   2   3
ENDBRANCH   1   2
BRANCH   1  26
ATOM     26  C   UNL A   1      37.659  22.911  26.162  1.00  0.00     0.002 C 
BRANCH  26  27
ATOM     27  C   UNL A   1      39.093  23.356  26.464  1.00  0.00     0.021 C 
BRANCH  27  28
ATOM     28  C   UNL A   1      39.974  22.269  27.072  1.00  0.00     0.116 C 
BRANCH  28  29
ATOM     29  N   UNL A   1      41.128  21.979  26.237  1.00  0.00    -0.352 N 
ATOM     30  C   UNL A   1      42.120  22.827  25.813  1.00  0.00     0.251 C 
ATOM     31  H   UNL A   1      41.208  21.046  25.933  1.00  0.00     0.163 HD
ATOM     32  O   UNL A   1      42.903  22.468  24.939  1.00  0.00    -0.269 OA
BRANCH  30  33
ATOM     33  C   UNL A   1      42.231  24.174  26.410  1.00  0.00     0.039 A 
ATOM     34  C   UNL A   1      42.557  24.291  27.763  1.00  0.00     0.014 A 
ATOM     35  C   UNL A   1      42.013  25.317  25.636  1.00  0.00     0.014 A 
ATOM     36  C   UNL A   1      42.703  25.559  28.330  1.00  0.00     0.010 A 
ATOM     37  C   UNL A   1      42.238  26.577  26.182  1.00  0.00     0.010 A 
ATOM     38  C   UNL A   1      42.569  26.712  27.538  1.00  0.00    -0.014 A 
BRANCH  38  39
ATOM     39  C   UNL A   1      42.752  28.069  28.116  1.00  0.00     0.031 A 
ATOM     40  C   UNL A   1      44.135  28.648  28.257  1.00  0.00     0.074 A 
ATOM     41  C   UNL A   1      41.683  28.751  28.574  1.00  0.00     0.049 A 
ATOM     42  N   UNL A   1      44.504  29.779  28.798  1.00  0.00    -0.248 NA
ATOM     43  C   UNL A   1      45.255  27.837  27.746  1.00  0.00     0.031 C 
ATOM     44  C   UNL A   1      40.299  28.270  28.558  1.00  0.00     0.029 A 
ATOM     45  N   UNL A   1      41.596  29.986  29.169  1.00  0.00    -0.354 N 
ATOM     46  C   UNL A   1      45.891  29.806  28.717  1.00  0.00     0.074 A 
ATOM     47  C   UNL A   1      46.304  28.558  28.115  1.00  0.00     0.031 C 
ATOM     48  C   UNL A   1      39.504  29.197  29.118  1.00  0.00     0.029 A 
ATOM     49  C   UNL A   1      40.320  30.320  29.563  1.00  0.00     0.049 A 
ATOM     50  H   UNL A   1      42.372  30.576  29.300  1.00  0.00     0.167 HD
ATOM     51  C   UNL A   1      46.745  30.793  29.078  1.00  0.00     0.034 A 
ATOM     52  C   UNL A   1      39.865  31.403  30.224  1.00  0.00     0.034 A 
ATOM     53  C   UNL A   1      46.330  32.047  29.643  1.00  0.00     0.049 A 
ATOM     54  C   UNL A   1      40.835  32.492  30.595  1.00  0.00     0.074 A 
ATOM     55  C   UNL A   1      47.113  33.135  29.990  1.00  0.00     0.029 A 
ATOM     56  N   UNL A   1      45.021  32.384  29.947  1.00  0.00    -0.354 N 
ATOM     57  N   UNL A   1      42.128  32.554  30.387  1.00  0.00    -0.248 NA
ATOM     58  C   UNL A   1      40.278  33.682  31.257  1.00  0.00     0.031 C 
ATOM     59  C   UNL A   1      46.279  34.122  30.524  1.00  0.00     0.029 A 
ATOM     60  C   UNL A   1      44.973  33.663  30.473  1.00  0.00     0.049 A 
ATOM     61  H   UNL A   1      44.240  31.800  29.807  1.00  0.00     0.167 HD
ATOM     62  C   UNL A   1      42.528  33.803  30.848  1.00  0.00     0.074 A 
ATOM     63  C   UNL A   1      41.339  34.473  31.327  1.00  0.00     0.031 C 
ATOM     64  C   UNL A   1      43.772  34.342  30.883  1.00  0.00     0.034 A 
BRANCH  51  65
ATOM     65  C   UNL A   1      48.214  30.585  28.815  1.00  0.00     0.023 A 
ATOM     66  C   UNL A   1      48.766  31.013  27.590  1.00  0.00     0.012 A 
ATOM     67  C   UNL A   1      49.061  30.049  29.805  1.00  0.00     0.148 A 
ATOM     68  C   UNL A   1      50.131  30.885  27.341  1.00  0.00     0.002 A 
ATOM     69  C   UNL A   1      50.428  29.969  29.568  1.00  0.00     0.091 A 
ATOM     70  F   UNL A   1      48.515  29.635  30.957  1.00  0.00    -0.205 F 
ATOM     71  C   UNL A   1      50.963  30.374  28.334  1.00  0.00     0.022 A 
BRANCH  69  72
ATOM     72  S   UNL A   1      51.599  29.403  30.808  1.00  0.00     0.127 S 
ATOM     73  O   UNL A   1      50.957  28.178  31.282  1.00  0.00    -0.237 OA
ATOM     74  O   UNL A   1      52.807  29.188  30.011  1.00  0.00    -0.237 OA
ATOM     75  O   UNL A   1      51.696  30.471  31.791  1.00  0.00    -0.744 OA
ENDBRANCH  69  72
ENDBRANCH  51  65
BRANCH  52  76
ATOM     76  C   UNL A   1      38.415  31.535  30.548  1.00  0.00     0.023 A 
ATOM     77  C   UNL A   1      37.916  31.002  31.753  1.00  0.00     0.012 A 
ATOM     78  C   UNL A   1      37.525  32.172  29.661  1.00  0.00     0.148 A 
ATOM     79  C   UNL A   1      36.552  31.050  32.042  1.00  0.00     0.002 A 
ATOM     80  C   UNL A   1      36.178  32.271  29.984  1.00  0.00     0.091 A 
ATOM     81  F   UNL A   1      38.015  32.666  28.515  1.00  0.00    -0.205 F 
ATOM     82  C   UNL A   1      35.684  31.691  31.162  1.00  0.00     0.022 A 
BRANCH  80  83
ATOM     83  S   UNL A   1      35.016  33.196  28.973  1.00  0.00     0.127 S 
ATOM     84  O   UNL A   1      35.529  34.557  29.099  1.00  0.00    -0.237 OA
ATOM     85  O   UNL A   1      35.204  32.584  27.657  1.00  0.00    -0.237 OA
ATOM     86  O   UNL A   1      33.706  32.952  29.562  1.00  0.00    -0.744 OA
ENDBRANCH  80  83
ENDBRANCH  52  76
BRANCH  64  87
ATOM     87  C   UNL A   1      43.910  35.752  31.394  1.00  0.00     0.023 A 
ATOM     88  C   UNL A   1      44.160  35.991  32.759  1.00  0.00     0.012 A 
ATOM     89  C   UNL A   1      43.862  36.840  30.499  1.00  0.00     0.148 A 
ATOM     90  C   UNL A   1      44.321  37.293  33.233  1.00  0.00     0.002 A 
ATOM     91  C   UNL A   1      44.079  38.129  30.968  1.00  0.00     0.091 A 
ATOM     92  F   UNL A   1      43.606  36.592  29.206  1.00  0.00    -0.205 F 
ATOM     93  C   UNL A   1      44.294  38.359  32.336  1.00  0.00     0.022 A 
BRANCH  91  94
ATOM     94  S   UNL A   1      44.161  39.551  29.873  1.00  0.00     0.127 S 
ATOM     95  O   UNL A   1      44.308  40.650  30.825  1.00  0.00    -0.237 OA
ATOM     96  O   UNL A   1      45.359  39.262  29.083  1.00  0.00    -0.237 OA
ATOM     97  O   UNL A   1      42.919  39.547  29.112  1.00  0.00    -0.744 OA
ENDBRANCH  91  94
ENDBRANCH  64  87
ENDBRANCH  38  39
ENDBRANCH  30  33
ENDBRANCH  28  29
ENDBRANCH  27  28
ENDBRANCH  26  27
ENDBRANCH   1  26
TORSDOF 21
ENDMDL
