MODEL 1
REMARK VINA RESULT:     -11.6      0.000      0.000
REMARK SMILES CCn1cnc(S(=O)(=O)N2CCC(C)(C(=O)NCCCCCCNC(=O)c3ccc(-c4c5nc(c(-c6cccc(S(=O)(=O)[O-])c6F)c6ccc([nH]6)c(-c6cccc(S(=O)(=O)[O-])c6F)c6nc(c(-c7cccc(S(=O)(=O)[O-])c7F)c7ccc4[nH]7)C=C6)C=C5)cc3)CC2)c1
REMARK SMILES IDX 20 1 19 2 18 3 17 4 15 5 16 6 13 8 10 9 11 10 91 11 12 12
REMARK SMILES IDX 90 13 14 14 7 15 8 16 9 17 6 18 3 19 4 20 92 21 5 22 2 23
REMARK SMILES IDX 1 24 21 25 22 26 23 27 24 28 25 29 26 31 27 32 28 33 89 34
REMARK SMILES IDX 29 35 88 36 30 37 31 38 32 39 82 40 33 41 87 42 81 43 83 44
REMARK SMILES IDX 34 45 86 46 80 47 79 48 35 50 67 51 47 52 66 53 48 54 51 55
REMARK SMILES IDX 65 56 84 57 49 58 50 59 64 61 85 62 52 63 36 64 37 65 45 66
REMARK SMILES IDX 38 67 40 68 46 69 39 70 41 71 42 72 43 73 44 74 68 75 69 76
REMARK SMILES IDX 77 77 70 78 72 79 78 80 71 81 73 82 74 83 75 84 76 85 53 86
REMARK SMILES IDX 54 87 62 88 55 89 57 90 63 91 56 92 58 93 59 94 60 95 61 96
REMARK H PARENT 17 7 24 30 83 49 51 60
REMARK Flexibility Score: inf
ROOT
ATOM      1  C   UNL A   1      32.698  28.985  24.973  1.00  0.00     0.002 C 
ENDROOT
BRANCH   1   2
ATOM      2  C   UNL A   1      31.259  28.505  24.801  1.00  0.00     0.021 C 
BRANCH   2   3
ATOM      3  C   UNL A   1      31.150  27.152  24.110  1.00  0.00     0.116 C 
BRANCH   3   4
ATOM      4  N   UNL A   1      32.148  27.002  23.056  1.00  0.00    -0.356 N 
ATOM      5  C   UNL A   1      32.927  25.938  22.698  1.00  0.00     0.226 C 
ATOM      6  O   UNL A   1      33.735  26.103  21.781  1.00  0.00    -0.275 OA
ATOM      7  H   UNL A   1      32.285  27.808  22.508  1.00  0.00     0.163 HD
BRANCH   5   8
ATOM      8  C   UNL A   1      32.750  24.581  23.397  1.00  0.00     0.049 C 
ATOM      9  N   UNL A   1      35.013  23.345  24.777  1.00  0.00    -0.196 NA
ATOM     10  C   UNL A   1      34.427  24.506  25.438  1.00  0.00     0.103 C 
ATOM     11  C   UNL A   1      35.091  23.471  23.327  1.00  0.00     0.103 C 
ATOM     12  C   UNL A   1      33.009  24.782  24.930  1.00  0.00     0.033 C 
ATOM     13  C   UNL A   1      33.688  23.507  22.760  1.00  0.00     0.033 C 
ATOM     14  C   UNL A   1      31.316  24.098  23.021  1.00  0.00     0.022 C 
BRANCH   9  15
ATOM     15  S   UNL A   1      35.222  21.862  25.569  1.00  0.00     0.262 S 
ATOM     16  O   UNL A   1      34.861  22.037  26.962  1.00  0.00    -0.205 OA
ATOM     17  O   UNL A   1      36.504  21.327  25.169  1.00  0.00    -0.205 OA
BRANCH  15  18
ATOM     18  C   UNL A   1      34.070  20.665  24.990  1.00  0.00     0.188 A 
ATOM     19  N   UNL A   1      33.183  18.780  24.288  1.00  0.00    -0.336 N 
ATOM     20  C   UNL A   1      32.216  19.736  24.374  1.00  0.00     0.201 A 
ATOM     21  C   UNL A   1      34.354  19.366  24.657  1.00  0.00     0.129 A 
ATOM     22  N   UNL A   1      32.705  20.878  24.820  1.00  0.00    -0.224 NA
BRANCH  19  23
ATOM     23  C   UNL A   1      33.036  17.373  23.981  1.00  0.00     0.120 C 
ATOM     24  C   UNL A   1      34.291  16.745  23.394  1.00  0.00     0.027 C 
ENDBRANCH  19  23
ENDBRANCH  15  18
ENDBRANCH   9  15
ENDBRANCH   5   8
ENDBRANCH   3   4
ENDBRANCH   2   3
ENDBRANCH   1   2
BRANCH   1  25
ATOM     25  C   UNL A   1      33.359  28.607  26.305  1.00  0.00     0.002 C 
BRANCH  25  26
ATOM     26  C   UNL A   1      33.293  29.660  27.421  1.00  0.00     0.021 C 
BRANCH  26  27
ATOM     27  C   UNL A   1      34.233  30.837  27.214  1.00  0.00     0.116 C 
BRANCH  27  28
ATOM     28  N   UNL A   1      34.199  31.765  28.341  1.00  0.00    -0.352 N 
ATOM     29  C   UNL A   1      34.997  31.770  29.464  1.00  0.00     0.251 C 
ATOM     30  H   UNL A   1      33.521  32.477  28.291  1.00  0.00     0.163 HD
ATOM     31  O   UNL A   1      34.640  32.355  30.481  1.00  0.00    -0.269 OA
BRANCH  29  32
ATOM     32  C   UNL A   1      36.285  31.059  29.417  1.00  0.00     0.039 A 
ATOM     33  C   UNL A   1      37.486  31.755  29.272  1.00  0.00     0.014 A 
ATOM     34  C   UNL A   1      36.275  29.672  29.558  1.00  0.00     0.014 A 
ATOM     35  C   UNL A   1      38.679  31.046  29.350  1.00  0.00     0.010 A 
ATOM     36  C   UNL A   1      37.447  29.000  29.792  1.00  0.00     0.010 A 
ATOM     37  C   UNL A   1      38.653  29.670  29.634  1.00  0.00    -0.014 A 
BRANCH  37  38
ATOM     38  C   UNL A   1      39.894  28.941  29.855  1.00  0.00     0.031 A 
ATOM     39  C   UNL A   1      40.346  28.907  31.270  1.00  0.00     0.074 A 
ATOM     40  C   UNL A   1      40.516  28.213  28.903  1.00  0.00     0.049 A 
ATOM     41  N   UNL A   1      41.299  29.599  31.798  1.00  0.00    -0.248 NA
ATOM     42  C   UNL A   1      39.551  28.146  32.245  1.00  0.00     0.031 C 
ATOM     43  C   UNL A   1      40.038  27.868  27.558  1.00  0.00     0.029 A 
ATOM     44  N   UNL A   1      41.680  27.517  28.995  1.00  0.00    -0.354 N 
ATOM     45  C   UNL A   1      41.391  29.168  33.118  1.00  0.00     0.074 A 
ATOM     46  C   UNL A   1      40.173  28.451  33.388  1.00  0.00     0.031 C 
ATOM     47  C   UNL A   1      40.768  26.841  27.071  1.00  0.00     0.029 A 
ATOM     48  C   UNL A   1      41.873  26.592  27.975  1.00  0.00     0.049 A 
ATOM     49  H   UNL A   1      42.331  27.655  29.721  1.00  0.00     0.167 HD
ATOM     50  C   UNL A   1      42.576  29.217  33.790  1.00  0.00     0.034 A 
ATOM     51  C   UNL A   1      42.857  25.665  27.905  1.00  0.00     0.034 A 
ATOM     52  C   UNL A   1      43.551  29.998  33.068  1.00  0.00     0.049 A 
ATOM     53  C   UNL A   1      43.958  26.136  28.773  1.00  0.00     0.074 A 
ATOM     54  C   UNL A   1      43.637  31.302  32.623  1.00  0.00     0.029 A 
ATOM     55  N   UNL A   1      44.486  29.288  32.356  1.00  0.00    -0.354 N 
ATOM     56  N   UNL A   1      44.654  27.209  28.529  1.00  0.00    -0.248 NA
ATOM     57  C   UNL A   1      44.012  25.647  30.140  1.00  0.00     0.031 C 
ATOM     58  C   UNL A   1      44.285  31.213  31.354  1.00  0.00     0.029 A 
ATOM     59  C   UNL A   1      44.616  29.875  31.127  1.00  0.00     0.049 A 
ATOM     60  H   UNL A   1      44.977  28.496  32.674  1.00  0.00     0.167 HD
ATOM     61  C   UNL A   1      44.837  27.787  29.778  1.00  0.00     0.074 A 
ATOM     62  C   UNL A   1      44.537  26.722  30.733  1.00  0.00     0.031 C 
ATOM     63  C   UNL A   1      44.927  29.143  29.916  1.00  0.00     0.034 A 
BRANCH  50  64
ATOM     64  C   UNL A   1      43.013  28.264  34.882  1.00  0.00     0.023 A 
ATOM     65  C   UNL A   1      43.488  28.841  36.083  1.00  0.00     0.012 A 
ATOM     66  C   UNL A   1      43.249  26.884  34.700  1.00  0.00     0.148 A 
ATOM     67  C   UNL A   1      44.214  28.099  37.020  1.00  0.00     0.002 A 
ATOM     68  C   UNL A   1      43.901  26.132  35.672  1.00  0.00     0.091 A 
ATOM     69  F   UNL A   1      42.967  26.304  33.531  1.00  0.00    -0.205 F 
ATOM     70  C   UNL A   1      44.416  26.742  36.817  1.00  0.00     0.022 A 
BRANCH  68  71
ATOM     71  S   UNL A   1      44.147  24.361  35.489  1.00  0.00     0.127 S 
ATOM     72  O   UNL A   1      44.753  24.017  36.771  1.00  0.00    -0.237 OA
ATOM     73  O   UNL A   1      42.774  23.890  35.302  1.00  0.00    -0.237 OA
ATOM     74  O   UNL A   1      44.996  24.202  34.315  1.00  0.00    -0.744 OA
ENDBRANCH  68  71
ENDBRANCH  50  64
BRANCH  51  75
ATOM     75  C   UNL A   1      42.810  24.284  27.377  1.00  0.00     0.023 A 
ATOM     76  C   UNL A   1      41.600  23.563  27.417  1.00  0.00     0.012 A 
ATOM     77  C   UNL A   1      43.854  23.798  26.561  1.00  0.00     0.148 A 
ATOM     78  C   UNL A   1      41.419  22.419  26.633  1.00  0.00     0.002 A 
ATOM     79  C   UNL A   1      43.669  22.660  25.784  1.00  0.00     0.091 A 
ATOM     80  F   UNL A   1      44.988  24.507  26.473  1.00  0.00    -0.205 F 
ATOM     81  C   UNL A   1      42.448  21.975  25.807  1.00  0.00     0.022 A 
BRANCH  79  82
ATOM     82  S   UNL A   1      44.938  22.052  24.665  1.00  0.00     0.127 S 
ATOM     83  O   UNL A   1      44.371  20.770  24.245  1.00  0.00    -0.237 OA
ATOM     84  O   UNL A   1      44.948  23.090  23.638  1.00  0.00    -0.237 OA
ATOM     85  O   UNL A   1      46.152  21.941  25.465  1.00  0.00    -0.744 OA
ENDBRANCH  79  82
ENDBRANCH  51  75
BRANCH  63  86
ATOM     86  C   UNL A   1      45.133  29.971  28.672  1.00  0.00     0.023 A 
ATOM     87  C   UNL A   1      44.066  30.417  27.862  1.00  0.00     0.012 A 
ATOM     88  C   UNL A   1      46.428  30.444  28.407  1.00  0.00     0.148 A 
ATOM     89  C   UNL A   1      44.294  31.296  26.800  1.00  0.00     0.002 A 
ATOM     90  C   UNL A   1      46.644  31.356  27.382  1.00  0.00     0.091 A 
ATOM     91  F   UNL A   1      47.431  30.012  29.187  1.00  0.00    -0.205 F 
ATOM     92  C   UNL A   1      45.581  31.778  26.568  1.00  0.00     0.022 A 
BRANCH  90  93
ATOM     93  S   UNL A   1      48.253  32.103  27.119  1.00  0.00     0.127 S 
ATOM     94  O   UNL A   1      49.078  30.943  26.791  1.00  0.00    -0.237 OA
ATOM     95  O   UNL A   1      47.998  33.010  25.998  1.00  0.00    -0.237 OA
ATOM     96  O   UNL A   1      48.589  32.782  28.365  1.00  0.00    -0.744 OA
ENDBRANCH  90  93
ENDBRANCH  63  86
ENDBRANCH  37  38
ENDBRANCH  29  32
ENDBRANCH  27  28
ENDBRANCH  26  27
ENDBRANCH  25  26
ENDBRANCH   1  25
TORSDOF 19
ENDMDL
MODEL 2
REMARK VINA RESULT:     -11.6      1.428      1.786
REMARK SMILES CCn1cnc(S(=O)(=O)N2CCC(C)(C(=O)NCCCCCCNC(=O)c3ccc(-c4c5nc(c(-c6cccc(S(=O)(=O)[O-])c6F)c6ccc([nH]6)c(-c6cccc(S(=O)(=O)[O-])c6F)c6nc(c(-c7cccc(S(=O)(=O)[O-])c7F)c7ccc4[nH]7)C=C6)C=C5)cc3)CC2)c1
REMARK SMILES IDX 20 1 19 2 18 3 17 4 15 5 16 6 13 8 10 9 11 10 91 11 12 12
REMARK SMILES IDX 90 13 14 14 7 15 8 16 9 17 6 18 3 19 4 20 92 21 5 22 2 23
REMARK SMILES IDX 1 24 21 25 22 26 23 27 24 28 25 29 26 31 27 32 28 33 89 34
REMARK SMILES IDX 29 35 88 36 30 37 31 38 32 39 82 40 33 41 87 42 81 43 83 44
REMARK SMILES IDX 34 45 86 46 80 47 79 48 35 50 67 51 47 52 66 53 48 54 51 55
REMARK SMILES IDX 65 56 84 57 49 58 50 59 64 61 85 62 52 63 36 64 37 65 45 66
REMARK SMILES IDX 38 67 40 68 46 69 39 70 41 71 42 72 43 73 44 74 68 75 69 76
REMARK SMILES IDX 77 77 70 78 72 79 78 80 71 81 73 82 74 83 75 84 76 85 53 86
REMARK SMILES IDX 54 87 62 88 55 89 57 90 63 91 56 92 58 93 59 94 60 95 61 96
REMARK H PARENT 17 7 24 30 83 49 51 60
REMARK Flexibility Score: inf
ROOT
ATOM      1  C   UNL A   1      33.830  28.533  25.349  1.00  0.00     0.002 C 
ENDROOT
BRANCH   1   2
ATOM      2  C   UNL A   1      32.839  29.279  24.459  1.00  0.00     0.021 C 
BRANCH   2   3
ATOM      3  C   UNL A   1      31.940  28.355  23.647  1.00  0.00     0.116 C 
BRANCH   3   4
ATOM      4  N   UNL A   1      32.697  27.599  22.655  1.00  0.00    -0.356 N 
ATOM      5  C   UNL A   1      32.924  26.258  22.524  1.00  0.00     0.226 C 
ATOM      6  O   UNL A   1      33.652  25.888  21.601  1.00  0.00    -0.275 OA
ATOM      7  H   UNL A   1      33.119  28.153  21.959  1.00  0.00     0.163 HD
BRANCH   5   8
ATOM      8  C   UNL A   1      32.245  25.263  23.479  1.00  0.00     0.049 C 
ATOM      9  N   UNL A   1      33.869  23.392  25.033  1.00  0.00    -0.196 NA
ATOM     10  C   UNL A   1      33.922  24.786  25.464  1.00  0.00     0.103 C 
ATOM     11  C   UNL A   1      33.844  23.226  23.585  1.00  0.00     0.103 C 
ATOM     12  C   UNL A   1      32.722  25.579  24.938  1.00  0.00     0.033 C 
ATOM     13  C   UNL A   1      32.547  23.793  23.046  1.00  0.00     0.033 C 
ATOM     14  C   UNL A   1      30.713  25.421  23.229  1.00  0.00     0.022 C 
BRANCH   9  15
ATOM     15  S   UNL A   1      33.490  22.129  26.095  1.00  0.00     0.262 S 
ATOM     16  O   UNL A   1      32.160  22.365  26.624  1.00  0.00    -0.205 OA
ATOM     17  O   UNL A   1      34.632  21.919  26.955  1.00  0.00    -0.205 OA
BRANCH  15  18
ATOM     18  C   UNL A   1      33.327  20.604  25.235  1.00  0.00     0.188 A 
ATOM     19  N   UNL A   1      33.784  18.665  24.304  1.00  0.00    -0.336 N 
ATOM     20  C   UNL A   1      32.455  18.931  24.175  1.00  0.00     0.201 A 
ATOM     21  C   UNL A   1      34.340  19.723  24.954  1.00  0.00     0.129 A 
ATOM     22  N   UNL A   1      32.134  20.077  24.747  1.00  0.00    -0.224 NA
BRANCH  19  23
ATOM     23  C   UNL A   1      34.503  17.460  23.943  1.00  0.00     0.120 C 
ATOM     24  C   UNL A   1      33.689  16.189  24.131  1.00  0.00     0.027 C 
ENDBRANCH  19  23
ENDBRANCH  15  18
ENDBRANCH   9  15
ENDBRANCH   5   8
ENDBRANCH   3   4
ENDBRANCH   2   3
ENDBRANCH   1   2
BRANCH   1  25
ATOM     25  C   UNL A   1      33.622  28.719  26.858  1.00  0.00     0.002 C 
BRANCH  25  26
ATOM     26  C   UNL A   1      33.335  30.150  27.334  1.00  0.00     0.021 C 
BRANCH  26  27
ATOM     27  C   UNL A   1      34.560  31.049  27.359  1.00  0.00     0.116 C 
BRANCH  27  28
ATOM     28  N   UNL A   1      34.436  32.112  28.353  1.00  0.00    -0.352 N 
ATOM     29  C   UNL A   1      35.070  32.216  29.572  1.00  0.00     0.251 C 
ATOM     30  H   UNL A   1      33.821  32.846  28.123  1.00  0.00     0.163 HD
ATOM     31  O   UNL A   1      34.617  32.942  30.451  1.00  0.00    -0.269 OA
BRANCH  29  32
ATOM     32  C   UNL A   1      36.300  31.439  29.796  1.00  0.00     0.039 A 
ATOM     33  C   UNL A   1      36.248  30.065  30.034  1.00  0.00     0.014 A 
ATOM     34  C   UNL A   1      37.520  32.108  29.727  1.00  0.00     0.014 A 
ATOM     35  C   UNL A   1      37.444  29.361  30.123  1.00  0.00     0.010 A 
ATOM     36  C   UNL A   1      38.688  31.393  29.657  1.00  0.00     0.010 A 
ATOM     37  C   UNL A   1      38.662  30.028  29.911  1.00  0.00    -0.014 A 
BRANCH  37  38
ATOM     38  C   UNL A   1      39.911  29.281  29.863  1.00  0.00     0.031 A 
ATOM     39  C   UNL A   1      40.515  29.003  31.192  1.00  0.00     0.074 A 
ATOM     40  C   UNL A   1      40.416  28.737  28.735  1.00  0.00     0.049 A 
ATOM     41  N   UNL A   1      41.529  29.600  31.724  1.00  0.00    -0.248 NA
ATOM     42  C   UNL A   1      39.824  28.077  32.099  1.00  0.00     0.031 C 
ATOM     43  C   UNL A   1      39.789  28.630  27.412  1.00  0.00     0.029 A 
ATOM     44  N   UNL A   1      41.575  28.045  28.575  1.00  0.00    -0.354 N 
ATOM     45  C   UNL A   1      41.760  28.945  32.929  1.00  0.00     0.074 A 
ATOM     46  C   UNL A   1      40.571  28.182  33.202  1.00  0.00     0.031 C 
ATOM     47  C   UNL A   1      40.449  27.710  26.674  1.00  0.00     0.029 A 
ATOM     48  C   UNL A   1      41.644  27.315  27.394  1.00  0.00     0.049 A 
ATOM     49  H   UNL A   1      42.303  28.059  29.237  1.00  0.00     0.167 HD
ATOM     50  C   UNL A   1      43.012  28.884  33.465  1.00  0.00     0.034 A 
ATOM     51  C   UNL A   1      42.604  26.422  27.055  1.00  0.00     0.034 A 
ATOM     52  C   UNL A   1      43.911  29.788  32.788  1.00  0.00     0.049 A 
ATOM     53  C   UNL A   1      43.798  26.742  27.865  1.00  0.00     0.074 A 
ATOM     54  C   UNL A   1      43.963  31.150  32.572  1.00  0.00     0.029 A 
ATOM     55  N   UNL A   1      44.754  29.221  31.864  1.00  0.00    -0.354 N 
ATOM     56  N   UNL A   1      44.476  27.847  27.738  1.00  0.00    -0.248 NA
ATOM     57  C   UNL A   1      43.997  26.022  29.110  1.00  0.00     0.031 C 
ATOM     58  C   UNL A   1      44.467  31.290  31.243  1.00  0.00     0.029 A 
ATOM     59  C   UNL A   1      44.755  30.016  30.750  1.00  0.00     0.049 A 
ATOM     60  H   UNL A   1      45.267  28.390  31.982  1.00  0.00     0.167 HD
ATOM     61  C   UNL A   1      44.802  28.199  29.040  1.00  0.00     0.074 A 
ATOM     62  C   UNL A   1      44.596  26.980  29.821  1.00  0.00     0.031 C 
ATOM     63  C   UNL A   1      44.922  29.510  29.403  1.00  0.00     0.034 A 
BRANCH  50  64
ATOM     64  C   UNL A   1      43.555  27.759  34.318  1.00  0.00     0.023 A 
ATOM     65  C   UNL A   1      44.158  28.119  35.547  1.00  0.00     0.012 A 
ATOM     66  C   UNL A   1      43.762  26.435  33.870  1.00  0.00     0.148 A 
ATOM     67  C   UNL A   1      44.974  27.231  36.255  1.00  0.00     0.002 A 
ATOM     68  C   UNL A   1      44.508  25.531  34.619  1.00  0.00     0.091 A 
ATOM     69  F   UNL A   1      43.355  26.069  32.653  1.00  0.00    -0.205 F 
ATOM     70  C   UNL A   1      45.145  25.934  35.794  1.00  0.00     0.022 A 
BRANCH  68  71
ATOM     71  S   UNL A   1      44.722  23.824  34.099  1.00  0.00     0.127 S 
ATOM     72  O   UNL A   1      43.338  23.370  34.012  1.00  0.00    -0.237 OA
ATOM     73  O   UNL A   1      45.406  23.989  32.815  1.00  0.00    -0.237 OA
ATOM     74  O   UNL A   1      45.539  23.199  35.132  1.00  0.00    -0.744 OA
ENDBRANCH  68  71
ENDBRANCH  50  64
BRANCH  51  75
ATOM     75  C   UNL A   1      42.483  25.155  26.301  1.00  0.00     0.023 A 
ATOM     76  C   UNL A   1      43.440  24.835  25.318  1.00  0.00     0.012 A 
ATOM     77  C   UNL A   1      41.624  24.133  26.759  1.00  0.00     0.148 A 
ATOM     78  C   UNL A   1      43.569  23.527  24.839  1.00  0.00     0.002 A 
ATOM     79  C   UNL A   1      41.755  22.835  26.279  1.00  0.00     0.091 A 
ATOM     80  F   UNL A   1      40.748  24.414  27.733  1.00  0.00    -0.205 F 
ATOM     81  C   UNL A   1      42.736  22.524  25.329  1.00  0.00     0.022 A 
BRANCH  79  82
ATOM     82  S   UNL A   1      40.742  21.483  26.893  1.00  0.00     0.127 S 
ATOM     83  O   UNL A   1      39.430  21.823  26.343  1.00  0.00    -0.237 OA
ATOM     84  O   UNL A   1      41.389  20.326  26.280  1.00  0.00    -0.237 OA
ATOM     85  O   UNL A   1      40.823  21.557  28.347  1.00  0.00    -0.744 OA
ENDBRANCH  79  82
ENDBRANCH  51  75
BRANCH  63  86
ATOM     86  C   UNL A   1      45.000  30.544  28.308  1.00  0.00     0.023 A 
ATOM     87  C   UNL A   1      43.856  31.092  27.689  1.00  0.00     0.012 A 
ATOM     88  C   UNL A   1      46.258  31.093  28.012  1.00  0.00     0.148 A 
ATOM     89  C   UNL A   1      43.971  32.147  26.779  1.00  0.00     0.002 A 
ATOM     90  C   UNL A   1      46.365  32.173  27.147  1.00  0.00     0.091 A 
ATOM     91  F   UNL A   1      47.336  30.562  28.611  1.00  0.00    -0.205 F 
ATOM     92  C   UNL A   1      45.225  32.698  26.519  1.00  0.00     0.022 A 
BRANCH  90  93
ATOM     93  S   UNL A   1      47.933  33.000  26.872  1.00  0.00     0.127 S 
ATOM     94  O   UNL A   1      48.797  31.891  26.475  1.00  0.00    -0.237 OA
ATOM     95  O   UNL A   1      47.608  33.939  25.797  1.00  0.00    -0.237 OA
ATOM     96  O   UNL A   1      48.275  33.641  28.136  1.00  0.00    -0.744 OA
ENDBRANCH  90  93
ENDBRANCH  63  86
ENDBRANCH  37  38
ENDBRANCH  29  32
ENDBRANCH  27  28
ENDBRANCH  26  27
ENDBRANCH  25  26
ENDBRANCH   1  25
TORSDOF 19
ENDMDL
MODEL 3
REMARK VINA RESULT:     -11.3      2.922      9.001
REMARK SMILES CCn1cnc(S(=O)(=O)N2CCC(C)(C(=O)NCCCCCCNC(=O)c3ccc(-c4c5nc(c(-c6cccc(S(=O)(=O)[O-])c6F)c6ccc([nH]6)c(-c6cccc(S(=O)(=O)[O-])c6F)c6nc(c(-c7cccc(S(=O)(=O)[O-])c7F)c7ccc4[nH]7)C=C6)C=C5)cc3)CC2)c1
REMARK SMILES IDX 20 1 19 2 18 3 17 4 15 5 16 6 13 8 10 9 11 10 91 11 12 12
REMARK SMILES IDX 90 13 14 14 7 15 8 16 9 17 6 18 3 19 4 20 92 21 5 22 2 23
REMARK SMILES IDX 1 24 21 25 22 26 23 27 24 28 25 29 26 31 27 32 28 33 89 34
REMARK SMILES IDX 29 35 88 36 30 37 31 38 32 39 82 40 33 41 87 42 81 43 83 44
REMARK SMILES IDX 34 45 86 46 80 47 79 48 35 50 67 51 47 52 66 53 48 54 51 55
REMARK SMILES IDX 65 56 84 57 49 58 50 59 64 61 85 62 52 63 36 64 37 65 45 66
REMARK SMILES IDX 38 67 40 68 46 69 39 70 41 71 42 72 43 73 44 74 68 75 69 76
REMARK SMILES IDX 77 77 70 78 72 79 78 80 71 81 73 82 74 83 75 84 76 85 53 86
REMARK SMILES IDX 54 87 62 88 55 89 57 90 63 91 56 92 58 93 59 94 60 95 61 96
REMARK H PARENT 17 7 24 30 83 49 51 60
REMARK Flexibility Score: inf
ROOT
ATOM      1  C   UNL A   1      37.340  21.531  25.065  1.00  0.00     0.002 C 
ENDROOT
BRANCH   1   2
ATOM      2  C   UNL A   1      35.929  20.960  24.948  1.00  0.00     0.021 C 
BRANCH   2   3
ATOM      3  C   UNL A   1      34.982  21.457  26.033  1.00  0.00     0.116 C 
BRANCH   3   4
ATOM      4  N   UNL A   1      33.604  21.057  25.772  1.00  0.00    -0.356 N 
ATOM      5  C   UNL A   1      32.495  21.794  25.459  1.00  0.00     0.226 C 
ATOM      6  O   UNL A   1      31.426  21.194  25.335  1.00  0.00    -0.275 OA
ATOM      7  H   UNL A   1      33.444  20.088  25.831  1.00  0.00     0.163 HD
BRANCH   5   8
ATOM      8  C   UNL A   1      32.614  23.309  25.232  1.00  0.00     0.049 C 
ATOM      9  N   UNL A   1      32.272  24.412  22.545  1.00  0.00    -0.196 NA
ATOM     10  C   UNL A   1      31.054  23.938  23.194  1.00  0.00     0.103 C 
ATOM     11  C   UNL A   1      33.433  23.565  22.786  1.00  0.00     0.103 C 
ATOM     12  C   UNL A   1      31.233  23.837  24.712  1.00  0.00     0.033 C 
ATOM     13  C   UNL A   1      33.792  23.628  24.256  1.00  0.00     0.033 C 
ATOM     14  C   UNL A   1      33.085  23.903  26.595  1.00  0.00     0.022 C 
BRANCH   9  15
ATOM     15  S   UNL A   1      32.408  25.974  21.903  1.00  0.00     0.262 S 
ATOM     16  O   UNL A   1      31.478  26.092  20.797  1.00  0.00    -0.205 OA
ATOM     17  O   UNL A   1      33.816  26.268  21.758  1.00  0.00    -0.205 OA
BRANCH  15  18
ATOM     18  C   UNL A   1      31.843  27.182  23.049  1.00  0.00     0.188 A 
ATOM     19  N   UNL A   1      31.607  28.396  24.867  1.00  0.00    -0.336 N 
ATOM     20  C   UNL A   1      30.766  28.855  23.900  1.00  0.00     0.201 A 
ATOM     21  C   UNL A   1      32.273  27.332  24.343  1.00  0.00     0.129 A 
ATOM     22  N   UNL A   1      30.898  28.168  22.780  1.00  0.00    -0.224 NA
BRANCH  19  23
ATOM     23  C   UNL A   1      31.869  28.957  26.177  1.00  0.00     0.120 C 
ATOM     24  C   UNL A   1      31.802  27.934  27.300  1.00  0.00     0.027 C 
ENDBRANCH  19  23
ENDBRANCH  15  18
ENDBRANCH   9  15
ENDBRANCH   5   8
ENDBRANCH   3   4
ENDBRANCH   2   3
ENDBRANCH   1   2
BRANCH   1  25
ATOM     25  C   UNL A   1      37.423  22.958  25.622  1.00  0.00     0.002 C 
BRANCH  25  26
ATOM     26  C   UNL A   1      38.813  23.433  26.073  1.00  0.00     0.021 C 
BRANCH  26  27
ATOM     27  C   UNL A   1      39.596  22.392  26.855  1.00  0.00     0.116 C 
BRANCH  27  28
ATOM     28  N   UNL A   1      40.870  22.074  26.214  1.00  0.00    -0.352 N 
ATOM     29  C   UNL A   1      41.867  22.943  25.827  1.00  0.00     0.251 C 
ATOM     30  H   UNL A   1      41.036  21.120  26.037  1.00  0.00     0.163 HD
ATOM     31  O   UNL A   1      42.698  22.605  24.991  1.00  0.00    -0.269 OA
BRANCH  29  32
ATOM     32  C   UNL A   1      41.914  24.281  26.437  1.00  0.00     0.039 A 
ATOM     33  C   UNL A   1      41.471  25.405  25.739  1.00  0.00     0.014 A 
ATOM     34  C   UNL A   1      42.379  24.390  27.746  1.00  0.00     0.014 A 
ATOM     35  C   UNL A   1      41.429  26.626  26.403  1.00  0.00     0.010 A 
ATOM     36  C   UNL A   1      42.188  25.554  28.445  1.00  0.00     0.010 A 
ATOM     37  C   UNL A   1      41.768  26.689  27.765  1.00  0.00    -0.014 A 
BRANCH  37  38
ATOM     38  C   UNL A   1      41.597  27.929  28.509  1.00  0.00     0.031 A 
ATOM     39  C   UNL A   1      42.561  29.002  28.152  1.00  0.00     0.074 A 
ATOM     40  C   UNL A   1      40.560  28.167  29.341  1.00  0.00     0.049 A 
ATOM     41  N   UNL A   1      43.591  29.377  28.833  1.00  0.00    -0.248 NA
ATOM     42  C   UNL A   1      42.470  29.615  26.820  1.00  0.00     0.031 C 
ATOM     43  C   UNL A   1      39.353  27.357  29.552  1.00  0.00     0.029 A 
ATOM     44  N   UNL A   1      40.316  29.271  30.096  1.00  0.00    -0.354 N 
ATOM     45  C   UNL A   1      44.132  30.452  28.134  1.00  0.00     0.074 A 
ATOM     46  C   UNL A   1      43.544  30.410  26.822  1.00  0.00     0.031 C 
ATOM     47  C   UNL A   1      38.411  28.106  30.167  1.00  0.00     0.029 A 
ATOM     48  C   UNL A   1      39.009  29.365  30.561  1.00  0.00     0.049 A 
ATOM     49  H   UNL A   1      41.004  29.946  30.296  1.00  0.00     0.167 HD
ATOM     50  C   UNL A   1      44.818  31.436  28.782  1.00  0.00     0.034 A 
ATOM     51  C   UNL A   1      38.456  30.426  31.195  1.00  0.00     0.034 A 
ATOM     52  C   UNL A   1      45.120  31.050  30.140  1.00  0.00     0.049 A 
ATOM     53  C   UNL A   1      39.566  31.213  31.772  1.00  0.00     0.074 A 
ATOM     54  C   UNL A   1      45.823  30.027  30.742  1.00  0.00     0.029 A 
ATOM     55  N   UNL A   1      44.308  31.581  31.113  1.00  0.00    -0.354 N 
ATOM     56  N   UNL A   1      40.340  30.771  32.723  1.00  0.00    -0.248 NA
ATOM     57  C   UNL A   1      40.087  32.332  31.006  1.00  0.00     0.031 C 
ATOM     58  C   UNL A   1      45.065  29.697  31.906  1.00  0.00     0.029 A 
ATOM     59  C   UNL A   1      43.983  30.578  31.985  1.00  0.00     0.049 A 
ATOM     60  H   UNL A   1      44.012  32.517  31.172  1.00  0.00     0.167 HD
ATOM     61  C   UNL A   1      41.604  31.224  32.371  1.00  0.00     0.074 A 
ATOM     62  C   UNL A   1      41.366  32.278  31.387  1.00  0.00     0.031 C 
ATOM     63  C   UNL A   1      42.721  30.504  32.690  1.00  0.00     0.034 A 
BRANCH  50  64
ATOM     64  C   UNL A   1      44.888  32.888  28.365  1.00  0.00     0.023 A 
ATOM     65  C   UNL A   1      43.688  33.635  28.437  1.00  0.00     0.012 A 
ATOM     66  C   UNL A   1      45.960  33.472  27.655  1.00  0.00     0.148 A 
ATOM     67  C   UNL A   1      43.543  34.863  27.785  1.00  0.00     0.002 A 
ATOM     68  C   UNL A   1      45.838  34.731  27.075  1.00  0.00     0.091 A 
ATOM     69  F   UNL A   1      47.068  32.767  27.415  1.00  0.00    -0.205 F 
ATOM     70  C   UNL A   1      44.621  35.415  27.107  1.00  0.00     0.022 A 
BRANCH  68  71
ATOM     71  S   UNL A   1      47.214  35.520  26.229  1.00  0.00     0.127 S 
ATOM     72  O   UNL A   1      48.246  35.488  27.260  1.00  0.00    -0.237 OA
ATOM     73  O   UNL A   1      47.429  34.610  25.103  1.00  0.00    -0.237 OA
ATOM     74  O   UNL A   1      46.732  36.840  25.844  1.00  0.00    -0.744 OA
ENDBRANCH  68  71
ENDBRANCH  50  64
BRANCH  51  75
ATOM     75  C   UNL A   1      37.080  30.960  31.105  1.00  0.00     0.023 A 
ATOM     76  C   UNL A   1      36.440  31.438  32.266  1.00  0.00     0.012 A 
ATOM     77  C   UNL A   1      36.523  31.288  29.850  1.00  0.00     0.148 A 
ATOM     78  C   UNL A   1      35.307  32.255  32.178  1.00  0.00     0.002 A 
ATOM     79  C   UNL A   1      35.397  32.099  29.769  1.00  0.00     0.091 A 
ATOM     80  F   UNL A   1      37.155  30.885  28.739  1.00  0.00    -0.205 F 
ATOM     81  C   UNL A   1      34.794  32.596  30.931  1.00  0.00     0.022 A 
BRANCH  79  82
ATOM     82  S   UNL A   1      34.703  32.613  28.192  1.00  0.00     0.127 S 
ATOM     83  O   UNL A   1      33.624  33.503  28.620  1.00  0.00    -0.237 OA
ATOM     84  O   UNL A   1      35.845  33.279  27.570  1.00  0.00    -0.237 OA
ATOM     85  O   UNL A   1      34.252  31.389  27.540  1.00  0.00    -0.744 OA
ENDBRANCH  79  82
ENDBRANCH  51  75
BRANCH  63  86
ATOM     86  C   UNL A   1      42.579  29.383  33.689  1.00  0.00     0.023 A 
ATOM     87  C   UNL A   1      41.914  28.173  33.395  1.00  0.00     0.012 A 
ATOM     88  C   UNL A   1      43.278  29.494  34.902  1.00  0.00     0.148 A 
ATOM     89  C   UNL A   1      41.929  27.110  34.301  1.00  0.00     0.002 A 
ATOM     90  C   UNL A   1      43.333  28.418  35.779  1.00  0.00     0.091 A 
ATOM     91  F   UNL A   1      43.906  30.650  35.166  1.00  0.00    -0.205 F 
ATOM     92  C   UNL A   1      42.651  27.226  35.488  1.00  0.00     0.022 A 
BRANCH  90  93
ATOM     93  S   UNL A   1      44.347  28.468  37.257  1.00  0.00     0.127 S 
ATOM     94  O   UNL A   1      43.885  29.695  37.903  1.00  0.00    -0.237 OA
ATOM     95  O   UNL A   1      43.962  27.233  37.943  1.00  0.00    -0.237 OA
ATOM     96  O   UNL A   1      45.730  28.484  36.796  1.00  0.00    -0.744 OA
ENDBRANCH  90  93
ENDBRANCH  63  86
ENDBRANCH  37  38
ENDBRANCH  29  32
ENDBRANCH  27  28
ENDBRANCH  26  27
ENDBRANCH  25  26
ENDBRANCH   1  25
TORSDOF 19
ENDMDL
