MODEL 1
REMARK VINA RESULT:     -12.2      0.000      0.000
REMARK SMILES C[C@@H]1CC[C@@H](C(=O)NCCCCCCNC(=O)c2ccc(-c3c4nc(c(-c5cccc(S(=O)(=O)[O-])c5F)c5ccc([nH]5)c(-c5cccc(S(=O)(=O)[O-])c5F)c5nc(c(-c6cccc(S(=O)(=O)[O-])c6F)c6ccc3[nH]6)C=C5)C=C4)cc2)[C@H]2C(=O)N(c3ccccc3)C(=O)[C@@H]21
REMARK SMILES IDX 12 1 11 2 10 3 9 4 8 5 6 6 7 7 5 9 1 10 2 11 3 12 93 13 4 14
REMARK SMILES IDX 81 15 91 16 82 17 84 18 92 19 83 20 85 21 86 22 90 23 87 24
REMARK SMILES IDX 89 25 88 26 13 27 14 28 15 29 16 30 17 32 18 33 19 34 80 35
REMARK SMILES IDX 20 36 79 37 21 38 22 39 23 40 73 41 24 42 78 43 72 44 74 45
REMARK SMILES IDX 25 46 77 47 71 48 70 49 26 51 58 52 38 53 57 54 39 55 42 56
REMARK SMILES IDX 56 57 75 58 40 59 41 60 55 62 76 63 43 64 27 65 28 66 36 67
REMARK SMILES IDX 29 68 31 69 37 70 30 71 32 72 33 73 34 74 35 75 59 76 60 77
REMARK SMILES IDX 68 78 61 79 63 80 69 81 62 82 64 83 65 84 66 85 67 86 44 87
REMARK SMILES IDX 45 88 53 89 46 90 48 91 54 92 47 93 49 94 50 95 51 96 52 97
REMARK H PARENT 8 8 15 31 74 50 42 61
REMARK Flexibility Score: inf
ROOT
ATOM      1  C   UNL A   1      31.543  28.708  25.762  1.00  0.00     0.002 C 
ENDROOT
BRANCH   1   2
ATOM      2  C   UNL A   1      31.594  29.187  24.309  1.00  0.00     0.002 C 
BRANCH   2   3
ATOM      3  C   UNL A   1      30.363  28.840  23.467  1.00  0.00     0.021 C 
BRANCH   3   4
ATOM      4  C   UNL A   1      30.626  27.806  22.368  1.00  0.00     0.116 C 
BRANCH   4   5
ATOM      5  N   UNL A   1      32.008  27.375  22.397  1.00  0.00    -0.356 N 
ATOM      6  C   UNL A   1      32.630  26.238  22.775  1.00  0.00     0.223 C 
ATOM      7  O   UNL A   1      33.843  26.369  22.987  1.00  0.00    -0.275 OA
ATOM      8  H   UNL A   1      32.630  28.062  22.069  1.00  0.00     0.163 HD
BRANCH   6   9
ATOM      9  C   UNL A   1      31.988  24.839  22.855  1.00  0.00     0.092 C 
ATOM     10  C   UNL A   1      30.798  22.931  26.069  1.00  0.00     0.008 C 
ATOM     11  C   UNL A   1      31.279  24.358  25.785  1.00  0.00    -0.001 C 
ATOM     12  C   UNL A   1      30.320  25.075  24.805  1.00  0.00     0.005 C 
ATOM     13  C   UNL A   1      32.698  24.449  25.228  1.00  0.00     0.095 C 
ATOM     14  C   UNL A   1      30.533  24.670  23.334  1.00  0.00     0.014 C 
ATOM     15  C   UNL A   1      32.796  23.940  23.800  1.00  0.00     0.104 C 
ATOM     16  C   UNL A   1      33.817  23.698  25.897  1.00  0.00     0.237 C 
ATOM     17  C   UNL A   1      34.282  23.725  23.637  1.00  0.00     0.238 C 
ATOM     18  N   UNL A   1      34.772  23.469  24.914  1.00  0.00    -0.250 N 
ATOM     19  O   UNL A   1      33.858  23.468  27.092  1.00  0.00    -0.274 OA
ATOM     20  O   UNL A   1      34.831  23.577  22.554  1.00  0.00    -0.274 OA
BRANCH  18  21
ATOM     21  C   UNL A   1      36.070  22.967  25.179  1.00  0.00     0.052 A 
ATOM     22  C   UNL A   1      36.409  21.644  24.861  1.00  0.00     0.027 A 
ATOM     23  C   UNL A   1      37.045  23.777  25.775  1.00  0.00     0.027 A 
ATOM     24  C   UNL A   1      37.689  21.147  25.119  1.00  0.00     0.002 A 
ATOM     25  C   UNL A   1      38.314  23.271  26.067  1.00  0.00     0.002 A 
ATOM     26  C   UNL A   1      38.638  21.958  25.732  1.00  0.00     0.000 A 
ENDBRANCH  18  21
ENDBRANCH   6   9
ENDBRANCH   4   5
ENDBRANCH   3   4
ENDBRANCH   2   3
ENDBRANCH   1   2
BRANCH   1  27
ATOM     27  C   UNL A   1      32.760  27.905  26.230  1.00  0.00     0.021 C 
BRANCH  27  28
ATOM     28  C   UNL A   1      34.079  28.672  26.236  1.00  0.00     0.116 C 
BRANCH  28  29
ATOM     29  N   UNL A   1      33.914  30.037  26.705  1.00  0.00    -0.352 N 
ATOM     30  C   UNL A   1      34.647  30.741  27.623  1.00  0.00     0.251 C 
ATOM     31  H   UNL A   1      33.163  30.530  26.302  1.00  0.00     0.163 HD
ATOM     32  O   UNL A   1      34.229  31.822  28.031  1.00  0.00    -0.269 OA
BRANCH  30  33
ATOM     33  C   UNL A   1      35.930  30.205  28.130  1.00  0.00     0.039 A 
ATOM     34  C   UNL A   1      37.069  30.337  27.334  1.00  0.00     0.014 A 
ATOM     35  C   UNL A   1      36.008  29.541  29.359  1.00  0.00     0.014 A 
ATOM     36  C   UNL A   1      38.291  29.832  27.782  1.00  0.00     0.010 A 
ATOM     37  C   UNL A   1      37.241  29.098  29.835  1.00  0.00     0.010 A 
ATOM     38  C   UNL A   1      38.392  29.223  29.045  1.00  0.00    -0.014 A 
BRANCH  38  39
ATOM     39  C   UNL A   1      39.703  28.724  29.535  1.00  0.00     0.031 A 
ATOM     40  C   UNL A   1      40.425  29.425  30.653  1.00  0.00     0.074 A 
ATOM     41  C   UNL A   1      40.263  27.654  28.939  1.00  0.00     0.049 A 
ATOM     42  N   UNL A   1      41.541  29.090  31.248  1.00  0.00    -0.248 NA
ATOM     43  C   UNL A   1      39.836  30.678  31.154  1.00  0.00     0.031 C 
ATOM     44  C   UNL A   1      39.713  26.949  27.779  1.00  0.00     0.029 A 
ATOM     45  N   UNL A   1      41.423  26.978  29.219  1.00  0.00    -0.354 N 
ATOM     46  C   UNL A   1      41.802  30.097  32.170  1.00  0.00     0.074 A 
ATOM     47  C   UNL A   1      40.747  31.078  32.029  1.00  0.00     0.031 C 
ATOM     48  C   UNL A   1      40.525  25.929  27.458  1.00  0.00     0.029 A 
ATOM     49  C   UNL A   1      41.657  25.913  28.380  1.00  0.00     0.049 A 
ATOM     50  H   UNL A   1      42.032  27.230  29.951  1.00  0.00     0.167 HD
ATOM     51  C   UNL A   1      42.806  30.183  33.075  1.00  0.00     0.034 A 
ATOM     52  C   UNL A   1      42.661  25.013  28.365  1.00  0.00     0.034 A 
ATOM     53  C   UNL A   1      43.826  29.182  33.241  1.00  0.00     0.049 A 
ATOM     54  C   UNL A   1      43.713  25.079  29.438  1.00  0.00     0.074 A 
ATOM     55  C   UNL A   1      44.834  29.128  34.187  1.00  0.00     0.029 A 
ATOM     56  N   UNL A   1      43.971  28.060  32.440  1.00  0.00    -0.354 N 
ATOM     57  N   UNL A   1      43.839  25.940  30.419  1.00  0.00    -0.248 NA
ATOM     58  C   UNL A   1      44.732  24.020  29.434  1.00  0.00     0.031 C 
ATOM     59  C   UNL A   1      45.598  27.980  33.949  1.00  0.00     0.029 A 
ATOM     60  C   UNL A   1      45.051  27.307  32.868  1.00  0.00     0.049 A 
ATOM     61  H   UNL A   1      43.390  27.831  31.678  1.00  0.00     0.167 HD
ATOM     62  C   UNL A   1      44.927  25.508  31.169  1.00  0.00     0.074 A 
ATOM     63  C   UNL A   1      45.407  24.293  30.543  1.00  0.00     0.031 C 
ATOM     64  C   UNL A   1      45.486  26.072  32.268  1.00  0.00     0.034 A 
BRANCH  51  65
ATOM     65  C   UNL A   1      42.814  31.372  34.002  1.00  0.00     0.023 A 
ATOM     66  C   UNL A   1      43.425  32.572  33.586  1.00  0.00     0.012 A 
ATOM     67  C   UNL A   1      42.169  31.325  35.253  1.00  0.00     0.148 A 
ATOM     68  C   UNL A   1      43.427  33.695  34.412  1.00  0.00     0.002 A 
ATOM     69  C   UNL A   1      42.135  32.462  36.054  1.00  0.00     0.091 A 
ATOM     70  F   UNL A   1      41.611  30.169  35.644  1.00  0.00    -0.205 F 
ATOM     71  C   UNL A   1      42.773  33.643  35.641  1.00  0.00     0.022 A 
BRANCH  69  72
ATOM     72  S   UNL A   1      41.251  32.521  37.616  1.00  0.00     0.127 S 
ATOM     73  O   UNL A   1      42.042  31.606  38.438  1.00  0.00    -0.237 OA
ATOM     74  O   UNL A   1      41.370  33.931  37.988  1.00  0.00    -0.237 OA
ATOM     75  O   UNL A   1      39.893  32.085  37.324  1.00  0.00    -0.744 OA
ENDBRANCH  69  72
ENDBRANCH  51  65
BRANCH  52  76
ATOM     76  C   UNL A   1      42.653  23.914  27.360  1.00  0.00     0.023 A 
ATOM     77  C   UNL A   1      43.271  24.115  26.110  1.00  0.00     0.012 A 
ATOM     78  C   UNL A   1      42.080  22.661  27.648  1.00  0.00     0.148 A 
ATOM     79  C   UNL A   1      43.288  23.100  25.153  1.00  0.00     0.002 A 
ATOM     80  C   UNL A   1      42.151  21.636  26.712  1.00  0.00     0.091 A 
ATOM     81  F   UNL A   1      41.488  22.493  28.839  1.00  0.00    -0.205 F 
ATOM     82  C   UNL A   1      42.738  21.858  25.458  1.00  0.00     0.022 A 
BRANCH  80  83
ATOM     83  S   UNL A   1      41.595  19.966  27.077  1.00  0.00     0.127 S 
ATOM     84  O   UNL A   1      40.526  20.211  28.041  1.00  0.00    -0.237 OA
ATOM     85  O   UNL A   1      41.147  19.501  25.763  1.00  0.00    -0.237 OA
ATOM     86  O   UNL A   1      42.767  19.269  27.589  1.00  0.00    -0.744 OA
ENDBRANCH  80  83
ENDBRANCH  52  76
BRANCH  64  87
ATOM     87  C   UNL A   1      46.664  25.367  32.888  1.00  0.00     0.023 A 
ATOM     88  C   UNL A   1      47.972  25.697  32.482  1.00  0.00     0.012 A 
ATOM     89  C   UNL A   1      46.477  24.416  33.910  1.00  0.00     0.148 A 
ATOM     90  C   UNL A   1      49.074  25.063  33.055  1.00  0.00     0.002 A 
ATOM     91  C   UNL A   1      47.582  23.823  34.511  1.00  0.00     0.091 A 
ATOM     92  F   UNL A   1      45.225  24.097  34.269  1.00  0.00    -0.205 F 
ATOM     93  C   UNL A   1      48.879  24.136  34.076  1.00  0.00     0.022 A 
BRANCH  91  94
ATOM     94  S   UNL A   1      47.419  22.691  35.896  1.00  0.00     0.127 S 
ATOM     95  O   UNL A   1      46.777  21.539  35.266  1.00  0.00    -0.237 OA
ATOM     96  O   UNL A   1      48.811  22.474  36.291  1.00  0.00    -0.237 OA
ATOM     97  O   UNL A   1      46.619  23.396  36.890  1.00  0.00    -0.744 OA
ENDBRANCH  91  94
ENDBRANCH  64  87
ENDBRANCH  38  39
ENDBRANCH  30  33
ENDBRANCH  28  29
ENDBRANCH  27  28
ENDBRANCH   1  27
TORSDOF 17
ENDMDL
MODEL 2
REMARK VINA RESULT:     -12.0      2.585      3.578
REMARK SMILES C[C@@H]1CC[C@@H](C(=O)NCCCCCCNC(=O)c2ccc(-c3c4nc(c(-c5cccc(S(=O)(=O)[O-])c5F)c5ccc([nH]5)c(-c5cccc(S(=O)(=O)[O-])c5F)c5nc(c(-c6cccc(S(=O)(=O)[O-])c6F)c6ccc3[nH]6)C=C5)C=C4)cc2)[C@H]2C(=O)N(c3ccccc3)C(=O)[C@@H]21
REMARK SMILES IDX 12 1 11 2 10 3 9 4 8 5 6 6 7 7 5 9 1 10 2 11 3 12 93 13 4 14
REMARK SMILES IDX 81 15 91 16 82 17 84 18 92 19 83 20 85 21 86 22 90 23 87 24
REMARK SMILES IDX 89 25 88 26 13 27 14 28 15 29 16 30 17 32 18 33 19 34 80 35
REMARK SMILES IDX 20 36 79 37 21 38 22 39 23 40 73 41 24 42 78 43 72 44 74 45
REMARK SMILES IDX 25 46 77 47 71 48 70 49 26 51 58 52 38 53 57 54 39 55 42 56
REMARK SMILES IDX 56 57 75 58 40 59 41 60 55 62 76 63 43 64 27 65 28 66 36 67
REMARK SMILES IDX 29 68 31 69 37 70 30 71 32 72 33 73 34 74 35 75 59 76 60 77
REMARK SMILES IDX 68 78 61 79 63 80 69 81 62 82 64 83 65 84 66 85 67 86 44 87
REMARK SMILES IDX 45 88 53 89 46 90 48 91 54 92 47 93 49 94 50 95 51 96 52 97
REMARK H PARENT 8 8 15 31 74 50 42 61
REMARK Flexibility Score: inf
ROOT
ATOM      1  C   UNL A   1      31.013  27.939  24.724  1.00  0.00     0.002 C 
ENDROOT
BRANCH   1   2
ATOM      2  C   UNL A   1      30.360  26.558  24.834  1.00  0.00     0.002 C 
BRANCH   2   3
ATOM      3  C   UNL A   1      30.106  25.852  23.500  1.00  0.00     0.021 C 
BRANCH   3   4
ATOM      4  C   UNL A   1      31.329  25.787  22.581  1.00  0.00     0.116 C 
BRANCH   4   5
ATOM      5  N   UNL A   1      31.735  24.413  22.374  1.00  0.00    -0.356 N 
ATOM      6  C   UNL A   1      32.471  23.532  23.086  1.00  0.00     0.223 C 
ATOM      7  O   UNL A   1      32.894  22.573  22.427  1.00  0.00    -0.275 OA
ATOM      8  H   UNL A   1      31.401  24.038  21.529  1.00  0.00     0.163 HD
BRANCH   6   9
ATOM      9  C   UNL A   1      32.719  23.582  24.607  1.00  0.00     0.092 C 
ATOM     10  C   UNL A   1      36.104  23.004  26.502  1.00  0.00     0.008 C 
ATOM     11  C   UNL A   1      35.714  23.168  25.029  1.00  0.00    -0.001 C 
ATOM     12  C   UNL A   1      35.094  24.564  24.778  1.00  0.00     0.005 C 
ATOM     13  C   UNL A   1      34.745  22.108  24.508  1.00  0.00     0.095 C 
ATOM     14  C   UNL A   1      33.622  24.669  25.219  1.00  0.00     0.014 C 
ATOM     15  C   UNL A   1      33.347  22.265  25.083  1.00  0.00     0.104 C 
ATOM     16  C   UNL A   1      35.018  20.650  24.765  1.00  0.00     0.237 C 
ATOM     17  C   UNL A   1      32.726  20.921  24.790  1.00  0.00     0.238 C 
ATOM     18  N   UNL A   1      33.782  20.016  24.743  1.00  0.00    -0.250 N 
ATOM     19  O   UNL A   1      36.136  20.178  24.855  1.00  0.00    -0.274 OA
ATOM     20  O   UNL A   1      31.523  20.703  24.840  1.00  0.00    -0.274 OA
BRANCH  18  21
ATOM     21  C   UNL A   1      33.621  18.608  24.743  1.00  0.00     0.052 A 
ATOM     22  C   UNL A   1      34.171  17.821  23.721  1.00  0.00     0.027 A 
ATOM     23  C   UNL A   1      32.900  17.968  25.760  1.00  0.00     0.027 A 
ATOM     24  C   UNL A   1      34.017  16.432  23.720  1.00  0.00     0.002 A 
ATOM     25  C   UNL A   1      32.714  16.582  25.740  1.00  0.00     0.002 A 
ATOM     26  C   UNL A   1      33.279  15.815  24.724  1.00  0.00     0.000 A 
ENDBRANCH  18  21
ENDBRANCH   6   9
ENDBRANCH   4   5
ENDBRANCH   3   4
ENDBRANCH   2   3
ENDBRANCH   1   2
BRANCH   1  27
ATOM     27  C   UNL A   1      32.116  28.226  25.746  1.00  0.00     0.021 C 
BRANCH  27  28
ATOM     28  C   UNL A   1      33.091  29.333  25.355  1.00  0.00     0.116 C 
BRANCH  28  29
ATOM     29  N   UNL A   1      32.658  30.635  25.831  1.00  0.00    -0.352 N 
ATOM     30  C   UNL A   1      33.113  31.375  26.890  1.00  0.00     0.251 C 
ATOM     31  H   UNL A   1      31.928  31.048  25.315  1.00  0.00     0.163 HD
ATOM     32  O   UNL A   1      32.484  32.366  27.251  1.00  0.00    -0.269 OA
BRANCH  30  33
ATOM     33  C   UNL A   1      34.349  30.983  27.604  1.00  0.00     0.039 A 
ATOM     34  C   UNL A   1      35.354  31.937  27.770  1.00  0.00     0.014 A 
ATOM     35  C   UNL A   1      34.538  29.678  28.071  1.00  0.00     0.014 A 
ATOM     36  C   UNL A   1      36.535  31.593  28.431  1.00  0.00     0.010 A 
ATOM     37  C   UNL A   1      35.687  29.355  28.791  1.00  0.00     0.010 A 
ATOM     38  C   UNL A   1      36.705  30.303  28.963  1.00  0.00    -0.014 A 
BRANCH  38  39
ATOM     39  C   UNL A   1      37.946  29.954  29.701  1.00  0.00     0.031 A 
ATOM     40  C   UNL A   1      38.198  30.492  31.084  1.00  0.00     0.074 A 
ATOM     41  C   UNL A   1      38.871  29.178  29.104  1.00  0.00     0.049 A 
ATOM     42  N   UNL A   1      39.191  30.238  31.896  1.00  0.00    -0.248 NA
ATOM     43  C   UNL A   1      37.224  31.459  31.617  1.00  0.00     0.031 C 
ATOM     44  C   UNL A   1      38.793  28.678  27.729  1.00  0.00     0.029 A 
ATOM     45  N   UNL A   1      40.062  28.681  29.570  1.00  0.00    -0.354 N 
ATOM     46  C   UNL A   1      38.979  31.029  33.020  1.00  0.00     0.074 A 
ATOM     47  C   UNL A   1      37.783  31.802  32.769  1.00  0.00     0.031 C 
ATOM     48  C   UNL A   1      39.878  27.932  27.470  1.00  0.00     0.029 A 
ATOM     49  C   UNL A   1      40.733  27.907  28.652  1.00  0.00     0.049 A 
ATOM     50  H   UNL A   1      40.403  28.861  30.475  1.00  0.00     0.167 HD
ATOM     51  C   UNL A   1      39.694  31.083  34.169  1.00  0.00     0.034 A 
ATOM     52  C   UNL A   1      41.899  27.239  28.757  1.00  0.00     0.034 A 
ATOM     53  C   UNL A   1      40.857  30.277  34.431  1.00  0.00     0.049 A 
ATOM     54  C   UNL A   1      42.625  27.242  30.075  1.00  0.00     0.074 A 
ATOM     55  C   UNL A   1      41.600  30.189  35.595  1.00  0.00     0.029 A 
ATOM     56  N   UNL A   1      41.450  29.423  33.514  1.00  0.00    -0.354 N 
ATOM     57  N   UNL A   1      42.308  27.855  31.190  1.00  0.00    -0.248 NA
ATOM     58  C   UNL A   1      43.840  26.422  30.165  1.00  0.00     0.031 C 
ATOM     59  C   UNL A   1      42.651  29.291  35.378  1.00  0.00     0.029 A 
ATOM     60  C   UNL A   1      42.549  28.804  34.084  1.00  0.00     0.049 A 
ATOM     61  H   UNL A   1      41.136  29.278  32.592  1.00  0.00     0.167 HD
ATOM     62  C   UNL A   1      43.262  27.467  32.123  1.00  0.00     0.074 A 
ATOM     63  C   UNL A   1      44.153  26.546  31.449  1.00  0.00     0.031 C 
ATOM     64  C   UNL A   1      43.396  27.849  33.418  1.00  0.00     0.034 A 
BRANCH  51  65
ATOM     65  C   UNL A   1      39.199  31.998  35.260  1.00  0.00     0.023 A 
ATOM     66  C   UNL A   1      38.236  31.528  36.175  1.00  0.00     0.012 A 
ATOM     67  C   UNL A   1      39.725  33.295  35.418  1.00  0.00     0.148 A 
ATOM     68  C   UNL A   1      37.777  32.343  37.209  1.00  0.00     0.002 A 
ATOM     69  C   UNL A   1      39.296  34.087  36.478  1.00  0.00     0.091 A 
ATOM     70  F   UNL A   1      40.625  33.736  34.526  1.00  0.00    -0.205 F 
ATOM     71  C   UNL A   1      38.315  33.618  37.367  1.00  0.00     0.022 A 
BRANCH  69  72
ATOM     72  S   UNL A   1      39.985  35.712  36.814  1.00  0.00     0.127 S 
ATOM     73  O   UNL A   1      41.405  35.404  36.971  1.00  0.00    -0.237 OA
ATOM     74  O   UNL A   1      39.653  36.448  35.593  1.00  0.00    -0.237 OA
ATOM     75  O   UNL A   1      39.312  36.193  38.012  1.00  0.00    -0.744 OA
ENDBRANCH  69  72
ENDBRANCH  51  65
BRANCH  52  76
ATOM     76  C   UNL A   1      42.391  26.427  27.609  1.00  0.00     0.023 A 
ATOM     77  C   UNL A   1      43.299  26.998  26.696  1.00  0.00     0.012 A 
ATOM     78  C   UNL A   1      42.001  25.085  27.441  1.00  0.00     0.148 A 
ATOM     79  C   UNL A   1      43.784  26.258  25.617  1.00  0.00     0.002 A 
ATOM     80  C   UNL A   1      42.532  24.336  26.397  1.00  0.00     0.091 A 
ATOM     81  F   UNL A   1      41.128  24.563  28.314  1.00  0.00    -0.205 F 
ATOM     82  C   UNL A   1      43.410  24.924  25.474  1.00  0.00     0.022 A 
BRANCH  80  83
ATOM     83  S   UNL A   1      42.214  22.576  26.223  1.00  0.00     0.127 S 
ATOM     84  O   UNL A   1      42.949  22.259  25.001  1.00  0.00    -0.237 OA
ATOM     85  O   UNL A   1      42.798  22.037  27.452  1.00  0.00    -0.237 OA
ATOM     86  O   UNL A   1      40.765  22.448  26.145  1.00  0.00    -0.744 OA
ENDBRANCH  80  83
ENDBRANCH  52  76
BRANCH  64  87
ATOM     87  C   UNL A   1      44.531  27.247  34.204  1.00  0.00     0.023 A 
ATOM     88  C   UNL A   1      45.749  27.945  34.323  1.00  0.00     0.012 A 
ATOM     89  C   UNL A   1      44.372  26.017  34.871  1.00  0.00     0.148 A 
ATOM     90  C   UNL A   1      46.806  27.408  35.059  1.00  0.00     0.002 A 
ATOM     91  C   UNL A   1      45.413  25.511  35.642  1.00  0.00     0.091 A 
ATOM     92  F   UNL A   1      43.215  25.355  34.729  1.00  0.00    -0.205 F 
ATOM     93  C   UNL A   1      46.633  26.199  35.726  1.00  0.00     0.022 A 
BRANCH  91  94
ATOM     94  S   UNL A   1      45.237  24.007  36.609  1.00  0.00     0.127 S 
ATOM     95  O   UNL A   1      44.809  24.533  37.904  1.00  0.00    -0.237 OA
ATOM     96  O   UNL A   1      44.202  23.279  35.874  1.00  0.00    -0.237 OA
ATOM     97  O   UNL A   1      46.547  23.369  36.588  1.00  0.00    -0.744 OA
ENDBRANCH  91  94
ENDBRANCH  64  87
ENDBRANCH  38  39
ENDBRANCH  30  33
ENDBRANCH  28  29
ENDBRANCH  27  28
ENDBRANCH   1  27
TORSDOF 17
ENDMDL
MODEL 3
REMARK VINA RESULT:     -11.9      5.065     10.083
REMARK SMILES C[C@@H]1CC[C@@H](C(=O)NCCCCCCNC(=O)c2ccc(-c3c4nc(c(-c5cccc(S(=O)(=O)[O-])c5F)c5ccc([nH]5)c(-c5cccc(S(=O)(=O)[O-])c5F)c5nc(c(-c6cccc(S(=O)(=O)[O-])c6F)c6ccc3[nH]6)C=C5)C=C4)cc2)[C@H]2C(=O)N(c3ccccc3)C(=O)[C@@H]21
REMARK SMILES IDX 12 1 11 2 10 3 9 4 8 5 6 6 7 7 5 9 1 10 2 11 3 12 93 13 4 14
REMARK SMILES IDX 81 15 91 16 82 17 84 18 92 19 83 20 85 21 86 22 90 23 87 24
REMARK SMILES IDX 89 25 88 26 13 27 14 28 15 29 16 30 17 32 18 33 19 34 80 35
REMARK SMILES IDX 20 36 79 37 21 38 22 39 23 40 73 41 24 42 78 43 72 44 74 45
REMARK SMILES IDX 25 46 77 47 71 48 70 49 26 51 58 52 38 53 57 54 39 55 42 56
REMARK SMILES IDX 56 57 75 58 40 59 41 60 55 62 76 63 43 64 27 65 28 66 36 67
REMARK SMILES IDX 29 68 31 69 37 70 30 71 32 72 33 73 34 74 35 75 59 76 60 77
REMARK SMILES IDX 68 78 61 79 63 80 69 81 62 82 64 83 65 84 66 85 67 86 44 87
REMARK SMILES IDX 45 88 53 89 46 90 48 91 54 92 47 93 49 94 50 95 51 96 52 97
REMARK H PARENT 8 8 15 31 74 50 42 61
REMARK Flexibility Score: inf
ROOT
ATOM      1  C   UNL A   1      34.203  21.625  25.341  1.00  0.00     0.002 C 
ENDROOT
BRANCH   1   2
ATOM      2  C   UNL A   1      33.790  21.929  26.784  1.00  0.00     0.002 C 
BRANCH   2   3
ATOM      3  C   UNL A   1      32.983  23.217  26.971  1.00  0.00     0.021 C 
BRANCH   3   4
ATOM      4  C   UNL A   1      31.472  23.041  26.799  1.00  0.00     0.116 C 
BRANCH   4   5
ATOM      5  N   UNL A   1      30.821  24.330  26.688  1.00  0.00    -0.356 N 
ATOM      6  C   UNL A   1      30.594  25.184  25.667  1.00  0.00     0.223 C 
ATOM      7  O   UNL A   1      30.322  26.339  26.021  1.00  0.00    -0.275 OA
ATOM      8  H   UNL A   1      30.465  24.655  27.546  1.00  0.00     0.163 HD
BRANCH   6   9
ATOM      9  C   UNL A   1      30.550  24.813  24.171  1.00  0.00     0.092 C 
ATOM     10  C   UNL A   1      33.035  25.934  21.352  1.00  0.00     0.008 C 
ATOM     11  C   UNL A   1      33.023  26.052  22.879  1.00  0.00    -0.001 C 
ATOM     12  C   UNL A   1      33.041  24.651  23.537  1.00  0.00     0.005 C 
ATOM     13  C   UNL A   1      31.840  26.836  23.445  1.00  0.00     0.095 C 
ATOM     14  C   UNL A   1      31.666  23.958  23.541  1.00  0.00     0.014 C 
ATOM     15  C   UNL A   1      30.527  26.085  23.313  1.00  0.00     0.104 C 
ATOM     16  C   UNL A   1      31.484  28.179  22.865  1.00  0.00     0.237 C 
ATOM     17  C   UNL A   1      29.508  27.180  23.517  1.00  0.00     0.238 C 
ATOM     18  N   UNL A   1      30.128  28.357  23.110  1.00  0.00    -0.250 N 
ATOM     19  O   UNL A   1      32.299  28.948  22.390  1.00  0.00    -0.274 OA
ATOM     20  O   UNL A   1      28.327  26.972  23.759  1.00  0.00    -0.274 OA
BRANCH  18  21
ATOM     21  C   UNL A   1      29.446  29.582  22.900  1.00  0.00     0.052 A 
ATOM     22  C   UNL A   1      29.454  30.587  23.879  1.00  0.00     0.027 A 
ATOM     23  C   UNL A   1      28.738  29.816  21.714  1.00  0.00     0.027 A 
ATOM     24  C   UNL A   1      28.785  31.796  23.674  1.00  0.00     0.002 A 
ATOM     25  C   UNL A   1      28.038  31.010  21.523  1.00  0.00     0.002 A 
ATOM     26  C   UNL A   1      28.069  32.003  22.500  1.00  0.00     0.000 A 
ENDBRANCH  18  21
ENDBRANCH   6   9
ENDBRANCH   4   5
ENDBRANCH   3   4
ENDBRANCH   2   3
ENDBRANCH   1   2
BRANCH   1  27
ATOM     27  C   UNL A   1      35.487  22.312  24.869  1.00  0.00     0.021 C 
BRANCH  27  28
ATOM     28  C   UNL A   1      36.540  22.533  25.952  1.00  0.00     0.116 C 
BRANCH  28  29
ATOM     29  N   UNL A   1      37.521  21.464  25.985  1.00  0.00    -0.352 N 
ATOM     30  C   UNL A   1      38.875  21.525  26.184  1.00  0.00     0.251 C 
ATOM     31  H   UNL A   1      37.160  20.559  25.843  1.00  0.00     0.163 HD
ATOM     32  O   UNL A   1      39.563  20.528  25.979  1.00  0.00    -0.269 OA
BRANCH  30  33
ATOM     33  C   UNL A   1      39.512  22.784  26.634  1.00  0.00     0.039 A 
ATOM     34  C   UNL A   1      39.179  23.970  25.977  1.00  0.00     0.014 A 
ATOM     35  C   UNL A   1      40.459  22.794  27.663  1.00  0.00     0.014 A 
ATOM     36  C   UNL A   1      39.771  25.171  26.374  1.00  0.00     0.010 A 
ATOM     37  C   UNL A   1      40.997  24.003  28.102  1.00  0.00     0.010 A 
ATOM     38  C   UNL A   1      40.673  25.201  27.451  1.00  0.00    -0.014 A 
BRANCH  38  39
ATOM     39  C   UNL A   1      41.269  26.487  27.895  1.00  0.00     0.031 A 
ATOM     40  C   UNL A   1      42.715  26.803  27.622  1.00  0.00     0.074 A 
ATOM     41  C   UNL A   1      40.510  27.360  28.585  1.00  0.00     0.049 A 
ATOM     42  N   UNL A   1      43.379  27.900  27.878  1.00  0.00    -0.248 NA
ATOM     43  C   UNL A   1      43.529  25.743  27.004  1.00  0.00     0.031 C 
ATOM     44  C   UNL A   1      39.125  27.128  29.004  1.00  0.00     0.029 A 
ATOM     45  N   UNL A   1      40.795  28.613  29.066  1.00  0.00    -0.354 N 
ATOM     46  C   UNL A   1      44.689  27.657  27.481  1.00  0.00     0.074 A 
ATOM     47  C   UNL A   1      44.735  26.293  27.001  1.00  0.00     0.031 C 
ATOM     48  C   UNL A   1      38.677  28.209  29.661  1.00  0.00     0.029 A 
ATOM     49  C   UNL A   1      39.742  29.206  29.721  1.00  0.00     0.049 A 
ATOM     50  H   UNL A   1      41.672  29.047  28.952  1.00  0.00     0.167 HD
ATOM     51  C   UNL A   1      45.748  28.501  27.481  1.00  0.00     0.034 A 
ATOM     52  C   UNL A   1      39.638  30.423  30.291  1.00  0.00     0.034 A 
ATOM     53  C   UNL A   1      45.685  29.871  27.916  1.00  0.00     0.049 A 
ATOM     54  C   UNL A   1      40.801  31.373  30.197  1.00  0.00     0.074 A 
ATOM     55  C   UNL A   1      46.676  30.835  27.873  1.00  0.00     0.029 A 
ATOM     56  N   UNL A   1      44.569  30.471  28.478  1.00  0.00    -0.354 N 
ATOM     57  N   UNL A   1      41.978  31.184  29.651  1.00  0.00    -0.248 NA
ATOM     58  C   UNL A   1      40.605  32.720  30.751  1.00  0.00     0.031 C 
ATOM     59  C   UNL A   1      46.163  32.016  28.422  1.00  0.00     0.029 A 
ATOM     60  C   UNL A   1      44.845  31.792  28.787  1.00  0.00     0.049 A 
ATOM     61  H   UNL A   1      43.706  30.023  28.635  1.00  0.00     0.167 HD
ATOM     62  C   UNL A   1      42.649  32.396  29.761  1.00  0.00     0.074 A 
ATOM     63  C   UNL A   1      41.736  33.319  30.405  1.00  0.00     0.031 C 
ATOM     64  C   UNL A   1      43.910  32.714  29.379  1.00  0.00     0.034 A 
BRANCH  51  65
ATOM     65  C   UNL A   1      47.055  27.985  26.933  1.00  0.00     0.023 A 
ATOM     66  C   UNL A   1      48.048  27.529  27.824  1.00  0.00     0.012 A 
ATOM     67  C   UNL A   1      47.279  27.894  25.546  1.00  0.00     0.148 A 
ATOM     68  C   UNL A   1      49.257  27.025  27.346  1.00  0.00     0.002 A 
ATOM     69  C   UNL A   1      48.469  27.349  25.075  1.00  0.00     0.091 A 
ATOM     70  F   UNL A   1      46.333  28.352  24.712  1.00  0.00    -0.205 F 
ATOM     71  C   UNL A   1      49.462  26.924  25.972  1.00  0.00     0.022 A 
BRANCH  69  72
ATOM     72  S   UNL A   1      48.796  27.103  23.326  1.00  0.00     0.127 S 
ATOM     73  O   UNL A   1      50.254  27.001  23.309  1.00  0.00    -0.237 OA
ATOM     74  O   UNL A   1      48.094  25.848  23.052  1.00  0.00    -0.237 OA
ATOM     75  O   UNL A   1      48.241  28.266  22.647  1.00  0.00    -0.744 OA
ENDBRANCH  69  72
ENDBRANCH  51  65
BRANCH  52  76
ATOM     76  C   UNL A   1      38.349  30.843  30.908  1.00  0.00     0.023 A 
ATOM     77  C   UNL A   1      38.114  30.579  32.272  1.00  0.00     0.012 A 
ATOM     78  C   UNL A   1      37.375  31.538  30.167  1.00  0.00     0.148 A 
ATOM     79  C   UNL A   1      36.920  30.970  32.878  1.00  0.00     0.002 A 
ATOM     80  C   UNL A   1      36.212  31.975  30.790  1.00  0.00     0.091 A 
ATOM     81  F   UNL A   1      37.611  31.770  28.868  1.00  0.00    -0.205 F 
ATOM     82  C   UNL A   1      35.974  31.678  32.141  1.00  0.00     0.022 A 
BRANCH  80  83
ATOM     83  S   UNL A   1      35.008  33.013  29.953  1.00  0.00     0.127 S 
ATOM     84  O   UNL A   1      34.367  32.060  29.051  1.00  0.00    -0.237 OA
ATOM     85  O   UNL A   1      34.172  33.469  31.065  1.00  0.00    -0.237 OA
ATOM     86  O   UNL A   1      35.781  34.071  29.316  1.00  0.00    -0.744 OA
ENDBRANCH  80  83
ENDBRANCH  52  76
BRANCH  64  87
ATOM     87  C   UNL A   1      44.373  34.128  29.615  1.00  0.00     0.023 A 
ATOM     88  C   UNL A   1      44.994  34.469  30.832  1.00  0.00     0.012 A 
ATOM     89  C   UNL A   1      44.240  35.106  28.610  1.00  0.00     0.148 A 
ATOM     90  C   UNL A   1      45.440  35.770  31.062  1.00  0.00     0.002 A 
ATOM     91  C   UNL A   1      44.730  36.389  28.827  1.00  0.00     0.091 A 
ATOM     92  F   UNL A   1      43.626  34.771  27.466  1.00  0.00    -0.205 F 
ATOM     93  C   UNL A   1      45.318  36.725  30.056  1.00  0.00     0.022 A 
BRANCH  91  94
ATOM     94  S   UNL A   1      44.697  37.650  27.548  1.00  0.00     0.127 S 
ATOM     95  O   UNL A   1      45.036  38.853  28.306  1.00  0.00    -0.237 OA
ATOM     96  O   UNL A   1      45.741  37.194  26.629  1.00  0.00    -0.237 OA
ATOM     97  O   UNL A   1      43.351  37.611  26.991  1.00  0.00    -0.744 OA
ENDBRANCH  91  94
ENDBRANCH  64  87
ENDBRANCH  38  39
ENDBRANCH  30  33
ENDBRANCH  28  29
ENDBRANCH  27  28
ENDBRANCH   1  27
TORSDOF 17
ENDMDL
