MODEL 1
REMARK VINA RESULT:     -11.2      0.000      0.000
REMARK SMILES C[C@@H]1[NH2+]CC[C@H]1C(=O)N[C@@H]1CCC[C@H](C(=O)NCCCCCCNC(=O)c2ccc(-c3c4nc(c(-c5cccc(S(=O)(=O)[O-])c5F)c5ccc([nH]5)c(-c5cccc(S(=O)(=O)[O-])c5F)c5nc(c(-c6cccc(S(=O)(=O)[O-])c6F)c6ccc3[nH]6)C=C5)C=C4)cc2)C1
REMARK SMILES IDX 21 1 20 2 19 3 18 4 17 5 15 6 16 7 14 9 10 10 11 11 90 12
REMARK SMILES IDX 12 13 13 14 9 15 7 16 8 17 6 19 1 20 2 21 3 22 4 23 5 26
REMARK SMILES IDX 22 27 23 28 24 29 25 30 26 32 27 33 28 34 89 35 29 36 88 37
REMARK SMILES IDX 30 38 31 39 32 40 82 41 33 42 87 43 81 44 83 45 34 46 86 47
REMARK SMILES IDX 80 48 79 49 35 51 67 52 47 53 66 54 48 55 51 56 65 57 84 58
REMARK SMILES IDX 49 59 50 60 64 62 85 63 52 64 36 65 37 66 45 67 38 68 40 69
REMARK SMILES IDX 46 70 39 71 41 72 42 73 43 74 44 75 68 76 69 77 77 78 70 79
REMARK SMILES IDX 72 80 78 81 71 82 73 83 74 84 75 85 76 86 53 87 54 88 62 89
REMARK SMILES IDX 55 90 57 91 63 92 56 93 58 94 59 95 60 96 61 97
REMARK H PARENT 17 8 9 18 3 24 3 25 24 31 83 50 51 61
REMARK Flexibility Score: inf
ROOT
ATOM      1  C   UNL A   1      35.567  33.206  27.896  1.00  0.00     0.002 C 
ENDROOT
BRANCH   1   2
ATOM      2  C   UNL A   1      35.334  31.936  28.723  1.00  0.00     0.002 C 
BRANCH   2   3
ATOM      3  C   UNL A   1      34.921  30.697  27.920  1.00  0.00     0.021 C 
BRANCH   3   4
ATOM      4  C   UNL A   1      33.529  30.800  27.311  1.00  0.00     0.116 C 
BRANCH   4   5
ATOM      5  N   UNL A   1      32.719  29.637  27.651  1.00  0.00    -0.356 N 
ATOM      6  C   UNL A   1      32.432  28.501  26.956  1.00  0.00     0.223 C 
ATOM      7  O   UNL A   1      31.677  27.681  27.484  1.00  0.00    -0.275 OA
ATOM      8  H   UNL A   1      32.305  29.681  28.542  1.00  0.00     0.163 HD
BRANCH   6   9
ATOM      9  C   UNL A   1      33.091  28.184  25.614  1.00  0.00     0.080 C 
ATOM     10  C   UNL A   1      32.650  28.675  23.085  1.00  0.00     0.082 C 
ATOM     11  C   UNL A   1      32.727  27.149  22.883  1.00  0.00     0.025 C 
ATOM     12  C   UNL A   1      32.380  28.997  24.537  1.00  0.00     0.038 C 
ATOM     13  C   UNL A   1      33.658  26.458  23.878  1.00  0.00     0.003 C 
ATOM     14  C   UNL A   1      33.224  26.696  25.319  1.00  0.00     0.013 C 
BRANCH  10  15
ATOM     15  N   UNL A   1      31.636  29.215  22.147  1.00  0.00    -0.353 N 
ATOM     16  C   UNL A   1      30.319  29.533  22.119  1.00  0.00     0.229 C 
ATOM     17  O   UNL A   1      29.969  30.172  21.116  1.00  0.00    -0.275 OA
ATOM     18  H   UNL A   1      32.049  29.401  21.273  1.00  0.00     0.163 HD
BRANCH  16  19
ATOM     19  C   UNL A   1      29.240  29.167  23.137  1.00  0.00     0.142 C 
ATOM     20  C   UNL A   1      27.412  30.877  23.660  1.00  0.00     0.076 C 
ATOM     21  C   UNL A   1      27.841  29.684  22.810  1.00  0.00     0.192 C 
ATOM     22  N   UNL A   1      26.891  28.589  23.055  1.00  0.00    -0.343 N 
ATOM     23  C   UNL A   1      27.616  27.425  23.561  1.00  0.00     0.261 C 
ATOM     24  H   UNL A   1      26.420  28.345  22.184  1.00  0.00     0.346 HD
ATOM     25  H   UNL A   1      26.197  28.885  23.742  1.00  0.00     0.346 HD
ATOM     26  C   UNL A   1      29.109  27.693  23.461  1.00  0.00     0.081 C 
ENDBRANCH  16  19
ENDBRANCH  10  15
ENDBRANCH   6   9
ENDBRANCH   4   5
ENDBRANCH   3   4
ENDBRANCH   2   3
ENDBRANCH   1   2
BRANCH   1  27
ATOM     27  C   UNL A   1      34.695  34.409  28.271  1.00  0.00     0.021 C 
BRANCH  27  28
ATOM     28  C   UNL A   1      33.354  34.063  28.909  1.00  0.00     0.116 C 
BRANCH  28  29
ATOM     29  N   UNL A   1      33.019  34.946  30.013  1.00  0.00    -0.352 N 
ATOM     30  C   UNL A   1      33.586  35.032  31.256  1.00  0.00     0.251 C 
ATOM     31  H   UNL A   1      32.278  35.572  29.843  1.00  0.00     0.163 HD
ATOM     32  O   UNL A   1      33.061  35.746  32.115  1.00  0.00    -0.269 OA
BRANCH  30  33
ATOM     33  C   UNL A   1      34.810  34.267  31.582  1.00  0.00     0.039 A 
ATOM     34  C   UNL A   1      34.677  33.014  32.187  1.00  0.00     0.014 A 
ATOM     35  C   UNL A   1      36.083  34.789  31.333  1.00  0.00     0.014 A 
ATOM     36  C   UNL A   1      35.816  32.278  32.521  1.00  0.00     0.010 A 
ATOM     37  C   UNL A   1      37.215  34.020  31.595  1.00  0.00     0.010 A 
ATOM     38  C   UNL A   1      37.096  32.770  32.218  1.00  0.00    -0.014 A 
BRANCH  38  39
ATOM     39  C   UNL A   1      38.315  32.005  32.586  1.00  0.00     0.031 A 
ATOM     40  C   UNL A   1      39.044  32.314  33.868  1.00  0.00     0.074 A 
ATOM     41  C   UNL A   1      38.800  31.070  31.745  1.00  0.00     0.049 A 
ATOM     42  N   UNL A   1      40.124  31.761  34.357  1.00  0.00    -0.248 NA
ATOM     43  C   UNL A   1      38.506  33.406  34.697  1.00  0.00     0.031 C 
ATOM     44  C   UNL A   1      38.236  30.734  30.437  1.00  0.00     0.029 A 
ATOM     45  N   UNL A   1      39.890  30.243  31.858  1.00  0.00    -0.354 N 
ATOM     46  C   UNL A   1      40.415  32.459  35.523  1.00  0.00     0.074 A 
ATOM     47  C   UNL A   1      39.422  33.501  35.650  1.00  0.00     0.031 C 
ATOM     48  C   UNL A   1      38.975  29.764  29.874  1.00  0.00     0.029 A 
ATOM     49  C   UNL A   1      40.076  29.424  30.769  1.00  0.00     0.049 A 
ATOM     50  H   UNL A   1      40.482  30.238  32.644  1.00  0.00     0.167 HD
ATOM     51  C   UNL A   1      41.399  32.234  36.427  1.00  0.00     0.034 A 
ATOM     52  C   UNL A   1      41.024  28.497  30.525  1.00  0.00     0.034 A 
ATOM     53  C   UNL A   1      42.351  31.161  36.328  1.00  0.00     0.049 A 
ATOM     54  C   UNL A   1      42.065  28.221  31.577  1.00  0.00     0.074 A 
ATOM     55  C   UNL A   1      43.329  30.791  37.234  1.00  0.00     0.029 A 
ATOM     56  N   UNL A   1      42.448  30.287  35.256  1.00  0.00    -0.354 N 
ATOM     57  N   UNL A   1      42.225  28.784  32.749  1.00  0.00    -0.248 NA
ATOM     58  C   UNL A   1      43.029  27.148  31.290  1.00  0.00     0.031 C 
ATOM     59  C   UNL A   1      44.029  29.703  36.701  1.00  0.00     0.029 A 
ATOM     60  C   UNL A   1      43.468  29.379  35.476  1.00  0.00     0.049 A 
ATOM     61  H   UNL A   1      41.873  30.309  34.457  1.00  0.00     0.167 HD
ATOM     62  C   UNL A   1      43.275  28.107  33.359  1.00  0.00     0.074 A 
ATOM     63  C   UNL A   1      43.702  27.079  32.431  1.00  0.00     0.031 C 
ATOM     64  C   UNL A   1      43.842  28.323  34.571  1.00  0.00     0.034 A 
BRANCH  51  65
ATOM     65  C   UNL A   1      41.461  33.135  37.634  1.00  0.00     0.023 A 
ATOM     66  C   UNL A   1      40.708  32.813  38.782  1.00  0.00     0.012 A 
ATOM     67  C   UNL A   1      42.301  34.265  37.655  1.00  0.00     0.148 A 
ATOM     68  C   UNL A   1      40.759  33.622  39.917  1.00  0.00     0.002 A 
ATOM     69  C   UNL A   1      42.383  35.041  38.807  1.00  0.00     0.091 A 
ATOM     70  F   UNL A   1      42.995  34.568  36.549  1.00  0.00    -0.205 F 
ATOM     71  C   UNL A   1      41.603  34.728  39.932  1.00  0.00     0.022 A 
BRANCH  69  72
ATOM     72  S   UNL A   1      43.503  36.437  38.955  1.00  0.00     0.127 S 
ATOM     73  O   UNL A   1      44.799  35.803  38.709  1.00  0.00    -0.237 OA
ATOM     74  O   UNL A   1      43.043  37.317  37.880  1.00  0.00    -0.237 OA
ATOM     75  O   UNL A   1      43.310  36.966  40.297  1.00  0.00    -0.744 OA
ENDBRANCH  69  72
ENDBRANCH  51  65
BRANCH  52  76
ATOM     76  C   UNL A   1      40.979  27.700  29.266  1.00  0.00     0.023 A 
ATOM     77  C   UNL A   1      40.067  26.632  29.156  1.00  0.00     0.012 A 
ATOM     78  C   UNL A   1      41.815  28.004  28.174  1.00  0.00     0.148 A 
ATOM     79  C   UNL A   1      40.012  25.858  27.997  1.00  0.00     0.002 A 
ATOM     80  C   UNL A   1      41.717  27.263  27.003  1.00  0.00     0.091 A 
ATOM     81  F   UNL A   1      42.683  29.017  28.302  1.00  0.00    -0.205 F 
ATOM     82  C   UNL A   1      40.830  26.178  26.917  1.00  0.00     0.022 A 
BRANCH  80  83
ATOM     83  S   UNL A   1      42.639  27.684  25.519  1.00  0.00     0.127 S 
ATOM     84  O   UNL A   1      44.006  27.769  26.031  1.00  0.00    -0.237 OA
ATOM     85  O   UNL A   1      42.373  26.529  24.660  1.00  0.00    -0.237 OA
ATOM     86  O   UNL A   1      42.063  28.932  25.041  1.00  0.00    -0.744 OA
ENDBRANCH  80  83
ENDBRANCH  52  76
BRANCH  64  87
ATOM     87  C   UNL A   1      44.956  27.402  34.995  1.00  0.00     0.023 A 
ATOM     88  C   UNL A   1      46.297  27.756  34.749  1.00  0.00     0.012 A 
ATOM     89  C   UNL A   1      44.672  26.214  35.699  1.00  0.00     0.148 A 
ATOM     90  C   UNL A   1      47.337  26.924  35.164  1.00  0.00     0.002 A 
ATOM     91  C   UNL A   1      45.715  25.416  36.153  1.00  0.00     0.091 A 
ATOM     92  F   UNL A   1      43.390  25.882  35.905  1.00  0.00    -0.205 F 
ATOM     93  C   UNL A   1      47.047  25.761  35.875  1.00  0.00     0.022 A 
BRANCH  91  94
ATOM     94  S   UNL A   1      45.434  23.957  37.163  1.00  0.00     0.127 S 
ATOM     95  O   UNL A   1      44.685  23.099  36.246  1.00  0.00    -0.237 OA
ATOM     96  O   UNL A   1      46.797  23.505  37.446  1.00  0.00    -0.237 OA
ATOM     97  O   UNL A   1      44.699  24.419  38.333  1.00  0.00    -0.744 OA
ENDBRANCH  91  94
ENDBRANCH  64  87
ENDBRANCH  38  39
ENDBRANCH  30  33
ENDBRANCH  28  29
ENDBRANCH  27  28
ENDBRANCH   1  27
TORSDOF 18
ENDMDL
MODEL 2
REMARK VINA RESULT:     -10.9      5.833     10.735
REMARK SMILES C[C@@H]1[NH2+]CC[C@H]1C(=O)N[C@@H]1CCC[C@H](C(=O)NCCCCCCNC(=O)c2ccc(-c3c4nc(c(-c5cccc(S(=O)(=O)[O-])c5F)c5ccc([nH]5)c(-c5cccc(S(=O)(=O)[O-])c5F)c5nc(c(-c6cccc(S(=O)(=O)[O-])c6F)c6ccc3[nH]6)C=C5)C=C4)cc2)C1
REMARK SMILES IDX 21 1 20 2 19 3 18 4 17 5 15 6 16 7 14 9 10 10 11 11 90 12
REMARK SMILES IDX 12 13 13 14 9 15 7 16 8 17 6 19 1 20 2 21 3 22 4 23 5 26
REMARK SMILES IDX 22 27 23 28 24 29 25 30 26 32 27 33 28 34 89 35 29 36 88 37
REMARK SMILES IDX 30 38 31 39 32 40 82 41 33 42 87 43 81 44 83 45 34 46 86 47
REMARK SMILES IDX 80 48 79 49 35 51 67 52 47 53 66 54 48 55 51 56 65 57 84 58
REMARK SMILES IDX 49 59 50 60 64 62 85 63 52 64 36 65 37 66 45 67 38 68 40 69
REMARK SMILES IDX 46 70 39 71 41 72 42 73 43 74 44 75 68 76 69 77 77 78 70 79
REMARK SMILES IDX 72 80 78 81 71 82 73 83 74 84 75 85 76 86 53 87 54 88 62 89
REMARK SMILES IDX 55 90 57 91 63 92 56 93 58 94 59 95 60 96 61 97
REMARK H PARENT 17 8 9 18 3 24 3 25 24 31 83 50 51 61
REMARK Flexibility Score: inf
ROOT
ATOM      1  C   UNL A   1      35.179  21.306  25.984  1.00  0.00     0.002 C 
ENDROOT
BRANCH   1   2
ATOM      2  C   UNL A   1      34.642  20.330  24.930  1.00  0.00     0.002 C 
BRANCH   2   3
ATOM      3  C   UNL A   1      33.125  20.109  24.953  1.00  0.00     0.021 C 
BRANCH   3   4
ATOM      4  C   UNL A   1      32.413  20.634  23.713  1.00  0.00     0.116 C 
BRANCH   4   5
ATOM      5  N   UNL A   1      33.044  21.851  23.220  1.00  0.00    -0.356 N 
ATOM      6  C   UNL A   1      32.653  23.156  23.268  1.00  0.00     0.223 C 
ATOM      7  O   UNL A   1      33.383  23.993  22.730  1.00  0.00    -0.275 OA
ATOM      8  H   UNL A   1      33.907  21.704  22.771  1.00  0.00     0.163 HD
BRANCH   6   9
ATOM      9  C   UNL A   1      31.414  23.602  24.043  1.00  0.00     0.080 C 
ATOM     10  C   UNL A   1      30.050  25.803  24.397  1.00  0.00     0.082 C 
ATOM     11  C   UNL A   1      30.257  25.564  25.906  1.00  0.00     0.025 C 
ATOM     12  C   UNL A   1      31.067  25.020  23.599  1.00  0.00     0.038 C 
ATOM     13  C   UNL A   1      30.358  24.085  26.271  1.00  0.00     0.003 C 
ATOM     14  C   UNL A   1      31.513  23.401  25.549  1.00  0.00     0.013 C 
BRANCH  10  15
ATOM     15  N   UNL A   1      30.083  27.264  24.151  1.00  0.00    -0.353 N 
ATOM     16  C   UNL A   1      30.816  28.354  24.486  1.00  0.00     0.229 C 
ATOM     17  O   UNL A   1      30.550  29.371  23.829  1.00  0.00    -0.275 OA
ATOM     18  H   UNL A   1      29.341  27.524  23.558  1.00  0.00     0.163 HD
BRANCH  16  19
ATOM     19  C   UNL A   1      31.877  28.474  25.579  1.00  0.00     0.142 C 
ATOM     20  C   UNL A   1      33.773  26.758  25.647  1.00  0.00     0.076 C 
ATOM     21  C   UNL A   1      33.296  28.119  25.143  1.00  0.00     0.192 C 
ATOM     22  N   UNL A   1      34.200  29.143  25.686  1.00  0.00    -0.343 N 
ATOM     23  C   UNL A   1      33.427  30.099  26.476  1.00  0.00     0.261 C 
ATOM     24  H   UNL A   1      34.663  29.631  24.918  1.00  0.00     0.346 HD
ATOM     25  H   UNL A   1      34.904  28.701  26.277  1.00  0.00     0.346 HD
ATOM     26  C   UNL A   1      31.947  29.810  26.289  1.00  0.00     0.081 C 
ENDBRANCH  16  19
ENDBRANCH  10  15
ENDBRANCH   6   9
ENDBRANCH   4   5
ENDBRANCH   3   4
ENDBRANCH   2   3
ENDBRANCH   1   2
BRANCH   1  27
ATOM     27  C   UNL A   1      35.755  22.616  25.440  1.00  0.00     0.021 C 
BRANCH  27  28
ATOM     28  C   UNL A   1      37.186  22.527  24.919  1.00  0.00     0.116 C 
BRANCH  28  29
ATOM     29  N   UNL A   1      37.930  21.434  25.520  1.00  0.00    -0.352 N 
ATOM     30  C   UNL A   1      39.078  21.475  26.266  1.00  0.00     0.251 C 
ATOM     31  H   UNL A   1      37.556  20.536  25.370  1.00  0.00     0.163 HD
ATOM     32  O   UNL A   1      39.646  20.421  26.563  1.00  0.00    -0.269 OA
BRANCH  30  33
ATOM     33  C   UNL A   1      39.648  22.768  26.703  1.00  0.00     0.039 A 
ATOM     34  C   UNL A   1      39.132  23.948  26.158  1.00  0.00     0.014 A 
ATOM     35  C   UNL A   1      40.709  22.827  27.612  1.00  0.00     0.014 A 
ATOM     36  C   UNL A   1      39.662  25.182  26.541  1.00  0.00     0.010 A 
ATOM     37  C   UNL A   1      41.184  24.061  28.050  1.00  0.00     0.010 A 
ATOM     38  C   UNL A   1      40.687  25.251  27.499  1.00  0.00    -0.014 A 
BRANCH  38  39
ATOM     39  C   UNL A   1      41.273  26.556  27.898  1.00  0.00     0.031 A 
ATOM     40  C   UNL A   1      42.704  26.880  27.553  1.00  0.00     0.074 A 
ATOM     41  C   UNL A   1      40.540  27.429  28.617  1.00  0.00     0.049 A 
ATOM     42  N   UNL A   1      43.392  27.960  27.819  1.00  0.00    -0.248 NA
ATOM     43  C   UNL A   1      43.471  25.845  26.840  1.00  0.00     0.031 C 
ATOM     44  C   UNL A   1      39.172  27.200  29.086  1.00  0.00     0.029 A 
ATOM     45  N   UNL A   1      40.850  28.677  29.096  1.00  0.00    -0.354 N 
ATOM     46  C   UNL A   1      44.676  27.721  27.344  1.00  0.00     0.074 A 
ATOM     47  C   UNL A   1      44.683  26.379  26.808  1.00  0.00     0.031 C 
ATOM     48  C   UNL A   1      38.757  28.276  29.774  1.00  0.00     0.029 A 
ATOM     49  C   UNL A   1      39.832  29.261  29.813  1.00  0.00     0.049 A 
ATOM     50  H   UNL A   1      41.719  29.111  28.941  1.00  0.00     0.167 HD
ATOM     51  C   UNL A   1      45.745  28.553  27.323  1.00  0.00     0.034 A 
ATOM     52  C   UNL A   1      39.772  30.460  30.426  1.00  0.00     0.034 A 
ATOM     53  C   UNL A   1      45.718  29.907  27.806  1.00  0.00     0.049 A 
ATOM     54  C   UNL A   1      40.951  31.392  30.328  1.00  0.00     0.074 A 
ATOM     55  C   UNL A   1      46.718  30.862  27.747  1.00  0.00     0.029 A 
ATOM     56  N   UNL A   1      44.637  30.500  28.438  1.00  0.00    -0.354 N 
ATOM     57  N   UNL A   1      42.102  31.207  29.731  1.00  0.00    -0.248 NA
ATOM     58  C   UNL A   1      40.803  32.716  30.951  1.00  0.00     0.031 C 
ATOM     59  C   UNL A   1      46.246  32.027  28.362  1.00  0.00     0.029 A 
ATOM     60  C   UNL A   1      44.943  31.806  28.777  1.00  0.00     0.049 A 
ATOM     61  H   UNL A   1      43.776  30.056  28.618  1.00  0.00     0.167 HD
ATOM     62  C   UNL A   1      42.799  32.403  29.865  1.00  0.00     0.074 A 
ATOM     63  C   UNL A   1      41.930  33.311  30.586  1.00  0.00     0.031 C 
ATOM     64  C   UNL A   1      44.047  32.717  29.440  1.00  0.00     0.034 A 
BRANCH  51  65
ATOM     65  C   UNL A   1      47.022  28.039  26.708  1.00  0.00     0.023 A 
ATOM     66  C   UNL A   1      48.042  27.534  27.540  1.00  0.00     0.012 A 
ATOM     67  C   UNL A   1      47.192  28.005  25.310  1.00  0.00     0.148 A 
ATOM     68  C   UNL A   1      49.226  27.040  26.995  1.00  0.00     0.002 A 
ATOM     69  C   UNL A   1      48.357  27.468  24.772  1.00  0.00     0.091 A 
ATOM     70  F   UNL A   1      46.222  28.507  24.535  1.00  0.00    -0.205 F 
ATOM     71  C   UNL A   1      49.379  26.998  25.613  1.00  0.00     0.022 A 
BRANCH  69  72
ATOM     72  S   UNL A   1      48.614  27.292  23.003  1.00  0.00     0.127 S 
ATOM     73  O   UNL A   1      50.015  27.695  22.868  1.00  0.00    -0.237 OA
ATOM     74  O   UNL A   1      48.369  25.864  22.795  1.00  0.00    -0.237 OA
ATOM     75  O   UNL A   1      47.646  28.173  22.367  1.00  0.00    -0.744 OA
ENDBRANCH  69  72
ENDBRANCH  51  65
BRANCH  52  76
ATOM     76  C   UNL A   1      38.518  30.883  31.112  1.00  0.00     0.023 A 
ATOM     77  C   UNL A   1      38.378  30.657  32.496  1.00  0.00     0.012 A 
ATOM     78  C   UNL A   1      37.477  31.523  30.412  1.00  0.00     0.148 A 
ATOM     79  C   UNL A   1      37.211  31.028  33.163  1.00  0.00     0.002 A 
ATOM     80  C   UNL A   1      36.340  31.938  31.094  1.00  0.00     0.091 A 
ATOM     81  F   UNL A   1      37.625  31.719  29.095  1.00  0.00    -0.205 F 
ATOM     82  C   UNL A   1      36.196  31.676  32.466  1.00  0.00     0.022 A 
BRANCH  80  83
ATOM     83  S   UNL A   1      35.040  32.893  30.303  1.00  0.00     0.127 S 
ATOM     84  O   UNL A   1      34.145  33.167  31.426  1.00  0.00    -0.237 OA
ATOM     85  O   UNL A   1      35.778  34.056  29.806  1.00  0.00    -0.237 OA
ATOM     86  O   UNL A   1      34.502  32.034  29.259  1.00  0.00    -0.744 OA
ENDBRANCH  80  83
ENDBRANCH  52  76
BRANCH  64  87
ATOM     87  C   UNL A   1      44.540  34.118  29.695  1.00  0.00     0.023 A 
ATOM     88  C   UNL A   1      45.176  34.432  30.912  1.00  0.00     0.012 A 
ATOM     89  C   UNL A   1      44.430  35.107  28.697  1.00  0.00     0.148 A 
ATOM     90  C   UNL A   1      45.662  35.718  31.147  1.00  0.00     0.002 A 
ATOM     91  C   UNL A   1      44.961  36.372  28.919  1.00  0.00     0.091 A 
ATOM     92  F   UNL A   1      43.802  34.798  27.554  1.00  0.00    -0.205 F 
ATOM     93  C   UNL A   1      45.564  36.684  30.147  1.00  0.00     0.022 A 
BRANCH  91  94
ATOM     94  S   UNL A   1      44.969  37.643  27.648  1.00  0.00     0.127 S 
ATOM     95  O   UNL A   1      43.541  37.825  27.400  1.00  0.00    -0.237 OA
ATOM     96  O   UNL A   1      45.618  38.763  28.330  1.00  0.00    -0.237 OA
ATOM     97  O   UNL A   1      45.735  37.090  26.539  1.00  0.00    -0.744 OA
ENDBRANCH  91  94
ENDBRANCH  64  87
ENDBRANCH  38  39
ENDBRANCH  30  33
ENDBRANCH  28  29
ENDBRANCH  27  28
ENDBRANCH   1  27
TORSDOF 18
ENDMDL
MODEL 3
REMARK VINA RESULT:     -10.8      5.792     10.558
REMARK SMILES C[C@@H]1[NH2+]CC[C@H]1C(=O)N[C@@H]1CCC[C@H](C(=O)NCCCCCCNC(=O)c2ccc(-c3c4nc(c(-c5cccc(S(=O)(=O)[O-])c5F)c5ccc([nH]5)c(-c5cccc(S(=O)(=O)[O-])c5F)c5nc(c(-c6cccc(S(=O)(=O)[O-])c6F)c6ccc3[nH]6)C=C5)C=C4)cc2)C1
REMARK SMILES IDX 21 1 20 2 19 3 18 4 17 5 15 6 16 7 14 9 10 10 11 11 90 12
REMARK SMILES IDX 12 13 13 14 9 15 7 16 8 17 6 19 1 20 2 21 3 22 4 23 5 26
REMARK SMILES IDX 22 27 23 28 24 29 25 30 26 32 27 33 28 34 89 35 29 36 88 37
REMARK SMILES IDX 30 38 31 39 32 40 82 41 33 42 87 43 81 44 83 45 34 46 86 47
REMARK SMILES IDX 80 48 79 49 35 51 67 52 47 53 66 54 48 55 51 56 65 57 84 58
REMARK SMILES IDX 49 59 50 60 64 62 85 63 52 64 36 65 37 66 45 67 38 68 40 69
REMARK SMILES IDX 46 70 39 71 41 72 42 73 43 74 44 75 68 76 69 77 77 78 70 79
REMARK SMILES IDX 72 80 78 81 71 82 73 83 74 84 75 85 76 86 53 87 54 88 62 89
REMARK SMILES IDX 55 90 57 91 63 92 56 93 58 94 59 95 60 96 61 97
REMARK H PARENT 17 8 9 18 3 24 3 25 24 31 83 50 51 61
REMARK Flexibility Score: inf
ROOT
ATOM      1  C   UNL A   1      35.336  20.388  24.854  1.00  0.00     0.002 C 
ENDROOT
BRANCH   1   2
ATOM      2  C   UNL A   1      33.805  20.292  24.886  1.00  0.00     0.002 C 
BRANCH   2   3
ATOM      3  C   UNL A   1      33.184  20.207  26.285  1.00  0.00     0.021 C 
BRANCH   3   4
ATOM      4  C   UNL A   1      33.605  21.341  27.210  1.00  0.00     0.116 C 
BRANCH   4   5
ATOM      5  N   UNL A   1      32.531  22.313  27.374  1.00  0.00    -0.356 N 
ATOM      6  C   UNL A   1      32.323  23.535  26.808  1.00  0.00     0.223 C 
ATOM      7  O   UNL A   1      31.325  24.167  27.162  1.00  0.00    -0.275 OA
ATOM      8  H   UNL A   1      31.830  22.036  28.007  1.00  0.00     0.163 HD
BRANCH   6   9
ATOM      9  C   UNL A   1      33.223  24.078  25.699  1.00  0.00     0.080 C 
ATOM     10  C   UNL A   1      33.974  26.411  24.793  1.00  0.00     0.082 C 
ATOM     11  C   UNL A   1      33.471  25.924  23.420  1.00  0.00     0.025 C 
ATOM     12  C   UNL A   1      33.360  25.583  25.899  1.00  0.00     0.038 C 
ATOM     13  C   UNL A   1      33.598  24.413  23.237  1.00  0.00     0.003 C 
ATOM     14  C   UNL A   1      32.815  23.646  24.296  1.00  0.00     0.013 C 
BRANCH  10  15
ATOM     15  N   UNL A   1      33.695  27.863  24.899  1.00  0.00    -0.353 N 
ATOM     16  C   UNL A   1      32.641  28.711  24.986  1.00  0.00     0.229 C 
ATOM     17  O   UNL A   1      32.945  29.877  25.275  1.00  0.00    -0.275 OA
ATOM     18  H   UNL A   1      34.539  28.370  24.911  1.00  0.00     0.163 HD
BRANCH  16  19
ATOM     19  C   UNL A   1      31.164  28.405  24.736  1.00  0.00     0.142 C 
ATOM     20  C   UNL A   1      29.959  29.628  22.841  1.00  0.00     0.076 C 
ATOM     21  C   UNL A   1      30.748  28.391  23.268  1.00  0.00     0.192 C 
ATOM     22  N   UNL A   1      29.892  27.215  23.058  1.00  0.00    -0.343 N 
ATOM     23  C   UNL A   1      29.715  26.513  24.327  1.00  0.00     0.261 C 
ATOM     24  H   UNL A   1      30.332  26.590  22.381  1.00  0.00     0.346 HD
ATOM     25  H   UNL A   1      28.983  27.511  22.701  1.00  0.00     0.346 HD
ATOM     26  C   UNL A   1      30.637  27.132  25.364  1.00  0.00     0.081 C 
ENDBRANCH  16  19
ENDBRANCH  10  15
ENDBRANCH   6   9
ENDBRANCH   4   5
ENDBRANCH   3   4
ENDBRANCH   2   3
ENDBRANCH   1   2
BRANCH   1  27
ATOM     27  C   UNL A   1      35.905  21.768  24.510  1.00  0.00     0.021 C 
BRANCH  27  28
ATOM     28  C   UNL A   1      37.427  21.853  24.483  1.00  0.00     0.116 C 
BRANCH  28  29
ATOM     29  N   UNL A   1      38.057  20.800  25.262  1.00  0.00    -0.352 N 
ATOM     30  C   UNL A   1      39.131  20.873  26.107  1.00  0.00     0.251 C 
ATOM     31  H   UNL A   1      37.653  19.907  25.168  1.00  0.00     0.163 HD
ATOM     32  O   UNL A   1      39.616  19.834  26.564  1.00  0.00    -0.269 OA
BRANCH  30  33
ATOM     33  C   UNL A   1      39.724  22.181  26.464  1.00  0.00     0.039 A 
ATOM     34  C   UNL A   1      40.898  22.202  27.221  1.00  0.00     0.014 A 
ATOM     35  C   UNL A   1      39.112  23.383  26.094  1.00  0.00     0.014 A 
ATOM     36  C   UNL A   1      41.470  23.423  27.587  1.00  0.00     0.010 A 
ATOM     37  C   UNL A   1      39.725  24.598  26.393  1.00  0.00     0.010 A 
ATOM     38  C   UNL A   1      40.894  24.633  27.167  1.00  0.00    -0.014 A 
BRANCH  38  39
ATOM     39  C   UNL A   1      41.482  25.938  27.566  1.00  0.00     0.031 A 
ATOM     40  C   UNL A   1      42.911  26.263  27.216  1.00  0.00     0.074 A 
ATOM     41  C   UNL A   1      40.750  26.809  28.289  1.00  0.00     0.049 A 
ATOM     42  N   UNL A   1      43.600  27.342  27.482  1.00  0.00    -0.248 NA
ATOM     43  C   UNL A   1      43.676  25.228  26.500  1.00  0.00     0.031 C 
ATOM     44  C   UNL A   1      39.384  26.580  28.762  1.00  0.00     0.029 A 
ATOM     45  N   UNL A   1      41.063  28.057  28.769  1.00  0.00    -0.354 N 
ATOM     46  C   UNL A   1      44.883  27.103  27.002  1.00  0.00     0.074 A 
ATOM     47  C   UNL A   1      44.888  25.762  26.464  1.00  0.00     0.031 C 
ATOM     48  C   UNL A   1      38.971  27.656  29.452  1.00  0.00     0.029 A 
ATOM     49  C   UNL A   1      40.047  28.640  29.490  1.00  0.00     0.049 A 
ATOM     50  H   UNL A   1      41.931  28.492  28.611  1.00  0.00     0.167 HD
ATOM     51  C   UNL A   1      45.952  27.935  26.979  1.00  0.00     0.034 A 
ATOM     52  C   UNL A   1      39.989  29.838  30.105  1.00  0.00     0.034 A 
ATOM     53  C   UNL A   1      45.927  29.288  27.464  1.00  0.00     0.049 A 
ATOM     54  C   UNL A   1      41.168  30.770  30.005  1.00  0.00     0.074 A 
ATOM     55  C   UNL A   1      46.927  30.243  27.404  1.00  0.00     0.029 A 
ATOM     56  N   UNL A   1      44.847  29.880  28.101  1.00  0.00    -0.354 N 
ATOM     57  N   UNL A   1      42.317  30.586  29.403  1.00  0.00    -0.248 NA
ATOM     58  C   UNL A   1      41.022  32.093  30.630  1.00  0.00     0.031 C 
ATOM     59  C   UNL A   1      46.457  31.407  28.022  1.00  0.00     0.029 A 
ATOM     60  C   UNL A   1      45.155  31.185  28.441  1.00  0.00     0.049 A 
ATOM     61  H   UNL A   1      43.987  29.436  28.283  1.00  0.00     0.167 HD
ATOM     62  C   UNL A   1      43.014  31.782  29.537  1.00  0.00     0.074 A 
ATOM     63  C   UNL A   1      42.149  32.689  30.262  1.00  0.00     0.031 C 
ATOM     64  C   UNL A   1      44.261  32.097  29.108  1.00  0.00     0.034 A 
BRANCH  51  65
ATOM     65  C   UNL A   1      47.226  27.422  26.359  1.00  0.00     0.023 A 
ATOM     66  C   UNL A   1      47.540  27.765  25.028  1.00  0.00     0.012 A 
ATOM     67  C   UNL A   1      48.137  26.648  27.104  1.00  0.00     0.148 A 
ATOM     68  C   UNL A   1      48.719  27.314  24.435  1.00  0.00     0.002 A 
ATOM     69  C   UNL A   1      49.333  26.242  26.522  1.00  0.00     0.091 A 
ATOM     70  F   UNL A   1      47.814  26.314  28.362  1.00  0.00    -0.205 F 
ATOM     71  C   UNL A   1      49.619  26.563  25.185  1.00  0.00     0.022 A 
BRANCH  69  72
ATOM     72  S   UNL A   1      50.594  25.341  27.430  1.00  0.00     0.127 S 
ATOM     73  O   UNL A   1      51.557  25.036  26.371  1.00  0.00    -0.237 OA
ATOM     74  O   UNL A   1      51.050  26.339  28.398  1.00  0.00    -0.237 OA
ATOM     75  O   UNL A   1      49.923  24.190  28.015  1.00  0.00    -0.744 OA
ENDBRANCH  69  72
ENDBRANCH  51  65
BRANCH  52  76
ATOM     76  C   UNL A   1      38.738  30.261  30.795  1.00  0.00     0.023 A 
ATOM     77  C   UNL A   1      38.568  29.961  32.162  1.00  0.00     0.012 A 
ATOM     78  C   UNL A   1      37.728  30.971  30.118  1.00  0.00     0.148 A 
ATOM     79  C   UNL A   1      37.402  30.329  32.832  1.00  0.00     0.002 A 
ATOM     80  C   UNL A   1      36.593  31.382  30.806  1.00  0.00     0.091 A 
ATOM     81  F   UNL A   1      37.903  31.238  28.817  1.00  0.00    -0.205 F 
ATOM     82  C   UNL A   1      36.418  31.047  32.158  1.00  0.00     0.022 A 
BRANCH  80  83
ATOM     83  S   UNL A   1      35.335  32.421  30.052  1.00  0.00     0.127 S 
ATOM     84  O   UNL A   1      34.898  31.592  28.930  1.00  0.00    -0.237 OA
ATOM     85  O   UNL A   1      34.361  32.552  31.137  1.00  0.00    -0.237 OA
ATOM     86  O   UNL A   1      36.010  33.660  29.700  1.00  0.00    -0.744 OA
ENDBRANCH  80  83
ENDBRANCH  52  76
BRANCH  64  87
ATOM     87  C   UNL A   1      44.755  33.497  29.364  1.00  0.00     0.023 A 
ATOM     88  C   UNL A   1      45.475  33.788  30.539  1.00  0.00     0.012 A 
ATOM     89  C   UNL A   1      44.561  34.510  28.403  1.00  0.00     0.148 A 
ATOM     90  C   UNL A   1      45.961  35.074  30.771  1.00  0.00     0.002 A 
ATOM     91  C   UNL A   1      45.092  35.775  28.618  1.00  0.00     0.091 A 
ATOM     92  F   UNL A   1      43.855  34.221  27.300  1.00  0.00    -0.205 F 
ATOM     93  C   UNL A   1      45.780  36.064  29.808  1.00  0.00     0.022 A 
BRANCH  91  94
ATOM     94  S   UNL A   1      44.993  37.078  27.384  1.00  0.00     0.127 S 
ATOM     95  O   UNL A   1      45.441  38.243  28.145  1.00  0.00    -0.237 OA
ATOM     96  O   UNL A   1      45.936  36.615  26.365  1.00  0.00    -0.237 OA
ATOM     97  O   UNL A   1      43.604  37.107  26.948  1.00  0.00    -0.744 OA
ENDBRANCH  91  94
ENDBRANCH  64  87
ENDBRANCH  38  39
ENDBRANCH  30  33
ENDBRANCH  28  29
ENDBRANCH  27  28
ENDBRANCH   1  27
TORSDOF 18
ENDMDL
