MODEL 1
REMARK VINA RESULT:     -10.5      0.000      0.000
REMARK SMILES C[C@@H](C(=O)NCCCCCCNC(=O)c1ccc(-c2c3nc(c(-c4cccc(S(=O)(=O)[O-])c4F)c4ccc([nH]4)c(-c4cccc(S(=O)(=O)[O-])c4F)c4nc(c(-c5cccc(S(=O)(=O)[O-])c5F)c5ccc2[nH]5)C=C4)C=C3)cc1)c1cc(/C=C/S(C)(=O)=O)cc(C(=O)c2ccccc2)c1
REMARK SMILES IDX 8 1 7 2 6 3 5 4 3 5 4 6 2 8 1 9 78 10 79 11 97 12 80 13
REMARK SMILES IDX 88 14 87 15 81 16 82 17 83 18 84 19 85 20 86 21 89 22 90 23
REMARK SMILES IDX 91 24 92 25 96 26 93 27 95 28 94 29 9 30 10 31 11 32 12 33
REMARK SMILES IDX 13 34 14 36 15 37 16 38 77 39 17 40 76 41 18 42 19 43 20 44
REMARK SMILES IDX 70 45 21 46 75 47 69 48 71 49 22 50 74 51 68 52 67 53 23 55
REMARK SMILES IDX 55 56 35 57 54 58 36 59 39 60 53 61 72 62 37 63 38 64 52 66
REMARK SMILES IDX 73 67 40 68 24 69 25 70 33 71 26 72 28 73 34 74 27 75 29 76
REMARK SMILES IDX 30 77 31 78 32 79 56 80 57 81 65 82 58 83 60 84 66 85 59 86
REMARK SMILES IDX 61 87 62 88 63 89 64 90 41 91 42 92 50 93 43 94 45 95 51 96
REMARK SMILES IDX 44 97 46 98 47 99 48 100 49 101
REMARK H PARENT 5 7 12 35 71 54 39 65
REMARK Flexibility Score: inf
ROOT
ATOM      1  C   UNL A   1      30.971  27.382  26.623  1.00  0.00     0.002 C 
ENDROOT
BRANCH   1   2
ATOM      2  C   UNL A   1      31.480  26.090  25.972  1.00  0.00     0.021 C 
BRANCH   2   3
ATOM      3  C   UNL A   1      31.720  24.961  26.976  1.00  0.00     0.116 C 
BRANCH   3   4
ATOM      4  N   UNL A   1      30.840  23.848  26.686  1.00  0.00    -0.356 N 
ATOM      5  C   UNL A   1      31.155  22.564  26.348  1.00  0.00     0.227 C 
ATOM      6  O   UNL A   1      30.240  21.841  25.951  1.00  0.00    -0.274 OA
ATOM      7  H   UNL A   1      29.877  24.045  26.743  1.00  0.00     0.163 HD
BRANCH   5   8
ATOM      8  C   UNL A   1      32.596  22.071  26.531  1.00  0.00     0.105 C 
ATOM      9  C   UNL A   1      33.072  22.169  27.990  1.00  0.00     0.023 C 
BRANCH   8  10
ATOM     10  C   UNL A   1      33.558  22.777  25.577  1.00  0.00    -0.035 A 
ATOM     11  C   UNL A   1      34.912  22.924  25.915  1.00  0.00     0.012 A 
ATOM     12  C   UNL A   1      33.114  23.309  24.365  1.00  0.00     0.016 A 
ATOM     13  C   UNL A   1      35.799  23.644  25.097  1.00  0.00    -0.024 A 
ATOM     14  C   UNL A   1      33.944  24.111  23.583  1.00  0.00     0.023 A 
ATOM     15  C   UNL A   1      35.291  24.257  23.937  1.00  0.00     0.020 A 
BRANCH  13  16
ATOM     16  C   UNL A   1      37.227  23.826  25.432  1.00  0.00     0.020 C 
ATOM     17  C   UNL A   1      37.721  23.982  26.671  1.00  0.00     0.106 C 
BRANCH  17  18
ATOM     18  S   UNL A   1      39.419  24.247  26.916  1.00  0.00     0.168 S 
ATOM     19  C   UNL A   1      40.075  22.632  26.569  1.00  0.00     0.163 C 
ATOM     20  O   UNL A   1      39.899  25.134  25.872  1.00  0.00    -0.225 OA
ATOM     21  O   UNL A   1      39.699  24.532  28.310  1.00  0.00    -0.225 OA
ENDBRANCH  17  18
ENDBRANCH  13  16
BRANCH  14  22
ATOM     22  C   UNL A   1      33.391  24.822  22.391  1.00  0.00     0.193 C 
ATOM     23  O   UNL A   1      33.485  24.332  21.272  1.00  0.00    -0.289 OA
BRANCH  22  24
ATOM     24  C   UNL A   1      32.698  26.129  22.561  1.00  0.00     0.022 A 
ATOM     25  C   UNL A   1      33.471  27.270  22.786  1.00  0.00     0.012 A 
ATOM     26  C   UNL A   1      31.305  26.238  22.433  1.00  0.00     0.012 A 
ATOM     27  C   UNL A   1      32.858  28.524  22.830  1.00  0.00     0.001 A 
ATOM     28  C   UNL A   1      30.699  27.495  22.469  1.00  0.00     0.001 A 
ATOM     29  C   UNL A   1      31.477  28.637  22.661  1.00  0.00     0.000 A 
ENDBRANCH  22  24
ENDBRANCH  14  22
ENDBRANCH   8  10
ENDBRANCH   5   8
ENDBRANCH   3   4
ENDBRANCH   2   3
ENDBRANCH   1   2
BRANCH   1  30
ATOM     30  C   UNL A   1      31.996  28.520  26.659  1.00  0.00     0.002 C 
BRANCH  30  31
ATOM     31  C   UNL A   1      33.450  28.067  26.507  1.00  0.00     0.021 C 
BRANCH  31  32
ATOM     32  C   UNL A   1      34.393  29.160  26.015  1.00  0.00     0.116 C 
BRANCH  32  33
ATOM     33  N   UNL A   1      33.945  30.480  26.429  1.00  0.00    -0.352 N 
ATOM     34  C   UNL A   1      34.337  31.228  27.508  1.00  0.00     0.251 C 
ATOM     35  H   UNL A   1      33.263  30.895  25.852  1.00  0.00     0.163 HD
ATOM     36  O   UNL A   1      33.689  32.217  27.838  1.00  0.00    -0.269 OA
BRANCH  34  37
ATOM     37  C   UNL A   1      35.536  30.832  28.276  1.00  0.00     0.039 A 
ATOM     38  C   UNL A   1      36.728  31.533  28.080  1.00  0.00     0.014 A 
ATOM     39  C   UNL A   1      35.486  29.767  29.181  1.00  0.00     0.014 A 
ATOM     40  C   UNL A   1      37.856  31.197  28.829  1.00  0.00     0.010 A 
ATOM     41  C   UNL A   1      36.588  29.487  29.983  1.00  0.00     0.010 A 
ATOM     42  C   UNL A   1      37.789  30.191  29.808  1.00  0.00    -0.014 A 
BRANCH  42  43
ATOM     43  C   UNL A   1      38.965  29.869  30.657  1.00  0.00     0.031 A 
ATOM     44  C   UNL A   1      39.142  30.533  31.997  1.00  0.00     0.074 A 
ATOM     45  C   UNL A   1      39.906  29.022  30.194  1.00  0.00     0.049 A 
ATOM     46  N   UNL A   1      40.117  30.402  32.858  1.00  0.00    -0.248 NA
ATOM     47  C   UNL A   1      38.100  31.487  32.414  1.00  0.00     0.031 C 
ATOM     48  C   UNL A   1      39.889  28.374  28.880  1.00  0.00     0.029 A 
ATOM     49  N   UNL A   1      41.071  28.577  30.766  1.00  0.00    -0.354 N 
ATOM     50  C   UNL A   1      39.819  31.266  33.906  1.00  0.00     0.074 A 
ATOM     51  C   UNL A   1      38.598  31.953  33.550  1.00  0.00     0.031 C 
ATOM     52  C   UNL A   1      40.986  27.611  28.750  1.00  0.00     0.029 A 
ATOM     53  C   UNL A   1      41.801  27.740  29.954  1.00  0.00     0.049 A 
ATOM     54  H   UNL A   1      41.358  28.832  31.673  1.00  0.00     0.167 HD
ATOM     55  C   UNL A   1      40.481  31.445  35.074  1.00  0.00     0.034 A 
ATOM     56  C   UNL A   1      42.998  27.154  30.150  1.00  0.00     0.034 A 
ATOM     57  C   UNL A   1      41.681  30.741  35.436  1.00  0.00     0.049 A 
ATOM     58  C   UNL A   1      43.705  27.360  31.462  1.00  0.00     0.074 A 
ATOM     59  C   UNL A   1      42.396  30.810  36.620  1.00  0.00     0.029 A 
ATOM     60  N   UNL A   1      42.352  29.846  34.616  1.00  0.00    -0.354 N 
ATOM     61  N   UNL A   1      43.332  28.072  32.497  1.00  0.00    -0.248 NA
ATOM     62  C   UNL A   1      44.978  26.651  31.649  1.00  0.00     0.031 C 
ATOM     63  C   UNL A   1      43.513  29.977  36.504  1.00  0.00     0.029 A 
ATOM     64  C   UNL A   1      43.473  29.359  35.265  1.00  0.00     0.049 A 
ATOM     65  H   UNL A   1      42.070  29.593  33.708  1.00  0.00     0.167 HD
ATOM     66  C   UNL A   1      44.302  27.865  33.472  1.00  0.00     0.074 A 
ATOM     67  C   UNL A   1      45.266  26.941  32.909  1.00  0.00     0.031 C 
ATOM     68  C   UNL A   1      44.396  28.400  34.714  1.00  0.00     0.034 A 
BRANCH  55  69
ATOM     69  C   UNL A   1      39.885  32.403  36.075  1.00  0.00     0.023 A 
ATOM     70  C   UNL A   1      38.998  31.918  37.058  1.00  0.00     0.012 A 
ATOM     71  C   UNL A   1      40.245  33.765  36.085  1.00  0.00     0.148 A 
ATOM     72  C   UNL A   1      38.451  32.775  38.011  1.00  0.00     0.002 A 
ATOM     73  C   UNL A   1      39.733  34.604  37.067  1.00  0.00     0.091 A 
ATOM     74  F   UNL A   1      41.076  34.214  35.133  1.00  0.00    -0.205 F 
ATOM     75  C   UNL A   1      38.827  34.115  38.022  1.00  0.00     0.022 A 
BRANCH  73  76
ATOM     76  S   UNL A   1      40.214  36.328  37.221  1.00  0.00     0.127 S 
ATOM     77  O   UNL A   1      39.883  36.845  35.893  1.00  0.00    -0.237 OA
ATOM     78  O   UNL A   1      39.338  36.797  38.293  1.00  0.00    -0.237 OA
ATOM     79  O   UNL A   1      41.633  36.324  37.549  1.00  0.00    -0.744 OA
ENDBRANCH  73  76
ENDBRANCH  55  69
BRANCH  56  80
ATOM     80  C   UNL A   1      43.588  26.280  29.095  1.00  0.00     0.023 A 
ATOM     81  C   UNL A   1      43.382  24.888  29.146  1.00  0.00     0.012 A 
ATOM     82  C   UNL A   1      44.353  26.822  28.045  1.00  0.00     0.148 A 
ATOM     83  C   UNL A   1      43.968  24.047  28.198  1.00  0.00     0.002 A 
ATOM     84  C   UNL A   1      44.882  25.986  27.070  1.00  0.00     0.091 A 
ATOM     85  F   UNL A   1      44.546  28.149  28.018  1.00  0.00    -0.205 F 
ATOM     86  C   UNL A   1      44.711  24.595  27.157  1.00  0.00     0.022 A 
BRANCH  84  87
ATOM     87  S   UNL A   1      45.735  26.620  25.623  1.00  0.00     0.127 S 
ATOM     88  O   UNL A   1      47.034  26.990  26.178  1.00  0.00    -0.237 OA
ATOM     89  O   UNL A   1      45.751  25.451  24.743  1.00  0.00    -0.237 OA
ATOM     90  O   UNL A   1      44.918  27.723  25.136  1.00  0.00    -0.744 OA
ENDBRANCH  84  87
ENDBRANCH  56  80
BRANCH  68  91
ATOM     91  C   UNL A   1      45.553  27.965  35.574  1.00  0.00     0.023 A 
ATOM     92  C   UNL A   1      46.781  28.653  35.511  1.00  0.00     0.012 A 
ATOM     93  C   UNL A   1      45.402  26.905  36.491  1.00  0.00     0.148 A 
ATOM     94  C   UNL A   1      47.853  28.267  36.315  1.00  0.00     0.002 A 
ATOM     95  C   UNL A   1      46.456  26.561  37.328  1.00  0.00     0.091 A 
ATOM     96  F   UNL A   1      44.232  26.251  36.525  1.00  0.00    -0.205 F 
ATOM     97  C   UNL A   1      47.687  27.231  37.230  1.00  0.00     0.022 A 
BRANCH  95  98
ATOM     98  S   UNL A   1      46.304  25.307  38.604  1.00  0.00     0.127 S 
ATOM     99  O   UNL A   1      47.481  25.577  39.428  1.00  0.00    -0.237 OA
ATOM    100  O   UNL A   1      45.028  25.657  39.229  1.00  0.00    -0.237 OA
ATOM    101  O   UNL A   1      46.307  24.026  37.912  1.00  0.00    -0.744 OA
ENDBRANCH  95  98
ENDBRANCH  68  91
ENDBRANCH  42  43
ENDBRANCH  34  37
ENDBRANCH  32  33
ENDBRANCH  31  32
ENDBRANCH  30  31
ENDBRANCH   1  30
TORSDOF 21
ENDMDL
MODEL 2
REMARK VINA RESULT:     -10.3      4.743     10.156
REMARK SMILES C[C@@H](C(=O)NCCCCCCNC(=O)c1ccc(-c2c3nc(c(-c4cccc(S(=O)(=O)[O-])c4F)c4ccc([nH]4)c(-c4cccc(S(=O)(=O)[O-])c4F)c4nc(c(-c5cccc(S(=O)(=O)[O-])c5F)c5ccc2[nH]5)C=C4)C=C3)cc1)c1cc(/C=C/S(C)(=O)=O)cc(C(=O)c2ccccc2)c1
REMARK SMILES IDX 8 1 7 2 6 3 5 4 3 5 4 6 2 8 1 9 78 10 79 11 97 12 80 13
REMARK SMILES IDX 88 14 87 15 81 16 82 17 83 18 84 19 85 20 86 21 89 22 90 23
REMARK SMILES IDX 91 24 92 25 96 26 93 27 95 28 94 29 9 30 10 31 11 32 12 33
REMARK SMILES IDX 13 34 14 36 15 37 16 38 77 39 17 40 76 41 18 42 19 43 20 44
REMARK SMILES IDX 70 45 21 46 75 47 69 48 71 49 22 50 74 51 68 52 67 53 23 55
REMARK SMILES IDX 55 56 35 57 54 58 36 59 39 60 53 61 72 62 37 63 38 64 52 66
REMARK SMILES IDX 73 67 40 68 24 69 25 70 33 71 26 72 28 73 34 74 27 75 29 76
REMARK SMILES IDX 30 77 31 78 32 79 56 80 57 81 65 82 58 83 60 84 66 85 59 86
REMARK SMILES IDX 61 87 62 88 63 89 64 90 41 91 42 92 50 93 43 94 45 95 51 96
REMARK SMILES IDX 44 97 46 98 47 99 48 100 49 101
REMARK H PARENT 5 7 12 35 71 54 39 65
REMARK Flexibility Score: inf
ROOT
ATOM      1  C   UNL A   1      33.797  21.736  25.056  1.00  0.00     0.002 C 
ENDROOT
BRANCH   1   2
ATOM      2  C   UNL A   1      32.656  21.385  24.094  1.00  0.00     0.021 C 
BRANCH   2   3
ATOM      3  C   UNL A   1      32.550  22.344  22.906  1.00  0.00     0.116 C 
BRANCH   3   4
ATOM      4  N   UNL A   1      33.519  23.412  23.046  1.00  0.00    -0.356 N 
ATOM      5  C   UNL A   1      33.435  24.711  22.638  1.00  0.00     0.227 C 
ATOM      6  O   UNL A   1      34.463  25.388  22.687  1.00  0.00    -0.274 OA
ATOM      7  H   UNL A   1      34.356  23.165  23.502  1.00  0.00     0.163 HD
BRANCH   5   8
ATOM      8  C   UNL A   1      32.077  25.276  22.204  1.00  0.00     0.105 C 
ATOM      9  C   UNL A   1      32.040  25.639  20.709  1.00  0.00     0.023 C 
BRANCH   8  10
ATOM     10  C   UNL A   1      31.651  26.453  23.079  1.00  0.00    -0.035 A 
ATOM     11  C   UNL A   1      30.922  27.518  22.530  1.00  0.00     0.012 A 
ATOM     12  C   UNL A   1      31.990  26.507  24.432  1.00  0.00     0.016 A 
ATOM     13  C   UNL A   1      30.593  28.653  23.291  1.00  0.00    -0.024 A 
ATOM     14  C   UNL A   1      31.765  27.659  25.186  1.00  0.00     0.023 A 
ATOM     15  C   UNL A   1      31.046  28.720  24.622  1.00  0.00     0.020 A 
BRANCH  13  16
ATOM     16  C   UNL A   1      29.838  29.797  22.737  1.00  0.00     0.020 C 
ATOM     17  C   UNL A   1      29.141  30.689  23.458  1.00  0.00     0.106 C 
BRANCH  17  18
ATOM     18  S   UNL A   1      28.249  31.955  22.670  1.00  0.00     0.168 S 
ATOM     19  C   UNL A   1      28.045  31.272  21.043  1.00  0.00     0.163 C 
ATOM     20  O   UNL A   1      26.930  32.026  23.271  1.00  0.00    -0.225 OA
ATOM     21  O   UNL A   1      29.061  33.148  22.535  1.00  0.00    -0.225 OA
ENDBRANCH  17  18
ENDBRANCH  13  16
BRANCH  14  22
ATOM     22  C   UNL A   1      32.307  27.762  26.574  1.00  0.00     0.193 C 
ATOM     23  O   UNL A   1      31.978  26.954  27.434  1.00  0.00    -0.289 OA
BRANCH  22  24
ATOM     24  C   UNL A   1      33.274  28.842  26.917  1.00  0.00     0.022 A 
ATOM     25  C   UNL A   1      32.776  30.106  27.239  1.00  0.00     0.012 A 
ATOM     26  C   UNL A   1      34.652  28.592  26.984  1.00  0.00     0.012 A 
ATOM     27  C   UNL A   1      33.649  31.103  27.679  1.00  0.00     0.001 A 
ATOM     28  C   UNL A   1      35.520  29.590  27.432  1.00  0.00     0.001 A 
ATOM     29  C   UNL A   1      35.016  30.841  27.786  1.00  0.00     0.000 A 
ENDBRANCH  22  24
ENDBRANCH  14  22
ENDBRANCH   8  10
ENDBRANCH   5   8
ENDBRANCH   3   4
ENDBRANCH   2   3
ENDBRANCH   1   2
BRANCH   1  30
ATOM     30  C   UNL A   1      35.170  21.206  24.630  1.00  0.00     0.002 C 
BRANCH  30  31
ATOM     31  C   UNL A   1      36.234  22.289  24.433  1.00  0.00     0.021 C 
BRANCH  31  32
ATOM     32  C   UNL A   1      37.036  22.609  25.689  1.00  0.00     0.116 C 
BRANCH  32  33
ATOM     33  N   UNL A   1      37.941  21.524  26.036  1.00  0.00    -0.352 N 
ATOM     34  C   UNL A   1      39.263  21.582  26.396  1.00  0.00     0.251 C 
ATOM     35  H   UNL A   1      37.550  20.622  26.010  1.00  0.00     0.163 HD
ATOM     36  O   UNL A   1      39.936  20.556  26.427  1.00  0.00    -0.269 OA
BRANCH  34  37
ATOM     37  C   UNL A   1      39.874  22.885  26.732  1.00  0.00     0.039 A 
ATOM     38  C   UNL A   1      40.792  22.951  27.782  1.00  0.00     0.014 A 
ATOM     39  C   UNL A   1      39.535  24.040  26.019  1.00  0.00     0.014 A 
ATOM     40  C   UNL A   1      41.407  24.167  28.084  1.00  0.00     0.010 A 
ATOM     41  C   UNL A   1      40.209  25.231  26.268  1.00  0.00     0.010 A 
ATOM     42  C   UNL A   1      41.144  25.311  27.311  1.00  0.00    -0.014 A 
BRANCH  42  43
ATOM     43  C   UNL A   1      41.843  26.594  27.581  1.00  0.00     0.031 A 
ATOM     44  C   UNL A   1      43.282  26.777  27.179  1.00  0.00     0.074 A 
ATOM     45  C   UNL A   1      41.196  27.575  28.242  1.00  0.00     0.049 A 
ATOM     46  N   UNL A   1      44.063  27.811  27.361  1.00  0.00    -0.248 NA
ATOM     47  C   UNL A   1      43.939  25.643  26.507  1.00  0.00     0.031 C 
ATOM     48  C   UNL A   1      39.826  27.491  28.753  1.00  0.00     0.029 A 
ATOM     49  N   UNL A   1      41.613  28.828  28.619  1.00  0.00    -0.354 N 
ATOM     50  C   UNL A   1      45.302  27.448  26.846  1.00  0.00     0.074 A 
ATOM     51  C   UNL A   1      45.184  26.081  26.389  1.00  0.00     0.031 C 
ATOM     52  C   UNL A   1      39.514  28.643  29.369  1.00  0.00     0.029 A 
ATOM     53  C   UNL A   1      40.669  29.533  29.328  1.00  0.00     0.049 A 
ATOM     54  H   UNL A   1      42.504  29.187  28.402  1.00  0.00     0.167 HD
ATOM     55  C   UNL A   1      46.426  28.194  26.730  1.00  0.00     0.034 A 
ATOM     56  C   UNL A   1      40.730  30.755  29.894  1.00  0.00     0.034 A 
ATOM     57  C   UNL A   1      46.532  29.562  27.162  1.00  0.00     0.049 A 
ATOM     58  C   UNL A   1      41.987  31.567  29.738  1.00  0.00     0.074 A 
ATOM     59  C   UNL A   1      47.609  30.423  27.037  1.00  0.00     0.029 A 
ATOM     60  N   UNL A   1      45.530  30.267  27.810  1.00  0.00    -0.354 N 
ATOM     61  N   UNL A   1      43.101  31.256  29.121  1.00  0.00    -0.248 NA
ATOM     62  C   UNL A   1      41.982  32.916  30.322  1.00  0.00     0.031 C 
ATOM     63  C   UNL A   1      47.267  31.640  27.634  1.00  0.00     0.029 A 
ATOM     64  C   UNL A   1      45.964  31.551  28.096  1.00  0.00     0.049 A 
ATOM     65  H   UNL A   1      44.642  29.909  28.033  1.00  0.00     0.167 HD
ATOM     66  C   UNL A   1      43.912  32.382  29.207  1.00  0.00     0.074 A 
ATOM     67  C   UNL A   1      43.151  33.390  29.915  1.00  0.00     0.031 C 
ATOM     68  C   UNL A   1      45.178  32.561  28.755  1.00  0.00     0.034 A 
BRANCH  55  69
ATOM     69  C   UNL A   1      47.618  27.563  26.055  1.00  0.00     0.023 A 
ATOM     70  C   UNL A   1      47.820  27.763  24.674  1.00  0.00     0.012 A 
ATOM     71  C   UNL A   1      48.568  26.829  26.791  1.00  0.00     0.148 A 
ATOM     72  C   UNL A   1      48.925  27.212  24.027  1.00  0.00     0.002 A 
ATOM     73  C   UNL A   1      49.693  26.323  26.149  1.00  0.00     0.091 A 
ATOM     74  F   UNL A   1      48.353  26.634  28.100  1.00  0.00    -0.205 F 
ATOM     75  C   UNL A   1      49.867  26.502  24.767  1.00  0.00     0.022 A 
BRANCH  73  76
ATOM     76  S   UNL A   1      51.006  25.463  27.023  1.00  0.00     0.127 S 
ATOM     77  O   UNL A   1      51.901  25.100  25.924  1.00  0.00    -0.237 OA
ATOM     78  O   UNL A   1      51.520  26.507  27.909  1.00  0.00    -0.237 OA
ATOM     79  O   UNL A   1      50.372  24.343  27.702  1.00  0.00    -0.744 OA
ENDBRANCH  73  76
ENDBRANCH  55  69
BRANCH  56  80
ATOM     80  C   UNL A   1      39.553  31.304  30.625  1.00  0.00     0.023 A 
ATOM     81  C   UNL A   1      38.503  31.908  29.906  1.00  0.00     0.012 A 
ATOM     82  C   UNL A   1      39.470  31.233  32.029  1.00  0.00     0.148 A 
ATOM     83  C   UNL A   1      37.416  32.474  30.574  1.00  0.00     0.002 A 
ATOM     84  C   UNL A   1      38.356  31.744  32.684  1.00  0.00     0.091 A 
ATOM     85  F   UNL A   1      40.482  30.663  32.698  1.00  0.00    -0.205 F 
ATOM     86  C   UNL A   1      37.338  32.385  31.961  1.00  0.00     0.022 A 
BRANCH  84  87
ATOM     87  S   UNL A   1      38.112  31.552  34.452  1.00  0.00     0.127 S 
ATOM     88  O   UNL A   1      39.209  32.348  34.995  1.00  0.00    -0.237 OA
ATOM     89  O   UNL A   1      36.780  32.128  34.639  1.00  0.00    -0.237 OA
ATOM     90  O   UNL A   1      38.183  30.119  34.706  1.00  0.00    -0.744 OA
ENDBRANCH  84  87
ENDBRANCH  56  80
BRANCH  68  91
ATOM     91  C   UNL A   1      45.807  33.914  28.964  1.00  0.00     0.023 A 
ATOM     92  C   UNL A   1      45.605  34.943  28.022  1.00  0.00     0.012 A 
ATOM     93  C   UNL A   1      46.552  34.182  30.130  1.00  0.00     0.148 A 
ATOM     94  C   UNL A   1      46.170  36.202  28.215  1.00  0.00     0.002 A 
ATOM     95  C   UNL A   1      47.065  35.455  30.343  1.00  0.00     0.091 A 
ATOM     96  F   UNL A   1      46.748  33.187  31.007  1.00  0.00    -0.205 F 
ATOM     97  C   UNL A   1      46.889  36.462  29.379  1.00  0.00     0.022 A 
BRANCH  95  98
ATOM     98  S   UNL A   1      47.920  35.909  31.855  1.00  0.00     0.127 S 
ATOM     99  O   UNL A   1      48.986  34.911  31.905  1.00  0.00    -0.237 OA
ATOM    100  O   UNL A   1      48.370  37.269  31.558  1.00  0.00    -0.237 OA
ATOM    101  O   UNL A   1      46.931  35.819  32.920  1.00  0.00    -0.744 OA
ENDBRANCH  95  98
ENDBRANCH  68  91
ENDBRANCH  42  43
ENDBRANCH  34  37
ENDBRANCH  32  33
ENDBRANCH  31  32
ENDBRANCH  30  31
ENDBRANCH   1  30
TORSDOF 21
ENDMDL
MODEL 3
REMARK VINA RESULT:      -9.9      5.607     10.682
REMARK SMILES C[C@@H](C(=O)NCCCCCCNC(=O)c1ccc(-c2c3nc(c(-c4cccc(S(=O)(=O)[O-])c4F)c4ccc([nH]4)c(-c4cccc(S(=O)(=O)[O-])c4F)c4nc(c(-c5cccc(S(=O)(=O)[O-])c5F)c5ccc2[nH]5)C=C4)C=C3)cc1)c1cc(/C=C/S(C)(=O)=O)cc(C(=O)c2ccccc2)c1
REMARK SMILES IDX 8 1 7 2 6 3 5 4 3 5 4 6 2 8 1 9 78 10 79 11 97 12 80 13
REMARK SMILES IDX 88 14 87 15 81 16 82 17 83 18 84 19 85 20 86 21 89 22 90 23
REMARK SMILES IDX 91 24 92 25 96 26 93 27 95 28 94 29 9 30 10 31 11 32 12 33
REMARK SMILES IDX 13 34 14 36 15 37 16 38 77 39 17 40 76 41 18 42 19 43 20 44
REMARK SMILES IDX 70 45 21 46 75 47 69 48 71 49 22 50 74 51 68 52 67 53 23 55
REMARK SMILES IDX 55 56 35 57 54 58 36 59 39 60 53 61 72 62 37 63 38 64 52 66
REMARK SMILES IDX 73 67 40 68 24 69 25 70 33 71 26 72 28 73 34 74 27 75 29 76
REMARK SMILES IDX 30 77 31 78 32 79 56 80 57 81 65 82 58 83 60 84 66 85 59 86
REMARK SMILES IDX 61 87 62 88 63 89 64 90 41 91 42 92 50 93 43 94 45 95 51 96
REMARK SMILES IDX 44 97 46 98 47 99 48 100 49 101
REMARK H PARENT 5 7 12 35 71 54 39 65
REMARK Flexibility Score: inf
ROOT
ATOM      1  C   UNL A   1      41.348  24.022  27.470  1.00  0.00     0.002 C 
ENDROOT
BRANCH   1   2
ATOM      2  C   UNL A   1      39.832  24.252  27.483  1.00  0.00     0.021 C 
BRANCH   2   3
ATOM      3  C   UNL A   1      39.042  23.115  26.833  1.00  0.00     0.116 C 
BRANCH   3   4
ATOM      4  N   UNL A   1      38.308  23.615  25.689  1.00  0.00    -0.356 N 
ATOM      5  C   UNL A   1      37.315  23.014  24.971  1.00  0.00     0.227 C 
ATOM      6  O   UNL A   1      36.975  23.549  23.914  1.00  0.00    -0.274 OA
ATOM      7  H   UNL A   1      38.560  24.518  25.387  1.00  0.00     0.163 HD
BRANCH   5   8
ATOM      8  C   UNL A   1      36.639  21.757  25.531  1.00  0.00     0.105 C 
ATOM      9  C   UNL A   1      37.362  20.464  25.118  1.00  0.00     0.023 C 
BRANCH   8  10
ATOM     10  C   UNL A   1      35.155  21.710  25.172  1.00  0.00    -0.035 A 
ATOM     11  C   UNL A   1      34.296  22.747  25.565  1.00  0.00     0.012 A 
ATOM     12  C   UNL A   1      34.615  20.631  24.469  1.00  0.00     0.016 A 
ATOM     13  C   UNL A   1      32.912  22.687  25.325  1.00  0.00    -0.024 A 
ATOM     14  C   UNL A   1      33.237  20.496  24.303  1.00  0.00     0.023 A 
ATOM     15  C   UNL A   1      32.390  21.534  24.709  1.00  0.00     0.020 A 
BRANCH  13  16
ATOM     16  C   UNL A   1      31.981  23.758  25.737  1.00  0.00     0.020 C 
ATOM     17  C   UNL A   1      32.197  25.075  25.589  1.00  0.00     0.106 C 
BRANCH  17  18
ATOM     18  S   UNL A   1      31.039  26.229  26.175  1.00  0.00     0.168 S 
ATOM     19  C   UNL A   1      30.782  27.227  24.728  1.00  0.00     0.163 C 
ATOM     20  O   UNL A   1      29.793  25.532  26.438  1.00  0.00    -0.225 OA
ATOM     21  O   UNL A   1      31.631  27.084  27.186  1.00  0.00    -0.225 OA
ENDBRANCH  17  18
ENDBRANCH  13  16
BRANCH  14  22
ATOM     22  C   UNL A   1      32.674  19.243  23.716  1.00  0.00     0.193 C 
ATOM     23  O   UNL A   1      31.892  19.291  22.774  1.00  0.00    -0.289 OA
BRANCH  22  24
ATOM     24  C   UNL A   1      33.080  17.918  24.262  1.00  0.00     0.022 A 
ATOM     25  C   UNL A   1      34.354  17.433  23.959  1.00  0.00     0.012 A 
ATOM     26  C   UNL A   1      32.237  17.193  25.118  1.00  0.00     0.012 A 
ATOM     27  C   UNL A   1      34.805  16.252  24.553  1.00  0.00     0.001 A 
ATOM     28  C   UNL A   1      32.697  16.017  25.715  1.00  0.00     0.001 A 
ATOM     29  C   UNL A   1      33.982  15.553  25.437  1.00  0.00     0.000 A 
ENDBRANCH  22  24
ENDBRANCH  14  22
ENDBRANCH   8  10
ENDBRANCH   5   8
ENDBRANCH   3   4
ENDBRANCH   2   3
ENDBRANCH   1   2
BRANCH   1  30
ATOM     30  C   UNL A   1      41.947  23.829  26.073  1.00  0.00     0.002 C 
BRANCH  30  31
ATOM     31  C   UNL A   1      42.376  22.393  25.761  1.00  0.00     0.021 C 
BRANCH  31  32
ATOM     32  C   UNL A   1      43.439  21.843  26.705  1.00  0.00     0.116 C 
BRANCH  32  33
ATOM     33  N   UNL A   1      44.692  21.590  26.011  1.00  0.00    -0.352 N 
ATOM     34  C   UNL A   1      45.639  22.484  25.582  1.00  0.00     0.251 C 
ATOM     35  H   UNL A   1      44.888  20.644  25.822  1.00  0.00     0.163 HD
ATOM     36  O   UNL A   1      46.520  22.121  24.808  1.00  0.00    -0.269 OA
BRANCH  34  37
ATOM     37  C   UNL A   1      45.587  23.886  26.048  1.00  0.00     0.039 A 
ATOM     38  C   UNL A   1      45.177  24.880  25.157  1.00  0.00     0.014 A 
ATOM     39  C   UNL A   1      45.949  24.218  27.357  1.00  0.00     0.014 A 
ATOM     40  C   UNL A   1      45.083  26.201  25.595  1.00  0.00     0.010 A 
ATOM     41  C   UNL A   1      45.776  25.522  27.813  1.00  0.00     0.010 A 
ATOM     42  C   UNL A   1      45.353  26.530  26.935  1.00  0.00    -0.014 A 
BRANCH  42  43
ATOM     43  C   UNL A   1      45.192  27.922  27.428  1.00  0.00     0.031 A 
ATOM     44  C   UNL A   1      46.364  28.868  27.434  1.00  0.00     0.074 A 
ATOM     45  C   UNL A   1      44.004  28.315  27.928  1.00  0.00     0.049 A 
ATOM     46  N   UNL A   1      46.421  30.104  27.856  1.00  0.00    -0.248 NA
ATOM     47  C   UNL A   1      47.644  28.351  26.921  1.00  0.00     0.031 C 
ATOM     48  C   UNL A   1      42.814  27.469  28.049  1.00  0.00     0.029 A 
ATOM     49  N   UNL A   1      43.605  29.522  28.449  1.00  0.00    -0.354 N 
ATOM     50  C   UNL A   1      47.740  30.507  27.679  1.00  0.00     0.074 A 
ATOM     51  C   UNL A   1      48.461  29.367  27.158  1.00  0.00     0.031 C 
ATOM     52  C   UNL A   1      41.820  28.183  28.601  1.00  0.00     0.029 A 
ATOM     53  C   UNL A   1      42.308  29.524  28.904  1.00  0.00     0.049 A 
ATOM     54  H   UNL A   1      44.193  30.310  28.491  1.00  0.00     0.167 HD
ATOM     55  C   UNL A   1      48.294  31.723  27.896  1.00  0.00     0.034 A 
ATOM     56  C   UNL A   1      41.594  30.494  29.510  1.00  0.00     0.034 A 
ATOM     57  C   UNL A   1      47.568  32.862  28.391  1.00  0.00     0.049 A 
ATOM     58  C   UNL A   1      42.230  31.840  29.727  1.00  0.00     0.074 A 
ATOM     59  C   UNL A   1      48.025  34.154  28.591  1.00  0.00     0.029 A 
ATOM     60  N   UNL A   1      46.235  32.846  28.772  1.00  0.00    -0.354 N 
ATOM     61  N   UNL A   1      43.440  32.240  29.420  1.00  0.00    -0.248 NA
ATOM     62  C   UNL A   1      41.391  32.880  30.337  1.00  0.00     0.031 C 
ATOM     63  C   UNL A   1      46.975  34.911  29.119  1.00  0.00     0.029 A 
ATOM     64  C   UNL A   1      45.854  34.103  29.211  1.00  0.00     0.049 A 
ATOM     65  H   UNL A   1      45.647  32.059  28.735  1.00  0.00     0.167 HD
ATOM     66  C   UNL A   1      43.494  33.587  29.762  1.00  0.00     0.074 A 
ATOM     67  C   UNL A   1      42.186  33.939  30.276  1.00  0.00     0.031 C 
ATOM     68  C   UNL A   1      44.535  34.452  29.671  1.00  0.00     0.034 A 
BRANCH  55  69
ATOM     69  C   UNL A   1      49.749  31.902  27.542  1.00  0.00     0.023 A 
ATOM     70  C   UNL A   1      50.739  31.319  28.360  1.00  0.00     0.012 A 
ATOM     71  C   UNL A   1      50.137  32.589  26.375  1.00  0.00     0.148 A 
ATOM     72  C   UNL A   1      52.091  31.447  28.045  1.00  0.00     0.002 A 
ATOM     73  C   UNL A   1      51.484  32.671  26.042  1.00  0.00     0.091 A 
ATOM     74  F   UNL A   1      49.184  33.152  25.618  1.00  0.00    -0.205 F 
ATOM     75  C   UNL A   1      52.462  32.112  26.881  1.00  0.00     0.022 A 
BRANCH  73  76
ATOM     76  S   UNL A   1      52.065  33.437  24.524  1.00  0.00     0.127 S 
ATOM     77  O   UNL A   1      53.471  33.685  24.839  1.00  0.00    -0.237 OA
ATOM     78  O   UNL A   1      51.837  32.380  23.540  1.00  0.00    -0.237 OA
ATOM     79  O   UNL A   1      51.252  34.630  24.338  1.00  0.00    -0.744 OA
ENDBRANCH  73  76
ENDBRANCH  55  69
BRANCH  56  80
ATOM     80  C   UNL A   1      40.183  30.243  29.919  1.00  0.00     0.023 A 
ATOM     81  C   UNL A   1      39.138  30.470  29.001  1.00  0.00     0.012 A 
ATOM     82  C   UNL A   1      39.870  29.784  31.212  1.00  0.00     0.148 A 
ATOM     83  C   UNL A   1      37.807  30.292  29.379  1.00  0.00     0.002 A 
ATOM     84  C   UNL A   1      38.546  29.549  31.563  1.00  0.00     0.091 A 
ATOM     85  F   UNL A   1      40.875  29.581  32.076  1.00  0.00    -0.205 F 
ATOM     86  C   UNL A   1      37.511  29.823  30.656  1.00  0.00     0.022 A 
BRANCH  84  87
ATOM     87  S   UNL A   1      38.087  28.819  33.138  1.00  0.00     0.127 S 
ATOM     88  O   UNL A   1      38.413  27.412  32.924  1.00  0.00    -0.237 OA
ATOM     89  O   UNL A   1      38.970  29.523  34.067  1.00  0.00    -0.237 OA
ATOM     90  O   UNL A   1      36.672  29.121  33.314  1.00  0.00    -0.744 OA
ENDBRANCH  84  87
ENDBRANCH  56  80
BRANCH  68  91
ATOM     91  C   UNL A   1      44.293  35.879  30.091  1.00  0.00     0.023 A 
ATOM     92  C   UNL A   1      44.631  36.302  31.392  1.00  0.00     0.012 A 
ATOM     93  C   UNL A   1      43.781  36.816  29.171  1.00  0.00     0.148 A 
ATOM     94  C   UNL A   1      44.425  37.623  31.784  1.00  0.00     0.002 A 
ATOM     95  C   UNL A   1      43.630  38.144  29.552  1.00  0.00     0.091 A 
ATOM     96  F   UNL A   1      43.449  36.392  27.944  1.00  0.00    -0.205 F 
ATOM     97  C   UNL A   1      43.936  38.546  30.862  1.00  0.00     0.022 A 
BRANCH  95  98
ATOM     98  S   UNL A   1      43.102  39.420  28.405  1.00  0.00     0.127 S 
ATOM     99  O   UNL A   1      42.908  40.561  29.299  1.00  0.00    -0.237 OA
ATOM    100  O   UNL A   1      44.257  39.533  27.515  1.00  0.00    -0.237 OA
ATOM    101  O   UNL A   1      41.894  38.915  27.768  1.00  0.00    -0.744 OA
ENDBRANCH  95  98
ENDBRANCH  68  91
ENDBRANCH  42  43
ENDBRANCH  34  37
ENDBRANCH  32  33
ENDBRANCH  31  32
ENDBRANCH  30  31
ENDBRANCH   1  30
TORSDOF 21
ENDMDL
