MODEL 1
REMARK VINA RESULT:     -12.8      0.000      0.000
REMARK SMILES COc1cccc([C@@H]2[NH2+][C@@](C)(C(=O)NCCCCCCNC(=O)c3ccc(-c4c5nc(c(-c6cccc(S(=O)(=O)[O-])c6F)c6ccc([nH]6)c(-c6cccc(S(=O)(=O)[O-])c6F)c6nc(c(-c7cccc(S(=O)(=O)[O-])c7F)c7ccc4[nH]7)C=C6)C=C5)cc3)[C@@H]3C(=O)N(C)C(=O)[C@@H]32)c1O
REMARK SMILES IDX 18 1 17 2 16 3 15 4 14 5 12 6 13 7 10 9 8 10 9 11 94 12
REMARK SMILES IDX 87 15 92 16 11 17 88 18 90 19 93 20 89 21 91 22 7 23 3 24
REMARK SMILES IDX 4 25 95 26 5 27 6 28 2 29 1 30 96 31 19 33 20 34 21 35 22 36
REMARK SMILES IDX 23 38 24 39 25 40 86 41 26 42 85 43 27 44 28 45 29 46 79 47
REMARK SMILES IDX 30 48 84 49 78 50 80 51 31 52 83 53 77 54 76 55 32 57 64 58
REMARK SMILES IDX 44 59 63 60 45 61 48 62 62 63 81 64 46 65 47 66 61 68 82 69
REMARK SMILES IDX 49 70 33 71 34 72 42 73 35 74 37 75 43 76 36 77 38 78 39 79
REMARK SMILES IDX 40 80 41 81 65 82 66 83 74 84 67 85 69 86 75 87 68 88 70 89
REMARK SMILES IDX 71 90 72 91 73 92 50 93 51 94 59 95 52 96 54 97 60 98 53 99
REMARK SMILES IDX 55 100 56 101 57 102 58 103
REMARK H PARENT 14 8 9 13 9 14 96 32 21 37 80 56 48 67
REMARK Flexibility Score: inf
ROOT
ATOM      1  C   UNL A   1      36.607  20.864  24.993  1.00  0.00     0.002 C 
ENDROOT
BRANCH   1   2
ATOM      2  C   UNL A   1      36.733  22.183  24.227  1.00  0.00     0.002 C 
BRANCH   2   3
ATOM      3  C   UNL A   1      35.589  23.187  24.420  1.00  0.00     0.021 C 
BRANCH   3   4
ATOM      4  C   UNL A   1      34.252  22.786  23.807  1.00  0.00     0.116 C 
BRANCH   4   5
ATOM      5  N   UNL A   1      33.969  23.553  22.618  1.00  0.00    -0.351 N 
ATOM      6  C   UNL A   1      32.947  24.386  22.324  1.00  0.00     0.281 C 
ATOM      7  O   UNL A   1      32.891  24.736  21.137  1.00  0.00    -0.268 OA
ATOM      8  H   UNL A   1      34.634  23.451  21.900  1.00  0.00     0.163 HD
BRANCH   6   9
ATOM      9  C   UNL A   1      31.882  24.870  23.371  1.00  0.00     0.185 C 
ATOM     10  C   UNL A   1      31.280  27.085  22.665  1.00  0.00     0.232 C 
ATOM     11  N   UNL A   1      30.822  25.677  22.692  1.00  0.00    -0.326 N 
ATOM     12  C   UNL A   1      32.493  27.216  23.616  1.00  0.00     0.161 C 
ATOM     13  H   UNL A   1      30.683  25.338  21.740  1.00  0.00     0.347 HD
ATOM     14  H   UNL A   1      29.936  25.598  23.192  1.00  0.00     0.347 HD
ATOM     15  C   UNL A   1      32.643  25.850  24.271  1.00  0.00     0.169 C 
ATOM     16  C   UNL A   1      32.437  28.132  24.811  1.00  0.00     0.239 C 
ATOM     17  C   UNL A   1      31.255  23.718  24.161  1.00  0.00     0.091 C 
ATOM     18  C   UNL A   1      32.167  26.055  25.678  1.00  0.00     0.240 C 
ATOM     19  N   UNL A   1      32.105  27.394  25.913  1.00  0.00    -0.285 N 
ATOM     20  O   UNL A   1      32.697  29.326  24.773  1.00  0.00    -0.274 OA
ATOM     21  O   UNL A   1      31.983  25.171  26.505  1.00  0.00    -0.274 OA
ATOM     22  C   UNL A   1      31.678  27.920  27.187  1.00  0.00     0.156 C 
BRANCH  10  23
ATOM     23  C   UNL A   1      30.161  28.118  22.746  1.00  0.00     0.056 A 
ATOM     24  C   UNL A   1      29.066  30.053  21.761  1.00  0.00     0.161 A 
ATOM     25  C   UNL A   1      27.843  29.679  22.298  1.00  0.00     0.050 A 
ATOM     26  C   UNL A   1      30.225  29.364  22.125  1.00  0.00     0.166 A 
ATOM     27  C   UNL A   1      27.793  28.582  23.155  1.00  0.00     0.005 A 
ATOM     28  C   UNL A   1      28.934  27.786  23.344  1.00  0.00     0.014 A 
BRANCH  24  29
ATOM     29  O   UNL A   1      29.110  31.084  20.855  1.00  0.00    -0.493 OA
ATOM     30  C   UNL A   1      27.850  31.774  20.882  1.00  0.00     0.278 C 
ENDBRANCH  24  29
BRANCH  26  31
ATOM     31  O   UNL A   1      31.440  29.940  21.903  1.00  0.00    -0.504 OA
ATOM     32  H   UNL A   1      32.137  29.816  22.518  1.00  0.00     0.293 HD
ENDBRANCH  26  31
ENDBRANCH  10  23
ENDBRANCH   6   9
ENDBRANCH   4   5
ENDBRANCH   3   4
ENDBRANCH   2   3
ENDBRANCH   1   2
BRANCH   1  33
ATOM     33  C   UNL A   1      37.827  19.946  24.932  1.00  0.00     0.021 C 
BRANCH  33  34
ATOM     34  C   UNL A   1      39.008  20.374  25.795  1.00  0.00     0.116 C 
BRANCH  34  35
ATOM     35  N   UNL A   1      40.023  19.341  25.918  1.00  0.00    -0.352 N 
ATOM     36  C   UNL A   1      41.368  19.489  26.153  1.00  0.00     0.251 C 
ATOM     37  H   UNL A   1      39.705  18.414  25.818  1.00  0.00     0.163 HD
ATOM     38  O   UNL A   1      42.114  18.516  26.106  1.00  0.00    -0.269 OA
BRANCH  36  39
ATOM     39  C   UNL A   1      41.911  20.835  26.434  1.00  0.00     0.039 A 
ATOM     40  C   UNL A   1      42.113  21.714  25.368  1.00  0.00     0.014 A 
ATOM     41  C   UNL A   1      42.195  21.233  27.744  1.00  0.00     0.014 A 
ATOM     42  C   UNL A   1      42.551  23.015  25.622  1.00  0.00     0.010 A 
ATOM     43  C   UNL A   1      42.560  22.551  27.999  1.00  0.00     0.010 A 
ATOM     44  C   UNL A   1      42.751  23.454  26.941  1.00  0.00    -0.014 A 
BRANCH  44  45
ATOM     45  C   UNL A   1      43.156  24.852  27.234  1.00  0.00     0.031 A 
ATOM     46  C   UNL A   1      42.183  25.802  27.877  1.00  0.00     0.074 A 
ATOM     47  C   UNL A   1      44.369  25.289  26.844  1.00  0.00     0.049 A 
ATOM     48  N   UNL A   1      42.336  27.068  28.166  1.00  0.00    -0.248 NA
ATOM     49  C   UNL A   1      40.853  25.267  28.218  1.00  0.00     0.031 C 
ATOM     50  C   UNL A   1      45.371  24.487  26.137  1.00  0.00     0.029 A 
ATOM     51  N   UNL A   1      44.957  26.523  26.964  1.00  0.00    -0.354 N 
ATOM     52  C   UNL A   1      41.118  27.490  28.685  1.00  0.00     0.074 A 
ATOM     53  C   UNL A   1      40.223  26.355  28.640  1.00  0.00     0.031 C 
ATOM     54  C   UNL A   1      46.449  25.248  25.889  1.00  0.00     0.029 A 
ATOM     55  C   UNL A   1      46.208  26.596  26.394  1.00  0.00     0.049 A 
ATOM     56  H   UNL A   1      44.526  27.284  27.415  1.00  0.00     0.167 HD
ATOM     57  C   UNL A   1      40.782  28.704  29.183  1.00  0.00     0.034 A 
ATOM     58  C   UNL A   1      47.061  27.633  26.286  1.00  0.00     0.034 A 
ATOM     59  C   UNL A   1      41.689  29.816  29.269  1.00  0.00     0.049 A 
ATOM     60  C   UNL A   1      46.682  28.958  26.890  1.00  0.00     0.074 A 
ATOM     61  C   UNL A   1      41.475  31.057  29.843  1.00  0.00     0.029 A 
ATOM     62  N   UNL A   1      42.980  29.826  28.764  1.00  0.00    -0.354 N 
ATOM     63  N   UNL A   1      45.583  29.290  27.525  1.00  0.00    -0.248 NA
ATOM     64  C   UNL A   1      47.672  30.040  26.796  1.00  0.00     0.031 C 
ATOM     65  C   UNL A   1      42.630  31.826  29.664  1.00  0.00     0.029 A 
ATOM     66  C   UNL A   1      43.572  31.053  29.003  1.00  0.00     0.049 A 
ATOM     67  H   UNL A   1      43.411  29.070  28.304  1.00  0.00     0.167 HD
ATOM     68  C   UNL A   1      45.765  30.605  27.938  1.00  0.00     0.074 A 
ATOM     69  C   UNL A   1      47.087  31.002  27.499  1.00  0.00     0.031 C 
ATOM     70  C   UNL A   1      44.909  31.416  28.608  1.00  0.00     0.034 A 
BRANCH  57  71
ATOM     71  C   UNL A   1      39.388  28.875  29.728  1.00  0.00     0.023 A 
ATOM     72  C   UNL A   1      39.103  28.470  31.048  1.00  0.00     0.012 A 
ATOM     73  C   UNL A   1      38.378  29.488  28.960  1.00  0.00     0.148 A 
ATOM     74  C   UNL A   1      37.827  28.637  31.584  1.00  0.00     0.002 A 
ATOM     75  C   UNL A   1      37.120  29.692  29.517  1.00  0.00     0.091 A 
ATOM     76  F   UNL A   1      38.661  29.847  27.700  1.00  0.00    -0.205 F 
ATOM     77  C   UNL A   1      36.840  29.257  30.823  1.00  0.00     0.022 A 
BRANCH  75  78
ATOM     78  S   UNL A   1      35.805  30.553  28.648  1.00  0.00     0.127 S 
ATOM     79  O   UNL A   1      34.980  29.437  28.184  1.00  0.00    -0.237 OA
ATOM     80  O   UNL A   1      35.203  31.353  29.714  1.00  0.00    -0.237 OA
ATOM     81  O   UNL A   1      36.455  31.327  27.601  1.00  0.00    -0.744 OA
ENDBRANCH  75  78
ENDBRANCH  57  71
BRANCH  58  82
ATOM     82  C   UNL A   1      48.389  27.440  25.637  1.00  0.00     0.023 A 
ATOM     83  C   UNL A   1      49.500  27.087  26.428  1.00  0.00     0.012 A 
ATOM     84  C   UNL A   1      48.552  27.572  24.245  1.00  0.00     0.148 A 
ATOM     85  C   UNL A   1      50.755  26.900  25.849  1.00  0.00     0.002 A 
ATOM     86  C   UNL A   1      49.793  27.331  23.667  1.00  0.00     0.091 A 
ATOM     87  F   UNL A   1      47.485  27.919  23.511  1.00  0.00    -0.205 F 
ATOM     88  C   UNL A   1      50.900  27.013  24.469  1.00  0.00     0.022 A 
BRANCH  86  89
ATOM     89  S   UNL A   1      50.040  27.321  21.888  1.00  0.00     0.127 S 
ATOM     90  O   UNL A   1      48.959  26.447  21.441  1.00  0.00    -0.237 OA
ATOM     91  O   UNL A   1      49.869  28.735  21.551  1.00  0.00    -0.237 OA
ATOM     92  O   UNL A   1      51.390  26.816  21.681  1.00  0.00    -0.744 OA
ENDBRANCH  86  89
ENDBRANCH  58  82
BRANCH  70  93
ATOM     93  C   UNL A   1      45.381  32.806  28.943  1.00  0.00     0.023 A 
ATOM     94  C   UNL A   1      46.158  33.024  30.098  1.00  0.00     0.012 A 
ATOM     95  C   UNL A   1      45.120  33.883  28.072  1.00  0.00     0.148 A 
ATOM     96  C   UNL A   1      46.641  34.297  30.397  1.00  0.00     0.002 A 
ATOM     97  C   UNL A   1      45.647  35.137  28.350  1.00  0.00     0.091 A 
ATOM     98  F   UNL A   1      44.364  33.658  26.987  1.00  0.00    -0.205 F 
ATOM     99  C   UNL A   1      46.397  35.350  29.518  1.00  0.00     0.022 A 
BRANCH  97 100
ATOM    100  S   UNL A   1      45.466  36.528  27.226  1.00  0.00     0.127 S 
ATOM    101  O   UNL A   1      46.241  36.079  26.070  1.00  0.00    -0.237 OA
ATOM    102  O   UNL A   1      44.020  36.568  27.011  1.00  0.00    -0.237 OA
ATOM    103  O   UNL A   1      46.004  37.684  27.929  1.00  0.00    -0.744 OA
ENDBRANCH  97 100
ENDBRANCH  70  93
ENDBRANCH  44  45
ENDBRANCH  36  39
ENDBRANCH  34  35
ENDBRANCH  33  34
ENDBRANCH   1  33
TORSDOF 19
ENDMDL
MODEL 2
REMARK VINA RESULT:     -12.6      0.922      7.251
REMARK SMILES COc1cccc([C@@H]2[NH2+][C@@](C)(C(=O)NCCCCCCNC(=O)c3ccc(-c4c5nc(c(-c6cccc(S(=O)(=O)[O-])c6F)c6ccc([nH]6)c(-c6cccc(S(=O)(=O)[O-])c6F)c6nc(c(-c7cccc(S(=O)(=O)[O-])c7F)c7ccc4[nH]7)C=C6)C=C5)cc3)[C@@H]3C(=O)N(C)C(=O)[C@@H]32)c1O
REMARK SMILES IDX 18 1 17 2 16 3 15 4 14 5 12 6 13 7 10 9 8 10 9 11 94 12
REMARK SMILES IDX 87 15 92 16 11 17 88 18 90 19 93 20 89 21 91 22 7 23 3 24
REMARK SMILES IDX 4 25 95 26 5 27 6 28 2 29 1 30 96 31 19 33 20 34 21 35 22 36
REMARK SMILES IDX 23 38 24 39 25 40 86 41 26 42 85 43 27 44 28 45 29 46 79 47
REMARK SMILES IDX 30 48 84 49 78 50 80 51 31 52 83 53 77 54 76 55 32 57 64 58
REMARK SMILES IDX 44 59 63 60 45 61 48 62 62 63 81 64 46 65 47 66 61 68 82 69
REMARK SMILES IDX 49 70 33 71 34 72 42 73 35 74 37 75 43 76 36 77 38 78 39 79
REMARK SMILES IDX 40 80 41 81 65 82 66 83 74 84 67 85 69 86 75 87 68 88 70 89
REMARK SMILES IDX 71 90 72 91 73 92 50 93 51 94 59 95 52 96 54 97 60 98 53 99
REMARK SMILES IDX 55 100 56 101 57 102 58 103
REMARK H PARENT 14 8 9 13 9 14 96 32 21 37 80 56 48 67
REMARK Flexibility Score: inf
ROOT
ATOM      1  C   UNL A   1      36.697  20.977  24.949  1.00  0.00     0.002 C 
ENDROOT
BRANCH   1   2
ATOM      2  C   UNL A   1      36.703  22.080  23.888  1.00  0.00     0.002 C 
BRANCH   2   3
ATOM      3  C   UNL A   1      35.780  23.277  24.154  1.00  0.00     0.021 C 
BRANCH   3   4
ATOM      4  C   UNL A   1      34.317  23.077  23.773  1.00  0.00     0.116 C 
BRANCH   4   5
ATOM      5  N   UNL A   1      33.977  23.828  22.589  1.00  0.00    -0.351 N 
ATOM      6  C   UNL A   1      32.909  24.607  22.311  1.00  0.00     0.281 C 
ATOM      7  O   UNL A   1      32.816  24.954  21.125  1.00  0.00    -0.268 OA
ATOM      8  H   UNL A   1      34.635  23.762  21.861  1.00  0.00     0.163 HD
BRANCH   6   9
ATOM      9  C   UNL A   1      31.835  25.035  23.375  1.00  0.00     0.185 C 
ATOM     10  C   UNL A   1      31.128  27.227  22.695  1.00  0.00     0.232 C 
ATOM     11  N   UNL A   1      30.733  25.800  22.715  1.00  0.00    -0.326 N 
ATOM     12  C   UNL A   1      32.345  27.403  23.634  1.00  0.00     0.161 C 
ATOM     13  H   UNL A   1      30.598  25.463  21.761  1.00  0.00     0.347 HD
ATOM     14  H   UNL A   1      29.858  25.677  23.224  1.00  0.00     0.347 HD
ATOM     15  C   UNL A   1      32.563  26.040  24.275  1.00  0.00     0.169 C 
ATOM     16  C   UNL A   1      32.263  28.305  24.837  1.00  0.00     0.239 C 
ATOM     17  C   UNL A   1      31.268  23.850  24.162  1.00  0.00     0.091 C 
ATOM     18  C   UNL A   1      32.095  26.212  25.689  1.00  0.00     0.240 C 
ATOM     19  N   UNL A   1      31.977  27.544  25.936  1.00  0.00    -0.285 N 
ATOM     20  O   UNL A   1      32.470  29.510  24.808  1.00  0.00    -0.274 OA
ATOM     21  O   UNL A   1      31.960  25.314  26.510  1.00  0.00    -0.274 OA
ATOM     22  C   UNL A   1      31.542  28.040  27.220  1.00  0.00     0.156 C 
BRANCH  10  23
ATOM     23  C   UNL A   1      29.966  28.209  22.798  1.00  0.00     0.056 A 
ATOM     24  C   UNL A   1      28.757  30.083  21.827  1.00  0.00     0.161 A 
ATOM     25  C   UNL A   1      27.568  29.659  22.401  1.00  0.00     0.050 A 
ATOM     26  C   UNL A   1      29.956  29.451  22.165  1.00  0.00     0.166 A 
ATOM     27  C   UNL A   1      27.591  28.569  23.268  1.00  0.00     0.005 A 
ATOM     28  C   UNL A   1      28.771  27.827  23.432  1.00  0.00     0.014 A 
BRANCH  24  29
ATOM     29  O   UNL A   1      28.730  31.105  20.912  1.00  0.00    -0.493 OA
ATOM     30  C   UNL A   1      28.403  32.326  21.596  1.00  0.00     0.278 C 
ENDBRANCH  24  29
BRANCH  26  31
ATOM     31  O   UNL A   1      31.137  30.079  21.905  1.00  0.00    -0.504 OA
ATOM     32  H   UNL A   1      31.616  30.483  22.602  1.00  0.00     0.293 HD
ENDBRANCH  26  31
ENDBRANCH  10  23
ENDBRANCH   6   9
ENDBRANCH   4   5
ENDBRANCH   3   4
ENDBRANCH   2   3
ENDBRANCH   1   2
BRANCH   1  33
ATOM     33  C   UNL A   1      37.956  20.113  25.010  1.00  0.00     0.021 C 
BRANCH  33  34
ATOM     34  C   UNL A   1      39.064  20.640  25.914  1.00  0.00     0.116 C 
BRANCH  34  35
ATOM     35  N   UNL A   1      40.129  19.674  26.124  1.00  0.00    -0.352 N 
ATOM     36  C   UNL A   1      41.441  19.908  26.456  1.00  0.00     0.251 C 
ATOM     37  H   UNL A   1      39.878  18.729  26.014  1.00  0.00     0.163 HD
ATOM     38  O   UNL A   1      42.248  18.984  26.476  1.00  0.00    -0.269 OA
BRANCH  36  39
ATOM     39  C   UNL A   1      41.877  21.288  26.758  1.00  0.00     0.039 A 
ATOM     40  C   UNL A   1      41.935  22.218  25.718  1.00  0.00     0.014 A 
ATOM     41  C   UNL A   1      42.202  21.666  28.064  1.00  0.00     0.014 A 
ATOM     42  C   UNL A   1      42.269  23.545  25.997  1.00  0.00     0.010 A 
ATOM     43  C   UNL A   1      42.462  23.003  28.350  1.00  0.00     0.010 A 
ATOM     44  C   UNL A   1      42.507  23.954  27.319  1.00  0.00    -0.014 A 
BRANCH  44  45
ATOM     45  C   UNL A   1      42.802  25.373  27.643  1.00  0.00     0.031 A 
ATOM     46  C   UNL A   1      44.206  25.901  27.521  1.00  0.00     0.074 A 
ATOM     47  C   UNL A   1      41.823  26.163  28.126  1.00  0.00     0.049 A 
ATOM     48  N   UNL A   1      44.666  27.092  27.802  1.00  0.00    -0.248 NA
ATOM     49  C   UNL A   1      45.234  24.960  27.044  1.00  0.00     0.031 C 
ATOM     50  C   UNL A   1      40.440  25.745  28.369  1.00  0.00     0.029 A 
ATOM     51  N   UNL A   1      41.847  27.476  28.525  1.00  0.00    -0.354 N 
ATOM     52  C   UNL A   1      46.035  27.035  27.575  1.00  0.00     0.074 A 
ATOM     53  C   UNL A   1      46.339  25.681  27.165  1.00  0.00     0.031 C 
ATOM     54  C   UNL A   1      39.749  26.780  28.871  1.00  0.00     0.029 A 
ATOM     55  C   UNL A   1      40.641  27.927  29.012  1.00  0.00     0.049 A 
ATOM     56  H   UNL A   1      42.650  28.042  28.469  1.00  0.00     0.167 HD
ATOM     57  C   UNL A   1      46.953  28.026  27.667  1.00  0.00     0.034 A 
ATOM     58  C   UNL A   1      40.295  29.126  29.519  1.00  0.00     0.034 A 
ATOM     59  C   UNL A   1      46.639  29.381  28.029  1.00  0.00     0.049 A 
ATOM     60  C   UNL A   1      41.324  30.223  29.567  1.00  0.00     0.074 A 
ATOM     61  C   UNL A   1      47.481  30.479  28.061  1.00  0.00     0.029 A 
ATOM     62  N   UNL A   1      45.388  29.824  28.428  1.00  0.00    -0.354 N 
ATOM     63  N   UNL A   1      42.580  30.193  29.190  1.00  0.00    -0.248 NA
ATOM     64  C   UNL A   1      40.880  31.529  30.074  1.00  0.00     0.031 C 
ATOM     65  C   UNL A   1      46.741  31.583  28.501  1.00  0.00     0.029 A 
ATOM     66  C   UNL A   1      45.434  31.176  28.717  1.00  0.00     0.049 A 
ATOM     67  H   UNL A   1      44.584  29.259  28.495  1.00  0.00     0.167 HD
ATOM     68  C   UNL A   1      43.065  31.482  29.380  1.00  0.00     0.074 A 
ATOM     69  C   UNL A   1      41.963  32.274  29.885  1.00  0.00     0.031 C 
ATOM     70  C   UNL A   1      44.315  31.964  29.168  1.00  0.00     0.034 A 
BRANCH  57  71
ATOM     71  C   UNL A   1      48.380  27.693  27.317  1.00  0.00     0.023 A 
ATOM     72  C   UNL A   1      49.252  27.230  28.323  1.00  0.00     0.012 A 
ATOM     73  C   UNL A   1      48.843  27.781  25.989  1.00  0.00     0.148 A 
ATOM     74  C   UNL A   1      50.572  26.894  28.022  1.00  0.00     0.002 A 
ATOM     75  C   UNL A   1      50.146  27.402  25.689  1.00  0.00     0.091 A 
ATOM     76  F   UNL A   1      48.006  28.244  25.050  1.00  0.00    -0.205 F 
ATOM     77  C   UNL A   1      51.015  26.970  26.704  1.00  0.00     0.022 A 
BRANCH  75  78
ATOM     78  S   UNL A   1      50.788  27.388  24.011  1.00  0.00     0.127 S 
ATOM     79  O   UNL A   1      50.903  28.818  23.728  1.00  0.00    -0.237 OA
ATOM     80  O   UNL A   1      52.066  26.695  24.176  1.00  0.00    -0.237 OA
ATOM     81  O   UNL A   1      49.806  26.669  23.212  1.00  0.00    -0.744 OA
ENDBRANCH  75  78
ENDBRANCH  57  71
BRANCH  58  82
ATOM     82  C   UNL A   1      38.892  29.372  29.957  1.00  0.00     0.023 A 
ATOM     83  C   UNL A   1      38.526  29.096  31.289  1.00  0.00     0.012 A 
ATOM     84  C   UNL A   1      37.931  29.906  29.078  1.00  0.00     0.148 A 
ATOM     85  C   UNL A   1      37.220  29.315  31.728  1.00  0.00     0.002 A 
ATOM     86  C   UNL A   1      36.646  30.175  29.536  1.00  0.00     0.091 A 
ATOM     87  F   UNL A   1      38.297  30.153  27.811  1.00  0.00    -0.205 F 
ATOM     88  C   UNL A   1      36.283  29.863  30.856  1.00  0.00     0.022 A 
BRANCH  86  89
ATOM     89  S   UNL A   1      35.417  31.003  28.521  1.00  0.00     0.127 S 
ATOM     90  O   UNL A   1      34.674  31.769  29.518  1.00  0.00    -0.237 OA
ATOM     91  O   UNL A   1      36.253  31.803  27.626  1.00  0.00    -0.237 OA
ATOM     92  O   UNL A   1      34.676  29.940  27.857  1.00  0.00    -0.744 OA
ENDBRANCH  86  89
ENDBRANCH  58  82
BRANCH  70  93
ATOM     93  C   UNL A   1      44.559  33.423  29.447  1.00  0.00     0.023 A 
ATOM     94  C   UNL A   1      45.005  33.829  30.721  1.00  0.00     0.012 A 
ATOM     95  C   UNL A   1      44.420  34.383  28.425  1.00  0.00     0.148 A 
ATOM     96  C   UNL A   1      45.279  35.171  30.981  1.00  0.00     0.002 A 
ATOM     97  C   UNL A   1      44.743  35.710  28.678  1.00  0.00     0.091 A 
ATOM     98  F   UNL A   1      43.977  33.979  27.225  1.00  0.00    -0.205 F 
ATOM     99  C   UNL A   1      45.160  36.108  29.958  1.00  0.00     0.022 A 
BRANCH  97 100
ATOM    100  S   UNL A   1      44.714  36.969  27.395  1.00  0.00     0.127 S 
ATOM    101  O   UNL A   1      45.689  36.443  26.440  1.00  0.00    -0.237 OA
ATOM    102  O   UNL A   1      43.325  36.915  26.939  1.00  0.00    -0.237 OA
ATOM    103  O   UNL A   1      45.088  38.216  28.048  1.00  0.00    -0.744 OA
ENDBRANCH  97 100
ENDBRANCH  70  93
ENDBRANCH  44  45
ENDBRANCH  36  39
ENDBRANCH  34  35
ENDBRANCH  33  34
ENDBRANCH   1  33
TORSDOF 19
ENDMDL
MODEL 3
REMARK VINA RESULT:     -12.3      6.282     11.525
REMARK SMILES COc1cccc([C@@H]2[NH2+][C@@](C)(C(=O)NCCCCCCNC(=O)c3ccc(-c4c5nc(c(-c6cccc(S(=O)(=O)[O-])c6F)c6ccc([nH]6)c(-c6cccc(S(=O)(=O)[O-])c6F)c6nc(c(-c7cccc(S(=O)(=O)[O-])c7F)c7ccc4[nH]7)C=C6)C=C5)cc3)[C@@H]3C(=O)N(C)C(=O)[C@@H]32)c1O
REMARK SMILES IDX 18 1 17 2 16 3 15 4 14 5 12 6 13 7 10 9 8 10 9 11 94 12
REMARK SMILES IDX 87 15 92 16 11 17 88 18 90 19 93 20 89 21 91 22 7 23 3 24
REMARK SMILES IDX 4 25 95 26 5 27 6 28 2 29 1 30 96 31 19 33 20 34 21 35 22 36
REMARK SMILES IDX 23 38 24 39 25 40 86 41 26 42 85 43 27 44 28 45 29 46 79 47
REMARK SMILES IDX 30 48 84 49 78 50 80 51 31 52 83 53 77 54 76 55 32 57 64 58
REMARK SMILES IDX 44 59 63 60 45 61 48 62 62 63 81 64 46 65 47 66 61 68 82 69
REMARK SMILES IDX 49 70 33 71 34 72 42 73 35 74 37 75 43 76 36 77 38 78 39 79
REMARK SMILES IDX 40 80 41 81 65 82 66 83 74 84 67 85 69 86 75 87 68 88 70 89
REMARK SMILES IDX 71 90 72 91 73 92 50 93 51 94 59 95 52 96 54 97 60 98 53 99
REMARK SMILES IDX 55 100 56 101 57 102 58 103
REMARK H PARENT 14 8 9 13 9 14 96 32 21 37 80 56 48 67
REMARK Flexibility Score: inf
ROOT
ATOM      1  C   UNL A   1      32.633  30.443  27.287  1.00  0.00     0.002 C 
ENDROOT
BRANCH   1   2
ATOM      2  C   UNL A   1      32.084  29.415  26.294  1.00  0.00     0.002 C 
BRANCH   2   3
ATOM      3  C   UNL A   1      31.555  28.109  26.898  1.00  0.00     0.021 C 
BRANCH   3   4
ATOM      4  C   UNL A   1      31.364  26.958  25.915  1.00  0.00     0.116 C 
BRANCH   4   5
ATOM      5  N   UNL A   1      30.861  25.780  26.577  1.00  0.00    -0.351 N 
ATOM      6  C   UNL A   1      30.834  24.487  26.187  1.00  0.00     0.281 C 
ATOM      7  O   UNL A   1      30.149  23.744  26.904  1.00  0.00    -0.268 OA
ATOM      8  H   UNL A   1      30.471  25.947  27.465  1.00  0.00     0.163 HD
BRANCH   6   9
ATOM      9  C   UNL A   1      31.576  23.940  24.915  1.00  0.00     0.185 C 
ATOM     10  C   UNL A   1      32.161  21.677  25.464  1.00  0.00     0.232 C 
ATOM     11  N   UNL A   1      31.215  22.508  24.685  1.00  0.00    -0.326 N 
ATOM     12  C   UNL A   1      33.322  22.583  25.936  1.00  0.00     0.161 C 
ATOM     13  H   UNL A   1      30.260  22.335  24.998  1.00  0.00     0.347 HD
ATOM     14  H   UNL A   1      31.271  22.280  23.692  1.00  0.00     0.347 HD
ATOM     15  C   UNL A   1      33.059  23.942  25.304  1.00  0.00     0.169 C 
ATOM     16  C   UNL A   1      34.738  22.305  25.501  1.00  0.00     0.239 C 
ATOM     17  C   UNL A   1      31.300  24.772  23.659  1.00  0.00     0.091 C 
ATOM     18  C   UNL A   1      34.088  24.057  24.218  1.00  0.00     0.240 C 
ATOM     19  N   UNL A   1      35.030  23.097  24.426  1.00  0.00    -0.285 N 
ATOM     20  O   UNL A   1      35.490  21.526  26.069  1.00  0.00    -0.274 OA
ATOM     21  O   UNL A   1      34.133  24.936  23.368  1.00  0.00    -0.274 OA
ATOM     22  C   UNL A   1      36.162  22.946  23.545  1.00  0.00     0.156 C 
BRANCH  10  23
ATOM     23  C   UNL A   1      32.484  20.325  24.836  1.00  0.00     0.056 A 
ATOM     24  C   UNL A   1      32.494  17.902  25.049  1.00  0.00     0.161 A 
ATOM     25  C   UNL A   1      32.350  17.746  23.678  1.00  0.00     0.050 A 
ATOM     26  C   UNL A   1      32.721  19.173  25.583  1.00  0.00     0.166 A 
ATOM     27  C   UNL A   1      32.384  18.877  22.865  1.00  0.00     0.005 A 
ATOM     28  C   UNL A   1      32.409  20.156  23.443  1.00  0.00     0.014 A 
BRANCH  24  29
ATOM     29  O   UNL A   1      32.384  16.802  25.861  1.00  0.00    -0.493 OA
ATOM     30  C   UNL A   1      33.339  15.817  25.434  1.00  0.00     0.278 C 
ENDBRANCH  24  29
BRANCH  26  31
ATOM     31  O   UNL A   1      33.221  19.285  26.846  1.00  0.00    -0.504 OA
ATOM     32  H   UNL A   1      33.569  20.104  27.141  1.00  0.00     0.293 HD
ENDBRANCH  26  31
ENDBRANCH  10  23
ENDBRANCH   6   9
ENDBRANCH   4   5
ENDBRANCH   3   4
ENDBRANCH   2   3
ENDBRANCH   1   2
BRANCH   1  33
ATOM     33  C   UNL A   1      31.988  31.827  27.228  1.00  0.00     0.021 C 
BRANCH  33  34
ATOM     34  C   UNL A   1      32.947  32.981  26.959  1.00  0.00     0.116 C 
BRANCH  34  35
ATOM     35  N   UNL A   1      32.607  34.184  27.698  1.00  0.00    -0.352 N 
ATOM     36  C   UNL A   1      33.149  34.647  28.872  1.00  0.00     0.251 C 
ATOM     37  H   UNL A   1      31.894  34.740  27.307  1.00  0.00     0.163 HD
ATOM     38  O   UNL A   1      32.661  35.623  29.435  1.00  0.00    -0.269 OA
BRANCH  36  39
ATOM     39  C   UNL A   1      34.304  33.941  29.465  1.00  0.00     0.039 A 
ATOM     40  C   UNL A   1      35.592  34.382  29.153  1.00  0.00     0.014 A 
ATOM     41  C   UNL A   1      34.116  32.870  30.342  1.00  0.00     0.014 A 
ATOM     42  C   UNL A   1      36.694  33.779  29.765  1.00  0.00     0.010 A 
ATOM     43  C   UNL A   1      35.209  32.321  31.005  1.00  0.00     0.010 A 
ATOM     44  C   UNL A   1      36.510  32.763  30.717  1.00  0.00    -0.014 A 
BRANCH  44  45
ATOM     45  C   UNL A   1      37.665  32.154  31.424  1.00  0.00     0.031 A 
ATOM     46  C   UNL A   1      38.446  31.042  30.777  1.00  0.00     0.074 A 
ATOM     47  C   UNL A   1      37.958  32.544  32.679  1.00  0.00     0.049 A 
ATOM     48  N   UNL A   1      39.452  30.356  31.254  1.00  0.00    -0.248 NA
ATOM     49  C   UNL A   1      38.027  30.629  29.427  1.00  0.00     0.031 C 
ATOM     50  C   UNL A   1      37.223  33.553  33.446  1.00  0.00     0.029 A 
ATOM     51  N   UNL A   1      38.936  32.119  33.544  1.00  0.00    -0.354 N 
ATOM     52  C   UNL A   1      39.761  29.410  30.285  1.00  0.00     0.074 A 
ATOM     53  C   UNL A   1      38.814  29.586  29.205  1.00  0.00     0.031 C 
ATOM     54  C   UNL A   1      37.778  33.672  34.663  1.00  0.00     0.029 A 
ATOM     55  C   UNL A   1      38.888  32.730  34.776  1.00  0.00     0.049 A 
ATOM     56  H   UNL A   1      39.608  31.440  33.306  1.00  0.00     0.167 HD
ATOM     57  C   UNL A   1      40.761  28.497  30.278  1.00  0.00     0.034 A 
ATOM     58  C   UNL A   1      39.648  32.550  35.873  1.00  0.00     0.034 A 
ATOM     59  C   UNL A   1      41.729  28.357  31.332  1.00  0.00     0.049 A 
ATOM     60  C   UNL A   1      40.782  31.562  35.822  1.00  0.00     0.074 A 
ATOM     61  C   UNL A   1      42.835  27.528  31.378  1.00  0.00     0.029 A 
ATOM     62  N   UNL A   1      41.704  29.059  32.527  1.00  0.00    -0.354 N 
ATOM     63  N   UNL A   1      41.160  30.791  34.830  1.00  0.00    -0.248 NA
ATOM     64  C   UNL A   1      41.618  31.446  37.025  1.00  0.00     0.031 C 
ATOM     65  C   UNL A   1      43.468  27.712  32.613  1.00  0.00     0.029 A 
ATOM     66  C   UNL A   1      42.769  28.676  33.323  1.00  0.00     0.049 A 
ATOM     67  H   UNL A   1      41.028  29.731  32.773  1.00  0.00     0.167 HD
ATOM     68  C   UNL A   1      42.296  30.127  35.276  1.00  0.00     0.074 A 
ATOM     69  C   UNL A   1      42.558  30.601  36.619  1.00  0.00     0.031 C 
ATOM     70  C   UNL A   1      43.048  29.196  34.636  1.00  0.00     0.034 A 
BRANCH  57  71
ATOM     71  C   UNL A   1      40.894  27.614  29.065  1.00  0.00     0.023 A 
ATOM     72  C   UNL A   1      40.100  26.453  28.961  1.00  0.00     0.012 A 
ATOM     73  C   UNL A   1      41.756  27.958  28.005  1.00  0.00     0.148 A 
ATOM     74  C   UNL A   1      40.188  25.629  27.839  1.00  0.00     0.002 A 
ATOM     75  C   UNL A   1      41.804  27.156  26.871  1.00  0.00     0.091 A 
ATOM     76  F   UNL A   1      42.518  29.053  28.131  1.00  0.00    -0.205 F 
ATOM     77  C   UNL A   1      41.031  25.986  26.791  1.00  0.00     0.022 A 
BRANCH  75  78
ATOM     78  S   UNL A   1      42.798  27.571  25.433  1.00  0.00     0.127 S 
ATOM     79  O   UNL A   1      42.597  26.395  24.587  1.00  0.00    -0.237 OA
ATOM     80  O   UNL A   1      42.146  28.788  24.949  1.00  0.00    -0.237 OA
ATOM     81  O   UNL A   1      44.154  27.763  25.924  1.00  0.00    -0.744 OA
ENDBRANCH  75  78
ENDBRANCH  57  71
BRANCH  58  82
ATOM     82  C   UNL A   1      39.405  33.374  37.091  1.00  0.00     0.023 A 
ATOM     83  C   UNL A   1      38.500  32.913  38.067  1.00  0.00     0.012 A 
ATOM     84  C   UNL A   1      40.084  34.588  37.304  1.00  0.00     0.148 A 
ATOM     85  C   UNL A   1      38.251  33.663  39.217  1.00  0.00     0.002 A 
ATOM     86  C   UNL A   1      39.874  35.303  38.477  1.00  0.00     0.091 A 
ATOM     87  F   UNL A   1      40.934  35.015  36.358  1.00  0.00    -0.205 F 
ATOM     88  C   UNL A   1      38.945  34.851  39.427  1.00  0.00     0.022 A 
BRANCH  86  89
ATOM     89  S   UNL A   1      40.821  36.772  38.891  1.00  0.00     0.127 S 
ATOM     90  O   UNL A   1      39.777  37.791  38.960  1.00  0.00    -0.237 OA
ATOM     91  O   UNL A   1      41.407  36.401  40.180  1.00  0.00    -0.237 OA
ATOM     92  O   UNL A   1      41.791  36.930  37.816  1.00  0.00    -0.744 OA
ENDBRANCH  86  89
ENDBRANCH  58  82
BRANCH  70  93
ATOM     93  C   UNL A   1      44.249  28.649  35.362  1.00  0.00     0.023 A 
ATOM     94  C   UNL A   1      45.515  29.237  35.164  1.00  0.00     0.012 A 
ATOM     95  C   UNL A   1      44.110  27.605  36.297  1.00  0.00     0.148 A 
ATOM     96  C   UNL A   1      46.628  28.771  35.863  1.00  0.00     0.002 A 
ATOM     97  C   UNL A   1      45.213  27.181  37.026  1.00  0.00     0.091 A 
ATOM     98  F   UNL A   1      42.900  27.047  36.456  1.00  0.00    -0.205 F 
ATOM     99  C   UNL A   1      46.476  27.754  36.802  1.00  0.00     0.022 A 
BRANCH  97 100
ATOM    100  S   UNL A   1      45.092  25.944  38.324  1.00  0.00     0.127 S 
ATOM    101  O   UNL A   1      44.280  26.639  39.322  1.00  0.00    -0.237 OA
ATOM    102  O   UNL A   1      44.408  24.845  37.643  1.00  0.00    -0.237 OA
ATOM    103  O   UNL A   1      46.460  25.648  38.726  1.00  0.00    -0.744 OA
ENDBRANCH  97 100
ENDBRANCH  70  93
ENDBRANCH  44  45
ENDBRANCH  36  39
ENDBRANCH  34  35
ENDBRANCH  33  34
ENDBRANCH   1  33
TORSDOF 19
ENDMDL
