MODEL 1
REMARK VINA RESULT:     -12.8      0.000      0.000
REMARK SMILES Nn1c(S[C@@H](C(=O)NCCCCCCNC(=O)c2ccc(-c3c4nc(c(-c5cccc(S(=O)(=O)[O-])c5F)c5ccc([nH]5)c(-c5cccc(S(=O)(=O)[O-])c5F)c5nc(c(-c6cccc(S(=O)(=O)[O-])c6F)c6ccc3[nH]6)C=C5)C=C4)cc2)c2ccccc2)nc2ccc(Br)cc2c1=O
REMARK SMILES IDX 11 1 10 2 9 3 8 4 6 5 7 6 5 8 4 9 3 10 2 11 95 12 87 13
REMARK SMILES IDX 94 14 96 15 88 16 93 17 89 18 91 19 90 20 92 21 1 22 81 25
REMARK SMILES IDX 82 26 86 27 83 28 85 29 84 30 12 31 13 32 14 33 15 34 16 35
REMARK SMILES IDX 17 37 18 38 19 39 80 40 20 41 79 42 21 43 22 44 23 45 73 46
REMARK SMILES IDX 24 47 78 48 72 49 74 50 25 51 77 52 71 53 70 54 26 56 58 57
REMARK SMILES IDX 38 58 57 59 39 60 42 61 56 62 75 63 40 64 41 65 55 67 76 68
REMARK SMILES IDX 43 69 27 70 28 71 36 72 29 73 31 74 37 75 30 76 32 77 33 78
REMARK SMILES IDX 34 79 35 80 59 81 60 82 68 83 61 84 63 85 69 86 62 87 64 88
REMARK SMILES IDX 65 89 66 90 67 91 44 92 45 93 53 94 46 95 48 96 54 97 47 98
REMARK SMILES IDX 49 99 50 100 51 101 52 102
REMARK H PARENT 8 7 1 23 1 24 15 36 74 55 42 66
REMARK Flexibility Score: inf
ROOT
ATOM      1  C   UNL A   1      33.374  29.604  27.405  1.00  0.00     0.002 C 
ENDROOT
BRANCH   1   2
ATOM      2  C   UNL A   1      33.994  28.565  26.463  1.00  0.00     0.021 C 
BRANCH   2   3
ATOM      3  C   UNL A   1      33.004  27.789  25.586  1.00  0.00     0.116 C 
BRANCH   3   4
ATOM      4  N   UNL A   1      32.985  28.264  24.212  1.00  0.00    -0.355 N 
ATOM      5  C   UNL A   1      31.952  28.608  23.386  1.00  0.00     0.238 C 
ATOM      6  O   UNL A   1      32.279  29.002  22.260  1.00  0.00    -0.273 OA
ATOM      7  H   UNL A   1      33.876  28.355  23.803  1.00  0.00     0.163 HD
BRANCH   5   8
ATOM      8  C   UNL A   1      30.472  28.512  23.816  1.00  0.00     0.174 C 
BRANCH   8   9
ATOM      9  S   UNL A   1      29.804  26.856  23.661  1.00  0.00    -0.068 SA
BRANCH   9  10
ATOM     10  C   UNL A   1      30.764  25.600  24.384  1.00  0.00     0.191 A 
ATOM     11  N   UNL A   1      30.558  25.022  25.636  1.00  0.00    -0.202 N 
ATOM     12  C   UNL A   1      31.500  24.139  26.189  1.00  0.00     0.280 A 
ATOM     13  N   UNL A   1      31.715  25.214  23.591  1.00  0.00    -0.222 NA
ATOM     14  C   UNL A   1      32.540  23.651  25.269  1.00  0.00     0.069 A 
ATOM     15  O   UNL A   1      31.518  23.751  27.356  1.00  0.00    -0.267 OA
ATOM     16  C   UNL A   1      32.559  24.179  23.983  1.00  0.00     0.079 A 
ATOM     17  C   UNL A   1      33.436  22.648  25.655  1.00  0.00     0.031 A 
ATOM     18  C   UNL A   1      33.459  23.657  23.051  1.00  0.00     0.030 A 
ATOM     19  C   UNL A   1      34.338  22.150  24.718  1.00  0.00     0.018 A 
ATOM     20  C   UNL A   1      34.345  22.639  23.412  1.00  0.00     0.018 A 
ATOM     21  Br  UNL A   1      35.553  20.791  25.216  1.00  0.00    -0.051 Br
BRANCH  11  22
ATOM     22  N   UNL A   1      29.407  25.212  26.415  1.00  0.00    -0.334 N 
ATOM     23  H   UNL A   1      29.487  25.360  27.385  1.00  0.00     0.178 HD
ATOM     24  H   UNL A   1      28.518  25.199  25.992  1.00  0.00     0.178 HD
ENDBRANCH  11  22
ENDBRANCH   9  10
ENDBRANCH   8   9
BRANCH   8  25
ATOM     25  C   UNL A   1      29.625  29.707  23.367  1.00  0.00    -0.025 A 
ATOM     26  C   UNL A   1      29.568  30.947  24.019  1.00  0.00     0.005 A 
ATOM     27  C   UNL A   1      28.792  29.536  22.240  1.00  0.00     0.005 A 
ATOM     28  C   UNL A   1      28.691  31.954  23.596  1.00  0.00     0.000 A 
ATOM     29  C   UNL A   1      27.927  30.545  21.808  1.00  0.00     0.000 A 
ATOM     30  C   UNL A   1      27.868  31.752  22.495  1.00  0.00     0.000 A 
ENDBRANCH   8  25
ENDBRANCH   5   8
ENDBRANCH   3   4
ENDBRANCH   2   3
ENDBRANCH   1   2
BRANCH   1  31
ATOM     31  C   UNL A   1      31.995  30.137  27.007  1.00  0.00     0.002 C 
BRANCH  31  32
ATOM     32  C   UNL A   1      31.927  31.632  26.697  1.00  0.00     0.021 C 
BRANCH  32  33
ATOM     33  C   UNL A   1      33.038  32.481  27.308  1.00  0.00     0.116 C 
BRANCH  33  34
ATOM     34  N   UNL A   1      32.603  33.826  27.652  1.00  0.00    -0.352 N 
ATOM     35  C   UNL A   1      33.089  34.675  28.622  1.00  0.00     0.251 C 
ATOM     36  H   UNL A   1      31.856  34.180  27.116  1.00  0.00     0.163 HD
ATOM     37  O   UNL A   1      32.509  35.731  28.858  1.00  0.00    -0.269 OA
BRANCH  35  38
ATOM     38  C   UNL A   1      34.285  34.289  29.407  1.00  0.00     0.039 A 
ATOM     39  C   UNL A   1      35.569  34.597  28.949  1.00  0.00     0.014 A 
ATOM     40  C   UNL A   1      34.120  33.577  30.599  1.00  0.00     0.014 A 
ATOM     41  C   UNL A   1      36.677  34.039  29.580  1.00  0.00     0.010 A 
ATOM     42  C   UNL A   1      35.241  33.084  31.276  1.00  0.00     0.010 A 
ATOM     43  C   UNL A   1      36.526  33.260  30.741  1.00  0.00    -0.014 A 
BRANCH  43  44
ATOM     44  C   UNL A   1      37.725  32.630  31.359  1.00  0.00     0.031 A 
ATOM     45  C   UNL A   1      38.189  33.035  32.735  1.00  0.00     0.074 A 
ATOM     46  C   UNL A   1      38.364  31.641  30.703  1.00  0.00     0.049 A 
ATOM     47  N   UNL A   1      39.174  32.543  33.445  1.00  0.00    -0.248 NA
ATOM     48  C   UNL A   1      37.463  34.128  33.402  1.00  0.00     0.031 C 
ATOM     49  C   UNL A   1      38.024  31.168  29.359  1.00  0.00     0.029 A 
ATOM     50  N   UNL A   1      39.414  30.843  31.082  1.00  0.00    -0.354 N 
ATOM     51  C   UNL A   1      39.207  33.284  34.619  1.00  0.00     0.074 A 
ATOM     52  C   UNL A   1      38.150  34.267  34.529  1.00  0.00     0.031 C 
ATOM     53  C   UNL A   1      38.814  30.129  29.048  1.00  0.00     0.029 A 
ATOM     54  C   UNL A   1      39.744  29.891  30.146  1.00  0.00     0.049 A 
ATOM     55  H   UNL A   1      39.885  30.943  31.939  1.00  0.00     0.167 HD
ATOM     56  C   UNL A   1      40.026  33.145  35.688  1.00  0.00     0.034 A 
ATOM     57  C   UNL A   1      40.686  28.927  30.168  1.00  0.00     0.034 A 
ATOM     58  C   UNL A   1      41.039  32.133  35.811  1.00  0.00     0.049 A 
ATOM     59  C   UNL A   1      41.572  28.784  31.372  1.00  0.00     0.074 A 
ATOM     60  C   UNL A   1      41.884  31.892  36.880  1.00  0.00     0.029 A 
ATOM     61  N   UNL A   1      41.340  31.191  34.841  1.00  0.00    -0.354 N 
ATOM     62  N   UNL A   1      41.534  29.448  32.500  1.00  0.00    -0.248 NA
ATOM     63  C   UNL A   1      42.620  27.755  31.312  1.00  0.00     0.031 C 
ATOM     64  C   UNL A   1      42.696  30.801  36.558  1.00  0.00     0.029 A 
ATOM     65  C   UNL A   1      42.357  30.365  35.287  1.00  0.00     0.049 A 
ATOM     66  H   UNL A   1      40.898  31.120  33.965  1.00  0.00     0.167 HD
ATOM     67  C   UNL A   1      42.545  28.914  33.289  1.00  0.00     0.074 A 
ATOM     68  C   UNL A   1      43.165  27.856  32.518  1.00  0.00     0.031 C 
ATOM     69  C   UNL A   1      42.936  29.286  34.531  1.00  0.00     0.034 A 
BRANCH  56  70
ATOM     70  C   UNL A   1      39.825  34.067  36.858  1.00  0.00     0.023 A 
ATOM     71  C   UNL A   1      40.158  35.430  36.719  1.00  0.00     0.012 A 
ATOM     72  C   UNL A   1      39.217  33.618  38.046  1.00  0.00     0.148 A 
ATOM     73  C   UNL A   1      39.895  36.332  37.749  1.00  0.00     0.002 A 
ATOM     74  C   UNL A   1      38.935  34.528  39.058  1.00  0.00     0.091 A 
ATOM     75  F   UNL A   1      38.922  32.315  38.158  1.00  0.00    -0.205 F 
ATOM     76  C   UNL A   1      39.276  35.883  38.912  1.00  0.00     0.022 A 
BRANCH  74  77
ATOM     77  S   UNL A   1      38.091  34.067  40.576  1.00  0.00     0.127 S 
ATOM     78  O   UNL A   1      37.012  33.221  40.066  1.00  0.00    -0.237 OA
ATOM     79  O   UNL A   1      39.137  33.348  41.303  1.00  0.00    -0.237 OA
ATOM     80  O   UNL A   1      37.663  35.313  41.195  1.00  0.00    -0.744 OA
ENDBRANCH  74  77
ENDBRANCH  56  70
BRANCH  57  81
ATOM     81  C   UNL A   1      40.780  27.982  29.023  1.00  0.00     0.023 A 
ATOM     82  C   UNL A   1      39.858  26.923  28.931  1.00  0.00     0.012 A 
ATOM     83  C   UNL A   1      41.714  28.181  27.988  1.00  0.00     0.148 A 
ATOM     84  C   UNL A   1      39.863  26.075  27.823  1.00  0.00     0.002 A 
ATOM     85  C   UNL A   1      41.685  27.359  26.868  1.00  0.00     0.091 A 
ATOM     86  F   UNL A   1      42.584  29.193  28.106  1.00  0.00    -0.205 F 
ATOM     87  C   UNL A   1      40.766  26.300  26.787  1.00  0.00     0.022 A 
BRANCH  85  88
ATOM     88  S   UNL A   1      42.727  27.642  25.432  1.00  0.00     0.127 S 
ATOM     89  O   UNL A   1      42.696  26.335  24.781  1.00  0.00    -0.237 OA
ATOM     90  O   UNL A   1      41.992  28.697  24.734  1.00  0.00    -0.237 OA
ATOM     91  O   UNL A   1      44.022  28.051  25.957  1.00  0.00    -0.744 OA
ENDBRANCH  85  88
ENDBRANCH  57  81
BRANCH  69  92
ATOM     92  C   UNL A   1      44.091  28.559  35.158  1.00  0.00     0.023 A 
ATOM     93  C   UNL A   1      45.401  29.001  34.891  1.00  0.00     0.012 A 
ATOM     94  C   UNL A   1      43.876  27.542  36.107  1.00  0.00     0.148 A 
ATOM     95  C   UNL A   1      46.485  28.436  35.562  1.00  0.00     0.002 A 
ATOM     96  C   UNL A   1      44.959  27.006  36.793  1.00  0.00     0.091 A 
ATOM     97  F   UNL A   1      42.618  27.139  36.336  1.00  0.00    -0.205 F 
ATOM     98  C   UNL A   1      46.264  27.450  36.520  1.00  0.00     0.022 A 
BRANCH  96  99
ATOM     99  S   UNL A   1      44.774  25.782  38.095  1.00  0.00     0.127 S 
ATOM    100  O   UNL A   1      43.890  26.476  39.032  1.00  0.00    -0.237 OA
ATOM    101  O   UNL A   1      44.153  24.665  37.383  1.00  0.00    -0.237 OA
ATOM    102  O   UNL A   1      46.116  25.516  38.595  1.00  0.00    -0.744 OA
ENDBRANCH  96  99
ENDBRANCH  69  92
ENDBRANCH  43  44
ENDBRANCH  35  38
ENDBRANCH  33  34
ENDBRANCH  32  33
ENDBRANCH  31  32
ENDBRANCH   1  31
TORSDOF 20
ENDMDL
MODEL 2
REMARK VINA RESULT:     -12.7      5.430     10.014
REMARK SMILES Nn1c(S[C@@H](C(=O)NCCCCCCNC(=O)c2ccc(-c3c4nc(c(-c5cccc(S(=O)(=O)[O-])c5F)c5ccc([nH]5)c(-c5cccc(S(=O)(=O)[O-])c5F)c5nc(c(-c6cccc(S(=O)(=O)[O-])c6F)c6ccc3[nH]6)C=C5)C=C4)cc2)c2ccccc2)nc2ccc(Br)cc2c1=O
REMARK SMILES IDX 11 1 10 2 9 3 8 4 6 5 7 6 5 8 4 9 3 10 2 11 95 12 87 13
REMARK SMILES IDX 94 14 96 15 88 16 93 17 89 18 91 19 90 20 92 21 1 22 81 25
REMARK SMILES IDX 82 26 86 27 83 28 85 29 84 30 12 31 13 32 14 33 15 34 16 35
REMARK SMILES IDX 17 37 18 38 19 39 80 40 20 41 79 42 21 43 22 44 23 45 73 46
REMARK SMILES IDX 24 47 78 48 72 49 74 50 25 51 77 52 71 53 70 54 26 56 58 57
REMARK SMILES IDX 38 58 57 59 39 60 42 61 56 62 75 63 40 64 41 65 55 67 76 68
REMARK SMILES IDX 43 69 27 70 28 71 36 72 29 73 31 74 37 75 30 76 32 77 33 78
REMARK SMILES IDX 34 79 35 80 59 81 60 82 68 83 61 84 63 85 69 86 62 87 64 88
REMARK SMILES IDX 65 89 66 90 67 91 44 92 45 93 53 94 46 95 48 96 54 97 47 98
REMARK SMILES IDX 49 99 50 100 51 101 52 102
REMARK H PARENT 8 7 1 23 1 24 15 36 74 55 42 66
REMARK Flexibility Score: inf
ROOT
ATOM      1  C   UNL A   1      35.468  24.174  25.844  1.00  0.00     0.002 C 
ENDROOT
BRANCH   1   2
ATOM      2  C   UNL A   1      34.538  24.808  24.804  1.00  0.00     0.021 C 
BRANCH   2   3
ATOM      3  C   UNL A   1      33.926  26.158  25.195  1.00  0.00     0.116 C 
BRANCH   3   4
ATOM      4  N   UNL A   1      33.929  27.112  24.097  1.00  0.00    -0.355 N 
ATOM      5  C   UNL A   1      32.931  27.867  23.549  1.00  0.00     0.238 C 
ATOM      6  O   UNL A   1      33.273  28.610  22.621  1.00  0.00    -0.273 OA
ATOM      7  H   UNL A   1      34.809  27.235  23.672  1.00  0.00     0.163 HD
BRANCH   5   8
ATOM      8  C   UNL A   1      31.470  27.804  24.044  1.00  0.00     0.174 C 
BRANCH   8   9
ATOM      9  S   UNL A   1      30.564  26.408  23.379  1.00  0.00    -0.068 SA
BRANCH   9  10
ATOM     10  C   UNL A   1      30.888  24.883  24.146  1.00  0.00     0.191 A 
ATOM     11  N   UNL A   1      30.594  24.545  25.466  1.00  0.00    -0.202 N 
ATOM     12  C   UNL A   1      31.059  23.344  26.027  1.00  0.00     0.280 A 
ATOM     13  N   UNL A   1      31.425  24.040  23.319  1.00  0.00    -0.222 NA
ATOM     14  C   UNL A   1      31.608  22.363  25.077  1.00  0.00     0.069 A 
ATOM     15  O   UNL A   1      31.039  23.058  27.224  1.00  0.00    -0.267 OA
ATOM     16  C   UNL A   1      31.711  22.746  23.746  1.00  0.00     0.079 A 
ATOM     17  C   UNL A   1      31.953  21.071  25.490  1.00  0.00     0.031 A 
ATOM     18  C   UNL A   1      32.120  21.803  22.800  1.00  0.00     0.030 A 
ATOM     19  C   UNL A   1      32.376  20.147  24.537  1.00  0.00     0.018 A 
ATOM     20  C   UNL A   1      32.447  20.502  23.190  1.00  0.00     0.018 A 
ATOM     21  Br  UNL A   1      32.842  18.395  25.071  1.00  0.00    -0.051 Br
BRANCH  11  22
ATOM     22  N   UNL A   1      29.788  25.315  26.319  1.00  0.00    -0.334 N 
ATOM     23  H   UNL A   1      29.444  26.187  26.018  1.00  0.00     0.178 HD
ATOM     24  H   UNL A   1      29.565  24.982  27.218  1.00  0.00     0.178 HD
ENDBRANCH  11  22
ENDBRANCH   9  10
ENDBRANCH   8   9
BRANCH   8  25
ATOM     25  C   UNL A   1      30.788  29.175  24.116  1.00  0.00    -0.025 A 
ATOM     26  C   UNL A   1      31.151  30.213  24.986  1.00  0.00     0.005 A 
ATOM     27  C   UNL A   1      29.671  29.398  23.282  1.00  0.00     0.005 A 
ATOM     28  C   UNL A   1      30.411  31.400  25.053  1.00  0.00     0.000 A 
ATOM     29  C   UNL A   1      28.940  30.588  23.338  1.00  0.00     0.000 A 
ATOM     30  C   UNL A   1      29.304  31.585  24.234  1.00  0.00     0.000 A 
ENDBRANCH   8  25
ENDBRANCH   5   8
ENDBRANCH   3   4
ENDBRANCH   2   3
ENDBRANCH   1   2
BRANCH   1  31
ATOM     31  C   UNL A   1      35.238  22.689  26.140  1.00  0.00     0.002 C 
BRANCH  31  32
ATOM     32  C   UNL A   1      35.686  21.719  25.048  1.00  0.00     0.021 C 
BRANCH  32  33
ATOM     33  C   UNL A   1      37.147  21.835  24.625  1.00  0.00     0.116 C 
BRANCH  33  34
ATOM     34  N   UNL A   1      37.957  20.707  25.059  1.00  0.00    -0.352 N 
ATOM     35  C   UNL A   1      39.085  20.700  25.851  1.00  0.00     0.251 C 
ATOM     36  H   UNL A   1      37.657  19.824  24.743  1.00  0.00     0.163 HD
ATOM     37  O   UNL A   1      39.717  19.659  26.006  1.00  0.00    -0.269 OA
BRANCH  35  38
ATOM     38  C   UNL A   1      39.555  21.959  26.474  1.00  0.00     0.039 A 
ATOM     39  C   UNL A   1      38.997  23.187  26.110  1.00  0.00     0.014 A 
ATOM     40  C   UNL A   1      40.596  21.913  27.407  1.00  0.00     0.014 A 
ATOM     41  C   UNL A   1      39.595  24.369  26.537  1.00  0.00     0.010 A 
ATOM     42  C   UNL A   1      41.144  23.104  27.897  1.00  0.00     0.010 A 
ATOM     43  C   UNL A   1      40.688  24.343  27.421  1.00  0.00    -0.014 A 
BRANCH  43  44
ATOM     44  C   UNL A   1      41.342  25.621  27.813  1.00  0.00     0.031 A 
ATOM     45  C   UNL A   1      42.758  25.925  27.395  1.00  0.00     0.074 A 
ATOM     46  C   UNL A   1      40.636  26.542  28.497  1.00  0.00     0.049 A 
ATOM     47  N   UNL A   1      43.456  27.015  27.597  1.00  0.00    -0.248 NA
ATOM     48  C   UNL A   1      43.489  24.879  26.659  1.00  0.00     0.031 C 
ATOM     49  C   UNL A   1      39.263  26.364  28.975  1.00  0.00     0.029 A 
ATOM     50  N   UNL A   1      40.963  27.815  28.891  1.00  0.00    -0.354 N 
ATOM     51  C   UNL A   1      44.710  26.775  27.048  1.00  0.00     0.074 A 
ATOM     52  C   UNL A   1      44.685  25.433  26.510  1.00  0.00     0.031 C 
ATOM     53  C   UNL A   1      38.847  27.503  29.549  1.00  0.00     0.029 A 
ATOM     54  C   UNL A   1      39.935  28.476  29.522  1.00  0.00     0.049 A 
ATOM     55  H   UNL A   1      41.848  28.218  28.736  1.00  0.00     0.167 HD
ATOM     56  C   UNL A   1      45.778  27.603  26.976  1.00  0.00     0.034 A 
ATOM     57  C   UNL A   1      39.868  29.726  30.020  1.00  0.00     0.034 A 
ATOM     58  C   UNL A   1      45.790  28.959  27.456  1.00  0.00     0.049 A 
ATOM     59  C   UNL A   1      41.061  30.630  29.914  1.00  0.00     0.074 A 
ATOM     60  C   UNL A   1      46.817  29.883  27.381  1.00  0.00     0.029 A 
ATOM     61  N   UNL A   1      44.730  29.585  28.088  1.00  0.00    -0.354 N 
ATOM     62  N   UNL A   1      42.209  30.406  29.324  1.00  0.00    -0.248 NA
ATOM     63  C   UNL A   1      40.949  31.961  30.530  1.00  0.00     0.031 C 
ATOM     64  C   UNL A   1      46.376  31.073  27.968  1.00  0.00     0.029 A 
ATOM     65  C   UNL A   1      45.076  30.886  28.409  1.00  0.00     0.049 A 
ATOM     66  H   UNL A   1      43.860  29.167  28.282  1.00  0.00     0.167 HD
ATOM     67  C   UNL A   1      42.954  31.568  29.489  1.00  0.00     0.074 A 
ATOM     68  C   UNL A   1      42.120  32.502  30.215  1.00  0.00     0.031 C 
ATOM     69  C   UNL A   1      44.223  31.823  29.091  1.00  0.00     0.034 A 
BRANCH  56  70
ATOM     70  C   UNL A   1      47.018  27.101  26.290  1.00  0.00     0.023 A 
ATOM     71  C   UNL A   1      47.201  27.379  24.920  1.00  0.00     0.012 A 
ATOM     72  C   UNL A   1      48.040  26.456  27.012  1.00  0.00     0.148 A 
ATOM     73  C   UNL A   1      48.382  27.014  24.276  1.00  0.00     0.002 A 
ATOM     74  C   UNL A   1      49.225  26.119  26.368  1.00  0.00     0.091 A 
ATOM     75  F   UNL A   1      47.836  26.194  28.311  1.00  0.00    -0.205 F 
ATOM     76  C   UNL A   1      49.396  26.394  25.001  1.00  0.00     0.022 A 
BRANCH  74  77
ATOM     77  S   UNL A   1      50.617  25.365  27.220  1.00  0.00     0.127 S 
ATOM     78  O   UNL A   1      49.975  24.228  27.880  1.00  0.00    -0.237 OA
ATOM     79  O   UNL A   1      51.499  25.007  26.110  1.00  0.00    -0.237 OA
ATOM     80  O   UNL A   1      51.143  26.386  28.115  1.00  0.00    -0.744 OA
ENDBRANCH  74  77
ENDBRANCH  56  70
BRANCH  57  81
ATOM     81  C   UNL A   1      38.586  30.204  30.605  1.00  0.00     0.023 A 
ATOM     82  C   UNL A   1      38.338  29.998  31.975  1.00  0.00     0.012 A 
ATOM     83  C   UNL A   1      37.661  30.936  29.835  1.00  0.00     0.148 A 
ATOM     84  C   UNL A   1      37.189  30.515  32.571  1.00  0.00     0.002 A 
ATOM     85  C   UNL A   1      36.540  31.484  30.445  1.00  0.00     0.091 A 
ATOM     86  F   UNL A   1      37.920  31.110  28.533  1.00  0.00    -0.205 F 
ATOM     87  C   UNL A   1      36.297  31.267  31.812  1.00  0.00     0.022 A 
BRANCH  85  88
ATOM     88  S   UNL A   1      35.397  32.565  29.578  1.00  0.00     0.127 S 
ATOM     89  O   UNL A   1      34.677  33.186  30.686  1.00  0.00    -0.237 OA
ATOM     90  O   UNL A   1      36.312  33.453  28.861  1.00  0.00    -0.237 OA
ATOM     91  O   UNL A   1      34.602  31.696  28.722  1.00  0.00    -0.744 OA
ENDBRANCH  85  88
ENDBRANCH  57  81
BRANCH  69  92
ATOM     92  C   UNL A   1      44.813  33.163  29.425  1.00  0.00     0.023 A 
ATOM     93  C   UNL A   1      45.561  33.303  30.609  1.00  0.00     0.012 A 
ATOM     94  C   UNL A   1      44.747  34.231  28.510  1.00  0.00     0.148 A 
ATOM     95  C   UNL A   1      46.235  34.493  30.880  1.00  0.00     0.002 A 
ATOM     96  C   UNL A   1      45.446  35.402  28.772  1.00  0.00     0.091 A 
ATOM     97  F   UNL A   1      44.023  34.069  27.392  1.00  0.00    -0.205 F 
ATOM     98  C   UNL A   1      46.188  35.536  29.959  1.00  0.00     0.022 A 
BRANCH  96  99
ATOM     99  S   UNL A   1      45.508  36.776  27.617  1.00  0.00     0.127 S 
ATOM    100  O   UNL A   1      46.204  36.177  26.479  1.00  0.00    -0.237 OA
ATOM    101  O   UNL A   1      44.090  37.052  27.389  1.00  0.00    -0.237 OA
ATOM    102  O   UNL A   1      46.235  37.842  28.293  1.00  0.00    -0.744 OA
ENDBRANCH  96  99
ENDBRANCH  69  92
ENDBRANCH  43  44
ENDBRANCH  35  38
ENDBRANCH  33  34
ENDBRANCH  32  33
ENDBRANCH  31  32
ENDBRANCH   1  31
TORSDOF 20
ENDMDL
MODEL 3
REMARK VINA RESULT:     -12.6      0.539      7.490
REMARK SMILES Nn1c(S[C@@H](C(=O)NCCCCCCNC(=O)c2ccc(-c3c4nc(c(-c5cccc(S(=O)(=O)[O-])c5F)c5ccc([nH]5)c(-c5cccc(S(=O)(=O)[O-])c5F)c5nc(c(-c6cccc(S(=O)(=O)[O-])c6F)c6ccc3[nH]6)C=C5)C=C4)cc2)c2ccccc2)nc2ccc(Br)cc2c1=O
REMARK SMILES IDX 11 1 10 2 9 3 8 4 6 5 7 6 5 8 4 9 3 10 2 11 95 12 87 13
REMARK SMILES IDX 94 14 96 15 88 16 93 17 89 18 91 19 90 20 92 21 1 22 81 25
REMARK SMILES IDX 82 26 86 27 83 28 85 29 84 30 12 31 13 32 14 33 15 34 16 35
REMARK SMILES IDX 17 37 18 38 19 39 80 40 20 41 79 42 21 43 22 44 23 45 73 46
REMARK SMILES IDX 24 47 78 48 72 49 74 50 25 51 77 52 71 53 70 54 26 56 58 57
REMARK SMILES IDX 38 58 57 59 39 60 42 61 56 62 75 63 40 64 41 65 55 67 76 68
REMARK SMILES IDX 43 69 27 70 28 71 36 72 29 73 31 74 37 75 30 76 32 77 33 78
REMARK SMILES IDX 34 79 35 80 59 81 60 82 68 83 61 84 63 85 69 86 62 87 64 88
REMARK SMILES IDX 65 89 66 90 67 91 44 92 45 93 53 94 46 95 48 96 54 97 47 98
REMARK SMILES IDX 49 99 50 100 51 101 52 102
REMARK H PARENT 8 7 1 23 1 24 15 36 74 55 42 66
REMARK Flexibility Score: inf
ROOT
ATOM      1  C   UNL A   1      33.086  30.072  26.051  1.00  0.00     0.002 C 
ENDROOT
BRANCH   1   2
ATOM      2  C   UNL A   1      33.698  28.723  26.445  1.00  0.00     0.021 C 
BRANCH   2   3
ATOM      3  C   UNL A   1      33.241  27.518  25.613  1.00  0.00     0.116 C 
BRANCH   3   4
ATOM      4  N   UNL A   1      33.043  27.850  24.211  1.00  0.00    -0.355 N 
ATOM      5  C   UNL A   1      31.906  28.013  23.471  1.00  0.00     0.238 C 
ATOM      6  O   UNL A   1      32.081  28.322  22.286  1.00  0.00    -0.273 OA
ATOM      7  H   UNL A   1      33.876  27.981  23.705  1.00  0.00     0.163 HD
BRANCH   5   8
ATOM      8  C   UNL A   1      30.491  27.824  24.061  1.00  0.00     0.174 C 
BRANCH   8   9
ATOM      9  S   UNL A   1      29.935  26.122  24.016  1.00  0.00    -0.068 SA
BRANCH   9  10
ATOM     10  C   UNL A   1      31.058  24.959  24.654  1.00  0.00     0.191 A 
ATOM     11  N   UNL A   1      30.933  24.269  25.860  1.00  0.00    -0.202 N 
ATOM     12  C   UNL A   1      31.987  23.484  26.357  1.00  0.00     0.280 A 
ATOM     13  N   UNL A   1      32.052  24.764  23.845  1.00  0.00    -0.222 NA
ATOM     14  C   UNL A   1      33.083  23.211  25.413  1.00  0.00     0.069 A 
ATOM     15  O   UNL A   1      32.059  23.018  27.493  1.00  0.00    -0.267 OA
ATOM     16  C   UNL A   1      33.030  23.828  24.169  1.00  0.00     0.079 A 
ATOM     17  C   UNL A   1      34.108  22.313  25.734  1.00  0.00     0.031 A 
ATOM     18  C   UNL A   1      33.991  23.503  23.210  1.00  0.00     0.030 A 
ATOM     19  C   UNL A   1      35.069  22.011  24.772  1.00  0.00     0.018 A 
ATOM     20  C   UNL A   1      35.008  22.591  23.505  1.00  0.00     0.018 A 
ATOM     21  Br  UNL A   1      36.458  20.798  25.182  1.00  0.00    -0.051 Br
BRANCH  11  22
ATOM     22  N   UNL A   1      29.767  24.244  26.640  1.00  0.00    -0.334 N 
ATOM     23  H   UNL A   1      29.726  24.754  27.481  1.00  0.00     0.178 HD
ATOM     24  H   UNL A   1      28.990  23.716  26.347  1.00  0.00     0.178 HD
ENDBRANCH  11  22
ENDBRANCH   9  10
ENDBRANCH   8   9
BRANCH   8  25
ATOM     25  C   UNL A   1      29.515  28.943  23.681  1.00  0.00    -0.025 A 
ATOM     26  C   UNL A   1      28.302  28.760  23.001  1.00  0.00     0.005 A 
ATOM     27  C   UNL A   1      29.886  30.270  23.985  1.00  0.00     0.005 A 
ATOM     28  C   UNL A   1      27.516  29.850  22.607  1.00  0.00     0.000 A 
ATOM     29  C   UNL A   1      29.095  31.359  23.604  1.00  0.00     0.000 A 
ATOM     30  C   UNL A   1      27.914  31.147  22.903  1.00  0.00     0.000 A 
ENDBRANCH   8  25
ENDBRANCH   5   8
ENDBRANCH   3   4
ENDBRANCH   2   3
ENDBRANCH   1   2
BRANCH   1  31
ATOM     31  C   UNL A   1      31.822  30.487  26.808  1.00  0.00     0.002 C 
BRANCH  31  32
ATOM     32  C   UNL A   1      31.630  31.990  27.002  1.00  0.00     0.021 C 
BRANCH  32  33
ATOM     33  C   UNL A   1      32.857  32.751  27.494  1.00  0.00     0.116 C 
BRANCH  33  34
ATOM     34  N   UNL A   1      32.594  34.162  27.737  1.00  0.00    -0.352 N 
ATOM     35  C   UNL A   1      33.157  35.003  28.671  1.00  0.00     0.251 C 
ATOM     36  H   UNL A   1      31.917  34.573  27.151  1.00  0.00     0.163 HD
ATOM     37  O   UNL A   1      32.715  36.138  28.819  1.00  0.00    -0.269 OA
BRANCH  35  38
ATOM     38  C   UNL A   1      34.266  34.518  29.526  1.00  0.00     0.039 A 
ATOM     39  C   UNL A   1      35.594  34.632  29.105  1.00  0.00     0.014 A 
ATOM     40  C   UNL A   1      33.971  33.906  30.748  1.00  0.00     0.014 A 
ATOM     41  C   UNL A   1      36.598  33.978  29.811  1.00  0.00     0.010 A 
ATOM     42  C   UNL A   1      34.996  33.318  31.498  1.00  0.00     0.010 A 
ATOM     43  C   UNL A   1      36.310  33.298  31.007  1.00  0.00    -0.014 A 
BRANCH  43  44
ATOM     44  C   UNL A   1      37.396  32.560  31.709  1.00  0.00     0.031 A 
ATOM     45  C   UNL A   1      38.121  31.423  31.034  1.00  0.00     0.074 A 
ATOM     46  C   UNL A   1      37.775  32.956  32.940  1.00  0.00     0.049 A 
ATOM     47  N   UNL A   1      39.131  30.717  31.477  1.00  0.00    -0.248 NA
ATOM     48  C   UNL A   1      37.659  31.024  29.694  1.00  0.00     0.031 C 
ATOM     49  C   UNL A   1      37.144  34.031  33.708  1.00  0.00     0.029 A 
ATOM     50  N   UNL A   1      38.792  32.519  33.751  1.00  0.00    -0.354 N 
ATOM     51  C   UNL A   1      39.401  29.774  30.494  1.00  0.00     0.074 A 
ATOM     52  C   UNL A   1      38.445  29.988  29.429  1.00  0.00     0.031 C 
ATOM     53  C   UNL A   1      37.820  34.205  34.854  1.00  0.00     0.029 A 
ATOM     54  C   UNL A   1      38.901  33.228  34.924  1.00  0.00     0.049 A 
ATOM     55  H   UNL A   1      39.386  31.770  33.516  1.00  0.00     0.167 HD
ATOM     56  C   UNL A   1      40.371  28.830  30.465  1.00  0.00     0.034 A 
ATOM     57  C   UNL A   1      39.776  33.112  35.943  1.00  0.00     0.034 A 
ATOM     58  C   UNL A   1      41.361  28.651  31.492  1.00  0.00     0.049 A 
ATOM     59  C   UNL A   1      40.852  32.068  35.881  1.00  0.00     0.074 A 
ATOM     60  C   UNL A   1      42.409  27.747  31.521  1.00  0.00     0.029 A 
ATOM     61  N   UNL A   1      41.434  29.389  32.661  1.00  0.00    -0.354 N 
ATOM     62  N   UNL A   1      41.133  31.239  34.907  1.00  0.00    -0.248 NA
ATOM     63  C   UNL A   1      41.738  31.950  37.049  1.00  0.00     0.031 C 
ATOM     64  C   UNL A   1      43.118  27.940  32.710  1.00  0.00     0.029 A 
ATOM     65  C   UNL A   1      42.510  28.963  33.419  1.00  0.00     0.049 A 
ATOM     66  H   UNL A   1      40.812  30.108  32.915  1.00  0.00     0.167 HD
ATOM     67  C   UNL A   1      42.231  30.505  35.338  1.00  0.00     0.074 A 
ATOM     68  C   UNL A   1      42.579  31.002  36.653  1.00  0.00     0.031 C 
ATOM     69  C   UNL A   1      42.876  29.495  34.705  1.00  0.00     0.034 A 
BRANCH  56  70
ATOM     70  C   UNL A   1      40.466  27.949  29.251  1.00  0.00     0.023 A 
ATOM     71  C   UNL A   1      39.554  26.884  29.107  1.00  0.00     0.012 A 
ATOM     72  C   UNL A   1      41.374  28.232  28.213  1.00  0.00     0.148 A 
ATOM     73  C   UNL A   1      39.550  26.108  27.950  1.00  0.00     0.002 A 
ATOM     74  C   UNL A   1      41.347  27.469  27.051  1.00  0.00     0.091 A 
ATOM     75  F   UNL A   1      42.239  29.243  28.380  1.00  0.00    -0.205 F 
ATOM     76  C   UNL A   1      40.438  26.406  26.920  1.00  0.00     0.022 A 
BRANCH  74  77
ATOM     77  S   UNL A   1      42.411  27.801  25.642  1.00  0.00     0.127 S 
ATOM     78  O   UNL A   1      43.728  27.853  26.275  1.00  0.00    -0.237 OA
ATOM     79  O   UNL A   1      42.185  26.626  24.802  1.00  0.00    -0.237 OA
ATOM     80  O   UNL A   1      41.947  29.058  25.073  1.00  0.00    -0.744 OA
ENDBRANCH  74  77
ENDBRANCH  56  70
BRANCH  57  81
ATOM     81  C   UNL A   1      39.695  34.071  37.078  1.00  0.00     0.023 A 
ATOM     82  C   UNL A   1      40.093  35.406  36.878  1.00  0.00     0.012 A 
ATOM     83  C   UNL A   1      39.144  33.690  38.317  1.00  0.00     0.148 A 
ATOM     84  C   UNL A   1      39.943  36.349  37.894  1.00  0.00     0.002 A 
ATOM     85  C   UNL A   1      38.958  34.644  39.310  1.00  0.00     0.091 A 
ATOM     86  F   UNL A   1      38.780  32.412  38.481  1.00  0.00    -0.205 F 
ATOM     87  C   UNL A   1      39.365  35.972  39.104  1.00  0.00     0.022 A 
BRANCH  85  88
ATOM     88  S   UNL A   1      38.116  34.283  40.855  1.00  0.00     0.127 S 
ATOM     89  O   UNL A   1      39.146  33.558  41.592  1.00  0.00    -0.237 OA
ATOM     90  O   UNL A   1      37.826  35.626  41.357  1.00  0.00    -0.237 OA
ATOM     91  O   UNL A   1      36.939  33.505  40.492  1.00  0.00    -0.744 OA
ENDBRANCH  85  88
ENDBRANCH  57  81
BRANCH  69  92
ATOM     92  C   UNL A   1      44.028  28.840  35.411  1.00  0.00     0.023 A 
ATOM     93  C   UNL A   1      45.312  29.407  35.295  1.00  0.00     0.012 A 
ATOM     94  C   UNL A   1      43.819  27.760  36.289  1.00  0.00     0.148 A 
ATOM     95  C   UNL A   1      46.374  28.905  36.045  1.00  0.00     0.002 A 
ATOM     96  C   UNL A   1      44.876  27.284  37.055  1.00  0.00     0.091 A 
ATOM     97  F   UNL A   1      42.586  27.237  36.374  1.00  0.00    -0.205 F 
ATOM     98  C   UNL A   1      46.155  27.854  36.932  1.00  0.00     0.022 A 
BRANCH  96  99
ATOM     99  S   UNL A   1      44.681  25.983  38.278  1.00  0.00     0.127 S 
ATOM    100  O   UNL A   1      43.732  26.590  39.210  1.00  0.00    -0.237 OA
ATOM    101  O   UNL A   1      44.135  24.887  37.478  1.00  0.00    -0.237 OA
ATOM    102  O   UNL A   1      46.009  25.737  38.823  1.00  0.00    -0.744 OA
ENDBRANCH  96  99
ENDBRANCH  69  92
ENDBRANCH  43  44
ENDBRANCH  35  38
ENDBRANCH  33  34
ENDBRANCH  32  33
ENDBRANCH  31  32
ENDBRANCH   1  31
TORSDOF 20
ENDMDL
