MODEL 1
REMARK VINA RESULT:     -12.9      0.000      0.000
REMARK SMILES O=C(NCCCCCCNC(=O)C1CCN(C2=[NH+]C(Cl)=[NH+]C3=[NH+]C=N[C@@H]32)CC1)c1ccc(-c2c3nc(c(-c4cccc(S(=O)(=O)[O-])c4F)c4ccc([nH]4)c(-c4cccc(S(=O)(=O)[O-])c4F)c4nc(c(-c5cccc(S(=O)(=O)[O-])c5F)c5ccc2[nH]5)C=C4)C=C3)cc1
REMARK SMILES IDX 5 1 4 2 3 3 1 4 2 5 29 7 30 8 91 9 31 10 90 11 32 12 33 13
REMARK SMILES IDX 34 14 84 15 35 16 89 17 83 18 85 19 36 20 88 21 82 22 81 23
REMARK SMILES IDX 37 25 69 26 49 27 68 28 50 29 53 30 67 31 86 32 51 33 52 34
REMARK SMILES IDX 66 36 87 37 54 38 38 39 39 40 47 41 40 42 42 43 48 44 41 45
REMARK SMILES IDX 43 46 44 47 45 48 46 49 70 50 71 51 79 52 72 53 74 54 80 55
REMARK SMILES IDX 73 56 75 57 76 58 77 59 78 60 55 61 56 62 64 63 57 64 59 65
REMARK SMILES IDX 65 66 58 67 60 68 61 69 62 70 63 71 6 72 7 73 8 74 9 75
REMARK SMILES IDX 10 76 11 77 12 79 13 80 14 81 28 82 15 83 27 84 16 85 17 86
REMARK SMILES IDX 18 87 26 88 19 89 22 91 25 92 20 93 21 94 23 95 24 96
REMARK H PARENT 3 6 85 24 53 35 10 78 18 90 21 97 23 98
REMARK Flexibility Score: inf
ROOT
ATOM      1  C   UNL A   1      32.640  29.962  27.264  1.00  0.00     0.021 C 
ENDROOT
BRANCH   1   2
ATOM      2  C   UNL A   1      33.864  30.876  27.274  1.00  0.00     0.116 C 
BRANCH   2   3
ATOM      3  N   UNL A   1      33.975  31.680  28.472  1.00  0.00    -0.352 N 
ATOM      4  O   UNL A   1      34.627  32.622  30.353  1.00  0.00    -0.269 OA
ATOM      5  C   UNL A   1      34.913  31.826  29.456  1.00  0.00     0.251 C 
ATOM      6  H   UNL A   1      33.190  32.258  28.612  1.00  0.00     0.163 HD
BRANCH   5   7
ATOM      7  C   UNL A   1      36.197  31.077  29.535  1.00  0.00     0.039 A 
ATOM      8  C   UNL A   1      36.321  29.693  29.670  1.00  0.00     0.014 A 
ATOM      9  C   UNL A   1      37.370  31.848  29.429  1.00  0.00     0.014 A 
ATOM     10  C   UNL A   1      37.580  29.102  29.759  1.00  0.00     0.010 A 
ATOM     11  C   UNL A   1      38.630  31.259  29.492  1.00  0.00     0.010 A 
ATOM     12  C   UNL A   1      38.735  29.885  29.682  1.00  0.00    -0.014 A 
BRANCH  12  13
ATOM     13  C   UNL A   1      40.026  29.198  29.667  1.00  0.00     0.031 A 
ATOM     14  C   UNL A   1      40.658  28.985  31.004  1.00  0.00     0.074 A 
ATOM     15  C   UNL A   1      40.574  28.648  28.566  1.00  0.00     0.049 A 
ATOM     16  N   UNL A   1      41.805  29.413  31.430  1.00  0.00    -0.248 NA
ATOM     17  C   UNL A   1      39.874  28.264  32.017  1.00  0.00     0.031 C 
ATOM     18  C   UNL A   1      39.958  28.466  27.249  1.00  0.00     0.029 A 
ATOM     19  N   UNL A   1      41.771  28.006  28.442  1.00  0.00    -0.354 N 
ATOM     20  C   UNL A   1      41.972  28.860  32.701  1.00  0.00     0.074 A 
ATOM     21  C   UNL A   1      40.706  28.271  33.059  1.00  0.00     0.031 C 
ATOM     22  C   UNL A   1      40.674  27.557  26.549  1.00  0.00     0.029 A 
ATOM     23  C   UNL A   1      41.863  27.210  27.307  1.00  0.00     0.049 A 
ATOM     24  H   UNL A   1      42.502  28.098  29.095  1.00  0.00     0.167 HD
ATOM     25  C   UNL A   1      43.187  28.764  33.308  1.00  0.00     0.034 A 
ATOM     26  C   UNL A   1      42.811  26.277  27.049  1.00  0.00     0.034 A 
ATOM     27  C   UNL A   1      44.170  29.609  32.693  1.00  0.00     0.049 A 
ATOM     28  C   UNL A   1      43.979  26.565  27.909  1.00  0.00     0.074 A 
ATOM     29  C   UNL A   1      44.311  30.967  32.490  1.00  0.00     0.029 A 
ATOM     30  N   UNL A   1      45.092  29.012  31.870  1.00  0.00    -0.354 N 
ATOM     31  N   UNL A   1      44.741  27.612  27.771  1.00  0.00    -0.248 NA
ATOM     32  C   UNL A   1      44.093  25.868  29.177  1.00  0.00     0.031 C 
ATOM     33  C   UNL A   1      44.945  31.083  31.218  1.00  0.00     0.029 A 
ATOM     34  C   UNL A   1      45.181  29.790  30.746  1.00  0.00     0.049 A 
ATOM     35  H   UNL A   1      45.593  28.184  32.052  1.00  0.00     0.167 HD
ATOM     36  C   UNL A   1      45.091  27.960  29.069  1.00  0.00     0.074 A 
ATOM     37  C   UNL A   1      44.770  26.783  29.873  1.00  0.00     0.031 C 
ATOM     38  C   UNL A   1      45.338  29.259  29.410  1.00  0.00     0.034 A 
BRANCH  25  39
ATOM     39  C   UNL A   1      43.583  27.690  34.293  1.00  0.00     0.023 A 
ATOM     40  C   UNL A   1      44.068  28.095  35.557  1.00  0.00     0.012 A 
ATOM     41  C   UNL A   1      43.745  26.328  33.951  1.00  0.00     0.148 A 
ATOM     42  C   UNL A   1      44.709  27.199  36.422  1.00  0.00     0.002 A 
ATOM     43  C   UNL A   1      44.310  25.425  34.847  1.00  0.00     0.091 A 
ATOM     44  F   UNL A   1      43.477  25.919  32.706  1.00  0.00    -0.205 F 
ATOM     45  C   UNL A   1      44.819  25.860  36.072  1.00  0.00     0.022 A 
BRANCH  43  46
ATOM     46  S   UNL A   1      44.411  23.673  34.463  1.00  0.00     0.127 S 
ATOM     47  O   UNL A   1      45.281  23.683  33.285  1.00  0.00    -0.237 OA
ATOM     48  O   UNL A   1      45.032  23.135  35.678  1.00  0.00    -0.237 OA
ATOM     49  O   UNL A   1      43.043  23.245  34.254  1.00  0.00    -0.744 OA
ENDBRANCH  43  46
ENDBRANCH  25  39
BRANCH  26  50
ATOM     50  C   UNL A   1      42.696  25.009  26.297  1.00  0.00     0.023 A 
ATOM     51  C   UNL A   1      43.681  24.664  25.350  1.00  0.00     0.012 A 
ATOM     52  C   UNL A   1      41.780  24.013  26.703  1.00  0.00     0.148 A 
ATOM     53  C   UNL A   1      43.768  23.361  24.847  1.00  0.00     0.002 A 
ATOM     54  C   UNL A   1      41.867  22.722  26.196  1.00  0.00     0.091 A 
ATOM     55  F   UNL A   1      40.886  24.313  27.656  1.00  0.00    -0.205 F 
ATOM     56  C   UNL A   1      42.867  22.388  25.275  1.00  0.00     0.022 A 
BRANCH  54  57
ATOM     57  S   UNL A   1      40.757  21.409  26.721  1.00  0.00     0.127 S 
ATOM     58  O   UNL A   1      39.491  21.823  26.117  1.00  0.00    -0.237 OA
ATOM     59  O   UNL A   1      41.372  20.233  26.109  1.00  0.00    -0.237 OA
ATOM     60  O   UNL A   1      40.765  21.441  28.177  1.00  0.00    -0.744 OA
ENDBRANCH  54  57
ENDBRANCH  26  50
BRANCH  38  61
ATOM     61  C   UNL A   1      45.471  30.274  28.301  1.00  0.00     0.023 A 
ATOM     62  C   UNL A   1      44.344  30.825  27.653  1.00  0.00     0.012 A 
ATOM     63  C   UNL A   1      46.739  30.818  28.028  1.00  0.00     0.148 A 
ATOM     64  C   UNL A   1      44.480  31.869  26.736  1.00  0.00     0.002 A 
ATOM     65  C   UNL A   1      46.864  31.891  27.153  1.00  0.00     0.091 A 
ATOM     66  F   UNL A   1      47.803  30.294  28.655  1.00  0.00    -0.205 F 
ATOM     67  C   UNL A   1      45.739  32.411  26.495  1.00  0.00     0.022 A 
BRANCH  65  68
ATOM     68  S   UNL A   1      48.433  32.728  26.907  1.00  0.00     0.127 S 
ATOM     69  O   UNL A   1      49.286  31.644  26.422  1.00  0.00    -0.237 OA
ATOM     70  O   UNL A   1      48.098  33.738  25.902  1.00  0.00    -0.237 OA
ATOM     71  O   UNL A   1      48.797  33.282  28.206  1.00  0.00    -0.744 OA
ENDBRANCH  65  68
ENDBRANCH  38  61
ENDBRANCH  12  13
ENDBRANCH   5   7
ENDBRANCH   2   3
ENDBRANCH   1   2
BRANCH   1  72
ATOM     72  C   UNL A   1      31.712  30.159  26.057  1.00  0.00     0.002 C 
BRANCH  72  73
ATOM     73  C   UNL A   1      31.567  28.953  25.117  1.00  0.00     0.002 C 
BRANCH  73  74
ATOM     74  C   UNL A   1      31.570  29.288  23.624  1.00  0.00     0.021 C 
BRANCH  74  75
ATOM     75  C   UNL A   1      30.480  28.575  22.830  1.00  0.00     0.116 C 
BRANCH  75  76
ATOM     76  N   UNL A   1      31.019  27.642  21.868  1.00  0.00    -0.356 N 
ATOM     77  C   UNL A   1      31.594  26.425  21.991  1.00  0.00     0.223 C 
ATOM     78  H   UNL A   1      30.954  27.956  20.937  1.00  0.00     0.163 HD
ATOM     79  O   UNL A   1      31.907  25.866  20.932  1.00  0.00    -0.275 OA
BRANCH  77  80
ATOM     80  C   UNL A   1      31.875  25.711  23.315  1.00  0.00     0.087 C 
ATOM     81  C   UNL A   1      33.316  25.275  23.552  1.00  0.00     0.068 C 
ATOM     82  C   UNL A   1      30.845  24.678  23.754  1.00  0.00     0.068 C 
ATOM     83  C   UNL A   1      33.630  23.826  23.232  1.00  0.00     0.277 C 
ATOM     84  C   UNL A   1      31.174  23.234  23.422  1.00  0.00     0.277 C 
ATOM     85  N   UNL A   1      32.576  22.900  23.648  1.00  0.00    -0.230 N 
ATOM     86  C   UNL A   1      32.903  21.569  23.875  1.00  0.00     0.383 C 
ATOM     87  N   UNL A   1      32.290  20.598  23.254  1.00  0.00    -0.155 N 
ATOM     88  C   UNL A   1      33.975  21.236  24.891  1.00  0.00     0.523 C 
ATOM     89  C   UNL A   1      32.650  19.303  23.552  1.00  0.00     0.414 C 
ATOM     90  H   UNL A   1      31.588  20.787  22.591  1.00  0.00     0.367 HD
ATOM     91  C   UNL A   1      33.551  19.935  25.453  1.00  0.00     0.389 C 
ATOM     92  N   UNL A   1      33.918  22.098  26.095  1.00  0.00     0.003 NA
ATOM     93  Cl  UNL A   1      32.222  18.129  22.383  1.00  0.00     0.028 Cl
ATOM     94  N   UNL A   1      33.251  18.909  24.628  1.00  0.00    -0.155 N 
ATOM     95  N   UNL A   1      33.368  19.957  26.725  1.00  0.00    -0.169 N 
ATOM     96  C   UNL A   1      33.596  21.272  27.047  1.00  0.00     0.532 C 
ATOM     97  H   UNL A   1      33.465  17.968  24.823  1.00  0.00     0.367 HD
ATOM     98  H   UNL A   1      33.124  19.213  27.322  1.00  0.00     0.365 HD
ENDBRANCH  77  80
ENDBRANCH  75  76
ENDBRANCH  74  75
ENDBRANCH  73  74
ENDBRANCH  72  73
ENDBRANCH   1  72
TORSDOF 16
ENDMDL
MODEL 2
REMARK VINA RESULT:     -12.8      1.461      2.010
REMARK SMILES O=C(NCCCCCCNC(=O)C1CCN(C2=[NH+]C(Cl)=[NH+]C3=[NH+]C=N[C@@H]32)CC1)c1ccc(-c2c3nc(c(-c4cccc(S(=O)(=O)[O-])c4F)c4ccc([nH]4)c(-c4cccc(S(=O)(=O)[O-])c4F)c4nc(c(-c5cccc(S(=O)(=O)[O-])c5F)c5ccc2[nH]5)C=C4)C=C3)cc1
REMARK SMILES IDX 5 1 4 2 3 3 1 4 2 5 29 7 30 8 91 9 31 10 90 11 32 12 33 13
REMARK SMILES IDX 34 14 84 15 35 16 89 17 83 18 85 19 36 20 88 21 82 22 81 23
REMARK SMILES IDX 37 25 69 26 49 27 68 28 50 29 53 30 67 31 86 32 51 33 52 34
REMARK SMILES IDX 66 36 87 37 54 38 38 39 39 40 47 41 40 42 42 43 48 44 41 45
REMARK SMILES IDX 43 46 44 47 45 48 46 49 70 50 71 51 79 52 72 53 74 54 80 55
REMARK SMILES IDX 73 56 75 57 76 58 77 59 78 60 55 61 56 62 64 63 57 64 59 65
REMARK SMILES IDX 65 66 58 67 60 68 61 69 62 70 63 71 6 72 7 73 8 74 9 75
REMARK SMILES IDX 10 76 11 77 12 79 13 80 14 81 28 82 15 83 27 84 16 85 17 86
REMARK SMILES IDX 18 87 26 88 19 89 22 91 25 92 20 93 21 94 23 95 24 96
REMARK H PARENT 3 6 85 24 53 35 10 78 18 90 21 97 23 98
REMARK Flexibility Score: inf
ROOT
ATOM      1  C   UNL A   1      32.552  31.223  27.071  1.00  0.00     0.021 C 
ENDROOT
BRANCH   1   2
ATOM      2  C   UNL A   1      33.981  31.231  27.610  1.00  0.00     0.116 C 
BRANCH   2   3
ATOM      3  N   UNL A   1      34.111  31.879  28.897  1.00  0.00    -0.352 N 
ATOM      4  O   UNL A   1      34.810  32.612  30.853  1.00  0.00    -0.269 OA
ATOM      5  C   UNL A   1      35.092  31.959  29.845  1.00  0.00     0.251 C 
ATOM      6  H   UNL A   1      33.301  32.381  29.149  1.00  0.00     0.163 HD
BRANCH   5   7
ATOM      7  C   UNL A   1      36.420  31.293  29.764  1.00  0.00     0.039 A 
ATOM      8  C   UNL A   1      37.651  31.945  29.672  1.00  0.00     0.014 A 
ATOM      9  C   UNL A   1      36.410  29.886  29.819  1.00  0.00     0.014 A 
ATOM     10  C   UNL A   1      38.833  31.214  29.575  1.00  0.00     0.010 A 
ATOM     11  C   UNL A   1      37.591  29.151  29.748  1.00  0.00     0.010 A 
ATOM     12  C   UNL A   1      38.804  29.817  29.601  1.00  0.00    -0.014 A 
BRANCH  12  13
ATOM     13  C   UNL A   1      40.081  29.106  29.612  1.00  0.00     0.031 A 
ATOM     14  C   UNL A   1      40.686  28.887  30.962  1.00  0.00     0.074 A 
ATOM     15  C   UNL A   1      40.638  28.539  28.524  1.00  0.00     0.049 A 
ATOM     16  N   UNL A   1      41.832  29.296  31.405  1.00  0.00    -0.248 NA
ATOM     17  C   UNL A   1      39.870  28.187  31.964  1.00  0.00     0.031 C 
ATOM     18  C   UNL A   1      40.042  28.362  27.198  1.00  0.00     0.029 A 
ATOM     19  N   UNL A   1      41.824  27.873  28.425  1.00  0.00    -0.354 N 
ATOM     20  C   UNL A   1      41.966  28.746  32.682  1.00  0.00     0.074 A 
ATOM     21  C   UNL A   1      40.683  28.184  33.020  1.00  0.00     0.031 C 
ATOM     22  C   UNL A   1      40.753  27.436  26.515  1.00  0.00     0.029 A 
ATOM     23  C   UNL A   1      41.921  27.069  27.295  1.00  0.00     0.049 A 
ATOM     24  H   UNL A   1      42.545  27.955  29.090  1.00  0.00     0.167 HD
ATOM     25  C   UNL A   1      43.169  28.631  33.311  1.00  0.00     0.034 A 
ATOM     26  C   UNL A   1      42.855  26.117  27.059  1.00  0.00     0.034 A 
ATOM     27  C   UNL A   1      44.179  29.453  32.709  1.00  0.00     0.049 A 
ATOM     28  C   UNL A   1      44.013  26.387  27.938  1.00  0.00     0.074 A 
ATOM     29  C   UNL A   1      44.349  30.807  32.502  1.00  0.00     0.029 A 
ATOM     30  N   UNL A   1      45.103  28.834  31.906  1.00  0.00    -0.354 N 
ATOM     31  N   UNL A   1      44.798  27.419  27.809  1.00  0.00    -0.248 NA
ATOM     32  C   UNL A   1      44.091  25.695  29.211  1.00  0.00     0.031 C 
ATOM     33  C   UNL A   1      45.008  30.904  31.240  1.00  0.00     0.029 A 
ATOM     34  C   UNL A   1      45.227  29.604  30.780  1.00  0.00     0.049 A 
ATOM     35  H   UNL A   1      45.584  27.997  32.101  1.00  0.00     0.167 HD
ATOM     36  C   UNL A   1      45.131  27.767  29.110  1.00  0.00     0.074 A 
ATOM     37  C   UNL A   1      44.773  26.601  29.915  1.00  0.00     0.031 C 
ATOM     38  C   UNL A   1      45.397  29.063  29.449  1.00  0.00     0.034 A 
BRANCH  25  39
ATOM     39  C   UNL A   1      43.526  27.555  34.308  1.00  0.00     0.023 A 
ATOM     40  C   UNL A   1      43.978  27.957  35.586  1.00  0.00     0.012 A 
ATOM     41  C   UNL A   1      43.687  26.191  33.973  1.00  0.00     0.148 A 
ATOM     42  C   UNL A   1      44.585  27.057  36.470  1.00  0.00     0.002 A 
ATOM     43  C   UNL A   1      44.218  25.284  34.886  1.00  0.00     0.091 A 
ATOM     44  F   UNL A   1      43.453  25.783  32.721  1.00  0.00    -0.205 F 
ATOM     45  C   UNL A   1      44.694  25.716  36.125  1.00  0.00     0.022 A 
BRANCH  43  46
ATOM     46  S   UNL A   1      44.315  23.531  34.507  1.00  0.00     0.127 S 
ATOM     47  O   UNL A   1      44.955  23.007  35.715  1.00  0.00    -0.237 OA
ATOM     48  O   UNL A   1      42.899  23.176  34.360  1.00  0.00    -0.237 OA
ATOM     49  O   UNL A   1      45.081  23.445  33.280  1.00  0.00    -0.744 OA
ENDBRANCH  43  46
ENDBRANCH  25  39
BRANCH  26  50
ATOM     50  C   UNL A   1      42.729  24.847  26.311  1.00  0.00     0.023 A 
ATOM     51  C   UNL A   1      43.682  24.515  25.328  1.00  0.00     0.012 A 
ATOM     52  C   UNL A   1      41.842  23.839  26.752  1.00  0.00     0.148 A 
ATOM     53  C   UNL A   1      43.767  23.213  24.822  1.00  0.00     0.002 A 
ATOM     54  C   UNL A   1      41.927  22.549  26.241  1.00  0.00     0.091 A 
ATOM     55  F   UNL A   1      40.981  24.127  27.738  1.00  0.00    -0.205 F 
ATOM     56  C   UNL A   1      42.897  22.229  25.283  1.00  0.00     0.022 A 
BRANCH  54  57
ATOM     57  S   UNL A   1      40.856  21.221  26.808  1.00  0.00     0.127 S 
ATOM     58  O   UNL A   1      40.810  21.464  28.249  1.00  0.00    -0.237 OA
ATOM     59  O   UNL A   1      39.613  21.512  26.097  1.00  0.00    -0.237 OA
ATOM     60  O   UNL A   1      41.526  19.983  26.430  1.00  0.00    -0.744 OA
ENDBRANCH  54  57
ENDBRANCH  26  50
BRANCH  38  61
ATOM     61  C   UNL A   1      45.570  30.069  28.337  1.00  0.00     0.023 A 
ATOM     62  C   UNL A   1      44.464  30.661  27.688  1.00  0.00     0.012 A 
ATOM     63  C   UNL A   1      46.857  30.563  28.063  1.00  0.00     0.148 A 
ATOM     64  C   UNL A   1      44.640  31.696  26.767  1.00  0.00     0.002 A 
ATOM     65  C   UNL A   1      47.024  31.628  27.185  1.00  0.00     0.091 A 
ATOM     66  F   UNL A   1      47.901  30.001  28.692  1.00  0.00    -0.205 F 
ATOM     67  C   UNL A   1      45.919  32.190  26.526  1.00  0.00     0.022 A 
BRANCH  65  68
ATOM     68  S   UNL A   1      48.624  32.403  26.938  1.00  0.00     0.127 S 
ATOM     69  O   UNL A   1      49.447  31.276  26.505  1.00  0.00    -0.237 OA
ATOM     70  O   UNL A   1      48.339  33.389  25.893  1.00  0.00    -0.237 OA
ATOM     71  O   UNL A   1      48.985  32.990  28.223  1.00  0.00    -0.744 OA
ENDBRANCH  65  68
ENDBRANCH  38  61
ENDBRANCH  12  13
ENDBRANCH   5   7
ENDBRANCH   2   3
ENDBRANCH   1   2
BRANCH   1  72
ATOM     72  C   UNL A   1      32.134  29.907  26.402  1.00  0.00     0.002 C 
BRANCH  72  73
ATOM     73  C   UNL A   1      31.848  28.732  27.349  1.00  0.00     0.002 C 
BRANCH  73  74
ATOM     74  C   UNL A   1      32.070  27.342  26.748  1.00  0.00     0.021 C 
BRANCH  74  75
ATOM     75  C   UNL A   1      32.051  27.320  25.223  1.00  0.00     0.116 C 
BRANCH  75  76
ATOM     76  N   UNL A   1      30.717  27.170  24.690  1.00  0.00    -0.356 N 
ATOM     77  C   UNL A   1      30.038  26.110  24.199  1.00  0.00     0.223 C 
ATOM     78  H   UNL A   1      30.200  28.008  24.683  1.00  0.00     0.163 HD
ATOM     79  O   UNL A   1      28.866  26.327  23.863  1.00  0.00    -0.275 OA
BRANCH  77  80
ATOM     80  C   UNL A   1      30.603  24.697  24.038  1.00  0.00     0.087 C 
ATOM     81  C   UNL A   1      30.664  23.848  25.302  1.00  0.00     0.068 C 
ATOM     82  C   UNL A   1      31.834  24.561  23.152  1.00  0.00     0.068 C 
ATOM     83  C   UNL A   1      32.006  23.808  26.008  1.00  0.00     0.277 C 
ATOM     84  C   UNL A   1      33.168  24.527  23.874  1.00  0.00     0.277 C 
ATOM     85  N   UNL A   1      33.141  23.718  25.089  1.00  0.00    -0.230 N 
ATOM     86  C   UNL A   1      34.341  23.194  25.552  1.00  0.00     0.383 C 
ATOM     87  N   UNL A   1      35.459  23.863  25.467  1.00  0.00    -0.155 N 
ATOM     88  C   UNL A   1      34.357  21.800  26.143  1.00  0.00     0.523 C 
ATOM     89  C   UNL A   1      36.612  23.267  25.923  1.00  0.00     0.414 C 
ATOM     90  H   UNL A   1      35.476  24.770  25.085  1.00  0.00     0.367 HD
ATOM     91  C   UNL A   1      35.696  21.275  25.795  1.00  0.00     0.389 C 
ATOM     92  N   UNL A   1      33.482  20.854  25.413  1.00  0.00     0.003 NA
ATOM     93  Cl  UNL A   1      37.906  24.330  26.272  1.00  0.00     0.028 Cl
ATOM     94  N   UNL A   1      36.800  21.997  26.084  1.00  0.00    -0.155 N 
ATOM     95  N   UNL A   1      35.662  20.197  25.096  1.00  0.00    -0.169 N 
ATOM     96  C   UNL A   1      34.318  20.001  24.896  1.00  0.00     0.532 C 
ATOM     97  H   UNL A   1      37.651  21.602  26.382  1.00  0.00     0.367 HD
ATOM     98  H   UNL A   1      36.416  19.647  24.781  1.00  0.00     0.365 HD
ENDBRANCH  77  80
ENDBRANCH  75  76
ENDBRANCH  74  75
ENDBRANCH  73  74
ENDBRANCH  72  73
ENDBRANCH   1  72
TORSDOF 16
ENDMDL
MODEL 3
REMARK VINA RESULT:     -12.7      3.326      8.208
REMARK SMILES O=C(NCCCCCCNC(=O)C1CCN(C2=[NH+]C(Cl)=[NH+]C3=[NH+]C=N[C@@H]32)CC1)c1ccc(-c2c3nc(c(-c4cccc(S(=O)(=O)[O-])c4F)c4ccc([nH]4)c(-c4cccc(S(=O)(=O)[O-])c4F)c4nc(c(-c5cccc(S(=O)(=O)[O-])c5F)c5ccc2[nH]5)C=C4)C=C3)cc1
REMARK SMILES IDX 5 1 4 2 3 3 1 4 2 5 29 7 30 8 91 9 31 10 90 11 32 12 33 13
REMARK SMILES IDX 34 14 84 15 35 16 89 17 83 18 85 19 36 20 88 21 82 22 81 23
REMARK SMILES IDX 37 25 69 26 49 27 68 28 50 29 53 30 67 31 86 32 51 33 52 34
REMARK SMILES IDX 66 36 87 37 54 38 38 39 39 40 47 41 40 42 42 43 48 44 41 45
REMARK SMILES IDX 43 46 44 47 45 48 46 49 70 50 71 51 79 52 72 53 74 54 80 55
REMARK SMILES IDX 73 56 75 57 76 58 77 59 78 60 55 61 56 62 64 63 57 64 59 65
REMARK SMILES IDX 65 66 58 67 60 68 61 69 62 70 63 71 6 72 7 73 8 74 9 75
REMARK SMILES IDX 10 76 11 77 12 79 13 80 14 81 28 82 15 83 27 84 16 85 17 86
REMARK SMILES IDX 18 87 26 88 19 89 22 91 25 92 20 93 21 94 23 95 24 96
REMARK H PARENT 3 6 85 24 53 35 10 78 18 90 21 97 23 98
REMARK Flexibility Score: inf
ROOT
ATOM      1  C   UNL A   1      38.600  20.423  24.858  1.00  0.00     0.021 C 
ENDROOT
BRANCH   1   2
ATOM      2  C   UNL A   1      38.962  19.248  25.764  1.00  0.00     0.116 C 
BRANCH   2   3
ATOM      3  N   UNL A   1      40.327  18.795  25.607  1.00  0.00    -0.352 N 
ATOM      4  O   UNL A   1      42.522  18.610  25.590  1.00  0.00    -0.269 OA
ATOM      5  C   UNL A   1      41.557  19.310  25.908  1.00  0.00     0.251 C 
ATOM      6  H   UNL A   1      40.383  17.908  25.183  1.00  0.00     0.163 HD
BRANCH   5   7
ATOM      7  C   UNL A   1      41.802  20.638  26.534  1.00  0.00     0.039 A 
ATOM      8  C   UNL A   1      42.472  21.706  25.934  1.00  0.00     0.014 A 
ATOM      9  C   UNL A   1      41.275  20.819  27.827  1.00  0.00     0.014 A 
ATOM     10  C   UNL A   1      42.664  22.899  26.628  1.00  0.00     0.010 A 
ATOM     11  C   UNL A   1      41.443  22.017  28.515  1.00  0.00     0.010 A 
ATOM     12  C   UNL A   1      42.161  23.052  27.923  1.00  0.00    -0.014 A 
BRANCH  12  13
ATOM     13  C   UNL A   1      42.293  24.362  28.558  1.00  0.00     0.031 A 
ATOM     14  C   UNL A   1      41.183  25.326  28.284  1.00  0.00     0.074 A 
ATOM     15  C   UNL A   1      43.251  24.673  29.453  1.00  0.00     0.049 A 
ATOM     16  N   UNL A   1      41.251  26.491  27.722  1.00  0.00    -0.248 NA
ATOM     17  C   UNL A   1      39.816  24.897  28.612  1.00  0.00     0.031 C 
ATOM     18  C   UNL A   1      44.213  23.772  30.090  1.00  0.00     0.029 A 
ATOM     19  N   UNL A   1      43.470  25.862  30.086  1.00  0.00    -0.354 N 
ATOM     20  C   UNL A   1      39.962  27.025  27.794  1.00  0.00     0.074 A 
ATOM     21  C   UNL A   1      39.102  25.956  28.233  1.00  0.00     0.031 C 
ATOM     22  C   UNL A   1      44.735  24.382  31.179  1.00  0.00     0.029 A 
ATOM     23  C   UNL A   1      44.254  25.751  31.227  1.00  0.00     0.049 A 
ATOM     24  H   UNL A   1      43.107  26.719  29.763  1.00  0.00     0.167 HD
ATOM     25  C   UNL A   1      39.709  28.357  27.658  1.00  0.00     0.034 A 
ATOM     26  C   UNL A   1      44.430  26.696  32.182  1.00  0.00     0.034 A 
ATOM     27  C   UNL A   1      40.812  29.063  27.071  1.00  0.00     0.049 A 
ATOM     28  C   UNL A   1      44.064  28.005  31.599  1.00  0.00     0.074 A 
ATOM     29  C   UNL A   1      41.487  29.007  25.869  1.00  0.00     0.029 A 
ATOM     30  N   UNL A   1      41.604  29.808  27.909  1.00  0.00    -0.354 N 
ATOM     31  N   UNL A   1      44.743  28.596  30.658  1.00  0.00    -0.248 NA
ATOM     32  C   UNL A   1      42.716  28.502  31.807  1.00  0.00     0.031 C 
ATOM     33  C   UNL A   1      42.846  29.290  26.198  1.00  0.00     0.029 A 
ATOM     34  C   UNL A   1      42.903  29.534  27.572  1.00  0.00     0.049 A 
ATOM     35  H   UNL A   1      41.297  30.421  28.616  1.00  0.00     0.167 HD
ATOM     36  C   UNL A   1      43.782  29.219  29.875  1.00  0.00     0.074 A 
ATOM     37  C   UNL A   1      42.576  29.232  30.699  1.00  0.00     0.031 C 
ATOM     38  C   UNL A   1      43.974  29.408  28.536  1.00  0.00     0.034 A 
BRANCH  25  39
ATOM     39  C   UNL A   1      38.567  29.094  28.315  1.00  0.00     0.023 A 
ATOM     40  C   UNL A   1      37.734  29.891  27.498  1.00  0.00     0.012 A 
ATOM     41  C   UNL A   1      38.429  29.248  29.714  1.00  0.00     0.148 A 
ATOM     42  C   UNL A   1      36.834  30.815  28.043  1.00  0.00     0.002 A 
ATOM     43  C   UNL A   1      37.477  30.109  30.251  1.00  0.00     0.091 A 
ATOM     44  F   UNL A   1      39.308  28.665  30.536  1.00  0.00    -0.205 F 
ATOM     45  C   UNL A   1      36.696  30.916  29.421  1.00  0.00     0.022 A 
BRANCH  43  46
ATOM     46  S   UNL A   1      37.219  30.221  32.025  1.00  0.00     0.127 S 
ATOM     47  O   UNL A   1      38.465  30.855  32.462  1.00  0.00    -0.237 OA
ATOM     48  O   UNL A   1      36.033  31.082  32.103  1.00  0.00    -0.237 OA
ATOM     49  O   UNL A   1      36.996  28.860  32.468  1.00  0.00    -0.744 OA
ENDBRANCH  43  46
ENDBRANCH  25  39
BRANCH  26  50
ATOM     50  C   UNL A   1      44.654  26.530  33.634  1.00  0.00     0.023 A 
ATOM     51  C   UNL A   1      45.907  26.855  34.191  1.00  0.00     0.012 A 
ATOM     52  C   UNL A   1      43.565  26.321  34.509  1.00  0.00     0.148 A 
ATOM     53  C   UNL A   1      46.062  26.996  35.575  1.00  0.00     0.002 A 
ATOM     54  C   UNL A   1      43.726  26.456  35.884  1.00  0.00     0.091 A 
ATOM     55  F   UNL A   1      42.355  26.083  33.985  1.00  0.00    -0.205 F 
ATOM     56  C   UNL A   1      44.972  26.805  36.420  1.00  0.00     0.022 A 
BRANCH  54  57
ATOM     57  S   UNL A   1      42.360  26.251  37.034  1.00  0.00     0.127 S 
ATOM     58  O   UNL A   1      43.032  26.379  38.327  1.00  0.00    -0.237 OA
ATOM     59  O   UNL A   1      41.496  27.375  36.679  1.00  0.00    -0.237 OA
ATOM     60  O   UNL A   1      41.814  24.926  36.771  1.00  0.00    -0.744 OA
ENDBRANCH  54  57
ENDBRANCH  26  50
BRANCH  38  61
ATOM     61  C   UNL A   1      45.352  29.156  27.972  1.00  0.00     0.023 A 
ATOM     62  C   UNL A   1      46.359  30.145  27.992  1.00  0.00     0.012 A 
ATOM     63  C   UNL A   1      45.696  27.850  27.580  1.00  0.00     0.148 A 
ATOM     64  C   UNL A   1      47.667  29.848  27.603  1.00  0.00     0.002 A 
ATOM     65  C   UNL A   1      47.010  27.546  27.243  1.00  0.00     0.091 A 
ATOM     66  F   UNL A   1      44.734  26.914  27.573  1.00  0.00    -0.205 F 
ATOM     67  C   UNL A   1      47.996  28.545  27.241  1.00  0.00     0.022 A 
BRANCH  65  68
ATOM     68  S   UNL A   1      47.530  25.861  26.906  1.00  0.00     0.127 S 
ATOM     69  O   UNL A   1      47.226  25.188  28.167  1.00  0.00    -0.237 OA
ATOM     70  O   UNL A   1      46.666  25.482  25.786  1.00  0.00    -0.237 OA
ATOM     71  O   UNL A   1      48.945  25.944  26.561  1.00  0.00    -0.744 OA
ENDBRANCH  65  68
ENDBRANCH  38  61
ENDBRANCH  12  13
ENDBRANCH   5   7
ENDBRANCH   2   3
ENDBRANCH   1   2
BRANCH   1  72
ATOM     72  C   UNL A   1      38.341  21.741  25.600  1.00  0.00     0.002 C 
BRANCH  72  73
ATOM     73  C   UNL A   1      37.317  22.687  24.954  1.00  0.00     0.002 C 
BRANCH  73  74
ATOM     74  C   UNL A   1      36.607  23.637  25.921  1.00  0.00     0.021 C 
BRANCH  74  75
ATOM     75  C   UNL A   1      35.286  23.095  26.458  1.00  0.00     0.116 C 
BRANCH  75  76
ATOM     76  N   UNL A   1      34.938  21.819  25.880  1.00  0.00    -0.356 N 
ATOM     77  C   UNL A   1      34.054  21.453  24.925  1.00  0.00     0.223 C 
ATOM     78  H   UNL A   1      35.446  21.064  26.257  1.00  0.00     0.163 HD
ATOM     79  O   UNL A   1      34.044  20.250  24.630  1.00  0.00    -0.275 OA
BRANCH  77  80
ATOM     80  C   UNL A   1      33.092  22.399  24.202  1.00  0.00     0.087 C 
ATOM     81  C   UNL A   1      33.691  23.238  23.080  1.00  0.00     0.068 C 
ATOM     82  C   UNL A   1      32.113  23.165  25.082  1.00  0.00     0.068 C 
ATOM     83  C   UNL A   1      34.080  24.656  23.450  1.00  0.00     0.277 C 
ATOM     84  C   UNL A   1      32.520  24.581  25.446  1.00  0.00     0.277 C 
ATOM     85  N   UNL A   1      33.111  25.312  24.329  1.00  0.00    -0.230 N 
ATOM     86  C   UNL A   1      33.058  26.700  24.356  1.00  0.00     0.383 C 
ATOM     87  N   UNL A   1      33.192  27.369  25.469  1.00  0.00    -0.155 N 
ATOM     88  C   UNL A   1      32.810  27.453  23.066  1.00  0.00     0.523 C 
ATOM     89  C   UNL A   1      33.102  28.741  25.420  1.00  0.00     0.414 C 
ATOM     90  H   UNL A   1      33.352  26.903  26.321  1.00  0.00     0.367 HD
ATOM     91  C   UNL A   1      32.060  28.657  23.488  1.00  0.00     0.389 C 
ATOM     92  N   UNL A   1      31.815  26.789  22.192  1.00  0.00     0.003 NA
ATOM     93  Cl  UNL A   1      33.784  29.575  26.748  1.00  0.00     0.028 Cl
ATOM     94  N   UNL A   1      32.536  29.434  24.484  1.00  0.00    -0.155 N 
ATOM     95  N   UNL A   1      30.907  28.768  22.931  1.00  0.00    -0.169 N 
ATOM     96  C   UNL A   1      30.817  27.624  22.176  1.00  0.00     0.532 C 
ATOM     97  H   UNL A   1      32.462  30.415  24.498  1.00  0.00     0.367 HD
ATOM     98  H   UNL A   1      30.250  29.496  23.023  1.00  0.00     0.365 HD
ENDBRANCH  77  80
ENDBRANCH  75  76
ENDBRANCH  74  75
ENDBRANCH  73  74
ENDBRANCH  72  73
ENDBRANCH   1  72
TORSDOF 16
ENDMDL
