MODEL 1
REMARK VINA RESULT:     -12.3      0.000      0.000
REMARK SMILES O=C(NCCCCCCNC(=O)c1ccnc(Sc2ccc3nnnn3n2)c1)c1ccc(-c2c3nc(c(-c4cccc(S(=O)(=O)[O-])c4F)c4ccc([nH]4)c(-c4cccc(S(=O)(=O)[O-])c4F)c4nc(c(-c5cccc(S(=O)(=O)[O-])c5F)c5ccc2[nH]5)C=C4)C=C3)cc1
REMARK SMILES IDX 6 1 5 2 4 3 3 4 1 5 2 6 29 8 30 9 91 10 31 11 90 12 32 13
REMARK SMILES IDX 33 14 34 15 84 16 35 17 89 18 83 19 85 20 36 21 88 22 82 23
REMARK SMILES IDX 81 24 37 26 69 27 49 28 68 29 50 30 53 31 67 32 86 33 51 34
REMARK SMILES IDX 52 35 66 37 87 38 54 39 38 40 39 41 47 42 40 43 42 44 48 45
REMARK SMILES IDX 41 46 43 47 44 48 45 49 46 50 70 51 71 52 79 53 72 54 74 55
REMARK SMILES IDX 80 56 73 57 75 58 76 59 77 60 78 61 55 62 56 63 64 64 57 65
REMARK SMILES IDX 59 66 65 67 58 68 60 69 61 70 62 71 63 72 7 73 8 74 9 75
REMARK SMILES IDX 10 76 11 77 12 79 13 80 14 81 28 82 15 83 17 84 16 85 18 86
REMARK SMILES IDX 19 87 20 88 27 89 21 90 26 91 22 92 25 93 23 94 24 95
REMARK H PARENT 3 7 85 25 53 36 10 78
REMARK Flexibility Score: inf
ROOT
ATOM      1  C   UNL A   1      33.743  27.694  26.510  1.00  0.00     0.002 C 
ENDROOT
BRANCH   1   2
ATOM      2  C   UNL A   1      34.175  29.141  26.269  1.00  0.00     0.021 C 
BRANCH   2   3
ATOM      3  C   UNL A   1      34.723  29.850  27.502  1.00  0.00     0.116 C 
BRANCH   3   4
ATOM      4  N   UNL A   1      34.663  31.300  27.403  1.00  0.00    -0.352 N 
ATOM      5  O   UNL A   1      35.473  33.405  27.691  1.00  0.00    -0.269 OA
ATOM      6  C   UNL A   1      35.604  32.202  27.849  1.00  0.00     0.251 C 
ATOM      7  H   UNL A   1      33.862  31.678  26.973  1.00  0.00     0.163 HD
BRANCH   6   8
ATOM      8  C   UNL A   1      36.794  31.641  28.513  1.00  0.00     0.039 A 
ATOM      9  C   UNL A   1      37.613  30.761  27.796  1.00  0.00     0.014 A 
ATOM     10  C   UNL A   1      36.938  31.816  29.890  1.00  0.00     0.014 A 
ATOM     11  C   UNL A   1      38.531  29.980  28.488  1.00  0.00     0.010 A 
ATOM     12  C   UNL A   1      37.875  31.047  30.574  1.00  0.00     0.010 A 
ATOM     13  C   UNL A   1      38.650  30.106  29.879  1.00  0.00    -0.014 A 
BRANCH  13  14
ATOM     14  C   UNL A   1      39.608  29.234  30.576  1.00  0.00     0.031 A 
ATOM     15  C   UNL A   1      39.662  27.827  30.094  1.00  0.00     0.074 A 
ATOM     16  C   UNL A   1      40.696  29.729  31.203  1.00  0.00     0.049 A 
ATOM     17  N   UNL A   1      40.382  27.467  29.074  1.00  0.00    -0.248 NA
ATOM     18  C   UNL A   1      38.739  26.800  30.571  1.00  0.00     0.031 C 
ATOM     19  C   UNL A   1      41.328  31.013  30.873  1.00  0.00     0.029 A 
ATOM     20  N   UNL A   1      41.580  29.126  32.065  1.00  0.00    -0.354 N 
ATOM     21  C   UNL A   1      39.955  26.207  28.706  1.00  0.00     0.074 A 
ATOM     22  C   UNL A   1      38.963  25.817  29.686  1.00  0.00     0.031 C 
ATOM     23  C   UNL A   1      42.585  31.013  31.368  1.00  0.00     0.029 A 
ATOM     24  C   UNL A   1      42.777  29.823  32.188  1.00  0.00     0.049 A 
ATOM     25  H   UNL A   1      41.386  28.288  32.544  1.00  0.00     0.167 HD
ATOM     26  C   UNL A   1      40.405  25.564  27.597  1.00  0.00     0.034 A 
ATOM     27  C   UNL A   1      43.982  29.281  32.512  1.00  0.00     0.034 A 
ATOM     28  C   UNL A   1      41.367  26.272  26.807  1.00  0.00     0.049 A 
ATOM     29  C   UNL A   1      44.257  28.424  31.298  1.00  0.00     0.074 A 
ATOM     30  C   UNL A   1      41.336  27.107  25.711  1.00  0.00     0.029 A 
ATOM     31  N   UNL A   1      42.677  26.286  27.222  1.00  0.00    -0.354 N 
ATOM     32  N   UNL A   1      44.696  28.850  30.142  1.00  0.00    -0.248 NA
ATOM     33  C   UNL A   1      43.681  27.079  31.272  1.00  0.00     0.031 C 
ATOM     34  C   UNL A   1      42.516  27.911  25.802  1.00  0.00     0.029 A 
ATOM     35  C   UNL A   1      43.174  27.543  26.972  1.00  0.00     0.049 A 
ATOM     36  H   UNL A   1      43.169  25.534  27.623  1.00  0.00     0.167 HD
ATOM     37  C   UNL A   1      44.169  27.961  29.200  1.00  0.00     0.074 A 
ATOM     38  C   UNL A   1      43.581  26.880  29.965  1.00  0.00     0.031 C 
ATOM     39  C   UNL A   1      44.085  28.229  27.864  1.00  0.00     0.034 A 
BRANCH  26  40
ATOM     40  C   UNL A   1      40.023  24.177  27.268  1.00  0.00     0.023 A 
ATOM     41  C   UNL A   1      40.932  23.158  27.605  1.00  0.00     0.012 A 
ATOM     42  C   UNL A   1      38.867  23.868  26.532  1.00  0.00     0.148 A 
ATOM     43  C   UNL A   1      40.713  21.847  27.193  1.00  0.00     0.002 A 
ATOM     44  C   UNL A   1      38.652  22.554  26.125  1.00  0.00     0.091 A 
ATOM     45  F   UNL A   1      38.021  24.859  26.217  1.00  0.00    -0.205 F 
ATOM     46  C   UNL A   1      39.577  21.546  26.449  1.00  0.00     0.022 A 
BRANCH  44  47
ATOM     47  S   UNL A   1      37.218  22.053  25.167  1.00  0.00     0.127 S 
ATOM     48  O   UNL A   1      36.171  22.017  26.187  1.00  0.00    -0.237 OA
ATOM     49  O   UNL A   1      37.095  23.149  24.205  1.00  0.00    -0.237 OA
ATOM     50  O   UNL A   1      37.566  20.769  24.573  1.00  0.00    -0.744 OA
ENDBRANCH  44  47
ENDBRANCH  26  40
BRANCH  27  51
ATOM     51  C   UNL A   1      44.064  28.763  33.923  1.00  0.00     0.023 A 
ATOM     52  C   UNL A   1      45.047  29.341  34.767  1.00  0.00     0.012 A 
ATOM     53  C   UNL A   1      43.251  27.757  34.476  1.00  0.00     0.148 A 
ATOM     54  C   UNL A   1      45.138  29.023  36.124  1.00  0.00     0.002 A 
ATOM     55  C   UNL A   1      43.302  27.485  35.844  1.00  0.00     0.091 A 
ATOM     56  F   UNL A   1      42.424  27.076  33.674  1.00  0.00    -0.205 F 
ATOM     57  C   UNL A   1      44.242  28.116  36.670  1.00  0.00     0.022 A 
BRANCH  55  58
ATOM     58  S   UNL A   1      42.125  26.396  36.657  1.00  0.00     0.127 S 
ATOM     59  O   UNL A   1      40.851  27.051  36.364  1.00  0.00    -0.237 OA
ATOM     60  O   UNL A   1      42.353  25.141  35.940  1.00  0.00    -0.237 OA
ATOM     61  O   UNL A   1      42.503  26.382  38.062  1.00  0.00    -0.744 OA
ENDBRANCH  55  58
ENDBRANCH  27  51
BRANCH  39  62
ATOM     62  C   UNL A   1      44.836  29.428  27.373  1.00  0.00     0.023 A 
ATOM     63  C   UNL A   1      46.112  29.222  26.816  1.00  0.00     0.012 A 
ATOM     64  C   UNL A   1      44.284  30.724  27.372  1.00  0.00     0.148 A 
ATOM     65  C   UNL A   1      46.819  30.278  26.242  1.00  0.00     0.002 A 
ATOM     66  C   UNL A   1      44.985  31.770  26.779  1.00  0.00     0.091 A 
ATOM     67  F   UNL A   1      43.071  30.912  27.915  1.00  0.00    -0.205 F 
ATOM     68  C   UNL A   1      46.251  31.548  26.213  1.00  0.00     0.022 A 
BRANCH  66  69
ATOM     69  S   UNL A   1      44.329  33.440  26.666  1.00  0.00     0.127 S 
ATOM     70  O   UNL A   1      43.577  33.566  27.916  1.00  0.00    -0.237 OA
ATOM     71  O   UNL A   1      45.551  34.241  26.608  1.00  0.00    -0.237 OA
ATOM     72  O   UNL A   1      43.501  33.478  25.467  1.00  0.00    -0.744 OA
ENDBRANCH  66  69
ENDBRANCH  39  62
ENDBRANCH  13  14
ENDBRANCH   6   8
ENDBRANCH   3   4
ENDBRANCH   2   3
ENDBRANCH   1   2
BRANCH   1  73
ATOM     73  C   UNL A   1      34.197  26.678  25.453  1.00  0.00     0.002 C 
BRANCH  73  74
ATOM     74  C   UNL A   1      33.943  25.201  25.784  1.00  0.00     0.021 C 
BRANCH  74  75
ATOM     75  C   UNL A   1      32.890  24.511  24.918  1.00  0.00     0.116 C 
BRANCH  75  76
ATOM     76  N   UNL A   1      33.362  24.323  23.554  1.00  0.00    -0.352 N 
ATOM     77  C   UNL A   1      33.131  25.068  22.430  1.00  0.00     0.251 C 
ATOM     78  H   UNL A   1      33.938  23.535  23.420  1.00  0.00     0.163 HD
ATOM     79  O   UNL A   1      33.400  24.618  21.318  1.00  0.00    -0.269 OA
BRANCH  77  80
ATOM     80  C   UNL A   1      32.505  26.402  22.525  1.00  0.00     0.044 A 
ATOM     81  C   UNL A   1      33.252  27.567  22.408  1.00  0.00     0.034 A 
ATOM     82  C   UNL A   1      31.118  26.462  22.680  1.00  0.00     0.049 A 
ATOM     83  C   UNL A   1      32.579  28.761  22.539  1.00  0.00     0.113 A 
ATOM     84  C   UNL A   1      30.522  27.704  22.815  1.00  0.00     0.103 A 
ATOM     85  N   UNL A   1      31.248  28.847  22.759  1.00  0.00    -0.249 NA
BRANCH  84  86
ATOM     86  S   UNL A   1      28.792  27.978  23.111  1.00  0.00    -0.048 SA
BRANCH  86  87
ATOM     87  C   UNL A   1      28.498  29.645  22.702  1.00  0.00     0.125 A 
ATOM     88  C   UNL A   1      28.782  30.624  23.794  1.00  0.00     0.042 A 
ATOM     89  N   UNL A   1      28.127  29.928  21.495  1.00  0.00    -0.140 NA
ATOM     90  C   UNL A   1      28.608  31.923  23.509  1.00  0.00     0.056 A 
ATOM     91  N   UNL A   1      28.000  31.261  21.301  1.00  0.00    -0.109 N 
ATOM     92  C   UNL A   1      28.213  32.282  22.206  1.00  0.00     0.200 A 
ATOM     93  N   UNL A   1      27.668  31.791  20.115  1.00  0.00    -0.022 NA
ATOM     94  N   UNL A   1      28.006  33.429  21.598  1.00  0.00    -0.107 NA
ATOM     95  N   UNL A   1      27.668  33.107  20.302  1.00  0.00    -0.022 NA
ENDBRANCH  86  87
ENDBRANCH  84  86
ENDBRANCH  77  80
ENDBRANCH  75  76
ENDBRANCH  74  75
ENDBRANCH  73  74
ENDBRANCH   1  73
TORSDOF 18
ENDMDL
MODEL 2
REMARK VINA RESULT:     -12.2      2.556      5.016
REMARK SMILES O=C(NCCCCCCNC(=O)c1ccnc(Sc2ccc3nnnn3n2)c1)c1ccc(-c2c3nc(c(-c4cccc(S(=O)(=O)[O-])c4F)c4ccc([nH]4)c(-c4cccc(S(=O)(=O)[O-])c4F)c4nc(c(-c5cccc(S(=O)(=O)[O-])c5F)c5ccc2[nH]5)C=C4)C=C3)cc1
REMARK SMILES IDX 6 1 5 2 4 3 3 4 1 5 2 6 29 8 30 9 91 10 31 11 90 12 32 13
REMARK SMILES IDX 33 14 34 15 84 16 35 17 89 18 83 19 85 20 36 21 88 22 82 23
REMARK SMILES IDX 81 24 37 26 69 27 49 28 68 29 50 30 53 31 67 32 86 33 51 34
REMARK SMILES IDX 52 35 66 37 87 38 54 39 38 40 39 41 47 42 40 43 42 44 48 45
REMARK SMILES IDX 41 46 43 47 44 48 45 49 46 50 70 51 71 52 79 53 72 54 74 55
REMARK SMILES IDX 80 56 73 57 75 58 76 59 77 60 78 61 55 62 56 63 64 64 57 65
REMARK SMILES IDX 59 66 65 67 58 68 60 69 61 70 62 71 63 72 7 73 8 74 9 75
REMARK SMILES IDX 10 76 11 77 12 79 13 80 14 81 28 82 15 83 17 84 16 85 18 86
REMARK SMILES IDX 19 87 20 88 27 89 21 90 26 91 22 92 25 93 23 94 24 95
REMARK H PARENT 3 7 85 25 53 36 10 78
REMARK Flexibility Score: inf
ROOT
ATOM      1  C   UNL A   1      34.222  28.362  26.662  1.00  0.00     0.002 C 
ENDROOT
BRANCH   1   2
ATOM      2  C   UNL A   1      33.942  29.850  26.876  1.00  0.00     0.021 C 
BRANCH   2   3
ATOM      3  C   UNL A   1      35.091  30.626  27.507  1.00  0.00     0.116 C 
BRANCH   3   4
ATOM      4  N   UNL A   1      34.739  31.995  27.847  1.00  0.00    -0.352 N 
ATOM      5  O   UNL A   1      35.001  33.957  28.968  1.00  0.00    -0.269 OA
ATOM      6  C   UNL A   1      35.356  32.805  28.775  1.00  0.00     0.251 C 
ATOM      7  H   UNL A   1      33.976  32.386  27.363  1.00  0.00     0.163 HD
BRANCH   6   8
ATOM      8  C   UNL A   1      36.485  32.216  29.518  1.00  0.00     0.039 A 
ATOM      9  C   UNL A   1      37.728  32.115  28.884  1.00  0.00     0.014 A 
ATOM     10  C   UNL A   1      36.227  31.575  30.730  1.00  0.00     0.014 A 
ATOM     11  C   UNL A   1      38.698  31.282  29.430  1.00  0.00     0.010 A 
ATOM     12  C   UNL A   1      37.212  30.761  31.285  1.00  0.00     0.010 A 
ATOM     13  C   UNL A   1      38.435  30.588  30.620  1.00  0.00    -0.014 A 
BRANCH  13  14
ATOM     14  C   UNL A   1      39.475  29.691  31.144  1.00  0.00     0.031 A 
ATOM     15  C   UNL A   1      39.593  28.376  30.458  1.00  0.00     0.074 A 
ATOM     16  C   UNL A   1      40.559  30.161  31.797  1.00  0.00     0.049 A 
ATOM     17  N   UNL A   1      40.285  28.217  29.370  1.00  0.00    -0.248 NA
ATOM     18  C   UNL A   1      38.757  27.230  30.811  1.00  0.00     0.031 C 
ATOM     19  C   UNL A   1      41.096  31.519  31.637  1.00  0.00     0.029 A 
ATOM     20  N   UNL A   1      41.517  29.500  32.527  1.00  0.00    -0.354 N 
ATOM     21  C   UNL A   1      39.919  26.997  28.836  1.00  0.00     0.074 A 
ATOM     22  C   UNL A   1      38.999  26.403  29.783  1.00  0.00     0.031 C 
ATOM     23  C   UNL A   1      42.372  31.531  32.080  1.00  0.00     0.029 A 
ATOM     24  C   UNL A   1      42.674  30.250  32.708  1.00  0.00     0.049 A 
ATOM     25  H   UNL A   1      41.397  28.590  32.885  1.00  0.00     0.167 HD
ATOM     26  C   UNL A   1      40.356  26.553  27.629  1.00  0.00     0.034 A 
ATOM     27  C   UNL A   1      43.923  29.748  32.904  1.00  0.00     0.034 A 
ATOM     28  C   UNL A   1      41.235  27.432  26.916  1.00  0.00     0.049 A 
ATOM     29  C   UNL A   1      44.193  29.097  31.567  1.00  0.00     0.074 A 
ATOM     30  C   UNL A   1      41.103  28.413  25.958  1.00  0.00     0.029 A 
ATOM     31  N   UNL A   1      42.560  27.472  27.281  1.00  0.00    -0.354 N 
ATOM     32  N   UNL A   1      44.552  29.715  30.471  1.00  0.00    -0.248 NA
ATOM     33  C   UNL A   1      43.699  27.734  31.364  1.00  0.00     0.031 C 
ATOM     34  C   UNL A   1      42.235  29.272  26.123  1.00  0.00     0.029 A 
ATOM     35  C   UNL A   1      42.968  28.783  27.202  1.00  0.00     0.049 A 
ATOM     36  H   UNL A   1      43.115  26.705  27.548  1.00  0.00     0.167 HD
ATOM     37  C   UNL A   1      44.037  28.939  29.428  1.00  0.00     0.074 A 
ATOM     38  C   UNL A   1      43.552  27.721  30.047  1.00  0.00     0.031 C 
ATOM     39  C   UNL A   1      43.876  29.391  28.151  1.00  0.00     0.034 A 
BRANCH  26  40
ATOM     40  C   UNL A   1      40.044  25.206  27.112  1.00  0.00     0.023 A 
ATOM     41  C   UNL A   1      38.706  24.937  26.774  1.00  0.00     0.012 A 
ATOM     42  C   UNL A   1      40.998  24.175  27.070  1.00  0.00     0.148 A 
ATOM     43  C   UNL A   1      38.309  23.649  26.425  1.00  0.00     0.002 A 
ATOM     44  C   UNL A   1      40.595  22.891  26.717  1.00  0.00     0.091 A 
ATOM     45  F   UNL A   1      42.265  24.459  27.404  1.00  0.00    -0.205 F 
ATOM     46  C   UNL A   1      39.251  22.627  26.401  1.00  0.00     0.022 A 
BRANCH  44  47
ATOM     47  S   UNL A   1      41.727  21.499  26.648  1.00  0.00     0.127 S 
ATOM     48  O   UNL A   1      40.814  20.376  26.444  1.00  0.00    -0.237 OA
ATOM     49  O   UNL A   1      42.553  21.834  25.486  1.00  0.00    -0.237 OA
ATOM     50  O   UNL A   1      42.445  21.507  27.916  1.00  0.00    -0.744 OA
ENDBRANCH  44  47
ENDBRANCH  26  40
BRANCH  27  51
ATOM     51  C   UNL A   1      44.102  29.038  34.219  1.00  0.00     0.023 A 
ATOM     52  C   UNL A   1      45.234  29.391  34.996  1.00  0.00     0.012 A 
ATOM     53  C   UNL A   1      43.243  28.055  34.744  1.00  0.00     0.148 A 
ATOM     54  C   UNL A   1      45.440  28.885  36.281  1.00  0.00     0.002 A 
ATOM     55  C   UNL A   1      43.415  27.595  36.050  1.00  0.00     0.091 A 
ATOM     56  F   UNL A   1      42.256  27.578  33.976  1.00  0.00    -0.205 F 
ATOM     57  C   UNL A   1      44.510  28.009  36.822  1.00  0.00     0.022 A 
BRANCH  55  58
ATOM     58  S   UNL A   1      42.216  26.533  36.866  1.00  0.00     0.127 S 
ATOM     59  O   UNL A   1      41.018  27.372  36.871  1.00  0.00    -0.237 OA
ATOM     60  O   UNL A   1      42.169  25.396  35.948  1.00  0.00    -0.237 OA
ATOM     61  O   UNL A   1      42.772  26.245  38.180  1.00  0.00    -0.744 OA
ENDBRANCH  55  58
ENDBRANCH  27  51
BRANCH  39  62
ATOM     62  C   UNL A   1      44.529  30.696  27.816  1.00  0.00     0.023 A 
ATOM     63  C   UNL A   1      45.735  30.661  27.091  1.00  0.00     0.012 A 
ATOM     64  C   UNL A   1      43.943  31.942  28.121  1.00  0.00     0.148 A 
ATOM     65  C   UNL A   1      46.338  31.839  26.652  1.00  0.00     0.002 A 
ATOM     66  C   UNL A   1      44.539  33.112  27.663  1.00  0.00     0.091 A 
ATOM     67  F   UNL A   1      42.799  31.965  28.821  1.00  0.00    -0.205 F 
ATOM     68  C   UNL A   1      45.735  33.063  26.927  1.00  0.00     0.022 A 
BRANCH  66  69
ATOM     69  S   UNL A   1      43.828  34.740  27.940  1.00  0.00     0.127 S 
ATOM     70  O   UNL A   1      43.164  34.574  29.235  1.00  0.00    -0.237 OA
ATOM     71  O   UNL A   1      45.018  35.589  27.972  1.00  0.00    -0.237 OA
ATOM     72  O   UNL A   1      42.915  34.987  26.831  1.00  0.00    -0.744 OA
ENDBRANCH  66  69
ENDBRANCH  39  62
ENDBRANCH  13  14
ENDBRANCH   6   8
ENDBRANCH   3   4
ENDBRANCH   2   3
ENDBRANCH   1   2
BRANCH   1  73
ATOM     73  C   UNL A   1      33.493  27.708  25.481  1.00  0.00     0.002 C 
BRANCH  73  74
ATOM     74  C   UNL A   1      33.731  28.345  24.105  1.00  0.00     0.021 C 
BRANCH  74  75
ATOM     75  C   UNL A   1      32.543  28.286  23.146  1.00  0.00     0.116 C 
BRANCH  75  76
ATOM     76  N   UNL A   1      32.857  27.507  21.957  1.00  0.00    -0.352 N 
ATOM     77  C   UNL A   1      32.916  26.151  21.780  1.00  0.00     0.251 C 
ATOM     78  H   UNL A   1      33.058  28.040  21.154  1.00  0.00     0.163 HD
ATOM     79  O   UNL A   1      33.444  25.676  20.778  1.00  0.00    -0.269 OA
BRANCH  77  80
ATOM     80  C   UNL A   1      32.396  25.233  22.813  1.00  0.00     0.044 A 
ATOM     81  C   UNL A   1      31.053  25.222  23.169  1.00  0.00     0.034 A 
ATOM     82  C   UNL A   1      33.289  24.326  23.388  1.00  0.00     0.049 A 
ATOM     83  C   UNL A   1      30.674  24.347  24.162  1.00  0.00     0.113 A 
ATOM     84  C   UNL A   1      32.826  23.489  24.390  1.00  0.00     0.103 A 
ATOM     85  N   UNL A   1      31.531  23.507  24.785  1.00  0.00    -0.249 NA
BRANCH  84  86
ATOM     86  S   UNL A   1      33.828  22.337  25.299  1.00  0.00    -0.048 SA
BRANCH  86  87
ATOM     87  C   UNL A   1      33.525  20.778  24.586  1.00  0.00     0.125 A 
ATOM     88  C   UNL A   1      32.411  20.743  23.591  1.00  0.00     0.042 A 
ATOM     89  N   UNL A   1      34.302  19.792  24.902  1.00  0.00    -0.140 NA
ATOM     90  C   UNL A   1      32.170  19.571  22.986  1.00  0.00     0.056 A 
ATOM     91  N   UNL A   1      33.992  18.663  24.226  1.00  0.00    -0.109 N 
ATOM     92  C   UNL A   1      32.994  18.469  23.292  1.00  0.00     0.200 A 
ATOM     93  N   UNL A   1      34.690  17.525  24.360  1.00  0.00    -0.022 NA
ATOM     94  N   UNL A   1      33.060  17.230  22.859  1.00  0.00    -0.107 NA
ATOM     95  N   UNL A   1      34.117  16.658  23.532  1.00  0.00    -0.022 NA
ENDBRANCH  86  87
ENDBRANCH  84  86
ENDBRANCH  77  80
ENDBRANCH  75  76
ENDBRANCH  74  75
ENDBRANCH  73  74
ENDBRANCH   1  73
TORSDOF 18
ENDMDL
MODEL 3
REMARK VINA RESULT:     -12.1      4.208      8.899
REMARK SMILES O=C(NCCCCCCNC(=O)c1ccnc(Sc2ccc3nnnn3n2)c1)c1ccc(-c2c3nc(c(-c4cccc(S(=O)(=O)[O-])c4F)c4ccc([nH]4)c(-c4cccc(S(=O)(=O)[O-])c4F)c4nc(c(-c5cccc(S(=O)(=O)[O-])c5F)c5ccc2[nH]5)C=C4)C=C3)cc1
REMARK SMILES IDX 6 1 5 2 4 3 3 4 1 5 2 6 29 8 30 9 91 10 31 11 90 12 32 13
REMARK SMILES IDX 33 14 34 15 84 16 35 17 89 18 83 19 85 20 36 21 88 22 82 23
REMARK SMILES IDX 81 24 37 26 69 27 49 28 68 29 50 30 53 31 67 32 86 33 51 34
REMARK SMILES IDX 52 35 66 37 87 38 54 39 38 40 39 41 47 42 40 43 42 44 48 45
REMARK SMILES IDX 41 46 43 47 44 48 45 49 46 50 70 51 71 52 79 53 72 54 74 55
REMARK SMILES IDX 80 56 73 57 75 58 76 59 77 60 78 61 55 62 56 63 64 64 57 65
REMARK SMILES IDX 59 66 65 67 58 68 60 69 61 70 62 71 63 72 7 73 8 74 9 75
REMARK SMILES IDX 10 76 11 77 12 79 13 80 14 81 28 82 15 83 17 84 16 85 18 86
REMARK SMILES IDX 19 87 20 88 27 89 21 90 26 91 22 92 25 93 23 94 24 95
REMARK H PARENT 3 7 85 25 53 36 10 78
REMARK Flexibility Score: inf
ROOT
ATOM      1  C   UNL A   1      41.032  23.841  26.956  1.00  0.00     0.002 C 
ENDROOT
BRANCH   1   2
ATOM      2  C   UNL A   1      41.047  25.280  27.474  1.00  0.00     0.021 C 
BRANCH   2   3
ATOM      3  C   UNL A   1      42.386  25.991  27.324  1.00  0.00     0.116 C 
BRANCH   3   4
ATOM      4  N   UNL A   1      42.561  26.615  26.022  1.00  0.00    -0.352 N 
ATOM      5  O   UNL A   1      42.412  28.334  24.540  1.00  0.00    -0.269 OA
ATOM      6  C   UNL A   1      42.194  27.892  25.657  1.00  0.00     0.251 C 
ATOM      7  H   UNL A   1      42.985  26.064  25.324  1.00  0.00     0.163 HD
BRANCH   6   8
ATOM      8  C   UNL A   1      41.538  28.712  26.692  1.00  0.00     0.039 A 
ATOM      9  C   UNL A   1      42.322  29.252  27.718  1.00  0.00     0.014 A 
ATOM     10  C   UNL A   1      40.145  28.731  26.747  1.00  0.00     0.014 A 
ATOM     11  C   UNL A   1      41.695  29.738  28.859  1.00  0.00     0.010 A 
ATOM     12  C   UNL A   1      39.522  29.242  27.883  1.00  0.00     0.010 A 
ATOM     13  C   UNL A   1      40.296  29.715  28.953  1.00  0.00    -0.014 A 
BRANCH  13  14
ATOM     14  C   UNL A   1      39.675  30.207  30.192  1.00  0.00     0.031 A 
ATOM     15  C   UNL A   1      40.010  29.442  31.424  1.00  0.00     0.074 A 
ATOM     16  C   UNL A   1      39.286  31.491  30.334  1.00  0.00     0.049 A 
ATOM     17  N   UNL A   1      41.089  29.666  32.112  1.00  0.00    -0.248 NA
ATOM     18  C   UNL A   1      39.287  28.234  31.818  1.00  0.00     0.031 C 
ATOM     19  C   UNL A   1      39.846  32.614  29.570  1.00  0.00     0.029 A 
ATOM     20  N   UNL A   1      38.519  32.090  31.305  1.00  0.00    -0.354 N 
ATOM     21  C   UNL A   1      41.250  28.594  32.967  1.00  0.00     0.074 A 
ATOM     22  C   UNL A   1      40.088  27.751  32.778  1.00  0.00     0.031 C 
ATOM     23  C   UNL A   1      39.562  33.762  30.222  1.00  0.00     0.029 A 
ATOM     24  C   UNL A   1      38.664  33.473  31.333  1.00  0.00     0.049 A 
ATOM     25  H   UNL A   1      37.930  31.591  31.916  1.00  0.00     0.167 HD
ATOM     26  C   UNL A   1      42.344  28.430  33.757  1.00  0.00     0.034 A 
ATOM     27  C   UNL A   1      38.483  34.267  32.422  1.00  0.00     0.034 A 
ATOM     28  C   UNL A   1      43.348  29.447  33.658  1.00  0.00     0.049 A 
ATOM     29  C   UNL A   1      39.629  33.827  33.303  1.00  0.00     0.074 A 
ATOM     30  C   UNL A   1      44.506  29.637  32.934  1.00  0.00     0.029 A 
ATOM     31  N   UNL A   1      43.153  30.631  34.327  1.00  0.00    -0.354 N 
ATOM     32  N   UNL A   1      40.879  34.192  33.175  1.00  0.00    -0.248 NA
ATOM     33  C   UNL A   1      39.421  32.653  34.151  1.00  0.00     0.031 C 
ATOM     34  C   UNL A   1      44.690  31.054  32.863  1.00  0.00     0.029 A 
ATOM     35  C   UNL A   1      43.609  31.642  33.514  1.00  0.00     0.049 A 
ATOM     36  H   UNL A   1      42.759  30.736  35.222  1.00  0.00     0.167 HD
ATOM     37  C   UNL A   1      41.626  33.116  33.664  1.00  0.00     0.074 A 
ATOM     38  C   UNL A   1      40.667  32.218  34.276  1.00  0.00     0.031 C 
ATOM     39  C   UNL A   1      42.951  32.927  33.399  1.00  0.00     0.034 A 
BRANCH  26  40
ATOM     40  C   UNL A   1      42.461  27.339  34.743  1.00  0.00     0.023 A 
ATOM     41  C   UNL A   1      41.859  27.534  35.999  1.00  0.00     0.012 A 
ATOM     42  C   UNL A   1      43.245  26.195  34.513  1.00  0.00     0.148 A 
ATOM     43  C   UNL A   1      42.054  26.619  37.029  1.00  0.00     0.002 A 
ATOM     44  C   UNL A   1      43.434  25.282  35.546  1.00  0.00     0.091 A 
ATOM     45  F   UNL A   1      43.813  26.038  33.309  1.00  0.00    -0.205 F 
ATOM     46  C   UNL A   1      42.845  25.497  36.804  1.00  0.00     0.022 A 
BRANCH  44  47
ATOM     47  S   UNL A   1      44.429  23.799  35.365  1.00  0.00     0.127 S 
ATOM     48  O   UNL A   1      45.659  24.329  34.781  1.00  0.00    -0.237 OA
ATOM     49  O   UNL A   1      44.557  23.346  36.752  1.00  0.00    -0.237 OA
ATOM     50  O   UNL A   1      43.658  22.904  34.511  1.00  0.00    -0.744 OA
ENDBRANCH  44  47
ENDBRANCH  26  40
BRANCH  27  51
ATOM     51  C   UNL A   1      37.057  34.342  32.900  1.00  0.00     0.023 A 
ATOM     52  C   UNL A   1      36.829  34.160  34.288  1.00  0.00     0.012 A 
ATOM     53  C   UNL A   1      35.932  34.578  32.088  1.00  0.00     0.148 A 
ATOM     54  C   UNL A   1      35.566  34.323  34.860  1.00  0.00     0.002 A 
ATOM     55  C   UNL A   1      34.682  34.800  32.667  1.00  0.00     0.091 A 
ATOM     56  F   UNL A   1      36.082  34.595  30.758  1.00  0.00    -0.205 F 
ATOM     57  C   UNL A   1      34.496  34.675  34.051  1.00  0.00     0.022 A 
BRANCH  55  58
ATOM     58  S   UNL A   1      33.260  35.349  31.714  1.00  0.00     0.127 S 
ATOM     59  O   UNL A   1      33.596  36.746  31.441  1.00  0.00    -0.237 OA
ATOM     60  O   UNL A   1      33.331  34.460  30.555  1.00  0.00    -0.237 OA
ATOM     61  O   UNL A   1      32.104  35.150  32.576  1.00  0.00    -0.744 OA
ENDBRANCH  55  58
ENDBRANCH  27  51
BRANCH  39  62
ATOM     62  C   UNL A   1      43.678  34.075  32.770  1.00  0.00     0.023 A 
ATOM     63  C   UNL A   1      44.451  34.902  33.607  1.00  0.00     0.012 A 
ATOM     64  C   UNL A   1      43.685  34.301  31.378  1.00  0.00     0.148 A 
ATOM     65  C   UNL A   1      45.239  35.920  33.072  1.00  0.00     0.002 A 
ATOM     66  C   UNL A   1      44.490  35.306  30.849  1.00  0.00     0.091 A 
ATOM     67  F   UNL A   1      42.938  33.514  30.591  1.00  0.00    -0.205 F 
ATOM     68  C   UNL A   1      45.268  36.115  31.694  1.00  0.00     0.022 A 
BRANCH  66  69
ATOM     69  S   UNL A   1      44.619  35.621  29.084  1.00  0.00     0.127 S 
ATOM     70  O   UNL A   1      43.479  36.507  28.841  1.00  0.00    -0.237 OA
ATOM     71  O   UNL A   1      45.925  36.270  28.987  1.00  0.00    -0.237 OA
ATOM     72  O   UNL A   1      44.515  34.325  28.424  1.00  0.00    -0.744 OA
ENDBRANCH  66  69
ENDBRANCH  39  62
ENDBRANCH  13  14
ENDBRANCH   6   8
ENDBRANCH   3   4
ENDBRANCH   2   3
ENDBRANCH   1   2
BRANCH   1  73
ATOM     73  C   UNL A   1      39.657  23.161  26.918  1.00  0.00     0.002 C 
BRANCH  73  74
ATOM     74  C   UNL A   1      38.480  24.041  26.477  1.00  0.00     0.021 C 
BRANCH  74  75
ATOM     75  C   UNL A   1      37.301  23.291  25.859  1.00  0.00     0.116 C 
BRANCH  75  76
ATOM     76  N   UNL A   1      37.412  23.228  24.409  1.00  0.00    -0.352 N 
ATOM     77  C   UNL A   1      36.438  23.130  23.453  1.00  0.00     0.251 C 
ATOM     78  H   UNL A   1      38.333  23.261  24.062  1.00  0.00     0.163 HD
ATOM     79  O   UNL A   1      36.727  22.832  22.296  1.00  0.00    -0.269 OA
BRANCH  77  80
ATOM     80  C   UNL A   1      35.017  23.326  23.802  1.00  0.00     0.044 A 
ATOM     81  C   UNL A   1      34.391  24.556  23.646  1.00  0.00     0.034 A 
ATOM     82  C   UNL A   1      34.295  22.214  24.245  1.00  0.00     0.049 A 
ATOM     83  C   UNL A   1      33.070  24.641  24.026  1.00  0.00     0.113 A 
ATOM     84  C   UNL A   1      32.974  22.391  24.618  1.00  0.00     0.103 A 
ATOM     85  N   UNL A   1      32.367  23.599  24.523  1.00  0.00    -0.249 NA
BRANCH  84  86
ATOM     86  S   UNL A   1      31.926  21.123  25.289  1.00  0.00    -0.048 SA
BRANCH  86  87
ATOM     87  C   UNL A   1      32.464  19.632  24.569  1.00  0.00     0.125 A 
ATOM     88  C   UNL A   1      32.170  19.492  23.110  1.00  0.00     0.042 A 
ATOM     89  N   UNL A   1      33.123  18.794  25.302  1.00  0.00    -0.140 NA
ATOM     90  C   UNL A   1      32.603  18.376  22.505  1.00  0.00     0.056 A 
ATOM     91  N   UNL A   1      33.534  17.715  24.598  1.00  0.00    -0.109 N 
ATOM     92  C   UNL A   1      33.333  17.437  23.261  1.00  0.00     0.200 A 
ATOM     93  N   UNL A   1      34.272  16.735  25.141  1.00  0.00    -0.022 NA
ATOM     94  N   UNL A   1      33.925  16.298  22.976  1.00  0.00    -0.107 NA
ATOM     95  N   UNL A   1      34.502  15.876  24.153  1.00  0.00    -0.022 NA
ENDBRANCH  86  87
ENDBRANCH  84  86
ENDBRANCH  77  80
ENDBRANCH  75  76
ENDBRANCH  74  75
ENDBRANCH  73  74
ENDBRANCH   1  73
TORSDOF 18
ENDMDL
