MODEL 1
REMARK VINA RESULT:     -10.8      0.000      0.000
REMARK SMILES C[C@@H](C(=O)NCCCCCCNC(=O)c1ccc(-c2c3nc(c(-c4cccc(S(=O)(=O)[O-])c4F)c4ccc([nH]4)c(-c4cccc(S(=O)(=O)[O-])c4F)c4nc(c(-c5cccc(S(=O)(=O)[O-])c5F)c5ccc2[nH]5)C=C4)C=C3)cc1)c1ccc(Cc2ccsc2)cc1F
REMARK SMILES IDX 8 1 7 2 6 3 5 4 3 5 4 6 2 8 1 9 78 10 79 11 89 12 80 13
REMARK SMILES IDX 88 14 90 15 81 16 82 17 83 18 84 19 87 20 85 21 86 22 9 23
REMARK SMILES IDX 10 24 11 25 12 26 13 27 14 29 15 30 16 31 77 32 17 33 76 34
REMARK SMILES IDX 18 35 19 36 20 37 70 38 21 39 75 40 69 41 71 42 22 43 74 44
REMARK SMILES IDX 68 45 67 46 23 48 55 49 35 50 54 51 36 52 39 53 53 54 72 55
REMARK SMILES IDX 37 56 38 57 52 59 73 60 40 61 24 62 25 63 33 64 26 65 28 66
REMARK SMILES IDX 34 67 27 68 29 69 30 70 31 71 32 72 56 73 57 74 65 75 58 76
REMARK SMILES IDX 60 77 66 78 59 79 61 80 62 81 63 82 64 83 41 84 42 85 50 86
REMARK SMILES IDX 43 87 45 88 51 89 44 90 46 91 47 92 48 93 49 94
REMARK H PARENT 5 7 12 28 71 47 39 58
REMARK Flexibility Score: inf
ROOT
ATOM      1  C   UNL A   1      33.828  25.108  25.734  1.00  0.00     0.002 C 
ENDROOT
BRANCH   1   2
ATOM      2  C   UNL A   1      33.475  26.539  26.162  1.00  0.00     0.021 C 
BRANCH   2   3
ATOM      3  C   UNL A   1      32.127  27.049  25.635  1.00  0.00     0.116 C 
BRANCH   3   4
ATOM      4  N   UNL A   1      32.338  28.123  24.683  1.00  0.00    -0.356 N 
ATOM      5  C   UNL A   1      32.085  28.148  23.342  1.00  0.00     0.227 C 
ATOM      6  O   UNL A   1      32.749  28.945  22.675  1.00  0.00    -0.274 OA
ATOM      7  H   UNL A   1      32.717  28.951  25.058  1.00  0.00     0.163 HD
BRANCH   5   8
ATOM      8  C   UNL A   1      31.017  27.209  22.745  1.00  0.00     0.108 C 
ATOM      9  C   UNL A   1      29.703  27.489  23.492  1.00  0.00     0.023 C 
BRANCH   8  10
ATOM     10  C   UNL A   1      31.393  25.720  22.755  1.00  0.00    -0.000 A 
ATOM     11  C   UNL A   1      30.685  24.775  23.513  1.00  0.00     0.008 A 
ATOM     12  C   UNL A   1      32.482  25.233  22.017  1.00  0.00     0.127 A 
ATOM     13  C   UNL A   1      30.950  23.406  23.409  1.00  0.00     0.004 A 
ATOM     14  C   UNL A   1      32.775  23.868  21.929  1.00  0.00     0.043 A 
ATOM     15  F   UNL A   1      33.282  26.075  21.347  1.00  0.00    -0.207 F 
ATOM     16  C   UNL A   1      31.983  22.928  22.595  1.00  0.00    -0.041 A 
BRANCH  16  17
ATOM     17  C   UNL A   1      32.184  21.449  22.380  1.00  0.00     0.072 C 
BRANCH  17  18
ATOM     18  C   UNL A   1      32.664  20.849  23.669  1.00  0.00    -0.033 A 
ATOM     19  C   UNL A   1      33.358  21.559  24.709  1.00  0.00     0.015 A 
ATOM     20  C   UNL A   1      32.428  19.542  24.058  1.00  0.00     0.068 A 
ATOM     21  C   UNL A   1      33.643  20.771  25.801  1.00  0.00     0.065 A 
ATOM     22  S   UNL A   1      33.049  19.182  25.612  1.00  0.00    -0.152 S 
ENDBRANCH  17  18
ENDBRANCH  16  17
ENDBRANCH   8  10
ENDBRANCH   5   8
ENDBRANCH   3   4
ENDBRANCH   2   3
ENDBRANCH   1   2
BRANCH   1  23
ATOM     23  C   UNL A   1      34.718  25.003  24.492  1.00  0.00     0.002 C 
BRANCH  23  24
ATOM     24  C   UNL A   1      35.883  24.017  24.611  1.00  0.00     0.021 C 
BRANCH  24  25
ATOM     25  C   UNL A   1      36.337  23.722  26.039  1.00  0.00     0.116 C 
BRANCH  25  26
ATOM     26  N   UNL A   1      37.350  22.679  26.091  1.00  0.00    -0.352 N 
ATOM     27  C   UNL A   1      38.689  22.779  26.378  1.00  0.00     0.251 C 
ATOM     28  H   UNL A   1      37.030  21.770  25.889  1.00  0.00     0.163 HD
ATOM     29  O   UNL A   1      39.424  21.810  26.199  1.00  0.00    -0.269 OA
BRANCH  27  30
ATOM     30  C   UNL A   1      39.253  24.050  26.884  1.00  0.00     0.039 A 
ATOM     31  C   UNL A   1      39.922  24.891  25.989  1.00  0.00     0.014 A 
ATOM     32  C   UNL A   1      39.146  24.408  28.231  1.00  0.00     0.014 A 
ATOM     33  C   UNL A   1      40.432  26.114  26.433  1.00  0.00     0.010 A 
ATOM     34  C   UNL A   1      39.601  25.655  28.660  1.00  0.00     0.010 A 
ATOM     35  C   UNL A   1      40.251  26.519  27.766  1.00  0.00    -0.014 A 
BRANCH  35  36
ATOM     36  C   UNL A   1      40.708  27.858  28.224  1.00  0.00     0.031 A 
ATOM     37  C   UNL A   1      42.172  28.204  28.249  1.00  0.00     0.074 A 
ATOM     38  C   UNL A   1      39.801  28.744  28.680  1.00  0.00     0.049 A 
ATOM     39  N   UNL A   1      42.748  29.317  28.627  1.00  0.00    -0.248 NA
ATOM     40  C   UNL A   1      43.116  27.160  27.817  1.00  0.00     0.031 C 
ATOM     41  C   UNL A   1      38.360  28.498  28.791  1.00  0.00     0.029 A 
ATOM     42  N   UNL A   1      39.954  30.022  29.157  1.00  0.00    -0.354 N 
ATOM     43  C   UNL A   1      44.116  29.104  28.498  1.00  0.00     0.074 A 
ATOM     44  C   UNL A   1      44.287  27.741  28.042  1.00  0.00     0.031 C 
ATOM     45  C   UNL A   1      37.765  29.587  29.301  1.00  0.00     0.029 A 
ATOM     46  C   UNL A   1      38.778  30.603  29.570  1.00  0.00     0.049 A 
ATOM     47  H   UNL A   1      40.825  30.479  29.200  1.00  0.00     0.167 HD
ATOM     48  C   UNL A   1      45.134  29.973  28.705  1.00  0.00     0.034 A 
ATOM     49  C   UNL A   1      38.541  31.817  30.106  1.00  0.00     0.034 A 
ATOM     50  C   UNL A   1      44.960  31.340  29.119  1.00  0.00     0.049 A 
ATOM     51  C   UNL A   1      39.686  32.779  30.274  1.00  0.00     0.074 A 
ATOM     52  C   UNL A   1      45.926  32.318  29.284  1.00  0.00     0.029 A 
ATOM     53  N   UNL A   1      43.744  31.925  29.433  1.00  0.00    -0.354 N 
ATOM     54  N   UNL A   1      40.953  32.611  29.984  1.00  0.00    -0.248 NA
ATOM     55  C   UNL A   1      39.361  34.112  30.801  1.00  0.00     0.031 C 
ATOM     56  C   UNL A   1      45.293  33.493  29.706  1.00  0.00     0.029 A 
ATOM     57  C   UNL A   1      43.933  33.249  29.791  1.00  0.00     0.049 A 
ATOM     58  H   UNL A   1      42.873  31.465  29.405  1.00  0.00     0.167 HD
ATOM     59  C   UNL A   1      41.572  33.824  30.267  1.00  0.00     0.074 A 
ATOM     60  C   UNL A   1      40.534  34.727  30.718  1.00  0.00     0.031 C 
ATOM     61  C   UNL A   1      42.884  34.153  30.185  1.00  0.00     0.034 A 
BRANCH  48  62
ATOM     62  C   UNL A   1      46.533  29.496  28.413  1.00  0.00     0.023 A 
ATOM     63  C   UNL A   1      47.063  29.681  27.119  1.00  0.00     0.012 A 
ATOM     64  C   UNL A   1      47.349  28.950  29.423  1.00  0.00     0.148 A 
ATOM     65  C   UNL A   1      48.374  29.307  26.828  1.00  0.00     0.002 A 
ATOM     66  C   UNL A   1      48.669  28.617  29.135  1.00  0.00     0.091 A 
ATOM     67  F   UNL A   1      46.822  28.768  30.642  1.00  0.00    -0.205 F 
ATOM     68  C   UNL A   1      49.179  28.787  27.837  1.00  0.00     0.022 A 
BRANCH  66  69
ATOM     69  S   UNL A   1      49.812  28.007  30.381  1.00  0.00     0.127 S 
ATOM     70  O   UNL A   1      49.798  29.103  31.352  1.00  0.00    -0.237 OA
ATOM     71  O   UNL A   1      49.145  26.784  30.834  1.00  0.00    -0.237 OA
ATOM     72  O   UNL A   1      51.076  27.795  29.699  1.00  0.00    -0.744 OA
ENDBRANCH  66  69
ENDBRANCH  48  62
BRANCH  49  73
ATOM     73  C   UNL A   1      37.149  32.220  30.455  1.00  0.00     0.023 A 
ATOM     74  C   UNL A   1      36.678  32.018  31.768  1.00  0.00     0.012 A 
ATOM     75  C   UNL A   1      36.295  32.812  29.505  1.00  0.00     0.148 A 
ATOM     76  C   UNL A   1      35.373  32.364  32.118  1.00  0.00     0.002 A 
ATOM     77  C   UNL A   1      35.015  33.207  29.875  1.00  0.00     0.091 A 
ATOM     78  F   UNL A   1      36.751  32.981  28.255  1.00  0.00    -0.205 F 
ATOM     79  C   UNL A   1      34.545  32.967  31.175  1.00  0.00     0.022 A 
BRANCH  77  80
ATOM     80  S   UNL A   1      33.944  34.116  28.756  1.00  0.00     0.127 S 
ATOM     81  O   UNL A   1      32.880  34.560  29.651  1.00  0.00    -0.237 OA
ATOM     82  O   UNL A   1      34.828  35.178  28.275  1.00  0.00    -0.237 OA
ATOM     83  O   UNL A   1      33.560  33.155  27.729  1.00  0.00    -0.744 OA
ENDBRANCH  77  80
ENDBRANCH  49  73
BRANCH  61  84
ATOM     84  C   UNL A   1      43.273  35.555  30.574  1.00  0.00     0.023 A 
ATOM     85  C   UNL A   1      43.677  35.824  31.896  1.00  0.00     0.012 A 
ATOM     86  C   UNL A   1      43.289  36.593  29.622  1.00  0.00     0.148 A 
ATOM     87  C   UNL A   1      44.056  37.110  32.275  1.00  0.00     0.002 A 
ATOM     88  C   UNL A   1      43.712  37.864  29.996  1.00  0.00     0.091 A 
ATOM     89  F   UNL A   1      42.880  36.325  28.373  1.00  0.00    -0.205 F 
ATOM     90  C   UNL A   1      44.084  38.126  31.324  1.00  0.00     0.022 A 
BRANCH  88  91
ATOM     91  S   UNL A   1      43.863  39.209  28.813  1.00  0.00     0.127 S 
ATOM     92  O   UNL A   1      44.434  40.270  29.640  1.00  0.00    -0.237 OA
ATOM     93  O   UNL A   1      44.780  38.650  27.819  1.00  0.00    -0.237 OA
ATOM     94  O   UNL A   1      42.515  39.452  28.317  1.00  0.00    -0.744 OA
ENDBRANCH  88  91
ENDBRANCH  61  84
ENDBRANCH  35  36
ENDBRANCH  27  30
ENDBRANCH  25  26
ENDBRANCH  24  25
ENDBRANCH  23  24
ENDBRANCH   1  23
TORSDOF 19
ENDMDL
MODEL 2
REMARK VINA RESULT:     -10.8      3.369      8.442
REMARK SMILES C[C@@H](C(=O)NCCCCCCNC(=O)c1ccc(-c2c3nc(c(-c4cccc(S(=O)(=O)[O-])c4F)c4ccc([nH]4)c(-c4cccc(S(=O)(=O)[O-])c4F)c4nc(c(-c5cccc(S(=O)(=O)[O-])c5F)c5ccc2[nH]5)C=C4)C=C3)cc1)c1ccc(Cc2ccsc2)cc1F
REMARK SMILES IDX 8 1 7 2 6 3 5 4 3 5 4 6 2 8 1 9 78 10 79 11 89 12 80 13
REMARK SMILES IDX 88 14 90 15 81 16 82 17 83 18 84 19 87 20 85 21 86 22 9 23
REMARK SMILES IDX 10 24 11 25 12 26 13 27 14 29 15 30 16 31 77 32 17 33 76 34
REMARK SMILES IDX 18 35 19 36 20 37 70 38 21 39 75 40 69 41 71 42 22 43 74 44
REMARK SMILES IDX 68 45 67 46 23 48 55 49 35 50 54 51 36 52 39 53 53 54 72 55
REMARK SMILES IDX 37 56 38 57 52 59 73 60 40 61 24 62 25 63 33 64 26 65 28 66
REMARK SMILES IDX 34 67 27 68 29 69 30 70 31 71 32 72 56 73 57 74 65 75 58 76
REMARK SMILES IDX 60 77 66 78 59 79 61 80 62 81 63 82 64 83 41 84 42 85 50 86
REMARK SMILES IDX 43 87 45 88 51 89 44 90 46 91 47 92 48 93 49 94
REMARK H PARENT 5 7 12 28 71 47 39 58
REMARK Flexibility Score: inf
ROOT
ATOM      1  C   UNL A   1      36.576  21.841  25.320  1.00  0.00     0.002 C 
ENDROOT
BRANCH   1   2
ATOM      2  C   UNL A   1      35.707  22.837  24.539  1.00  0.00     0.021 C 
BRANCH   2   3
ATOM      3  C   UNL A   1      35.374  24.126  25.301  1.00  0.00     0.116 C 
BRANCH   3   4
ATOM      4  N   UNL A   1      34.372  23.862  26.316  1.00  0.00    -0.356 N 
ATOM      5  C   UNL A   1      33.013  23.818  26.194  1.00  0.00     0.227 C 
ATOM      6  O   UNL A   1      32.364  24.043  27.219  1.00  0.00    -0.274 OA
ATOM      7  H   UNL A   1      34.722  23.690  27.220  1.00  0.00     0.163 HD
BRANCH   5   8
ATOM      8  C   UNL A   1      32.375  23.503  24.826  1.00  0.00     0.108 C 
ATOM      9  C   UNL A   1      30.914  23.976  24.892  1.00  0.00     0.023 C 
BRANCH   8  10
ATOM     10  C   UNL A   1      32.498  22.038  24.382  1.00  0.00    -0.000 A 
ATOM     11  C   UNL A   1      32.611  20.984  25.302  1.00  0.00     0.008 A 
ATOM     12  C   UNL A   1      32.523  21.682  23.026  1.00  0.00     0.127 A 
ATOM     13  C   UNL A   1      32.585  19.648  24.892  1.00  0.00     0.004 A 
ATOM     14  C   UNL A   1      32.528  20.348  22.603  1.00  0.00     0.043 A 
ATOM     15  F   UNL A   1      32.528  22.625  22.074  1.00  0.00    -0.207 F 
ATOM     16  C   UNL A   1      32.517  19.308  23.537  1.00  0.00    -0.041 A 
BRANCH  16  17
ATOM     17  C   UNL A   1      32.357  17.873  23.101  1.00  0.00     0.072 C 
BRANCH  17  18
ATOM     18  C   UNL A   1      33.157  17.008  24.031  1.00  0.00    -0.033 A 
ATOM     19  C   UNL A   1      32.609  16.054  24.957  1.00  0.00     0.015 A 
ATOM     20  C   UNL A   1      34.540  16.963  24.062  1.00  0.00     0.068 A 
ATOM     21  C   UNL A   1      33.575  15.368  25.657  1.00  0.00     0.065 A 
ATOM     22  S   UNL A   1      35.150  15.829  25.188  1.00  0.00    -0.152 S 
ENDBRANCH  17  18
ENDBRANCH  16  17
ENDBRANCH   8  10
ENDBRANCH   5   8
ENDBRANCH   3   4
ENDBRANCH   2   3
ENDBRANCH   1   2
BRANCH   1  23
ATOM     23  C   UNL A   1      36.450  20.381  24.875  1.00  0.00     0.002 C 
BRANCH  23  24
ATOM     24  C   UNL A   1      37.734  19.556  24.988  1.00  0.00     0.021 C 
BRANCH  24  25
ATOM     25  C   UNL A   1      38.700  20.009  26.081  1.00  0.00     0.116 C 
BRANCH  25  26
ATOM     26  N   UNL A   1      39.903  19.192  26.127  1.00  0.00    -0.352 N 
ATOM     27  C   UNL A   1      41.216  19.579  26.222  1.00  0.00     0.251 C 
ATOM     28  H   UNL A   1      39.754  18.220  26.083  1.00  0.00     0.163 HD
ATOM     29  O   UNL A   1      42.109  18.748  26.069  1.00  0.00    -0.269 OA
BRANCH  27  30
ATOM     30  C   UNL A   1      41.562  20.994  26.489  1.00  0.00     0.039 A 
ATOM     31  C   UNL A   1      42.013  21.344  27.766  1.00  0.00     0.014 A 
ATOM     32  C   UNL A   1      41.425  21.974  25.503  1.00  0.00     0.014 A 
ATOM     33  C   UNL A   1      42.380  22.665  28.034  1.00  0.00     0.010 A 
ATOM     34  C   UNL A   1      41.850  23.280  25.753  1.00  0.00     0.010 A 
ATOM     35  C   UNL A   1      42.329  23.639  27.022  1.00  0.00    -0.014 A 
BRANCH  35  36
ATOM     36  C   UNL A   1      42.806  25.024  27.274  1.00  0.00     0.031 A 
ATOM     37  C   UNL A   1      41.912  26.038  27.937  1.00  0.00     0.074 A 
ATOM     38  C   UNL A   1      44.030  25.388  26.843  1.00  0.00     0.049 A 
ATOM     39  N   UNL A   1      42.160  27.290  28.224  1.00  0.00    -0.248 NA
ATOM     40  C   UNL A   1      40.557  25.597  28.306  1.00  0.00     0.031 C 
ATOM     41  C   UNL A   1      44.958  24.526  26.107  1.00  0.00     0.029 A 
ATOM     42  N   UNL A   1      44.697  26.584  26.939  1.00  0.00    -0.354 N 
ATOM     43  C   UNL A   1      40.993  27.793  28.787  1.00  0.00     0.074 A 
ATOM     44  C   UNL A   1      40.022  26.719  28.768  1.00  0.00     0.031 C 
ATOM     45  C   UNL A   1      46.072  25.219  25.821  1.00  0.00     0.029 A 
ATOM     46  C   UNL A   1      45.933  26.578  26.335  1.00  0.00     0.049 A 
ATOM     47  H   UNL A   1      44.326  27.372  27.397  1.00  0.00     0.167 HD
ATOM     48  C   UNL A   1      40.761  29.023  29.304  1.00  0.00     0.034 A 
ATOM     49  C   UNL A   1      46.852  27.556  26.209  1.00  0.00     0.034 A 
ATOM     50  C   UNL A   1      41.739  30.076  29.360  1.00  0.00     0.049 A 
ATOM     51  C   UNL A   1      46.586  28.895  26.842  1.00  0.00     0.074 A 
ATOM     52  C   UNL A   1      41.621  31.331  29.932  1.00  0.00     0.029 A 
ATOM     53  N   UNL A   1      43.016  30.000  28.827  1.00  0.00    -0.354 N 
ATOM     54  N   UNL A   1      45.537  29.294  27.519  1.00  0.00    -0.248 NA
ATOM     55  C   UNL A   1      47.649  29.905  26.731  1.00  0.00     0.031 C 
ATOM     56  C   UNL A   1      42.825  32.017  29.737  1.00  0.00     0.029 A 
ATOM     57  C   UNL A   1      43.696  31.184  29.055  1.00  0.00     0.049 A 
ATOM     58  H   UNL A   1      43.385  29.218  28.356  1.00  0.00     0.167 HD
ATOM     59  C   UNL A   1      45.824  30.588  27.938  1.00  0.00     0.074 A 
ATOM     60  C   UNL A   1      47.159  30.893  27.468  1.00  0.00     0.031 C 
ATOM     61  C   UNL A   1      45.044  31.455  28.629  1.00  0.00     0.034 A 
BRANCH  48  62
ATOM     62  C   UNL A   1      39.413  29.278  29.928  1.00  0.00     0.023 A 
ATOM     63  C   UNL A   1      39.171  28.832  31.243  1.00  0.00     0.012 A 
ATOM     64  C   UNL A   1      38.424  30.025  29.258  1.00  0.00     0.148 A 
ATOM     65  C   UNL A   1      37.957  29.103  31.874  1.00  0.00     0.002 A 
ATOM     66  C   UNL A   1      37.231  30.325  29.908  1.00  0.00     0.091 A 
ATOM     67  F   UNL A   1      38.666  30.426  28.002  1.00  0.00    -0.205 F 
ATOM     68  C   UNL A   1      36.994  29.857  31.212  1.00  0.00     0.022 A 
BRANCH  66  69
ATOM     69  S   UNL A   1      35.954  31.352  29.172  1.00  0.00     0.127 S 
ATOM     70  O   UNL A   1      35.302  30.405  28.265  1.00  0.00    -0.237 OA
ATOM     71  O   UNL A   1      35.152  31.726  30.339  1.00  0.00    -0.237 OA
ATOM     72  O   UNL A   1      36.645  32.456  28.528  1.00  0.00    -0.744 OA
ENDBRANCH  66  69
ENDBRANCH  48  62
BRANCH  49  73
ATOM     73  C   UNL A   1      48.142  27.283  25.514  1.00  0.00     0.023 A 
ATOM     74  C   UNL A   1      49.237  26.794  26.254  1.00  0.00     0.012 A 
ATOM     75  C   UNL A   1      48.288  27.489  24.129  1.00  0.00     0.148 A 
ATOM     76  C   UNL A   1      50.464  26.552  25.635  1.00  0.00     0.002 A 
ATOM     77  C   UNL A   1      49.496  27.191  23.509  1.00  0.00     0.091 A 
ATOM     78  F   UNL A   1      47.243  27.972  23.443  1.00  0.00    -0.205 F 
ATOM     79  C   UNL A   1      50.590  26.741  24.261  1.00  0.00     0.022 A 
BRANCH  77  80
ATOM     80  S   UNL A   1      49.689  27.275  21.724  1.00  0.00     0.127 S 
ATOM     81  O   UNL A   1      48.655  26.352  21.267  1.00  0.00    -0.237 OA
ATOM     82  O   UNL A   1      49.420  28.687  21.450  1.00  0.00    -0.237 OA
ATOM     83  O   UNL A   1      51.067  26.874  21.470  1.00  0.00    -0.744 OA
ENDBRANCH  77  80
ENDBRANCH  49  73
BRANCH  61  84
ATOM     84  C   UNL A   1      45.620  32.813  28.935  1.00  0.00     0.023 A 
ATOM     85  C   UNL A   1      46.318  33.017  30.142  1.00  0.00     0.012 A 
ATOM     86  C   UNL A   1      45.518  33.869  28.009  1.00  0.00     0.148 A 
ATOM     87  C   UNL A   1      46.872  34.261  30.440  1.00  0.00     0.002 A 
ATOM     88  C   UNL A   1      46.113  35.094  28.292  1.00  0.00     0.091 A 
ATOM     89  F   UNL A   1      44.832  33.664  26.874  1.00  0.00    -0.205 F 
ATOM     90  C   UNL A   1      46.779  35.294  29.511  1.00  0.00     0.022 A 
BRANCH  88  91
ATOM     91  S   UNL A   1      46.118  36.450  27.114  1.00  0.00     0.127 S 
ATOM     92  O   UNL A   1      44.697  36.786  27.039  1.00  0.00    -0.237 OA
ATOM     93  O   UNL A   1      46.945  37.450  27.790  1.00  0.00    -0.237 OA
ATOM     94  O   UNL A   1      46.704  35.913  25.893  1.00  0.00    -0.744 OA
ENDBRANCH  88  91
ENDBRANCH  61  84
ENDBRANCH  35  36
ENDBRANCH  27  30
ENDBRANCH  25  26
ENDBRANCH  24  25
ENDBRANCH  23  24
ENDBRANCH   1  23
TORSDOF 19
ENDMDL
MODEL 3
REMARK VINA RESULT:     -10.7      5.040      8.302
REMARK SMILES C[C@@H](C(=O)NCCCCCCNC(=O)c1ccc(-c2c3nc(c(-c4cccc(S(=O)(=O)[O-])c4F)c4ccc([nH]4)c(-c4cccc(S(=O)(=O)[O-])c4F)c4nc(c(-c5cccc(S(=O)(=O)[O-])c5F)c5ccc2[nH]5)C=C4)C=C3)cc1)c1ccc(Cc2ccsc2)cc1F
REMARK SMILES IDX 8 1 7 2 6 3 5 4 3 5 4 6 2 8 1 9 78 10 79 11 89 12 80 13
REMARK SMILES IDX 88 14 90 15 81 16 82 17 83 18 84 19 87 20 85 21 86 22 9 23
REMARK SMILES IDX 10 24 11 25 12 26 13 27 14 29 15 30 16 31 77 32 17 33 76 34
REMARK SMILES IDX 18 35 19 36 20 37 70 38 21 39 75 40 69 41 71 42 22 43 74 44
REMARK SMILES IDX 68 45 67 46 23 48 55 49 35 50 54 51 36 52 39 53 53 54 72 55
REMARK SMILES IDX 37 56 38 57 52 59 73 60 40 61 24 62 25 63 33 64 26 65 28 66
REMARK SMILES IDX 34 67 27 68 29 69 30 70 31 71 32 72 56 73 57 74 65 75 58 76
REMARK SMILES IDX 60 77 66 78 59 79 61 80 62 81 63 82 64 83 41 84 42 85 50 86
REMARK SMILES IDX 43 87 45 88 51 89 44 90 46 91 47 92 48 93 49 94
REMARK H PARENT 5 7 12 28 71 47 39 58
REMARK Flexibility Score: inf
ROOT
ATOM      1  C   UNL A   1      32.485  29.453  26.931  1.00  0.00     0.002 C 
ENDROOT
BRANCH   1   2
ATOM      2  C   UNL A   1      31.614  28.342  27.535  1.00  0.00     0.021 C 
BRANCH   2   3
ATOM      3  C   UNL A   1      31.633  27.021  26.755  1.00  0.00     0.116 C 
BRANCH   3   4
ATOM      4  N   UNL A   1      30.792  27.125  25.577  1.00  0.00    -0.356 N 
ATOM      5  C   UNL A   1      31.150  27.130  24.260  1.00  0.00     0.227 C 
ATOM      6  O   UNL A   1      30.368  27.682  23.482  1.00  0.00    -0.274 OA
ATOM      7  H   UNL A   1      29.826  27.202  25.754  1.00  0.00     0.163 HD
BRANCH   5   8
ATOM      8  C   UNL A   1      32.474  26.470  23.822  1.00  0.00     0.108 C 
ATOM      9  C   UNL A   1      32.992  27.262  22.611  1.00  0.00     0.023 C 
BRANCH   8  10
ATOM     10  C   UNL A   1      32.378  24.963  23.542  1.00  0.00    -0.000 A 
ATOM     11  C   UNL A   1      31.160  24.268  23.595  1.00  0.00     0.008 A 
ATOM     12  C   UNL A   1      33.515  24.200  23.237  1.00  0.00     0.127 A 
ATOM     13  C   UNL A   1      31.064  22.929  23.205  1.00  0.00     0.004 A 
ATOM     14  C   UNL A   1      33.434  22.851  22.875  1.00  0.00     0.043 A 
ATOM     15  F   UNL A   1      34.735  24.753  23.268  1.00  0.00    -0.207 F 
ATOM     16  C   UNL A   1      32.195  22.205  22.815  1.00  0.00    -0.041 A 
BRANCH  16  17
ATOM     17  C   UNL A   1      32.074  20.804  22.271  1.00  0.00     0.072 C 
BRANCH  17  18
ATOM     18  C   UNL A   1      32.365  19.842  23.385  1.00  0.00    -0.033 A 
ATOM     19  C   UNL A   1      32.492  20.192  24.774  1.00  0.00     0.015 A 
ATOM     20  C   UNL A   1      32.472  18.471  23.226  1.00  0.00     0.068 A 
ATOM     21  C   UNL A   1      32.718  19.103  25.585  1.00  0.00     0.065 A 
ATOM     22  S   UNL A   1      32.743  17.644  24.700  1.00  0.00    -0.152 S 
ENDBRANCH  17  18
ENDBRANCH  16  17
ENDBRANCH   8  10
ENDBRANCH   5   8
ENDBRANCH   3   4
ENDBRANCH   2   3
ENDBRANCH   1   2
BRANCH   1  23
ATOM     23  C   UNL A   1      31.737  30.460  26.054  1.00  0.00     0.002 C 
BRANCH  23  24
ATOM     24  C   UNL A   1      31.532  31.841  26.682  1.00  0.00     0.021 C 
BRANCH  24  25
ATOM     25  C   UNL A   1      32.790  32.479  27.267  1.00  0.00     0.116 C 
BRANCH  25  26
ATOM     26  N   UNL A   1      32.584  33.871  27.632  1.00  0.00    -0.352 N 
ATOM     27  C   UNL A   1      33.189  34.613  28.615  1.00  0.00     0.251 C 
ATOM     28  H   UNL A   1      31.913  34.352  27.096  1.00  0.00     0.163 HD
ATOM     29  O   UNL A   1      32.756  35.731  28.889  1.00  0.00    -0.269 OA
BRANCH  27  30
ATOM     30  C   UNL A   1      34.347  34.068  29.359  1.00  0.00     0.039 A 
ATOM     31  C   UNL A   1      34.110  33.314  30.512  1.00  0.00     0.014 A 
ATOM     32  C   UNL A   1      35.659  34.311  28.941  1.00  0.00     0.014 A 
ATOM     33  C   UNL A   1      35.184  32.757  31.211  1.00  0.00     0.010 A 
ATOM     34  C   UNL A   1      36.726  33.705  29.604  1.00  0.00     0.010 A 
ATOM     35  C   UNL A   1      36.499  32.924  30.747  1.00  0.00    -0.014 A 
BRANCH  35  36
ATOM     36  C   UNL A   1      37.638  32.258  31.433  1.00  0.00     0.031 A 
ATOM     37  C   UNL A   1      38.358  31.105  30.788  1.00  0.00     0.074 A 
ATOM     38  C   UNL A   1      37.984  32.655  32.674  1.00  0.00     0.049 A 
ATOM     39  N   UNL A   1      39.363  30.402  31.245  1.00  0.00    -0.248 NA
ATOM     40  C   UNL A   1      37.876  30.667  29.467  1.00  0.00     0.031 C 
ATOM     41  C   UNL A   1      37.307  33.702  33.445  1.00  0.00     0.029 A 
ATOM     42  N   UNL A   1      38.973  32.213  33.516  1.00  0.00    -0.354 N 
ATOM     43  C   UNL A   1      39.621  29.431  30.285  1.00  0.00     0.074 A 
ATOM     44  C   UNL A   1      38.643  29.611  29.234  1.00  0.00     0.031 C 
ATOM     45  C   UNL A   1      37.901  33.820  34.644  1.00  0.00     0.029 A 
ATOM     46  C   UNL A   1      38.988  32.850  34.735  1.00  0.00     0.049 A 
ATOM     47  H   UNL A   1      39.612  31.506  33.270  1.00  0.00     0.167 HD
ATOM     48  C   UNL A   1      40.603  28.499  30.263  1.00  0.00     0.034 A 
ATOM     49  C   UNL A   1      39.786  32.673  35.806  1.00  0.00     0.034 A 
ATOM     50  C   UNL A   1      41.600  28.348  31.288  1.00  0.00     0.049 A 
ATOM     51  C   UNL A   1      40.902  31.667  35.730  1.00  0.00     0.074 A 
ATOM     52  C   UNL A   1      42.680  27.482  31.319  1.00  0.00     0.029 A 
ATOM     53  N   UNL A   1      41.644  29.079  32.465  1.00  0.00    -0.354 N 
ATOM     54  N   UNL A   1      41.231  30.874  34.739  1.00  0.00    -0.248 NA
ATOM     55  C   UNL A   1      41.783  31.561  36.902  1.00  0.00     0.031 C 
ATOM     56  C   UNL A   1      43.371  27.683  32.518  1.00  0.00     0.029 A 
ATOM     57  C   UNL A   1      42.729  28.684  33.228  1.00  0.00     0.049 A 
ATOM     58  H   UNL A   1      40.998  29.777  32.719  1.00  0.00     0.167 HD
ATOM     59  C   UNL A   1      42.371  30.197  35.157  1.00  0.00     0.074 A 
ATOM     60  C   UNL A   1      42.695  30.698  36.476  1.00  0.00     0.031 C 
ATOM     61  C   UNL A   1      43.073  29.230  34.516  1.00  0.00     0.034 A 
BRANCH  48  62
ATOM     62  C   UNL A   1      40.700  27.611  29.049  1.00  0.00     0.023 A 
ATOM     63  C   UNL A   1      39.796  26.538  28.911  1.00  0.00     0.012 A 
ATOM     64  C   UNL A   1      41.615  27.883  28.013  1.00  0.00     0.148 A 
ATOM     65  C   UNL A   1      39.816  25.733  27.773  1.00  0.00     0.002 A 
ATOM     66  C   UNL A   1      41.602  27.099  26.863  1.00  0.00     0.091 A 
ATOM     67  F   UNL A   1      42.476  28.897  28.169  1.00  0.00    -0.205 F 
ATOM     68  C   UNL A   1      40.711  26.019  26.747  1.00  0.00     0.022 A 
BRANCH  66  69
ATOM     69  S   UNL A   1      42.663  27.429  25.450  1.00  0.00     0.127 S 
ATOM     70  O   UNL A   1      43.965  27.604  26.096  1.00  0.00    -0.237 OA
ATOM     71  O   UNL A   1      42.532  26.193  24.674  1.00  0.00    -0.237 OA
ATOM     72  O   UNL A   1      42.122  28.613  24.807  1.00  0.00    -0.744 OA
ENDBRANCH  66  69
ENDBRANCH  48  62
BRANCH  49  73
ATOM     73  C   UNL A   1      39.605  33.521  37.020  1.00  0.00     0.023 A 
ATOM     74  C   UNL A   1      38.606  33.186  37.955  1.00  0.00     0.012 A 
ATOM     75  C   UNL A   1      40.422  34.641  37.261  1.00  0.00     0.148 A 
ATOM     76  C   UNL A   1      38.398  33.974  39.088  1.00  0.00     0.002 A 
ATOM     77  C   UNL A   1      40.248  35.389  38.421  1.00  0.00     0.091 A 
ATOM     78  F   UNL A   1      41.357  34.957  36.353  1.00  0.00    -0.205 F 
ATOM     79  C   UNL A   1      39.225  35.069  39.326  1.00  0.00     0.022 A 
BRANCH  77  80
ATOM     80  S   UNL A   1      41.365  36.724  38.863  1.00  0.00     0.127 S 
ATOM     81  O   UNL A   1      41.890  37.120  37.560  1.00  0.00    -0.237 OA
ATOM     82  O   UNL A   1      40.459  37.693  39.482  1.00  0.00    -0.237 OA
ATOM     83  O   UNL A   1      42.321  36.132  39.789  1.00  0.00    -0.744 OA
ENDBRANCH  77  80
ENDBRANCH  49  73
BRANCH  61  84
ATOM     84  C   UNL A   1      44.273  28.660  35.224  1.00  0.00     0.023 A 
ATOM     85  C   UNL A   1      45.557  29.165  34.935  1.00  0.00     0.012 A 
ATOM     86  C   UNL A   1      44.128  27.666  36.211  1.00  0.00     0.148 A 
ATOM     87  C   UNL A   1      46.681  28.664  35.590  1.00  0.00     0.002 A 
ATOM     88  C   UNL A   1      45.249  27.202  36.893  1.00  0.00     0.091 A 
ATOM     89  F   UNL A   1      42.903  27.181  36.459  1.00  0.00    -0.205 F 
ATOM     90  C   UNL A   1      46.526  27.692  36.574  1.00  0.00     0.022 A 
BRANCH  88  91
ATOM     91  S   UNL A   1      45.129  26.017  38.237  1.00  0.00     0.127 S 
ATOM     92  O   UNL A   1      44.542  24.860  37.563  1.00  0.00    -0.237 OA
ATOM     93  O   UNL A   1      46.528  25.847  38.632  1.00  0.00    -0.237 OA
ATOM     94  O   UNL A   1      44.292  26.648  39.248  1.00  0.00    -0.744 OA
ENDBRANCH  88  91
ENDBRANCH  61  84
ENDBRANCH  35  36
ENDBRANCH  27  30
ENDBRANCH  25  26
ENDBRANCH  24  25
ENDBRANCH  23  24
ENDBRANCH   1  23
TORSDOF 19
ENDMDL
