MODEL 1
REMARK VINA RESULT:     -11.7      0.000      0.000
REMARK SMILES O=C1NC(=S)/C(=C/c2ccc(-c3ccc(C(=O)NCCCCCCNC(=O)c4ccc(-c5c6nc(c(-c7cccc(S(=O)(=O)[O-])c7F)c7ccc([nH]7)c(-c7cccc(S(=O)(=O)[O-])c7F)c7nc(c(-c8cccc(S(=O)(=O)[O-])c8F)c8ccc5[nH]8)C=C7)C=C6)cc4)cc3)o2)S1
REMARK SMILES IDX 22 1 21 2 20 3 19 4 18 5 16 6 17 7 15 9 12 10 13 11 92 12
REMARK SMILES IDX 14 13 91 14 11 15 8 16 9 17 93 18 10 19 7 20 1 21 2 22 3 23
REMARK SMILES IDX 94 24 4 25 6 27 5 28 23 29 24 30 25 31 26 32 27 34 28 35
REMARK SMILES IDX 29 36 90 37 30 38 89 39 31 40 32 41 33 42 83 43 34 44 88 45
REMARK SMILES IDX 82 46 84 47 35 48 87 49 81 50 80 51 36 53 68 54 48 55 67 56
REMARK SMILES IDX 49 57 52 58 66 59 85 60 50 61 51 62 65 64 86 65 53 66 37 67
REMARK SMILES IDX 38 68 46 69 39 70 41 71 47 72 40 73 42 74 43 75 44 76 45 77
REMARK SMILES IDX 69 78 70 79 78 80 71 81 73 82 79 83 72 84 74 85 75 86 76 87
REMARK SMILES IDX 77 88 54 89 55 90 63 91 56 92 58 93 64 94 57 95 59 96 60 97
REMARK SMILES IDX 61 98 62 99
REMARK H PARENT 18 8 3 26 25 33 84 52 52 63
REMARK Flexibility Score: inf
ROOT
ATOM      1  C   UNL A   1      34.992  24.131  25.585  1.00  0.00     0.002 C 
ENDROOT
BRANCH   1   2
ATOM      2  C   UNL A   1      34.381  23.372  26.769  1.00  0.00     0.002 C 
BRANCH   2   3
ATOM      3  C   UNL A   1      34.735  21.879  26.810  1.00  0.00     0.021 C 
BRANCH   3   4
ATOM      4  C   UNL A   1      33.611  21.022  27.399  1.00  0.00     0.116 C 
BRANCH   4   5
ATOM      5  N   UNL A   1      33.162  20.061  26.409  1.00  0.00    -0.352 N 
ATOM      6  C   UNL A   1      32.437  20.196  25.253  1.00  0.00     0.251 C 
ATOM      7  O   UNL A   1      32.178  19.175  24.615  1.00  0.00    -0.269 OA
ATOM      8  H   UNL A   1      33.428  19.134  26.605  1.00  0.00     0.163 HD
BRANCH   6   9
ATOM      9  C   UNL A   1      32.030  21.518  24.705  1.00  0.00     0.039 A 
ATOM     10  C   UNL A   1      31.578  24.096  23.676  1.00  0.00     0.017 A 
ATOM     11  C   UNL A   1      32.396  23.202  22.982  1.00  0.00     0.013 A 
ATOM     12  C   UNL A   1      30.918  23.666  24.830  1.00  0.00     0.013 A 
ATOM     13  C   UNL A   1      32.630  21.925  23.502  1.00  0.00     0.014 A 
ATOM     14  C   UNL A   1      31.108  22.371  25.313  1.00  0.00     0.014 A 
BRANCH  10  15
ATOM     15  C   UNL A   1      31.429  25.470  23.254  1.00  0.00     0.134 A 
ATOM     16  C   UNL A   1      31.306  27.640  23.648  1.00  0.00     0.128 A 
ATOM     17  C   UNL A   1      31.325  27.459  22.270  1.00  0.00     0.051 A 
ATOM     18  O   UNL A   1      31.378  26.401  24.240  1.00  0.00    -0.457 OA
ATOM     19  C   UNL A   1      31.391  26.071  22.020  1.00  0.00     0.051 A 
BRANCH  16  20
ATOM     20  C   UNL A   1      31.247  28.842  24.400  1.00  0.00     0.065 C 
ATOM     21  O   UNL A   1      35.185  29.376  27.499  1.00  0.00    -0.261 OA
ATOM     22  C   UNL A   1      34.147  29.451  26.868  1.00  0.00     0.289 C 
ATOM     23  N   UNL A   1      33.253  30.474  26.923  1.00  0.00    -0.307 N 
ATOM     24  S   UNL A   1      33.581  28.249  25.740  1.00  0.00    -0.025 SA
ATOM     25  C   UNL A   1      32.138  30.421  26.126  1.00  0.00     0.120 C 
ATOM     26  H   UNL A   1      33.403  31.239  27.524  1.00  0.00     0.171 HD
ATOM     27  C   UNL A   1      32.164  29.165  25.322  1.00  0.00     0.056 C 
ATOM     28  S   UNL A   1      31.016  31.653  26.171  1.00  0.00    -0.059 S 
ENDBRANCH  16  20
ENDBRANCH  10  15
ENDBRANCH   6   9
ENDBRANCH   4   5
ENDBRANCH   3   4
ENDBRANCH   2   3
ENDBRANCH   1   2
BRANCH   1  29
ATOM     29  C   UNL A   1      35.879  23.281  24.671  1.00  0.00     0.021 C 
BRANCH  29  30
ATOM     30  C   UNL A   1      37.362  23.620  24.761  1.00  0.00     0.116 C 
BRANCH  30  31
ATOM     31  N   UNL A   1      38.091  22.605  25.507  1.00  0.00    -0.352 N 
ATOM     32  C   UNL A   1      39.182  22.748  26.324  1.00  0.00     0.251 C 
ATOM     33  H   UNL A   1      37.752  21.685  25.411  1.00  0.00     0.163 HD
ATOM     34  O   UNL A   1      39.832  21.761  26.658  1.00  0.00    -0.269 OA
BRANCH  32  35
ATOM     35  C   UNL A   1      39.573  24.092  26.797  1.00  0.00     0.039 A 
ATOM     36  C   UNL A   1      39.247  24.474  28.100  1.00  0.00     0.014 A 
ATOM     37  C   UNL A   1      40.243  24.979  25.949  1.00  0.00     0.014 A 
ATOM     38  C   UNL A   1      39.630  25.733  28.563  1.00  0.00     0.010 A 
ATOM     39  C   UNL A   1      40.698  26.198  26.441  1.00  0.00     0.010 A 
ATOM     40  C   UNL A   1      40.381  26.596  27.748  1.00  0.00    -0.014 A 
BRANCH  40  41
ATOM     41  C   UNL A   1      40.839  27.914  28.252  1.00  0.00     0.031 A 
ATOM     42  C   UNL A   1      42.306  28.252  28.288  1.00  0.00     0.074 A 
ATOM     43  C   UNL A   1      39.933  28.789  28.732  1.00  0.00     0.049 A 
ATOM     44  N   UNL A   1      42.888  29.347  28.702  1.00  0.00    -0.248 NA
ATOM     45  C   UNL A   1      43.243  27.217  27.821  1.00  0.00     0.031 C 
ATOM     46  C   UNL A   1      38.491  28.546  28.827  1.00  0.00     0.029 A 
ATOM     47  N   UNL A   1      40.091  30.051  29.247  1.00  0.00    -0.354 N 
ATOM     48  C   UNL A   1      44.254  29.125  28.571  1.00  0.00     0.074 A 
ATOM     49  C   UNL A   1      44.416  27.774  28.083  1.00  0.00     0.031 C 
ATOM     50  C   UNL A   1      37.897  29.628  29.354  1.00  0.00     0.029 A 
ATOM     51  C   UNL A   1      38.914  30.626  29.666  1.00  0.00     0.049 A 
ATOM     52  H   UNL A   1      40.963  30.503  29.309  1.00  0.00     0.167 HD
ATOM     53  C   UNL A   1      45.280  29.978  28.804  1.00  0.00     0.034 A 
ATOM     54  C   UNL A   1      38.681  31.820  30.247  1.00  0.00     0.034 A 
ATOM     55  C   UNL A   1      45.112  31.329  29.268  1.00  0.00     0.049 A 
ATOM     56  C   UNL A   1      39.836  32.756  30.474  1.00  0.00     0.074 A 
ATOM     57  C   UNL A   1      46.081  32.297  29.467  1.00  0.00     0.029 A 
ATOM     58  N   UNL A   1      43.899  31.901  29.617  1.00  0.00    -0.354 N 
ATOM     59  N   UNL A   1      41.106  32.584  30.201  1.00  0.00    -0.248 NA
ATOM     60  C   UNL A   1      39.520  34.070  31.053  1.00  0.00     0.031 C 
ATOM     61  C   UNL A   1      45.457  33.442  29.973  1.00  0.00     0.029 A 
ATOM     62  C   UNL A   1      44.094  33.204  30.043  1.00  0.00     0.049 A 
ATOM     63  H   UNL A   1      43.026  31.448  29.571  1.00  0.00     0.167 HD
ATOM     64  C   UNL A   1      41.735  33.777  30.538  1.00  0.00     0.074 A 
ATOM     65  C   UNL A   1      40.699  34.673  31.012  1.00  0.00     0.031 C 
ATOM     66  C   UNL A   1      43.050  34.099  30.471  1.00  0.00     0.034 A 
BRANCH  53  67
ATOM     67  C   UNL A   1      46.678  29.487  28.521  1.00  0.00     0.023 A 
ATOM     68  C   UNL A   1      47.241  29.680  27.243  1.00  0.00     0.012 A 
ATOM     69  C   UNL A   1      47.453  28.884  29.532  1.00  0.00     0.148 A 
ATOM     70  C   UNL A   1      48.536  29.247  26.962  1.00  0.00     0.002 A 
ATOM     71  C   UNL A   1      48.761  28.501  29.259  1.00  0.00     0.091 A 
ATOM     72  F   UNL A   1      46.896  28.691  30.736  1.00  0.00    -0.205 F 
ATOM     73  C   UNL A   1      49.299  28.669  27.972  1.00  0.00     0.022 A 
BRANCH  71  74
ATOM     74  S   UNL A   1      49.855  27.823  30.511  1.00  0.00     0.127 S 
ATOM     75  O   UNL A   1      51.087  27.622  29.748  1.00  0.00    -0.237 OA
ATOM     76  O   UNL A   1      49.914  28.911  31.487  1.00  0.00    -0.237 OA
ATOM     77  O   UNL A   1      49.216  26.607  30.991  1.00  0.00    -0.744 OA
ENDBRANCH  71  74
ENDBRANCH  53  67
BRANCH  54  78
ATOM     78  C   UNL A   1      37.292  32.215  30.612  1.00  0.00     0.023 A 
ATOM     79  C   UNL A   1      36.819  31.983  31.919  1.00  0.00     0.012 A 
ATOM     80  C   UNL A   1      36.441  32.830  29.674  1.00  0.00     0.148 A 
ATOM     81  C   UNL A   1      35.511  32.317  32.272  1.00  0.00     0.002 A 
ATOM     82  C   UNL A   1      35.160  33.217  30.049  1.00  0.00     0.091 A 
ATOM     83  F   UNL A   1      36.907  33.036  28.434  1.00  0.00    -0.205 F 
ATOM     84  C   UNL A   1      34.686  32.942  31.341  1.00  0.00     0.022 A 
BRANCH  82  85
ATOM     85  S   UNL A   1      34.077  34.144  28.957  1.00  0.00     0.127 S 
ATOM     86  O   UNL A   1      33.675  33.121  27.995  1.00  0.00    -0.237 OA
ATOM     87  O   UNL A   1      33.023  34.576  29.876  1.00  0.00    -0.237 OA
ATOM     88  O   UNL A   1      34.889  35.229  28.424  1.00  0.00    -0.744 OA
ENDBRANCH  82  85
ENDBRANCH  54  78
BRANCH  66  89
ATOM     89  C   UNL A   1      43.445  35.497  30.877  1.00  0.00     0.023 A 
ATOM     90  C   UNL A   1      43.847  35.765  32.200  1.00  0.00     0.012 A 
ATOM     91  C   UNL A   1      43.469  36.534  29.924  1.00  0.00     0.148 A 
ATOM     92  C   UNL A   1      44.222  37.054  32.580  1.00  0.00     0.002 A 
ATOM     93  C   UNL A   1      43.898  37.802  30.295  1.00  0.00     0.091 A 
ATOM     94  F   UNL A   1      43.067  36.264  28.673  1.00  0.00    -0.205 F 
ATOM     95  C   UNL A   1      44.258  38.068  31.626  1.00  0.00     0.022 A 
BRANCH  93  96
ATOM     96  S   UNL A   1      44.073  39.144  29.115  1.00  0.00     0.127 S 
ATOM     97  O   UNL A   1      42.687  39.362  28.704  1.00  0.00    -0.237 OA
ATOM     98  O   UNL A   1      44.640  40.211  29.942  1.00  0.00    -0.237 OA
ATOM     99  O   UNL A   1      44.963  38.650  28.072  1.00  0.00    -0.744 OA
ENDBRANCH  93  96
ENDBRANCH  66  89
ENDBRANCH  40  41
ENDBRANCH  32  35
ENDBRANCH  30  31
ENDBRANCH  29  30
ENDBRANCH   1  29
TORSDOF 18
ENDMDL
MODEL 2
REMARK VINA RESULT:     -11.7      1.738      2.098
REMARK SMILES O=C1NC(=S)/C(=C/c2ccc(-c3ccc(C(=O)NCCCCCCNC(=O)c4ccc(-c5c6nc(c(-c7cccc(S(=O)(=O)[O-])c7F)c7ccc([nH]7)c(-c7cccc(S(=O)(=O)[O-])c7F)c7nc(c(-c8cccc(S(=O)(=O)[O-])c8F)c8ccc5[nH]8)C=C7)C=C6)cc4)cc3)o2)S1
REMARK SMILES IDX 22 1 21 2 20 3 19 4 18 5 16 6 17 7 15 9 12 10 13 11 92 12
REMARK SMILES IDX 14 13 91 14 11 15 8 16 9 17 93 18 10 19 7 20 1 21 2 22 3 23
REMARK SMILES IDX 94 24 4 25 6 27 5 28 23 29 24 30 25 31 26 32 27 34 28 35
REMARK SMILES IDX 29 36 90 37 30 38 89 39 31 40 32 41 33 42 83 43 34 44 88 45
REMARK SMILES IDX 82 46 84 47 35 48 87 49 81 50 80 51 36 53 68 54 48 55 67 56
REMARK SMILES IDX 49 57 52 58 66 59 85 60 50 61 51 62 65 64 86 65 53 66 37 67
REMARK SMILES IDX 38 68 46 69 39 70 41 71 47 72 40 73 42 74 43 75 44 76 45 77
REMARK SMILES IDX 69 78 70 79 78 80 71 81 73 82 79 83 72 84 74 85 75 86 76 87
REMARK SMILES IDX 77 88 54 89 55 90 63 91 56 92 58 93 64 94 57 95 59 96 60 97
REMARK SMILES IDX 61 98 62 99
REMARK H PARENT 18 8 3 26 25 33 84 52 52 63
REMARK Flexibility Score: inf
ROOT
ATOM      1  C   UNL A   1      34.900  24.102  25.599  1.00  0.00     0.002 C 
ENDROOT
BRANCH   1   2
ATOM      2  C   UNL A   1      34.439  23.340  26.847  1.00  0.00     0.002 C 
BRANCH   2   3
ATOM      3  C   UNL A   1      34.770  21.842  26.830  1.00  0.00     0.021 C 
BRANCH   3   4
ATOM      4  C   UNL A   1      33.653  20.983  27.427  1.00  0.00     0.116 C 
BRANCH   4   5
ATOM      5  N   UNL A   1      33.184  20.034  26.435  1.00  0.00    -0.352 N 
ATOM      6  C   UNL A   1      32.447  20.184  25.288  1.00  0.00     0.251 C 
ATOM      7  O   UNL A   1      32.174  19.170  24.644  1.00  0.00    -0.269 OA
ATOM      8  H   UNL A   1      33.446  19.103  26.619  1.00  0.00     0.163 HD
BRANCH   6   9
ATOM      9  C   UNL A   1      32.043  21.514  24.756  1.00  0.00     0.039 A 
ATOM     10  C   UNL A   1      31.598  24.101  23.750  1.00  0.00     0.017 A 
ATOM     11  C   UNL A   1      32.388  23.200  23.032  1.00  0.00     0.013 A 
ATOM     12  C   UNL A   1      30.962  23.675  24.918  1.00  0.00     0.013 A 
ATOM     13  C   UNL A   1      32.619  21.918  23.541  1.00  0.00     0.014 A 
ATOM     14  C   UNL A   1      31.147  22.375  25.390  1.00  0.00     0.014 A 
BRANCH  10  15
ATOM     15  C   UNL A   1      31.457  25.479  23.338  1.00  0.00     0.134 A 
ATOM     16  C   UNL A   1      31.343  27.647  23.748  1.00  0.00     0.128 A 
ATOM     17  C   UNL A   1      31.363  27.476  22.368  1.00  0.00     0.051 A 
ATOM     18  O   UNL A   1      31.409  26.404  24.330  1.00  0.00    -0.457 OA
ATOM     19  C   UNL A   1      31.423  26.090  22.108  1.00  0.00     0.051 A 
BRANCH  16  20
ATOM     20  C   UNL A   1      31.289  28.843  24.508  1.00  0.00     0.065 C 
ATOM     21  O   UNL A   1      35.188  29.303  27.667  1.00  0.00    -0.261 OA
ATOM     22  C   UNL A   1      34.161  29.396  27.022  1.00  0.00     0.289 C 
ATOM     23  N   UNL A   1      33.279  30.429  27.072  1.00  0.00    -0.307 N 
ATOM     24  S   UNL A   1      33.595  28.210  25.876  1.00  0.00    -0.025 SA
ATOM     25  C   UNL A   1      32.176  30.398  26.260  1.00  0.00     0.120 C 
ATOM     26  H   UNL A   1      33.430  31.188  27.681  1.00  0.00     0.171 HD
ATOM     27  C   UNL A   1      32.197  29.147  25.445  1.00  0.00     0.056 C 
ATOM     28  S   UNL A   1      31.069  31.644  26.298  1.00  0.00    -0.059 S 
ENDBRANCH  16  20
ENDBRANCH  10  15
ENDBRANCH   6   9
ENDBRANCH   4   5
ENDBRANCH   3   4
ENDBRANCH   2   3
ENDBRANCH   1   2
BRANCH   1  29
ATOM     29  C   UNL A   1      35.851  23.318  24.690  1.00  0.00     0.021 C 
BRANCH  29  30
ATOM     30  C   UNL A   1      37.316  23.711  24.845  1.00  0.00     0.116 C 
BRANCH  30  31
ATOM     31  N   UNL A   1      38.073  22.671  25.525  1.00  0.00    -0.352 N 
ATOM     32  C   UNL A   1      39.175  22.788  26.330  1.00  0.00     0.251 C 
ATOM     33  H   UNL A   1      37.746  21.752  25.387  1.00  0.00     0.163 HD
ATOM     34  O   UNL A   1      39.845  21.796  26.601  1.00  0.00    -0.269 OA
BRANCH  32  35
ATOM     35  C   UNL A   1      39.555  24.113  26.865  1.00  0.00     0.039 A 
ATOM     36  C   UNL A   1      39.254  24.418  28.193  1.00  0.00     0.014 A 
ATOM     37  C   UNL A   1      40.190  25.055  26.050  1.00  0.00     0.014 A 
ATOM     38  C   UNL A   1      39.626  25.658  28.715  1.00  0.00     0.010 A 
ATOM     39  C   UNL A   1      40.635  26.255  26.597  1.00  0.00     0.010 A 
ATOM     40  C   UNL A   1      40.344  26.576  27.929  1.00  0.00    -0.014 A 
BRANCH  40  41
ATOM     41  C   UNL A   1      40.791  27.874  28.493  1.00  0.00     0.031 A 
ATOM     42  C   UNL A   1      42.257  28.164  28.675  1.00  0.00     0.074 A 
ATOM     43  C   UNL A   1      39.870  28.773  28.895  1.00  0.00     0.049 A 
ATOM     44  N   UNL A   1      42.830  29.236  29.157  1.00  0.00    -0.248 NA
ATOM     45  C   UNL A   1      43.203  27.104  28.286  1.00  0.00     0.031 C 
ATOM     46  C   UNL A   1      38.420  28.575  28.848  1.00  0.00     0.029 A 
ATOM     47  N   UNL A   1      40.017  30.024  29.439  1.00  0.00    -0.354 N 
ATOM     48  C   UNL A   1      44.195  28.971  29.155  1.00  0.00     0.074 A 
ATOM     49  C   UNL A   1      44.362  27.620  28.667  1.00  0.00     0.031 C 
ATOM     50  C   UNL A   1      37.811  29.670  29.329  1.00  0.00     0.029 A 
ATOM     51  C   UNL A   1      38.824  30.632  29.751  1.00  0.00     0.049 A 
ATOM     52  H   UNL A   1      40.893  30.446  29.591  1.00  0.00     0.167 HD
ATOM     53  C   UNL A   1      45.220  29.788  29.497  1.00  0.00     0.034 A 
ATOM     54  C   UNL A   1      38.573  31.826  30.322  1.00  0.00     0.034 A 
ATOM     55  C   UNL A   1      45.050  31.139  29.961  1.00  0.00     0.049 A 
ATOM     56  C   UNL A   1      39.729  32.723  30.672  1.00  0.00     0.074 A 
ATOM     57  C   UNL A   1      46.025  32.074  30.265  1.00  0.00     0.029 A 
ATOM     58  N   UNL A   1      43.827  31.746  30.199  1.00  0.00    -0.354 N 
ATOM     59  N   UNL A   1      41.013  32.513  30.521  1.00  0.00    -0.248 NA
ATOM     60  C   UNL A   1      39.399  34.040  31.235  1.00  0.00     0.031 C 
ATOM     61  C   UNL A   1      45.390  33.233  30.724  1.00  0.00     0.029 A 
ATOM     62  C   UNL A   1      44.020  33.038  30.659  1.00  0.00     0.049 A 
ATOM     63  H   UNL A   1      42.949  31.322  30.063  1.00  0.00     0.167 HD
ATOM     64  C   UNL A   1      41.643  33.681  30.932  1.00  0.00     0.074 A 
ATOM     65  C   UNL A   1      40.595  34.605  31.316  1.00  0.00     0.031 C 
ATOM     66  C   UNL A   1      42.968  33.962  30.997  1.00  0.00     0.034 A 
BRANCH  53  67
ATOM     67  C   UNL A   1      46.622  29.255  29.344  1.00  0.00     0.023 A 
ATOM     68  C   UNL A   1      47.248  28.611  30.431  1.00  0.00     0.012 A 
ATOM     69  C   UNL A   1      47.301  29.344  28.112  1.00  0.00     0.148 A 
ATOM     70  C   UNL A   1      48.539  28.098  30.308  1.00  0.00     0.002 A 
ATOM     71  C   UNL A   1      48.568  28.786  27.983  1.00  0.00     0.091 A 
ATOM     72  F   UNL A   1      46.699  29.977  27.094  1.00  0.00    -0.205 F 
ATOM     73  C   UNL A   1      49.193  28.176  29.082  1.00  0.00     0.022 A 
BRANCH  71  74
ATOM     74  S   UNL A   1      49.462  28.759  26.426  1.00  0.00     0.127 S 
ATOM     75  O   UNL A   1      50.476  27.738  26.687  1.00  0.00    -0.237 OA
ATOM     76  O   UNL A   1      48.420  28.356  25.481  1.00  0.00    -0.237 OA
ATOM     77  O   UNL A   1      49.975  30.108  26.231  1.00  0.00    -0.744 OA
ENDBRANCH  71  74
ENDBRANCH  53  67
BRANCH  54  78
ATOM     78  C   UNL A   1      37.167  32.262  30.557  1.00  0.00     0.023 A 
ATOM     79  C   UNL A   1      36.590  32.103  31.833  1.00  0.00     0.012 A 
ATOM     80  C   UNL A   1      36.405  32.844  29.527  1.00  0.00     0.148 A 
ATOM     81  C   UNL A   1      35.266  32.476  32.065  1.00  0.00     0.002 A 
ATOM     82  C   UNL A   1      35.107  33.270  29.781  1.00  0.00     0.091 A 
ATOM     83  F   UNL A   1      36.970  32.980  28.319  1.00  0.00    -0.205 F 
ATOM     84  C   UNL A   1      34.528  33.068  31.043  1.00  0.00     0.022 A 
BRANCH  82  85
ATOM     85  S   UNL A   1      34.132  34.159  28.564  1.00  0.00     0.127 S 
ATOM     86  O   UNL A   1      34.954  35.343  28.327  1.00  0.00    -0.237 OA
ATOM     87  O   UNL A   1      34.090  33.205  27.455  1.00  0.00    -0.237 OA
ATOM     88  O   UNL A   1      32.841  34.403  29.194  1.00  0.00    -0.744 OA
ENDBRANCH  82  85
ENDBRANCH  54  78
BRANCH  66  89
ATOM     89  C   UNL A   1      43.366  35.342  31.457  1.00  0.00     0.023 A 
ATOM     90  C   UNL A   1      43.646  36.351  30.514  1.00  0.00     0.012 A 
ATOM     91  C   UNL A   1      43.407  35.649  32.831  1.00  0.00     0.148 A 
ATOM     92  C   UNL A   1      44.006  37.631  30.933  1.00  0.00     0.002 A 
ATOM     93  C   UNL A   1      43.711  36.942  33.239  1.00  0.00     0.091 A 
ATOM     94  F   UNL A   1      43.154  34.672  33.714  1.00  0.00    -0.205 F 
ATOM     95  C   UNL A   1      44.027  37.930  32.293  1.00  0.00     0.022 A 
BRANCH  93  96
ATOM     96  S   UNL A   1      43.665  37.443  34.963  1.00  0.00     0.127 S 
ATOM     97  O   UNL A   1      44.756  36.653  35.532  1.00  0.00    -0.237 OA
ATOM     98  O   UNL A   1      43.933  38.880  34.874  1.00  0.00    -0.237 OA
ATOM     99  O   UNL A   1      42.332  37.106  35.445  1.00  0.00    -0.744 OA
ENDBRANCH  93  96
ENDBRANCH  66  89
ENDBRANCH  40  41
ENDBRANCH  32  35
ENDBRANCH  30  31
ENDBRANCH  29  30
ENDBRANCH   1  29
TORSDOF 18
ENDMDL
MODEL 3
REMARK VINA RESULT:     -11.4      3.378      8.251
REMARK SMILES O=C1NC(=S)/C(=C/c2ccc(-c3ccc(C(=O)NCCCCCCNC(=O)c4ccc(-c5c6nc(c(-c7cccc(S(=O)(=O)[O-])c7F)c7ccc([nH]7)c(-c7cccc(S(=O)(=O)[O-])c7F)c7nc(c(-c8cccc(S(=O)(=O)[O-])c8F)c8ccc5[nH]8)C=C7)C=C6)cc4)cc3)o2)S1
REMARK SMILES IDX 22 1 21 2 20 3 19 4 18 5 16 6 17 7 15 9 12 10 13 11 92 12
REMARK SMILES IDX 14 13 91 14 11 15 8 16 9 17 93 18 10 19 7 20 1 21 2 22 3 23
REMARK SMILES IDX 94 24 4 25 6 27 5 28 23 29 24 30 25 31 26 32 27 34 28 35
REMARK SMILES IDX 29 36 90 37 30 38 89 39 31 40 32 41 33 42 83 43 34 44 88 45
REMARK SMILES IDX 82 46 84 47 35 48 87 49 81 50 80 51 36 53 68 54 48 55 67 56
REMARK SMILES IDX 49 57 52 58 66 59 85 60 50 61 51 62 65 64 86 65 53 66 37 67
REMARK SMILES IDX 38 68 46 69 39 70 41 71 47 72 40 73 42 74 43 75 44 76 45 77
REMARK SMILES IDX 69 78 70 79 78 80 71 81 73 82 79 83 72 84 74 85 75 86 76 87
REMARK SMILES IDX 77 88 54 89 55 90 63 91 56 92 58 93 64 94 57 95 59 96 60 97
REMARK SMILES IDX 61 98 62 99
REMARK H PARENT 18 8 3 26 25 33 84 52 52 63
REMARK Flexibility Score: inf
ROOT
ATOM      1  C   UNL A   1      37.103  20.996  24.719  1.00  0.00     0.002 C 
ENDROOT
BRANCH   1   2
ATOM      2  C   UNL A   1      35.737  20.753  25.372  1.00  0.00     0.002 C 
BRANCH   2   3
ATOM      3  C   UNL A   1      35.379  21.757  26.475  1.00  0.00     0.021 C 
BRANCH   3   4
ATOM      4  C   UNL A   1      34.132  21.348  27.264  1.00  0.00     0.116 C 
BRANCH   4   5
ATOM      5  N   UNL A   1      33.473  20.242  26.594  1.00  0.00    -0.352 N 
ATOM      6  C   UNL A   1      32.623  20.189  25.518  1.00  0.00     0.251 C 
ATOM      7  O   UNL A   1      32.191  19.085  25.182  1.00  0.00    -0.269 OA
ATOM      8  H   UNL A   1      33.673  19.362  26.986  1.00  0.00     0.163 HD
BRANCH   6   9
ATOM      9  C   UNL A   1      32.276  21.384  24.703  1.00  0.00     0.039 A 
ATOM     10  C   UNL A   1      31.940  23.705  23.152  1.00  0.00     0.017 A 
ATOM     11  C   UNL A   1      32.705  22.644  22.663  1.00  0.00     0.013 A 
ATOM     12  C   UNL A   1      31.273  23.563  24.371  1.00  0.00     0.013 A 
ATOM     13  C   UNL A   1      32.882  21.496  23.441  1.00  0.00     0.014 A 
ATOM     14  C   UNL A   1      31.404  22.392  25.117  1.00  0.00     0.014 A 
BRANCH  10  15
ATOM     15  C   UNL A   1      31.855  24.964  22.449  1.00  0.00     0.134 A 
ATOM     16  C   UNL A   1      31.139  27.043  22.227  1.00  0.00     0.128 A 
ATOM     17  C   UNL A   1      32.051  26.796  21.207  1.00  0.00     0.051 A 
ATOM     18  O   UNL A   1      31.036  25.903  22.989  1.00  0.00    -0.457 OA
ATOM     19  C   UNL A   1      32.498  25.465  21.343  1.00  0.00     0.051 A 
BRANCH  16  20
ATOM     20  C   UNL A   1      30.415  28.226  22.525  1.00  0.00     0.065 C 
ATOM     21  O   UNL A   1      32.321  30.719  26.468  1.00  0.00    -0.261 OA
ATOM     22  C   UNL A   1      31.676  30.286  25.531  1.00  0.00     0.289 C 
ATOM     23  N   UNL A   1      30.583  30.875  24.976  1.00  0.00    -0.307 N 
ATOM     24  S   UNL A   1      32.024  28.802  24.686  1.00  0.00    -0.025 SA
ATOM     25  C   UNL A   1      29.980  30.271  23.903  1.00  0.00     0.120 C 
ATOM     26  H   UNL A   1      30.231  31.720  25.338  1.00  0.00     0.171 HD
ATOM     27  C   UNL A   1      30.715  29.017  23.563  1.00  0.00     0.056 C 
ATOM     28  S   UNL A   1      28.635  30.959  23.200  1.00  0.00    -0.059 S 
ENDBRANCH  16  20
ENDBRANCH  10  15
ENDBRANCH   6   9
ENDBRANCH   4   5
ENDBRANCH   3   4
ENDBRANCH   2   3
ENDBRANCH   1   2
BRANCH   1  29
ATOM     29  C   UNL A   1      38.137  19.896  24.977  1.00  0.00     0.021 C 
BRANCH  29  30
ATOM     30  C   UNL A   1      39.225  20.294  25.968  1.00  0.00     0.116 C 
BRANCH  30  31
ATOM     31  N   UNL A   1      40.272  19.285  26.035  1.00  0.00    -0.352 N 
ATOM     32  C   UNL A   1      41.633  19.450  26.060  1.00  0.00     0.251 C 
ATOM     33  H   UNL A   1      39.959  18.352  26.067  1.00  0.00     0.163 HD
ATOM     34  O   UNL A   1      42.370  18.493  25.846  1.00  0.00    -0.269 OA
BRANCH  32  35
ATOM     35  C   UNL A   1      42.204  20.784  26.341  1.00  0.00     0.039 A 
ATOM     36  C   UNL A   1      42.488  21.638  25.274  1.00  0.00     0.014 A 
ATOM     37  C   UNL A   1      42.475  21.181  27.654  1.00  0.00     0.014 A 
ATOM     38  C   UNL A   1      43.008  22.908  25.530  1.00  0.00     0.010 A 
ATOM     39  C   UNL A   1      42.912  22.477  27.910  1.00  0.00     0.010 A 
ATOM     40  C   UNL A   1      43.199  23.348  26.850  1.00  0.00    -0.014 A 
BRANCH  40  41
ATOM     41  C   UNL A   1      43.700  24.717  27.131  1.00  0.00     0.031 A 
ATOM     42  C   UNL A   1      42.767  25.782  27.642  1.00  0.00     0.074 A 
ATOM     43  C   UNL A   1      44.988  25.015  26.871  1.00  0.00     0.049 A 
ATOM     44  N   UNL A   1      43.025  27.030  27.935  1.00  0.00    -0.248 NA
ATOM     45  C   UNL A   1      41.356  25.405  27.828  1.00  0.00     0.031 C 
ATOM     46  C   UNL A   1      45.971  24.093  26.297  1.00  0.00     0.029 A 
ATOM     47  N   UNL A   1      45.689  26.183  27.039  1.00  0.00    -0.354 N 
ATOM     48  C   UNL A   1      41.811  27.592  28.311  1.00  0.00     0.074 A 
ATOM     49  C   UNL A   1      40.807  26.562  28.167  1.00  0.00     0.031 C 
ATOM     50  C   UNL A   1      47.148  24.725  26.173  1.00  0.00     0.029 A 
ATOM     51  C   UNL A   1      46.998  26.104  26.624  1.00  0.00     0.049 A 
ATOM     52  H   UNL A   1      45.293  26.999  27.420  1.00  0.00     0.167 HD
ATOM     53  C   UNL A   1      41.557  28.842  28.767  1.00  0.00     0.034 A 
ATOM     54  C   UNL A   1      47.967  27.041  26.601  1.00  0.00     0.034 A 
ATOM     55  C   UNL A   1      42.564  29.857  28.931  1.00  0.00     0.049 A 
ATOM     56  C   UNL A   1      47.664  28.414  27.134  1.00  0.00     0.074 A 
ATOM     57  C   UNL A   1      42.423  31.131  29.452  1.00  0.00     0.029 A 
ATOM     58  N   UNL A   1      43.894  29.719  28.565  1.00  0.00    -0.354 N 
ATOM     59  N   UNL A   1      46.544  28.881  27.628  1.00  0.00    -0.248 NA
ATOM     60  C   UNL A   1      48.772  29.381  27.143  1.00  0.00     0.031 C 
ATOM     61  C   UNL A   1      43.661  31.777  29.366  1.00  0.00     0.029 A 
ATOM     62  C   UNL A   1      44.583  30.889  28.837  1.00  0.00     0.049 A 
ATOM     63  H   UNL A   1      44.290  28.910  28.170  1.00  0.00     0.167 HD
ATOM     64  C   UNL A   1      46.820  30.179  28.042  1.00  0.00     0.074 A 
ATOM     65  C   UNL A   1      48.222  30.415  27.762  1.00  0.00     0.031 C 
ATOM     66  C   UNL A   1      45.987  31.096  28.593  1.00  0.00     0.034 A 
BRANCH  53  67
ATOM     67  C   UNL A   1      40.139  29.170  29.161  1.00  0.00     0.023 A 
ATOM     68  C   UNL A   1      39.190  29.479  28.165  1.00  0.00     0.012 A 
ATOM     69  C   UNL A   1      39.732  29.122  30.510  1.00  0.00     0.148 A 
ATOM     70  C   UNL A   1      37.870  29.772  28.504  1.00  0.00     0.002 A 
ATOM     71  C   UNL A   1      38.402  29.366  30.836  1.00  0.00     0.091 A 
ATOM     72  F   UNL A   1      40.651  28.845  31.446  1.00  0.00    -0.205 F 
ATOM     73  C   UNL A   1      37.474  29.705  29.837  1.00  0.00     0.022 A 
BRANCH  71  74
ATOM     74  S   UNL A   1      37.772  29.223  32.511  1.00  0.00     0.127 S 
ATOM     75  O   UNL A   1      38.738  30.030  33.258  1.00  0.00    -0.237 OA
ATOM     76  O   UNL A   1      36.443  29.821  32.390  1.00  0.00    -0.237 OA
ATOM     77  O   UNL A   1      37.777  27.802  32.824  1.00  0.00    -0.744 OA
ENDBRANCH  71  74
ENDBRANCH  53  67
BRANCH  54  78
ATOM     78  C   UNL A   1      49.326  26.698  26.095  1.00  0.00     0.023 A 
ATOM     79  C   UNL A   1      50.195  25.928  26.894  1.00  0.00     0.012 A 
ATOM     80  C   UNL A   1      49.756  27.119  24.822  1.00  0.00     0.148 A 
ATOM     81  C   UNL A   1      51.483  25.622  26.452  1.00  0.00     0.002 A 
ATOM     82  C   UNL A   1      51.016  26.759  24.363  1.00  0.00     0.091 A 
ATOM     83  F   UNL A   1      48.916  27.856  24.081  1.00  0.00    -0.205 F 
ATOM     84  C   UNL A   1      51.889  26.029  25.183  1.00  0.00     0.022 A 
BRANCH  82  85
ATOM     85  S   UNL A   1      51.572  27.126  22.695  1.00  0.00     0.127 S 
ATOM     86  O   UNL A   1      51.723  28.577  22.742  1.00  0.00    -0.237 OA
ATOM     87  O   UNL A   1      52.827  26.377  22.625  1.00  0.00    -0.237 OA
ATOM     88  O   UNL A   1      50.527  26.628  21.811  1.00  0.00    -0.744 OA
ENDBRANCH  82  85
ENDBRANCH  54  78
BRANCH  66  89
ATOM     89  C   UNL A   1      46.578  32.429  28.978  1.00  0.00     0.023 A 
ATOM     90  C   UNL A   1      47.216  32.590  30.224  1.00  0.00     0.012 A 
ATOM     91  C   UNL A   1      46.546  33.510  28.074  1.00  0.00     0.148 A 
ATOM     92  C   UNL A   1      47.771  33.818  30.583  1.00  0.00     0.002 A 
ATOM     93  C   UNL A   1      47.151  34.712  28.415  1.00  0.00     0.091 A 
ATOM     94  F   UNL A   1      45.920  33.343  26.900  1.00  0.00    -0.205 F 
ATOM     95  C   UNL A   1      47.749  34.874  29.675  1.00  0.00     0.022 A 
BRANCH  93  96
ATOM     96  S   UNL A   1      47.261  36.093  27.273  1.00  0.00     0.127 S 
ATOM     97  O   UNL A   1      45.858  36.292  26.911  1.00  0.00    -0.237 OA
ATOM     98  O   UNL A   1      47.829  37.147  28.116  1.00  0.00    -0.237 OA
ATOM     99  O   UNL A   1      48.128  35.652  26.189  1.00  0.00    -0.744 OA
ENDBRANCH  93  96
ENDBRANCH  66  89
ENDBRANCH  40  41
ENDBRANCH  32  35
ENDBRANCH  30  31
ENDBRANCH  29  30
ENDBRANCH   1  29
TORSDOF 18
ENDMDL
