MODEL 1
REMARK VINA RESULT:     -11.7      0.000      0.000
REMARK SMILES O=C(Cc1ccc(=O)n(C(F)F)c1)NCCCCCCNC(=O)c1ccc(-c2c3nc(c(-c4cccc(S(=O)(=O)[O-])c4F)c4ccc([nH]4)c(-c4cccc(S(=O)(=O)[O-])c4F)c4nc(c(-c5cccc(S(=O)(=O)[O-])c5F)c5ccc2[nH]5)C=C4)C=C3)cc1
REMARK SMILES IDX 18 1 17 2 16 3 15 4 14 5 1 6 2 7 3 9 4 10 5 11 13 12 6 13
REMARK SMILES IDX 9 14 7 15 8 16 10 17 11 18 12 19 19 20 20 21 21 22 22 23
REMARK SMILES IDX 23 25 24 26 25 27 86 28 26 29 85 30 27 31 28 32 29 33 79 34
REMARK SMILES IDX 30 35 84 36 78 37 80 38 31 39 83 40 77 41 76 42 32 44 64 45
REMARK SMILES IDX 44 46 63 47 45 48 48 49 62 50 81 51 46 52 47 53 61 55 82 56
REMARK SMILES IDX 49 57 33 58 34 59 42 60 35 61 37 62 43 63 36 64 38 65 39 66
REMARK SMILES IDX 40 67 41 68 65 69 66 70 74 71 67 72 69 73 75 74 68 75 70 76
REMARK SMILES IDX 71 77 72 78 73 79 50 80 51 81 59 82 52 83 54 84 60 85 53 86
REMARK SMILES IDX 55 87 56 88 57 89 58 90
REMARK H PARENT 14 8 21 24 80 43 48 54
REMARK Flexibility Score: inf
ROOT
ATOM      1  C   UNL A   1      35.913  23.413  23.858  1.00  0.00     0.002 C 
ENDROOT
BRANCH   1   2
ATOM      2  C   UNL A   1      35.579  24.092  25.189  1.00  0.00     0.002 C 
BRANCH   2   3
ATOM      3  C   UNL A   1      34.124  24.545  25.368  1.00  0.00     0.021 C 
BRANCH   3   4
ATOM      4  C   UNL A   1      33.218  23.562  26.105  1.00  0.00     0.116 C 
BRANCH   4   5
ATOM      5  N   UNL A   1      32.880  22.408  25.298  1.00  0.00    -0.356 N 
ATOM      6  O   UNL A   1      33.611  20.854  26.826  1.00  0.00    -0.275 OA
ATOM      7  C   UNL A   1      33.074  21.122  25.757  1.00  0.00     0.224 C 
ATOM      8  H   UNL A   1      32.503  22.545  24.398  1.00  0.00     0.163 HD
BRANCH   7   9
ATOM      9  C   UNL A   1      32.487  20.050  24.847  1.00  0.00     0.137 C 
BRANCH   9  10
ATOM     10  C   UNL A   1      33.140  18.693  24.997  1.00  0.00    -0.022 A 
ATOM     11  C   UNL A   1      34.513  18.594  24.537  1.00  0.00     0.011 A 
ATOM     12  C   UNL A   1      32.559  17.590  25.504  1.00  0.00     0.099 A 
ATOM     13  C   UNL A   1      35.180  17.435  24.590  1.00  0.00     0.072 A 
ATOM     14  N   UNL A   1      33.220  16.374  25.560  1.00  0.00    -0.258 N 
ATOM     15  C   UNL A   1      34.521  16.207  25.113  1.00  0.00     0.254 A 
ATOM     16  O   UNL A   1      35.154  15.158  25.109  1.00  0.00    -0.269 OA
BRANCH  14  17
ATOM     17  C   UNL A   1      32.540  15.199  26.044  1.00  0.00     0.451 C 
ATOM     18  F   UNL A   1      31.242  15.207  25.653  1.00  0.00    -0.185 F 
ATOM     19  F   UNL A   1      33.114  14.066  25.574  1.00  0.00    -0.185 F 
ENDBRANCH  14  17
ENDBRANCH   9  10
ENDBRANCH   7   9
ENDBRANCH   4   5
ENDBRANCH   3   4
ENDBRANCH   2   3
ENDBRANCH   1   2
BRANCH   1  20
ATOM     20  C   UNL A   1      36.618  22.060  23.964  1.00  0.00     0.021 C 
BRANCH  20  21
ATOM     21  C   UNL A   1      36.868  21.556  25.381  1.00  0.00     0.116 C 
BRANCH  21  22
ATOM     22  N   UNL A   1      37.916  20.550  25.464  1.00  0.00    -0.352 N 
ATOM     23  C   UNL A   1      39.194  20.683  25.963  1.00  0.00     0.251 C 
ATOM     24  H   UNL A   1      37.682  19.658  25.120  1.00  0.00     0.163 HD
ATOM     25  O   UNL A   1      39.990  19.753  25.876  1.00  0.00    -0.269 OA
BRANCH  23  26
ATOM     26  C   UNL A   1      39.607  21.973  26.560  1.00  0.00     0.039 A 
ATOM     27  C   UNL A   1      39.095  23.177  26.070  1.00  0.00     0.014 A 
ATOM     28  C   UNL A   1      40.567  21.980  27.575  1.00  0.00     0.014 A 
ATOM     29  C   UNL A   1      39.670  24.380  26.467  1.00  0.00     0.010 A 
ATOM     30  C   UNL A   1      41.088  23.196  28.029  1.00  0.00     0.010 A 
ATOM     31  C   UNL A   1      40.687  24.404  27.436  1.00  0.00    -0.014 A 
BRANCH  31  32
ATOM     32  C   UNL A   1      41.325  25.698  27.797  1.00  0.00     0.031 A 
ATOM     33  C   UNL A   1      42.714  26.036  27.320  1.00  0.00     0.074 A 
ATOM     34  C   UNL A   1      40.626  26.598  28.517  1.00  0.00     0.049 A 
ATOM     35  N   UNL A   1      43.399  27.134  27.509  1.00  0.00    -0.248 NA
ATOM     36  C   UNL A   1      43.427  25.017  26.532  1.00  0.00     0.031 C 
ATOM     37  C   UNL A   1      39.281  26.385  29.053  1.00  0.00     0.029 A 
ATOM     38  N   UNL A   1      40.943  27.875  28.908  1.00  0.00    -0.354 N 
ATOM     39  C   UNL A   1      44.633  26.926  26.903  1.00  0.00     0.074 A 
ATOM     40  C   UNL A   1      44.607  25.594  26.340  1.00  0.00     0.031 C 
ATOM     41  C   UNL A   1      38.870  27.507  29.664  1.00  0.00     0.029 A 
ATOM     42  C   UNL A   1      39.937  28.500  29.605  1.00  0.00     0.049 A 
ATOM     43  H   UNL A   1      41.808  28.301  28.710  1.00  0.00     0.167 HD
ATOM     44  C   UNL A   1      45.684  27.774  26.805  1.00  0.00     0.034 A 
ATOM     45  C   UNL A   1      39.875  29.735  30.140  1.00  0.00     0.034 A 
ATOM     46  C   UNL A   1      45.694  29.119  27.309  1.00  0.00     0.049 A 
ATOM     47  C   UNL A   1      41.046  30.663  29.998  1.00  0.00     0.074 A 
ATOM     48  C   UNL A   1      46.701  30.064  27.209  1.00  0.00     0.029 A 
ATOM     49  N   UNL A   1      44.650  29.716  27.997  1.00  0.00    -0.354 N 
ATOM     50  N   UNL A   1      42.170  30.469  29.354  1.00  0.00    -0.248 NA
ATOM     51  C   UNL A   1      40.937  31.980  30.641  1.00  0.00     0.031 C 
ATOM     52  C   UNL A   1      46.264  31.234  27.837  1.00  0.00     0.029 A 
ATOM     53  C   UNL A   1      44.987  31.017  28.326  1.00  0.00     0.049 A 
ATOM     54  H   UNL A   1      43.796  29.279  28.218  1.00  0.00     0.167 HD
ATOM     55  C   UNL A   1      42.901  31.640  29.507  1.00  0.00     0.074 A 
ATOM     56  C   UNL A   1      42.083  32.549  30.284  1.00  0.00     0.031 C 
ATOM     57  C   UNL A   1      44.147  31.926  29.059  1.00  0.00     0.034 A 
BRANCH  44  58
ATOM     58  C   UNL A   1      46.909  27.302  26.071  1.00  0.00     0.023 A 
ATOM     59  C   UNL A   1      47.034  27.585  24.697  1.00  0.00     0.012 A 
ATOM     60  C   UNL A   1      47.975  26.687  26.756  1.00  0.00     0.148 A 
ATOM     61  C   UNL A   1      48.203  27.256  24.011  1.00  0.00     0.002 A 
ATOM     62  C   UNL A   1      49.147  26.387  26.071  1.00  0.00     0.091 A 
ATOM     63  F   UNL A   1      47.824  26.419  28.061  1.00  0.00    -0.205 F 
ATOM     64  C   UNL A   1      49.261  26.667  24.699  1.00  0.00     0.022 A 
BRANCH  62  65
ATOM     65  S   UNL A   1      50.589  25.677  26.874  1.00  0.00     0.127 S 
ATOM     66  O   UNL A   1      50.038  24.439  27.426  1.00  0.00    -0.237 OA
ATOM     67  O   UNL A   1      51.504  25.486  25.747  1.00  0.00    -0.237 OA
ATOM     68  O   UNL A   1      51.026  26.655  27.859  1.00  0.00    -0.744 OA
ENDBRANCH  62  65
ENDBRANCH  44  58
BRANCH  45  69
ATOM     69  C   UNL A   1      38.620  30.171  30.810  1.00  0.00     0.023 A 
ATOM     70  C   UNL A   1      38.469  29.955  32.192  1.00  0.00     0.012 A 
ATOM     71  C   UNL A   1      37.624  30.875  30.105  1.00  0.00     0.148 A 
ATOM     72  C   UNL A   1      37.342  30.431  32.863  1.00  0.00     0.002 A 
ATOM     73  C   UNL A   1      36.527  31.385  30.788  1.00  0.00     0.091 A 
ATOM     74  F   UNL A   1      37.792  31.058  28.788  1.00  0.00    -0.205 F 
ATOM     75  C   UNL A   1      36.380  31.156  32.165  1.00  0.00     0.022 A 
BRANCH  73  76
ATOM     76  S   UNL A   1      35.300  32.432  29.999  1.00  0.00     0.127 S 
ATOM     77  O   UNL A   1      34.366  32.675  31.096  1.00  0.00    -0.237 OA
ATOM     78  O   UNL A   1      36.104  33.590  29.606  1.00  0.00    -0.237 OA
ATOM     79  O   UNL A   1      34.773  31.656  28.885  1.00  0.00    -0.744 OA
ENDBRANCH  73  76
ENDBRANCH  45  69
BRANCH  57  80
ATOM     80  C   UNL A   1      44.723  33.275  29.389  1.00  0.00     0.023 A 
ATOM     81  C   UNL A   1      45.511  33.417  30.547  1.00  0.00     0.012 A 
ATOM     82  C   UNL A   1      44.591  34.356  28.497  1.00  0.00     0.148 A 
ATOM     83  C   UNL A   1      46.157  34.622  30.817  1.00  0.00     0.002 A 
ATOM     84  C   UNL A   1      45.263  35.543  28.756  1.00  0.00     0.091 A 
ATOM     85  F   UNL A   1      43.827  34.194  27.408  1.00  0.00    -0.205 F 
ATOM     86  C   UNL A   1      46.043  35.679  29.917  1.00  0.00     0.022 A 
BRANCH  84  87
ATOM     87  S   UNL A   1      45.238  36.938  27.624  1.00  0.00     0.127 S 
ATOM     88  O   UNL A   1      43.807  37.083  27.362  1.00  0.00    -0.237 OA
ATOM     89  O   UNL A   1      45.822  38.006  28.436  1.00  0.00    -0.237 OA
ATOM     90  O   UNL A   1      46.041  36.540  26.476  1.00  0.00    -0.744 OA
ENDBRANCH  84  87
ENDBRANCH  57  80
ENDBRANCH  31  32
ENDBRANCH  23  26
ENDBRANCH  21  22
ENDBRANCH  20  21
ENDBRANCH   1  20
TORSDOF 18
ENDMDL
MODEL 2
REMARK VINA RESULT:     -11.5      1.828      2.116
REMARK SMILES O=C(Cc1ccc(=O)n(C(F)F)c1)NCCCCCCNC(=O)c1ccc(-c2c3nc(c(-c4cccc(S(=O)(=O)[O-])c4F)c4ccc([nH]4)c(-c4cccc(S(=O)(=O)[O-])c4F)c4nc(c(-c5cccc(S(=O)(=O)[O-])c5F)c5ccc2[nH]5)C=C4)C=C3)cc1
REMARK SMILES IDX 18 1 17 2 16 3 15 4 14 5 1 6 2 7 3 9 4 10 5 11 13 12 6 13
REMARK SMILES IDX 9 14 7 15 8 16 10 17 11 18 12 19 19 20 20 21 21 22 22 23
REMARK SMILES IDX 23 25 24 26 25 27 86 28 26 29 85 30 27 31 28 32 29 33 79 34
REMARK SMILES IDX 30 35 84 36 78 37 80 38 31 39 83 40 77 41 76 42 32 44 64 45
REMARK SMILES IDX 44 46 63 47 45 48 48 49 62 50 81 51 46 52 47 53 61 55 82 56
REMARK SMILES IDX 49 57 33 58 34 59 42 60 35 61 37 62 43 63 36 64 38 65 39 66
REMARK SMILES IDX 40 67 41 68 65 69 66 70 74 71 67 72 69 73 75 74 68 75 70 76
REMARK SMILES IDX 71 77 72 78 73 79 50 80 51 81 59 82 52 83 54 84 60 85 53 86
REMARK SMILES IDX 55 87 56 88 57 89 58 90
REMARK H PARENT 14 8 21 24 80 43 48 54
REMARK Flexibility Score: inf
ROOT
ATOM      1  C   UNL A   1      35.811  23.297  23.839  1.00  0.00     0.002 C 
ENDROOT
BRANCH   1   2
ATOM      2  C   UNL A   1      35.471  24.009  25.150  1.00  0.00     0.002 C 
BRANCH   2   3
ATOM      3  C   UNL A   1      34.031  24.521  25.287  1.00  0.00     0.021 C 
BRANCH   3   4
ATOM      4  C   UNL A   1      33.073  23.589  26.022  1.00  0.00     0.116 C 
BRANCH   4   5
ATOM      5  N   UNL A   1      32.744  22.408  25.249  1.00  0.00    -0.356 N 
ATOM      6  O   UNL A   1      33.688  20.916  26.721  1.00  0.00    -0.275 OA
ATOM      7  C   UNL A   1      33.053  21.140  25.697  1.00  0.00     0.224 C 
ATOM      8  H   UNL A   1      32.289  22.514  24.382  1.00  0.00     0.163 HD
BRANCH   7   9
ATOM      9  C   UNL A   1      32.463  20.027  24.840  1.00  0.00     0.137 C 
BRANCH   9  10
ATOM     10  C   UNL A   1      33.179  18.701  24.982  1.00  0.00    -0.022 A 
ATOM     11  C   UNL A   1      34.550  18.664  24.506  1.00  0.00     0.011 A 
ATOM     12  C   UNL A   1      32.654  17.573  25.494  1.00  0.00     0.099 A 
ATOM     13  C   UNL A   1      35.269  17.537  24.551  1.00  0.00     0.072 A 
ATOM     14  N   UNL A   1      33.370  16.388  25.541  1.00  0.00    -0.258 N 
ATOM     15  C   UNL A   1      34.671  16.280  25.080  1.00  0.00     0.254 A 
ATOM     16  O   UNL A   1      35.351  15.260  25.067  1.00  0.00    -0.269 OA
BRANCH  14  17
ATOM     17  C   UNL A   1      32.749  15.183  26.031  1.00  0.00     0.451 C 
ATOM     18  F   UNL A   1      31.568  15.468  26.633  1.00  0.00    -0.185 F 
ATOM     19  F   UNL A   1      32.508  14.307  25.027  1.00  0.00    -0.185 F 
ENDBRANCH  14  17
ENDBRANCH   9  10
ENDBRANCH   7   9
ENDBRANCH   4   5
ENDBRANCH   3   4
ENDBRANCH   2   3
ENDBRANCH   1   2
BRANCH   1  20
ATOM     20  C   UNL A   1      36.703  22.061  23.969  1.00  0.00     0.021 C 
BRANCH  20  21
ATOM     21  C   UNL A   1      36.979  21.594  25.394  1.00  0.00     0.116 C 
BRANCH  21  22
ATOM     22  N   UNL A   1      38.029  20.591  25.485  1.00  0.00    -0.352 N 
ATOM     23  C   UNL A   1      39.299  20.724  26.003  1.00  0.00     0.251 C 
ATOM     24  H   UNL A   1      37.803  19.701  25.130  1.00  0.00     0.163 HD
ATOM     25  O   UNL A   1      40.100  19.797  25.919  1.00  0.00    -0.269 OA
BRANCH  23  26
ATOM     26  C   UNL A   1      39.700  22.011  26.615  1.00  0.00     0.039 A 
ATOM     27  C   UNL A   1      39.149  23.212  26.164  1.00  0.00     0.014 A 
ATOM     28  C   UNL A   1      40.686  22.018  27.606  1.00  0.00     0.014 A 
ATOM     29  C   UNL A   1      39.708  24.420  26.570  1.00  0.00     0.010 A 
ATOM     30  C   UNL A   1      41.192  23.236  28.071  1.00  0.00     0.010 A 
ATOM     31  C   UNL A   1      40.749  24.446  27.514  1.00  0.00    -0.014 A 
BRANCH  31  32
ATOM     32  C   UNL A   1      41.368  25.746  27.885  1.00  0.00     0.031 A 
ATOM     33  C   UNL A   1      42.757  26.104  27.422  1.00  0.00     0.074 A 
ATOM     34  C   UNL A   1      40.653  26.635  28.602  1.00  0.00     0.049 A 
ATOM     35  N   UNL A   1      43.428  27.209  27.621  1.00  0.00    -0.248 NA
ATOM     36  C   UNL A   1      43.490  25.096  26.637  1.00  0.00     0.031 C 
ATOM     37  C   UNL A   1      39.305  26.405  29.125  1.00  0.00     0.029 A 
ATOM     38  N   UNL A   1      40.950  27.915  29.001  1.00  0.00    -0.354 N 
ATOM     39  C   UNL A   1      44.670  27.018  27.026  1.00  0.00     0.074 A 
ATOM     40  C   UNL A   1      44.664  25.688  26.458  1.00  0.00     0.031 C 
ATOM     41  C   UNL A   1      38.875  27.519  29.736  1.00  0.00     0.029 A 
ATOM     42  C   UNL A   1      39.931  28.525  29.690  1.00  0.00     0.049 A 
ATOM     43  H   UNL A   1      41.811  28.352  28.812  1.00  0.00     0.167 HD
ATOM     44  C   UNL A   1      45.711  27.878  26.941  1.00  0.00     0.034 A 
ATOM     45  C   UNL A   1      39.848  29.758  30.229  1.00  0.00     0.034 A 
ATOM     46  C   UNL A   1      45.700  29.222  27.450  1.00  0.00     0.049 A 
ATOM     47  C   UNL A   1      41.010  30.700  30.101  1.00  0.00     0.074 A 
ATOM     48  C   UNL A   1      46.696  30.179  27.362  1.00  0.00     0.029 A 
ATOM     49  N   UNL A   1      44.643  29.804  28.130  1.00  0.00    -0.354 N 
ATOM     50  N   UNL A   1      42.142  30.522  29.467  1.00  0.00    -0.248 NA
ATOM     51  C   UNL A   1      40.879  32.013  30.748  1.00  0.00     0.031 C 
ATOM     52  C   UNL A   1      46.240  31.342  27.990  1.00  0.00     0.029 A 
ATOM     53  C   UNL A   1      44.961  31.107  28.467  1.00  0.00     0.049 A 
ATOM     54  H   UNL A   1      43.792  29.356  28.342  1.00  0.00     0.167 HD
ATOM     55  C   UNL A   1      42.857  31.701  29.631  1.00  0.00     0.074 A 
ATOM     56  C   UNL A   1      42.021  32.597  30.404  1.00  0.00     0.031 C 
ATOM     57  C   UNL A   1      44.103  32.004  29.196  1.00  0.00     0.034 A 
BRANCH  44  58
ATOM     58  C   UNL A   1      46.948  27.424  26.216  1.00  0.00     0.023 A 
ATOM     59  C   UNL A   1      47.837  26.545  26.863  1.00  0.00     0.012 A 
ATOM     60  C   UNL A   1      47.170  27.774  24.870  1.00  0.00     0.148 A 
ATOM     61  C   UNL A   1      48.936  26.022  26.182  1.00  0.00     0.002 A 
ATOM     62  C   UNL A   1      48.252  27.227  24.189  1.00  0.00     0.091 A 
ATOM     63  F   UNL A   1      46.315  28.622  24.281  1.00  0.00    -0.205 F 
ATOM     64  C   UNL A   1      49.137  26.355  24.845  1.00  0.00     0.022 A 
BRANCH  62  65
ATOM     65  S   UNL A   1      48.573  27.548  22.451  1.00  0.00     0.127 S 
ATOM     66  O   UNL A   1      49.842  28.272  22.514  1.00  0.00    -0.237 OA
ATOM     67  O   UNL A   1      48.671  26.194  21.903  1.00  0.00    -0.237 OA
ATOM     68  O   UNL A   1      47.440  28.323  21.967  1.00  0.00    -0.744 OA
ENDBRANCH  62  65
ENDBRANCH  44  58
BRANCH  45  69
ATOM     69  C   UNL A   1      38.583  30.176  30.889  1.00  0.00     0.023 A 
ATOM     70  C   UNL A   1      38.399  29.905  32.258  1.00  0.00     0.012 A 
ATOM     71  C   UNL A   1      37.608  30.916  30.192  1.00  0.00     0.148 A 
ATOM     72  C   UNL A   1      37.262  30.362  32.923  1.00  0.00     0.002 A 
ATOM     73  C   UNL A   1      36.500  31.407  30.872  1.00  0.00     0.091 A 
ATOM     74  F   UNL A   1      37.805  31.151  28.888  1.00  0.00    -0.205 F 
ATOM     75  C   UNL A   1      36.321  31.123  32.235  1.00  0.00     0.022 A 
BRANCH  73  76
ATOM     76  S   UNL A   1      35.298  32.495  30.100  1.00  0.00     0.127 S 
ATOM     77  O   UNL A   1      34.365  32.736  31.198  1.00  0.00    -0.237 OA
ATOM     78  O   UNL A   1      36.127  33.643  29.734  1.00  0.00    -0.237 OA
ATOM     79  O   UNL A   1      34.758  31.753  28.969  1.00  0.00    -0.744 OA
ENDBRANCH  73  76
ENDBRANCH  45  69
BRANCH  57  80
ATOM     80  C   UNL A   1      44.660  33.358  29.535  1.00  0.00     0.023 A 
ATOM     81  C   UNL A   1      44.422  34.435  28.660  1.00  0.00     0.012 A 
ATOM     82  C   UNL A   1      45.300  33.589  30.767  1.00  0.00     0.148 A 
ATOM     83  C   UNL A   1      44.821  35.725  29.004  1.00  0.00     0.002 A 
ATOM     84  C   UNL A   1      45.666  34.882  31.118  1.00  0.00     0.091 A 
ATOM     85  F   UNL A   1      45.521  32.543  31.577  1.00  0.00    -0.205 F 
ATOM     86  C   UNL A   1      45.431  35.950  30.236  1.00  0.00     0.022 A 
BRANCH  84  87
ATOM     87  S   UNL A   1      46.393  35.286  32.710  1.00  0.00     0.127 S 
ATOM     88  O   UNL A   1      46.709  36.703  32.543  1.00  0.00    -0.237 OA
ATOM     89  O   UNL A   1      45.290  35.010  33.632  1.00  0.00    -0.237 OA
ATOM     90  O   UNL A   1      47.545  34.407  32.863  1.00  0.00    -0.744 OA
ENDBRANCH  84  87
ENDBRANCH  57  80
ENDBRANCH  31  32
ENDBRANCH  23  26
ENDBRANCH  21  22
ENDBRANCH  20  21
ENDBRANCH   1  20
TORSDOF 18
ENDMDL
MODEL 3
REMARK VINA RESULT:     -11.3      5.990     10.809
REMARK SMILES O=C(Cc1ccc(=O)n(C(F)F)c1)NCCCCCCNC(=O)c1ccc(-c2c3nc(c(-c4cccc(S(=O)(=O)[O-])c4F)c4ccc([nH]4)c(-c4cccc(S(=O)(=O)[O-])c4F)c4nc(c(-c5cccc(S(=O)(=O)[O-])c5F)c5ccc2[nH]5)C=C4)C=C3)cc1
REMARK SMILES IDX 18 1 17 2 16 3 15 4 14 5 1 6 2 7 3 9 4 10 5 11 13 12 6 13
REMARK SMILES IDX 9 14 7 15 8 16 10 17 11 18 12 19 19 20 20 21 21 22 22 23
REMARK SMILES IDX 23 25 24 26 25 27 86 28 26 29 85 30 27 31 28 32 29 33 79 34
REMARK SMILES IDX 30 35 84 36 78 37 80 38 31 39 83 40 77 41 76 42 32 44 64 45
REMARK SMILES IDX 44 46 63 47 45 48 48 49 62 50 81 51 46 52 47 53 61 55 82 56
REMARK SMILES IDX 49 57 33 58 34 59 42 60 35 61 37 62 43 63 36 64 38 65 39 66
REMARK SMILES IDX 40 67 41 68 65 69 66 70 74 71 67 72 69 73 75 74 68 75 70 76
REMARK SMILES IDX 71 77 72 78 73 79 50 80 51 81 59 82 52 83 54 84 60 85 53 86
REMARK SMILES IDX 55 87 56 88 57 89 58 90
REMARK H PARENT 14 8 21 24 80 43 48 54
REMARK Flexibility Score: inf
ROOT
ATOM      1  C   UNL A   1      37.589  33.078  29.233  1.00  0.00     0.002 C 
ENDROOT
BRANCH   1   2
ATOM      2  C   UNL A   1      38.537  34.240  29.540  1.00  0.00     0.002 C 
BRANCH   2   3
ATOM      3  C   UNL A   1      38.777  34.540  31.025  1.00  0.00     0.021 C 
BRANCH   3   4
ATOM      4  C   UNL A   1      38.200  33.518  32.001  1.00  0.00     0.116 C 
BRANCH   4   5
ATOM      5  N   UNL A   1      36.882  33.887  32.476  1.00  0.00    -0.356 N 
ATOM      6  O   UNL A   1      36.353  31.802  33.286  1.00  0.00    -0.275 OA
ATOM      7  C   UNL A   1      36.069  32.984  33.129  1.00  0.00     0.224 C 
ATOM      8  H   UNL A   1      36.558  34.805  32.327  1.00  0.00     0.163 HD
BRANCH   7   9
ATOM      9  C   UNL A   1      34.807  33.606  33.714  1.00  0.00     0.137 C 
BRANCH   9  10
ATOM     10  C   UNL A   1      34.311  34.816  32.952  1.00  0.00    -0.022 A 
ATOM     11  C   UNL A   1      34.256  36.060  33.698  1.00  0.00     0.011 A 
ATOM     12  C   UNL A   1      33.915  34.828  31.666  1.00  0.00     0.099 A 
ATOM     13  C   UNL A   1      33.803  37.186  33.135  1.00  0.00     0.072 A 
ATOM     14  N   UNL A   1      33.429  35.976  31.061  1.00  0.00    -0.258 N 
ATOM     15  C   UNL A   1      33.326  37.187  31.725  1.00  0.00     0.254 A 
ATOM     16  O   UNL A   1      32.883  38.230  31.260  1.00  0.00    -0.269 OA
BRANCH  14  17
ATOM     17  C   UNL A   1      32.948  35.933  29.703  1.00  0.00     0.451 C 
ATOM     18  F   UNL A   1      33.848  36.500  28.862  1.00  0.00    -0.185 F 
ATOM     19  F   UNL A   1      32.736  34.659  29.293  1.00  0.00    -0.185 F 
ENDBRANCH  14  17
ENDBRANCH   9  10
ENDBRANCH   7   9
ENDBRANCH   4   5
ENDBRANCH   3   4
ENDBRANCH   2   3
ENDBRANCH   1   2
BRANCH   1  20
ATOM     20  C   UNL A   1      36.136  33.465  28.955  1.00  0.00     0.021 C 
BRANCH  20  21
ATOM     21  C   UNL A   1      35.081  32.535  29.545  1.00  0.00     0.116 C 
BRANCH  21  22
ATOM     22  N   UNL A   1      34.299  31.830  28.541  1.00  0.00    -0.352 N 
ATOM     23  C   UNL A   1      34.625  30.683  27.851  1.00  0.00     0.251 C 
ATOM     24  H   UNL A   1      33.423  32.224  28.328  1.00  0.00     0.163 HD
ATOM     25  O   UNL A   1      33.886  30.265  26.964  1.00  0.00    -0.269 OA
BRANCH  23  26
ATOM     26  C   UNL A   1      35.896  29.990  28.158  1.00  0.00     0.039 A 
ATOM     27  C   UNL A   1      36.052  29.293  29.358  1.00  0.00     0.014 A 
ATOM     28  C   UNL A   1      36.965  30.096  27.263  1.00  0.00     0.014 A 
ATOM     29  C   UNL A   1      37.317  28.860  29.742  1.00  0.00     0.010 A 
ATOM     30  C   UNL A   1      38.219  29.590  27.619  1.00  0.00     0.010 A 
ATOM     31  C   UNL A   1      38.420  29.020  28.887  1.00  0.00    -0.014 A 
BRANCH  31  32
ATOM     32  C   UNL A   1      39.771  28.603  29.348  1.00  0.00     0.031 A 
ATOM     33  C   UNL A   1      40.503  27.470  28.676  1.00  0.00     0.074 A 
ATOM     34  C   UNL A   1      40.366  29.285  30.347  1.00  0.00     0.049 A 
ATOM     35  N   UNL A   1      41.701  27.007  28.925  1.00  0.00    -0.248 NA
ATOM     36  C   UNL A   1      39.807  26.765  27.586  1.00  0.00     0.031 C 
ATOM     37  C   UNL A   1      39.757  30.390  31.090  1.00  0.00     0.029 A 
ATOM     38  N   UNL A   1      41.617  29.162  30.898  1.00  0.00    -0.354 N 
ATOM     39  C   UNL A   1      41.887  25.936  28.058  1.00  0.00     0.074 A 
ATOM     40  C   UNL A   1      40.679  25.813  27.274  1.00  0.00     0.031 C 
ATOM     41  C   UNL A   1      40.650  30.871  31.968  1.00  0.00     0.029 A 
ATOM     42  C   UNL A   1      41.875  30.083  31.884  1.00  0.00     0.049 A 
ATOM     43  H   UNL A   1      42.266  28.479  30.614  1.00  0.00     0.167 HD
ATOM     44  C   UNL A   1      42.974  25.141  27.913  1.00  0.00     0.034 A 
ATOM     45  C   UNL A   1      42.973  30.276  32.641  1.00  0.00     0.034 A 
ATOM     46  C   UNL A   1      44.200  25.297  28.646  1.00  0.00     0.049 A 
ATOM     47  C   UNL A   1      44.171  29.395  32.444  1.00  0.00     0.074 A 
ATOM     48  C   UNL A   1      45.369  24.565  28.525  1.00  0.00     0.029 A 
ATOM     49  N   UNL A   1      44.422  26.250  29.626  1.00  0.00    -0.354 N 
ATOM     50  N   UNL A   1      44.350  28.440  31.565  1.00  0.00    -0.248 NA
ATOM     51  C   UNL A   1      45.322  29.624  33.329  1.00  0.00     0.031 C 
ATOM     52  C   UNL A   1      46.299  25.078  29.434  1.00  0.00     0.029 A 
ATOM     53  C   UNL A   1      45.709  26.127  30.118  1.00  0.00     0.049 A 
ATOM     54  H   UNL A   1      43.762  26.916  29.928  1.00  0.00     0.167 HD
ATOM     55  C   UNL A   1      45.634  27.958  31.784  1.00  0.00     0.074 A 
ATOM     56  C   UNL A   1      46.199  28.741  32.864  1.00  0.00     0.031 C 
ATOM     57  C   UNL A   1      46.276  26.943  31.159  1.00  0.00     0.034 A 
BRANCH  44  58
ATOM     58  C   UNL A   1      42.923  24.054  26.875  1.00  0.00     0.023 A 
ATOM     59  C   UNL A   1      43.620  24.230  25.665  1.00  0.00     0.012 A 
ATOM     60  C   UNL A   1      42.287  22.826  27.141  1.00  0.00     0.148 A 
ATOM     61  C   UNL A   1      43.680  23.199  24.727  1.00  0.00     0.002 A 
ATOM     62  C   UNL A   1      42.374  21.794  26.213  1.00  0.00     0.091 A 
ATOM     63  F   UNL A   1      41.621  22.689  28.296  1.00  0.00    -0.205 F 
ATOM     64  C   UNL A   1      43.067  21.981  25.005  1.00  0.00     0.022 A 
BRANCH  62  65
ATOM     65  S   UNL A   1      41.667  20.167  26.496  1.00  0.00     0.127 S 
ATOM     66  O   UNL A   1      42.299  19.787  27.760  1.00  0.00    -0.237 OA
ATOM     67  O   UNL A   1      40.238  20.467  26.596  1.00  0.00    -0.237 OA
ATOM     68  O   UNL A   1      42.043  19.357  25.347  1.00  0.00    -0.744 OA
ENDBRANCH  62  65
ENDBRANCH  44  58
BRANCH  45  69
ATOM     69  C   UNL A   1      42.991  31.399  33.616  1.00  0.00     0.023 A 
ATOM     70  C   UNL A   1      43.394  32.677  33.184  1.00  0.00     0.012 A 
ATOM     71  C   UNL A   1      42.528  31.228  34.934  1.00  0.00     0.148 A 
ATOM     72  C   UNL A   1      43.338  33.767  34.052  1.00  0.00     0.002 A 
ATOM     73  C   UNL A   1      42.432  32.326  35.779  1.00  0.00     0.091 A 
ATOM     74  F   UNL A   1      42.159  29.998  35.320  1.00  0.00    -0.205 F 
ATOM     75  C   UNL A   1      42.845  33.595  35.343  1.00  0.00     0.022 A 
BRANCH  73  76
ATOM     76  S   UNL A   1      41.699  32.226  37.415  1.00  0.00     0.127 S 
ATOM     77  O   UNL A   1      42.491  31.166  38.033  1.00  0.00    -0.237 OA
ATOM     78  O   UNL A   1      41.951  33.569  37.938  1.00  0.00    -0.237 OA
ATOM     79  O   UNL A   1      40.292  31.915  37.202  1.00  0.00    -0.744 OA
ENDBRANCH  73  76
ENDBRANCH  45  69
BRANCH  57  80
ATOM     80  C   UNL A   1      47.668  26.603  31.613  1.00  0.00     0.023 A 
ATOM     81  C   UNL A   1      47.839  25.688  32.670  1.00  0.00     0.012 A 
ATOM     82  C   UNL A   1      48.793  27.085  30.918  1.00  0.00     0.148 A 
ATOM     83  C   UNL A   1      49.114  25.261  33.034  1.00  0.00     0.002 A 
ATOM     84  C   UNL A   1      50.059  26.631  31.266  1.00  0.00     0.091 A 
ATOM     85  F   UNL A   1      48.600  27.961  29.922  1.00  0.00    -0.205 F 
ATOM     86  C   UNL A   1      50.222  25.723  32.325  1.00  0.00     0.022 A 
BRANCH  84  87
ATOM     87  S   UNL A   1      51.540  27.110  30.369  1.00  0.00     0.127 S 
ATOM     88  O   UNL A   1      52.578  26.379  31.095  1.00  0.00    -0.237 OA
ATOM     89  O   UNL A   1      51.265  26.604  29.024  1.00  0.00    -0.237 OA
ATOM     90  O   UNL A   1      51.620  28.561  30.467  1.00  0.00    -0.744 OA
ENDBRANCH  84  87
ENDBRANCH  57  80
ENDBRANCH  31  32
ENDBRANCH  23  26
ENDBRANCH  21  22
ENDBRANCH  20  21
ENDBRANCH   1  20
TORSDOF 18
ENDMDL
