MODEL 1
REMARK VINA RESULT:     -12.2      0.000      0.000
REMARK SMILES C[C@@H]1Cc2ccccc2N1c1ccc(F)cc1C(=O)NCCCCCCNC(=O)c1ccc(-c2c3nc(c(-c4cccc(S(=O)(=O)[O-])c4F)c4ccc([nH]4)c(-c4cccc(S(=O)(=O)[O-])c4F)c4nc(c(-c5cccc(S(=O)(=O)[O-])c5F)c5ccc2[nH]5)C=C4)C=C3)cc1
REMARK SMILES IDX 24 1 23 2 22 3 21 4 20 5 18 6 19 7 17 9 11 10 12 11 13 12
REMARK SMILES IDX 16 13 14 14 15 15 10 16 1 17 2 18 3 19 4 20 9 21 5 22 8 23
REMARK SMILES IDX 6 24 7 25 25 26 26 27 27 28 28 29 29 31 30 32 31 33 92 34
REMARK SMILES IDX 32 35 91 36 33 37 34 38 35 39 85 40 36 41 90 42 84 43 86 44
REMARK SMILES IDX 37 45 89 46 83 47 82 48 38 50 70 51 50 52 69 53 51 54 54 55
REMARK SMILES IDX 68 56 87 57 52 58 53 59 67 61 88 62 55 63 39 64 40 65 48 66
REMARK SMILES IDX 41 67 43 68 49 69 42 70 44 71 45 72 46 73 47 74 71 75 72 76
REMARK SMILES IDX 80 77 73 78 75 79 81 80 74 81 76 82 77 83 78 84 79 85 56 86
REMARK SMILES IDX 57 87 65 88 58 89 60 90 66 91 59 92 61 93 62 94 63 95 64 96
REMARK H PARENT 20 8 27 30 86 49 54 60
REMARK Flexibility Score: inf
ROOT
ATOM      1  C   UNL A   1      31.452  29.416  24.014  1.00  0.00     0.002 C 
ENDROOT
BRANCH   1   2
ATOM      2  C   UNL A   1      30.360  28.816  23.121  1.00  0.00     0.002 C 
BRANCH   2   3
ATOM      3  C   UNL A   1      29.261  27.967  23.770  1.00  0.00     0.021 C 
BRANCH   3   4
ATOM      4  C   UNL A   1      29.295  26.461  23.529  1.00  0.00     0.116 C 
BRANCH   4   5
ATOM      5  N   UNL A   1      29.189  25.607  24.683  1.00  0.00    -0.352 N 
ATOM      6  C   UNL A   1      30.091  25.392  25.702  1.00  0.00     0.253 C 
ATOM      7  O   UNL A   1      29.707  24.667  26.627  1.00  0.00    -0.269 OA
ATOM      8  H   UNL A   1      28.348  25.102  24.754  1.00  0.00     0.163 HD
BRANCH   6   9
ATOM      9  C   UNL A   1      31.511  25.887  25.759  1.00  0.00     0.066 A 
ATOM     10  C   UNL A   1      32.602  25.549  24.923  1.00  0.00     0.054 A 
ATOM     11  C   UNL A   1      33.834  26.228  25.103  1.00  0.00     0.030 A 
ATOM     12  C   UNL A   1      34.006  27.201  26.083  1.00  0.00     0.041 A 
ATOM     13  C   UNL A   1      31.708  26.887  26.740  1.00  0.00     0.055 A 
ATOM     14  C   UNL A   1      32.937  27.519  26.897  1.00  0.00     0.124 A 
ATOM     15  F   UNL A   1      33.088  28.451  27.847  1.00  0.00    -0.207 F 
BRANCH  10  16
ATOM     16  N   UNL A   1      32.577  24.547  23.960  1.00  0.00    -0.337 N 
ATOM     17  C   UNL A   1      32.349  25.816  21.814  1.00  0.00     0.032 C 
ATOM     18  C   UNL A   1      33.095  24.729  22.582  1.00  0.00     0.089 C 
ATOM     19  C   UNL A   1      32.953  23.348  21.873  1.00  0.00     0.063 C 
ATOM     20  C   UNL A   1      32.733  22.417  23.022  1.00  0.00    -0.022 A 
ATOM     21  C   UNL A   1      32.614  23.150  24.200  1.00  0.00     0.045 A 
ATOM     22  C   UNL A   1      32.549  21.044  23.014  1.00  0.00     0.006 A 
ATOM     23  C   UNL A   1      32.400  22.509  25.415  1.00  0.00     0.026 A 
ATOM     24  C   UNL A   1      32.281  20.400  24.227  1.00  0.00     0.000 A 
ATOM     25  C   UNL A   1      32.228  21.126  25.425  1.00  0.00     0.002 A 
ENDBRANCH  10  16
ENDBRANCH   6   9
ENDBRANCH   4   5
ENDBRANCH   3   4
ENDBRANCH   2   3
ENDBRANCH   1   2
BRANCH   1  26
ATOM     26  C   UNL A   1      31.034  30.449  25.058  1.00  0.00     0.021 C 
BRANCH  26  27
ATOM     27  C   UNL A   1      32.034  30.807  26.149  1.00  0.00     0.116 C 
BRANCH  27  28
ATOM     28  N   UNL A   1      31.943  32.180  26.613  1.00  0.00    -0.352 N 
ATOM     29  C   UNL A   1      32.793  32.919  27.407  1.00  0.00     0.251 C 
ATOM     30  H   UNL A   1      31.141  32.663  26.310  1.00  0.00     0.163 HD
ATOM     31  O   UNL A   1      32.468  34.062  27.725  1.00  0.00    -0.269 OA
BRANCH  29  32
ATOM     32  C   UNL A   1      34.063  32.347  27.925  1.00  0.00     0.039 A 
ATOM     33  C   UNL A   1      34.182  31.001  28.273  1.00  0.00     0.014 A 
ATOM     34  C   UNL A   1      35.177  33.187  28.057  1.00  0.00     0.014 A 
ATOM     35  C   UNL A   1      35.328  30.545  28.925  1.00  0.00     0.010 A 
ATOM     36  C   UNL A   1      36.363  32.702  28.624  1.00  0.00     0.010 A 
ATOM     37  C   UNL A   1      36.434  31.391  29.117  1.00  0.00    -0.014 A 
BRANCH  37  38
ATOM     38  C   UNL A   1      37.648  30.882  29.811  1.00  0.00     0.031 A 
ATOM     39  C   UNL A   1      37.955  31.271  31.236  1.00  0.00     0.074 A 
ATOM     40  C   UNL A   1      38.482  30.042  29.163  1.00  0.00     0.049 A 
ATOM     41  N   UNL A   1      38.963  30.904  31.989  1.00  0.00    -0.248 NA
ATOM     42  C   UNL A   1      37.017  32.187  31.905  1.00  0.00     0.031 C 
ATOM     43  C   UNL A   1      38.322  29.605  27.775  1.00  0.00     0.029 A 
ATOM     44  N   UNL A   1      39.622  29.402  29.583  1.00  0.00    -0.354 N 
ATOM     45  C   UNL A   1      38.809  31.582  33.193  1.00  0.00     0.074 A 
ATOM     46  C   UNL A   1      37.609  32.381  33.076  1.00  0.00     0.031 C 
ATOM     47  C   UNL A   1      39.299  28.739  27.471  1.00  0.00     0.029 A 
ATOM     48  C   UNL A   1      40.188  28.600  28.621  1.00  0.00     0.049 A 
ATOM     49  H   UNL A   1      39.997  29.507  30.487  1.00  0.00     0.167 HD
ATOM     50  C   UNL A   1      39.586  31.531  34.302  1.00  0.00     0.034 A 
ATOM     51  C   UNL A   1      41.303  27.844  28.644  1.00  0.00     0.034 A 
ATOM     52  C   UNL A   1      40.749  30.697  34.446  1.00  0.00     0.049 A 
ATOM     53  C   UNL A   1      42.138  27.792  29.888  1.00  0.00     0.074 A 
ATOM     54  C   UNL A   1      41.550  30.531  35.562  1.00  0.00     0.029 A 
ATOM     55  N   UNL A   1      41.279  29.894  33.450  1.00  0.00    -0.354 N 
ATOM     56  N   UNL A   1      41.923  28.370  31.043  1.00  0.00    -0.248 NA
ATOM     57  C   UNL A   1      43.361  26.977  29.839  1.00  0.00     0.031 C 
ATOM     58  C   UNL A   1      42.576  29.639  35.236  1.00  0.00     0.029 A 
ATOM     59  C   UNL A   1      42.403  29.238  33.921  1.00  0.00     0.049 A 
ATOM     60  H   UNL A   1      40.911  29.804  32.541  1.00  0.00     0.167 HD
ATOM     61  C   UNL A   1      42.974  27.983  31.865  1.00  0.00     0.074 A 
ATOM     62  C   UNL A   1      43.819  27.105  31.080  1.00  0.00     0.031 C 
ATOM     63  C   UNL A   1      43.218  28.336  33.149  1.00  0.00     0.034 A 
BRANCH  50  64
ATOM     64  C   UNL A   1      39.187  32.375  35.483  1.00  0.00     0.023 A 
ATOM     65  C   UNL A   1      38.357  31.824  36.480  1.00  0.00     0.012 A 
ATOM     66  C   UNL A   1      39.709  33.672  35.653  1.00  0.00     0.148 A 
ATOM     67  C   UNL A   1      38.040  32.557  37.621  1.00  0.00     0.002 A 
ATOM     68  C   UNL A   1      39.413  34.386  36.808  1.00  0.00     0.091 A 
ATOM     69  F   UNL A   1      40.486  34.179  34.686  1.00  0.00    -0.205 F 
ATOM     70  C   UNL A   1      38.574  33.832  37.790  1.00  0.00     0.022 A 
BRANCH  68  71
ATOM     71  S   UNL A   1      40.096  36.011  37.151  1.00  0.00     0.127 S 
ATOM     72  O   UNL A   1      39.355  36.393  38.352  1.00  0.00    -0.237 OA
ATOM     73  O   UNL A   1      41.510  35.710  37.375  1.00  0.00    -0.237 OA
ATOM     74  O   UNL A   1      39.825  36.820  35.969  1.00  0.00    -0.744 OA
ENDBRANCH  68  71
ENDBRANCH  50  64
BRANCH  51  75
ATOM     75  C   UNL A   1      41.645  27.040  27.441  1.00  0.00     0.023 A 
ATOM     76  C   UNL A   1      42.276  27.669  26.351  1.00  0.00     0.012 A 
ATOM     77  C   UNL A   1      41.461  25.643  27.425  1.00  0.00     0.148 A 
ATOM     78  C   UNL A   1      42.725  26.918  25.265  1.00  0.00     0.002 A 
ATOM     79  C   UNL A   1      41.950  24.898  26.360  1.00  0.00     0.091 A 
ATOM     80  F   UNL A   1      40.862  25.073  28.479  1.00  0.00    -0.205 F 
ATOM     81  C   UNL A   1      42.575  25.534  25.275  1.00  0.00     0.022 A 
BRANCH  79  82
ATOM     82  S   UNL A   1      41.914  23.102  26.335  1.00  0.00     0.127 S 
ATOM     83  O   UNL A   1      42.678  22.772  27.536  1.00  0.00    -0.237 OA
ATOM     84  O   UNL A   1      40.478  22.835  26.425  1.00  0.00    -0.237 OA
ATOM     85  O   UNL A   1      42.532  22.708  25.077  1.00  0.00    -0.744 OA
ENDBRANCH  79  82
ENDBRANCH  51  75
BRANCH  63  86
ATOM     86  C   UNL A   1      44.445  27.781  33.816  1.00  0.00     0.023 A 
ATOM     87  C   UNL A   1      45.629  28.544  33.831  1.00  0.00     0.012 A 
ATOM     88  C   UNL A   1      44.387  26.572  34.535  1.00  0.00     0.148 A 
ATOM     89  C   UNL A   1      46.741  28.107  34.550  1.00  0.00     0.002 A 
ATOM     90  C   UNL A   1      45.487  26.159  35.277  1.00  0.00     0.091 A 
ATOM     91  F   UNL A   1      43.250  25.862  34.497  1.00  0.00    -0.205 F 
ATOM     92  C   UNL A   1      46.666  26.924  35.282  1.00  0.00     0.022 A 
BRANCH  90  93
ATOM     93  S   UNL A   1      45.464  24.691  36.312  1.00  0.00     0.127 S 
ATOM     94  O   UNL A   1      44.111  24.738  36.864  1.00  0.00    -0.237 OA
ATOM     95  O   UNL A   1      45.691  23.623  35.339  1.00  0.00    -0.237 OA
ATOM     96  O   UNL A   1      46.534  24.865  37.286  1.00  0.00    -0.744 OA
ENDBRANCH  90  93
ENDBRANCH  63  86
ENDBRANCH  37  38
ENDBRANCH  29  32
ENDBRANCH  27  28
ENDBRANCH  26  27
ENDBRANCH   1  26
TORSDOF 17
ENDMDL
MODEL 2
REMARK VINA RESULT:     -12.2      4.947     10.001
REMARK SMILES C[C@@H]1Cc2ccccc2N1c1ccc(F)cc1C(=O)NCCCCCCNC(=O)c1ccc(-c2c3nc(c(-c4cccc(S(=O)(=O)[O-])c4F)c4ccc([nH]4)c(-c4cccc(S(=O)(=O)[O-])c4F)c4nc(c(-c5cccc(S(=O)(=O)[O-])c5F)c5ccc2[nH]5)C=C4)C=C3)cc1
REMARK SMILES IDX 24 1 23 2 22 3 21 4 20 5 18 6 19 7 17 9 11 10 12 11 13 12
REMARK SMILES IDX 16 13 14 14 15 15 10 16 1 17 2 18 3 19 4 20 9 21 5 22 8 23
REMARK SMILES IDX 6 24 7 25 25 26 26 27 27 28 28 29 29 31 30 32 31 33 92 34
REMARK SMILES IDX 32 35 91 36 33 37 34 38 35 39 85 40 36 41 90 42 84 43 86 44
REMARK SMILES IDX 37 45 89 46 83 47 82 48 38 50 70 51 50 52 69 53 51 54 54 55
REMARK SMILES IDX 68 56 87 57 52 58 53 59 67 61 88 62 55 63 39 64 40 65 48 66
REMARK SMILES IDX 41 67 43 68 49 69 42 70 44 71 45 72 46 73 47 74 71 75 72 76
REMARK SMILES IDX 80 77 73 78 75 79 81 80 74 81 76 82 77 83 78 84 79 85 56 86
REMARK SMILES IDX 57 87 65 88 58 89 60 90 66 91 59 92 61 93 62 94 63 95 64 96
REMARK H PARENT 20 8 27 30 86 49 54 60
REMARK Flexibility Score: inf
ROOT
ATOM      1  C   UNL A   1      36.054  23.172  23.617  1.00  0.00     0.002 C 
ENDROOT
BRANCH   1   2
ATOM      2  C   UNL A   1      34.691  22.833  23.003  1.00  0.00     0.002 C 
BRANCH   2   3
ATOM      3  C   UNL A   1      33.704  23.973  22.727  1.00  0.00     0.021 C 
BRANCH   3   4
ATOM      4  C   UNL A   1      33.834  25.239  23.567  1.00  0.00     0.116 C 
BRANCH   4   5
ATOM      5  N   UNL A   1      33.761  26.499  22.874  1.00  0.00    -0.352 N 
ATOM      6  C   UNL A   1      33.480  27.756  23.365  1.00  0.00     0.253 C 
ATOM      7  O   UNL A   1      33.571  28.689  22.559  1.00  0.00    -0.269 OA
ATOM      8  H   UNL A   1      33.938  26.456  21.908  1.00  0.00     0.163 HD
BRANCH   6   9
ATOM      9  C   UNL A   1      33.001  28.088  24.753  1.00  0.00     0.066 A 
ATOM     10  C   UNL A   1      31.693  27.997  25.285  1.00  0.00     0.054 A 
ATOM     11  C   UNL A   1      31.497  28.267  26.663  1.00  0.00     0.030 A 
ATOM     12  C   UNL A   1      32.547  28.631  27.501  1.00  0.00     0.041 A 
ATOM     13  C   UNL A   1      34.052  28.450  25.627  1.00  0.00     0.055 A 
ATOM     14  C   UNL A   1      33.818  28.723  26.971  1.00  0.00     0.124 A 
ATOM     15  F   UNL A   1      34.838  29.075  27.764  1.00  0.00    -0.207 F 
BRANCH  10  16
ATOM     16  N   UNL A   1      30.555  27.715  24.537  1.00  0.00    -0.337 N 
ATOM     17  C   UNL A   1      30.493  25.212  24.507  1.00  0.00     0.032 C 
ATOM     18  C   UNL A   1      29.721  26.506  24.749  1.00  0.00     0.089 C 
ATOM     19  C   UNL A   1      28.515  26.628  23.769  1.00  0.00     0.063 C 
ATOM     20  C   UNL A   1      28.565  28.069  23.373  1.00  0.00    -0.022 A 
ATOM     21  C   UNL A   1      29.703  28.661  23.914  1.00  0.00     0.045 A 
ATOM     22  C   UNL A   1      27.729  28.772  22.522  1.00  0.00     0.006 A 
ATOM     23  C   UNL A   1      29.979  30.004  23.685  1.00  0.00     0.026 A 
ATOM     24  C   UNL A   1      28.032  30.110  22.247  1.00  0.00     0.000 A 
ATOM     25  C   UNL A   1      29.139  30.730  22.842  1.00  0.00     0.002 A 
ENDBRANCH  10  16
ENDBRANCH   6   9
ENDBRANCH   4   5
ENDBRANCH   3   4
ENDBRANCH   2   3
ENDBRANCH   1   2
BRANCH   1  26
ATOM     26  C   UNL A   1      36.992  22.016  23.960  1.00  0.00     0.021 C 
BRANCH  26  27
ATOM     27  C   UNL A   1      37.239  21.708  25.430  1.00  0.00     0.116 C 
BRANCH  27  28
ATOM     28  N   UNL A   1      38.349  20.802  25.670  1.00  0.00    -0.352 N 
ATOM     29  C   UNL A   1      39.587  21.027  26.231  1.00  0.00     0.251 C 
ATOM     30  H   UNL A   1      38.190  19.874  25.385  1.00  0.00     0.163 HD
ATOM     31  O   UNL A   1      40.399  20.104  26.271  1.00  0.00    -0.269 OA
BRANCH  29  32
ATOM     32  C   UNL A   1      39.977  22.368  26.740  1.00  0.00     0.039 A 
ATOM     33  C   UNL A   1      39.372  23.538  26.281  1.00  0.00     0.014 A 
ATOM     34  C   UNL A   1      40.976  22.455  27.718  1.00  0.00     0.014 A 
ATOM     35  C   UNL A   1      39.889  24.782  26.644  1.00  0.00     0.010 A 
ATOM     36  C   UNL A   1      41.429  23.707  28.156  1.00  0.00     0.010 A 
ATOM     37  C   UNL A   1      40.930  24.885  27.582  1.00  0.00    -0.014 A 
BRANCH  37  38
ATOM     38  C   UNL A   1      41.463  26.223  27.959  1.00  0.00     0.031 A 
ATOM     39  C   UNL A   1      42.875  26.628  27.614  1.00  0.00     0.074 A 
ATOM     40  C   UNL A   1      40.666  27.099  28.603  1.00  0.00     0.049 A 
ATOM     41  N   UNL A   1      43.488  27.760  27.857  1.00  0.00    -0.248 NA
ATOM     42  C   UNL A   1      43.709  25.641  26.908  1.00  0.00     0.031 C 
ATOM     43  C   UNL A   1      39.289  26.831  29.024  1.00  0.00     0.029 A 
ATOM     44  N   UNL A   1      40.891  28.390  29.012  1.00  0.00    -0.354 N 
ATOM     45  C   UNL A   1      44.786  27.603  27.385  1.00  0.00     0.074 A 
ATOM     46  C   UNL A   1      44.876  26.268  26.836  1.00  0.00     0.031 C 
ATOM     47  C   UNL A   1      38.779  27.932  29.592  1.00  0.00     0.029 A 
ATOM     48  C   UNL A   1      39.807  28.969  29.628  1.00  0.00     0.049 A 
ATOM     49  H   UNL A   1      41.747  28.858  28.877  1.00  0.00     0.167 HD
ATOM     50  C   UNL A   1      45.807  28.494  27.391  1.00  0.00     0.034 A 
ATOM     51  C   UNL A   1      39.648  30.190  30.178  1.00  0.00     0.034 A 
ATOM     52  C   UNL A   1      45.709  29.842  27.884  1.00  0.00     0.049 A 
ATOM     53  C   UNL A   1      40.787  31.164  30.158  1.00  0.00     0.074 A 
ATOM     54  C   UNL A   1      46.674  30.834  27.861  1.00  0.00     0.029 A 
ATOM     55  N   UNL A   1      44.589  30.387  28.490  1.00  0.00    -0.354 N 
ATOM     56  N   UNL A   1      41.975  31.025  29.626  1.00  0.00    -0.248 NA
ATOM     57  C   UNL A   1      40.564  32.467  30.804  1.00  0.00     0.031 C 
ATOM     58  C   UNL A   1      46.143  31.975  28.468  1.00  0.00     0.029 A 
ATOM     59  C   UNL A   1      44.842  31.698  28.854  1.00  0.00     0.049 A 
ATOM     60  H   UNL A   1      43.740  29.913  28.639  1.00  0.00     0.167 HD
ATOM     61  C   UNL A   1      42.640  32.222  29.859  1.00  0.00     0.074 A 
ATOM     62  C   UNL A   1      41.716  33.084  30.568  1.00  0.00     0.031 C 
ATOM     63  C   UNL A   1      43.907  32.565  29.525  1.00  0.00     0.034 A 
BRANCH  50  64
ATOM     64  C   UNL A   1      47.125  28.063  26.808  1.00  0.00     0.023 A 
ATOM     65  C   UNL A   1      48.171  27.676  27.669  1.00  0.00     0.012 A 
ATOM     66  C   UNL A   1      47.296  27.951  25.414  1.00  0.00     0.148 A 
ATOM     67  C   UNL A   1      49.373  27.197  27.152  1.00  0.00     0.002 A 
ATOM     68  C   UNL A   1      48.486  27.444  24.906  1.00  0.00     0.091 A 
ATOM     69  F   UNL A   1      46.292  28.338  24.615  1.00  0.00    -0.205 F 
ATOM     70  C   UNL A   1      49.527  27.071  25.774  1.00  0.00     0.022 A 
BRANCH  68  71
ATOM     71  S   UNL A   1      48.765  27.188  23.150  1.00  0.00     0.127 S 
ATOM     72  O   UNL A   1      50.226  27.203  23.081  1.00  0.00    -0.237 OA
ATOM     73  O   UNL A   1      48.156  25.877  22.929  1.00  0.00    -0.237 OA
ATOM     74  O   UNL A   1      48.100  28.293  22.471  1.00  0.00    -0.744 OA
ENDBRANCH  68  71
ENDBRANCH  50  64
BRANCH  51  75
ATOM     75  C   UNL A   1      38.322  30.551  30.744  1.00  0.00     0.023 A 
ATOM     76  C   UNL A   1      38.057  30.275  32.099  1.00  0.00     0.012 A 
ATOM     77  C   UNL A   1      37.379  31.270  29.984  1.00  0.00     0.148 A 
ATOM     78  C   UNL A   1      36.874  30.718  32.691  1.00  0.00     0.002 A 
ATOM     79  C   UNL A   1      36.225  31.745  30.593  1.00  0.00     0.091 A 
ATOM     80  F   UNL A   1      37.663  31.521  28.700  1.00  0.00    -0.205 F 
ATOM     81  C   UNL A   1      35.966  31.463  31.944  1.00  0.00     0.022 A 
BRANCH  79  82
ATOM     82  S   UNL A   1      35.053  32.815  29.749  1.00  0.00     0.127 S 
ATOM     83  O   UNL A   1      34.100  33.113  30.815  1.00  0.00    -0.237 OA
ATOM     84  O   UNL A   1      35.909  33.935  29.355  1.00  0.00    -0.237 OA
ATOM     85  O   UNL A   1      34.524  32.031  28.642  1.00  0.00    -0.744 OA
ENDBRANCH  79  82
ENDBRANCH  51  75
BRANCH  63  86
ATOM     86  C   UNL A   1      44.396  33.934  29.907  1.00  0.00     0.023 A 
ATOM     87  C   UNL A   1      45.091  34.107  31.119  1.00  0.00     0.012 A 
ATOM     88  C   UNL A   1      44.281  35.014  29.010  1.00  0.00     0.148 A 
ATOM     89  C   UNL A   1      45.661  35.339  31.436  1.00  0.00     0.002 A 
ATOM     90  C   UNL A   1      44.881  36.229  29.316  1.00  0.00     0.091 A 
ATOM     91  F   UNL A   1      43.607  34.824  27.866  1.00  0.00    -0.205 F 
ATOM     92  C   UNL A   1      45.568  36.394  30.531  1.00  0.00     0.022 A 
BRANCH  90  93
ATOM     93  S   UNL A   1      44.882  37.624  28.184  1.00  0.00     0.127 S 
ATOM     94  O   UNL A   1      45.501  37.041  26.995  1.00  0.00    -0.237 OA
ATOM     95  O   UNL A   1      43.454  37.914  28.049  1.00  0.00    -0.237 OA
ATOM     96  O   UNL A   1      45.658  38.672  28.833  1.00  0.00    -0.744 OA
ENDBRANCH  90  93
ENDBRANCH  63  86
ENDBRANCH  37  38
ENDBRANCH  29  32
ENDBRANCH  27  28
ENDBRANCH  26  27
ENDBRANCH   1  26
TORSDOF 17
ENDMDL
MODEL 3
REMARK VINA RESULT:     -12.1      4.910     10.015
REMARK SMILES C[C@@H]1Cc2ccccc2N1c1ccc(F)cc1C(=O)NCCCCCCNC(=O)c1ccc(-c2c3nc(c(-c4cccc(S(=O)(=O)[O-])c4F)c4ccc([nH]4)c(-c4cccc(S(=O)(=O)[O-])c4F)c4nc(c(-c5cccc(S(=O)(=O)[O-])c5F)c5ccc2[nH]5)C=C4)C=C3)cc1
REMARK SMILES IDX 24 1 23 2 22 3 21 4 20 5 18 6 19 7 17 9 11 10 12 11 13 12
REMARK SMILES IDX 16 13 14 14 15 15 10 16 1 17 2 18 3 19 4 20 9 21 5 22 8 23
REMARK SMILES IDX 6 24 7 25 25 26 26 27 27 28 28 29 29 31 30 32 31 33 92 34
REMARK SMILES IDX 32 35 91 36 33 37 34 38 35 39 85 40 36 41 90 42 84 43 86 44
REMARK SMILES IDX 37 45 89 46 83 47 82 48 38 50 70 51 50 52 69 53 51 54 54 55
REMARK SMILES IDX 68 56 87 57 52 58 53 59 67 61 88 62 55 63 39 64 40 65 48 66
REMARK SMILES IDX 41 67 43 68 49 69 42 70 44 71 45 72 46 73 47 74 71 75 72 76
REMARK SMILES IDX 80 77 73 78 75 79 81 80 74 81 76 82 77 83 78 84 79 85 56 86
REMARK SMILES IDX 57 87 65 88 58 89 60 90 66 91 59 92 61 93 62 94 63 95 64 96
REMARK H PARENT 20 8 27 30 86 49 54 60
REMARK Flexibility Score: inf
ROOT
ATOM      1  C   UNL A   1      34.856  21.685  25.824  1.00  0.00     0.002 C 
ENDROOT
BRANCH   1   2
ATOM      2  C   UNL A   1      34.448  23.097  26.261  1.00  0.00     0.002 C 
BRANCH   2   3
ATOM      3  C   UNL A   1      33.517  23.254  27.468  1.00  0.00     0.021 C 
BRANCH   3   4
ATOM      4  C   UNL A   1      32.067  22.808  27.306  1.00  0.00     0.116 C 
BRANCH   4   5
ATOM      5  N   UNL A   1      31.078  23.837  27.117  1.00  0.00    -0.352 N 
ATOM      6  C   UNL A   1      30.741  24.530  25.974  1.00  0.00     0.253 C 
ATOM      7  O   UNL A   1      29.783  25.306  26.070  1.00  0.00    -0.269 OA
ATOM      8  H   UNL A   1      30.568  24.081  27.922  1.00  0.00     0.163 HD
BRANCH   6   9
ATOM      9  C   UNL A   1      31.467  24.492  24.657  1.00  0.00     0.066 A 
ATOM     10  C   UNL A   1      32.089  25.553  23.957  1.00  0.00     0.054 A 
ATOM     11  C   UNL A   1      32.811  25.257  22.772  1.00  0.00     0.030 A 
ATOM     12  C   UNL A   1      32.912  23.962  22.273  1.00  0.00     0.041 A 
ATOM     13  C   UNL A   1      31.594  23.184  24.134  1.00  0.00     0.055 A 
ATOM     14  C   UNL A   1      32.297  22.936  22.960  1.00  0.00     0.124 A 
ATOM     15  F   UNL A   1      32.383  21.685  22.490  1.00  0.00    -0.207 F 
BRANCH  10  16
ATOM     16  N   UNL A   1      31.999  26.893  24.314  1.00  0.00    -0.337 N 
ATOM     17  C   UNL A   1      33.785  27.148  26.050  1.00  0.00     0.032 C 
ATOM     18  C   UNL A   1      33.162  27.695  24.769  1.00  0.00     0.089 C 
ATOM     19  C   UNL A   1      32.639  29.148  24.979  1.00  0.00     0.063 C 
ATOM     20  C   UNL A   1      31.330  29.128  24.256  1.00  0.00    -0.022 A 
ATOM     21  C   UNL A   1      31.059  27.833  23.820  1.00  0.00     0.045 A 
ATOM     22  C   UNL A   1      30.408  30.146  24.086  1.00  0.00     0.006 A 
ATOM     23  C   UNL A   1      29.891  27.551  23.121  1.00  0.00     0.026 A 
ATOM     24  C   UNL A   1      29.208  29.856  23.428  1.00  0.00     0.000 A 
ATOM     25  C   UNL A   1      28.960  28.570  22.929  1.00  0.00     0.002 A 
ENDBRANCH  10  16
ENDBRANCH   6   9
ENDBRANCH   4   5
ENDBRANCH   3   4
ENDBRANCH   2   3
ENDBRANCH   1   2
BRANCH   1  26
ATOM     26  C   UNL A   1      35.661  21.540  24.535  1.00  0.00     0.021 C 
BRANCH  26  27
ATOM     27  C   UNL A   1      37.140  21.898  24.572  1.00  0.00     0.116 C 
BRANCH  27  28
ATOM     28  N   UNL A   1      37.994  20.849  25.102  1.00  0.00    -0.352 N 
ATOM     29  C   UNL A   1      39.091  20.917  25.932  1.00  0.00     0.251 C 
ATOM     30  H   UNL A   1      37.748  19.939  24.821  1.00  0.00     0.163 HD
ATOM     31  O   UNL A   1      39.702  19.883  26.197  1.00  0.00    -0.269 OA
BRANCH  29  32
ATOM     32  C   UNL A   1      39.578  22.214  26.470  1.00  0.00     0.039 A 
ATOM     33  C   UNL A   1      38.967  23.426  26.145  1.00  0.00     0.014 A 
ATOM     34  C   UNL A   1      40.679  22.215  27.336  1.00  0.00     0.014 A 
ATOM     35  C   UNL A   1      39.562  24.631  26.520  1.00  0.00     0.010 A 
ATOM     36  C   UNL A   1      41.218  23.426  27.791  1.00  0.00     0.010 A 
ATOM     37  C   UNL A   1      40.701  24.649  27.343  1.00  0.00    -0.014 A 
BRANCH  37  38
ATOM     38  C   UNL A   1      41.316  25.948  27.733  1.00  0.00     0.031 A 
ATOM     39  C   UNL A   1      42.718  26.309  27.308  1.00  0.00     0.074 A 
ATOM     40  C   UNL A   1      40.603  26.828  28.464  1.00  0.00     0.049 A 
ATOM     41  N   UNL A   1      43.395  27.403  27.552  1.00  0.00    -0.248 NA
ATOM     42  C   UNL A   1      43.459  25.318  26.509  1.00  0.00     0.031 C 
ATOM     43  C   UNL A   1      39.247  26.600  28.967  1.00  0.00     0.029 A 
ATOM     44  N   UNL A   1      40.911  28.092  28.907  1.00  0.00    -0.354 N 
ATOM     45  C   UNL A   1      44.650  27.213  26.986  1.00  0.00     0.074 A 
ATOM     46  C   UNL A   1      44.644  25.899  26.382  1.00  0.00     0.031 C 
ATOM     47  C   UNL A   1      38.825  27.696  29.611  1.00  0.00     0.029 A 
ATOM     48  C   UNL A   1      39.897  28.688  29.617  1.00  0.00     0.049 A 
ATOM     49  H   UNL A   1      41.776  28.528  28.731  1.00  0.00     0.167 HD
ATOM     50  C   UNL A   1      45.707  28.061  26.958  1.00  0.00     0.034 A 
ATOM     51  C   UNL A   1      39.829  29.890  30.223  1.00  0.00     0.034 A 
ATOM     52  C   UNL A   1      45.702  29.390  27.508  1.00  0.00     0.049 A 
ATOM     53  C   UNL A   1      41.006  30.817  30.163  1.00  0.00     0.074 A 
ATOM     54  C   UNL A   1      46.706  30.341  27.457  1.00  0.00     0.029 A 
ATOM     55  N   UNL A   1      44.650  29.955  28.209  1.00  0.00    -0.354 N 
ATOM     56  N   UNL A   1      42.148  30.652  29.545  1.00  0.00    -0.248 NA
ATOM     57  C   UNL A   1      40.883  32.100  30.873  1.00  0.00     0.031 C 
ATOM     58  C   UNL A   1      46.267  31.477  28.142  1.00  0.00     0.029 A 
ATOM     59  C   UNL A   1      44.984  31.238  28.606  1.00  0.00     0.049 A 
ATOM     60  H   UNL A   1      43.792  29.509  28.398  1.00  0.00     0.167 HD
ATOM     61  C   UNL A   1      42.879  31.810  29.779  1.00  0.00     0.074 A 
ATOM     62  C   UNL A   1      42.043  32.679  30.582  1.00  0.00     0.031 C 
ATOM     63  C   UNL A   1      44.134  32.113  29.372  1.00  0.00     0.034 A 
BRANCH  50  64
ATOM     64  C   UNL A   1      46.964  27.600  26.269  1.00  0.00     0.023 A 
ATOM     65  C   UNL A   1      47.896  26.817  26.978  1.00  0.00     0.012 A 
ATOM     66  C   UNL A   1      47.174  27.860  24.901  1.00  0.00     0.148 A 
ATOM     67  C   UNL A   1      49.027  26.312  26.340  1.00  0.00     0.002 A 
ATOM     68  C   UNL A   1      48.288  27.328  24.263  1.00  0.00     0.091 A 
ATOM     69  F   UNL A   1      46.280  28.618  24.250  1.00  0.00    -0.205 F 
ATOM     70  C   UNL A   1      49.218  26.558  24.983  1.00  0.00     0.022 A 
BRANCH  68  71
ATOM     71  S   UNL A   1      48.598  27.537  22.506  1.00  0.00     0.127 S 
ATOM     72  O   UNL A   1      48.660  26.148  22.053  1.00  0.00    -0.237 OA
ATOM     73  O   UNL A   1      47.410  28.270  22.069  1.00  0.00    -0.237 OA
ATOM     74  O   UNL A   1      49.846  28.281  22.402  1.00  0.00    -0.744 OA
ENDBRANCH  68  71
ENDBRANCH  50  64
BRANCH  51  75
ATOM     75  C   UNL A   1      38.561  30.282  30.893  1.00  0.00     0.023 A 
ATOM     76  C   UNL A   1      38.415  30.051  32.274  1.00  0.00     0.012 A 
ATOM     77  C   UNL A   1      37.560  30.987  30.197  1.00  0.00     0.148 A 
ATOM     78  C   UNL A   1      37.292  30.523  32.954  1.00  0.00     0.002 A 
ATOM     79  C   UNL A   1      36.467  31.492  30.889  1.00  0.00     0.091 A 
ATOM     80  F   UNL A   1      37.730  31.195  28.884  1.00  0.00    -0.205 F 
ATOM     81  C   UNL A   1      36.327  31.254  32.266  1.00  0.00     0.022 A 
BRANCH  79  82
ATOM     82  S   UNL A   1      35.233  32.546  30.119  1.00  0.00     0.127 S 
ATOM     83  O   UNL A   1      34.297  32.763  31.219  1.00  0.00    -0.237 OA
ATOM     84  O   UNL A   1      36.033  33.714  29.750  1.00  0.00    -0.237 OA
ATOM     85  O   UNL A   1      34.706  31.786  28.994  1.00  0.00    -0.744 OA
ENDBRANCH  79  82
ENDBRANCH  51  75
BRANCH  63  86
ATOM     86  C   UNL A   1      44.707  33.445  29.772  1.00  0.00     0.023 A 
ATOM     87  C   UNL A   1      45.432  33.552  30.975  1.00  0.00     0.012 A 
ATOM     88  C   UNL A   1      44.639  34.548  28.900  1.00  0.00     0.148 A 
ATOM     89  C   UNL A   1      46.077  34.743  31.305  1.00  0.00     0.002 A 
ATOM     90  C   UNL A   1      45.312  35.720  29.219  1.00  0.00     0.091 A 
ATOM     91  F   UNL A   1      43.935  34.421  27.765  1.00  0.00    -0.205 F 
ATOM     92  C   UNL A   1      46.028  35.820  30.424  1.00  0.00     0.022 A 
BRANCH  90  93
ATOM     93  S   UNL A   1      45.373  37.136  28.116  1.00  0.00     0.127 S 
ATOM     94  O   UNL A   1      46.193  38.074  28.881  1.00  0.00    -0.237 OA
ATOM     95  O   UNL A   1      46.025  36.578  26.932  1.00  0.00    -0.237 OA
ATOM     96  O   UNL A   1      43.991  37.550  27.912  1.00  0.00    -0.744 OA
ENDBRANCH  90  93
ENDBRANCH  63  86
ENDBRANCH  37  38
ENDBRANCH  29  32
ENDBRANCH  27  28
ENDBRANCH  26  27
ENDBRANCH   1  26
TORSDOF 17
ENDMDL
