MODEL 1
REMARK VINA RESULT:     -12.5      0.000      0.000
REMARK SMILES O=C(NCCCCCCNC(=O)c1ccc2c(c1)[C@@H]1C=CC[C@@H]1[C@H](c1ccncc1)N2)c1ccc(-c2c3nc(c(-c4cccc(S(=O)(=O)[O-])c4F)c4ccc([nH]4)c(-c4cccc(S(=O)(=O)[O-])c4F)c4nc(c(-c5cccc(S(=O)(=O)[O-])c5F)c5ccc2[nH]5)C=C4)C=C3)cc1
REMARK SMILES IDX 5 1 4 2 3 3 1 4 2 5 32 7 33 8 94 9 34 10 93 11 35 12 36 13
REMARK SMILES IDX 37 14 87 15 38 16 92 17 86 18 88 19 39 20 91 21 85 22 84 23
REMARK SMILES IDX 40 25 72 26 52 27 71 28 53 29 56 30 70 31 89 32 54 33 55 34
REMARK SMILES IDX 69 36 90 37 57 38 41 39 42 40 50 41 43 42 45 43 51 44 44 45
REMARK SMILES IDX 46 46 47 47 48 48 49 49 73 50 74 51 82 52 75 53 77 54 83 55
REMARK SMILES IDX 76 56 78 57 79 58 80 59 81 60 58 61 59 62 67 63 60 64 62 65
REMARK SMILES IDX 68 66 61 67 63 68 64 69 65 70 66 71 6 72 7 73 8 74 9 75
REMARK SMILES IDX 10 76 11 77 12 79 13 80 14 81 18 82 15 83 17 84 16 85 19 86
REMARK SMILES IDX 31 87 20 88 23 89 24 90 21 92 22 93 25 94 26 95 30 96 27 97
REMARK SMILES IDX 29 98 28 99
REMARK H PARENT 3 6 88 24 56 35 10 78 31 91
REMARK Flexibility Score: inf
ROOT
ATOM      1  C   UNL A   1      32.534  28.177  26.063  1.00  0.00     0.021 C 
ENDROOT
BRANCH   1   2
ATOM      2  C   UNL A   1      33.577  29.254  25.791  1.00  0.00     0.116 C 
BRANCH   2   3
ATOM      3  N   UNL A   1      33.171  30.565  26.267  1.00  0.00    -0.352 N 
ATOM      4  O   UNL A   1      33.172  32.369  27.615  1.00  0.00    -0.269 OA
ATOM      5  C   UNL A   1      33.742  31.347  27.243  1.00  0.00     0.251 C 
ATOM      6  H   UNL A   1      32.377  30.947  25.828  1.00  0.00     0.163 HD
BRANCH   5   7
ATOM      7  C   UNL A   1      35.023  30.937  27.862  1.00  0.00     0.039 A 
ATOM      8  C   UNL A   1      35.178  29.661  28.411  1.00  0.00     0.014 A 
ATOM      9  C   UNL A   1      36.087  31.843  27.892  1.00  0.00     0.014 A 
ATOM     10  C   UNL A   1      36.339  29.342  29.108  1.00  0.00     0.010 A 
ATOM     11  C   UNL A   1      37.286  31.491  28.523  1.00  0.00     0.010 A 
ATOM     12  C   UNL A   1      37.412  30.250  29.163  1.00  0.00    -0.014 A 
BRANCH  12  13
ATOM     13  C   UNL A   1      38.673  29.842  29.833  1.00  0.00     0.031 A 
ATOM     14  C   UNL A   1      39.056  30.378  31.186  1.00  0.00     0.074 A 
ATOM     15  C   UNL A   1      39.476  28.957  29.206  1.00  0.00     0.049 A 
ATOM     16  N   UNL A   1      40.097  30.081  31.921  1.00  0.00    -0.248 NA
ATOM     17  C   UNL A   1      38.163  31.378  31.792  1.00  0.00     0.031 C 
ATOM     18  C   UNL A   1      39.237  28.409  27.869  1.00  0.00     0.029 A 
ATOM     19  N   UNL A   1      40.646  28.363  29.604  1.00  0.00    -0.354 N 
ATOM     20  C   UNL A   1      40.002  30.871  33.060  1.00  0.00     0.074 A 
ATOM     21  C   UNL A   1      38.807  31.675  32.914  1.00  0.00     0.031 C 
ATOM     22  C   UNL A   1      40.213  27.541  27.568  1.00  0.00     0.029 A 
ATOM     23  C   UNL A   1      41.169  27.502  28.669  1.00  0.00     0.049 A 
ATOM     24  H   UNL A   1      41.072  28.538  30.475  1.00  0.00     0.167 HD
ATOM     25  C   UNL A   1      40.822  30.907  34.140  1.00  0.00     0.034 A 
ATOM     26  C   UNL A   1      42.297  26.765  28.688  1.00  0.00     0.034 A 
ATOM     27  C   UNL A   1      41.993  30.085  34.294  1.00  0.00     0.049 A 
ATOM     28  C   UNL A   1      43.166  26.801  29.912  1.00  0.00     0.074 A 
ATOM     29  C   UNL A   1      42.867  30.023  35.366  1.00  0.00     0.029 A 
ATOM     30  N   UNL A   1      42.458  29.181  33.351  1.00  0.00    -0.354 N 
ATOM     31  N   UNL A   1      42.988  27.463  31.029  1.00  0.00    -0.248 NA
ATOM     32  C   UNL A   1      44.374  25.963  29.892  1.00  0.00     0.031 C 
ATOM     33  C   UNL A   1      43.863  29.085  35.070  1.00  0.00     0.029 A 
ATOM     34  C   UNL A   1      43.602  28.555  33.816  1.00  0.00     0.049 A 
ATOM     35  H   UNL A   1      42.036  29.009  32.478  1.00  0.00     0.167 HD
ATOM     36  C   UNL A   1      44.050  27.110  31.852  1.00  0.00     0.074 A 
ATOM     37  C   UNL A   1      44.845  26.147  31.117  1.00  0.00     0.031 C 
ATOM     38  C   UNL A   1      44.353  27.561  33.094  1.00  0.00     0.034 A 
BRANCH  25  39
ATOM     39  C   UNL A   1      40.448  31.824  35.276  1.00  0.00     0.023 A 
ATOM     40  C   UNL A   1      41.148  33.037  35.438  1.00  0.00     0.012 A 
ATOM     41  C   UNL A   1      39.363  31.534  36.128  1.00  0.00     0.148 A 
ATOM     42  C   UNL A   1      40.792  33.937  36.442  1.00  0.00     0.002 A 
ATOM     43  C   UNL A   1      38.990  32.453  37.105  1.00  0.00     0.091 A 
ATOM     44  F   UNL A   1      38.721  30.368  35.972  1.00  0.00    -0.205 F 
ATOM     45  C   UNL A   1      39.708  33.649  37.268  1.00  0.00     0.022 A 
BRANCH  43  46
ATOM     46  S   UNL A   1      37.566  32.209  38.172  1.00  0.00     0.127 S 
ATOM     47  O   UNL A   1      37.393  30.758  38.105  1.00  0.00    -0.237 OA
ATOM     48  O   UNL A   1      38.054  32.704  39.459  1.00  0.00    -0.237 OA
ATOM     49  O   UNL A   1      36.489  32.997  37.589  1.00  0.00    -0.744 OA
ENDBRANCH  43  46
ENDBRANCH  25  39
BRANCH  26  50
ATOM     50  C   UNL A   1      42.627  25.893  27.526  1.00  0.00     0.023 A 
ATOM     51  C   UNL A   1      43.485  26.374  26.519  1.00  0.00     0.012 A 
ATOM     52  C   UNL A   1      42.137  24.576  27.440  1.00  0.00     0.148 A 
ATOM     53  C   UNL A   1      43.830  25.566  25.435  1.00  0.00     0.002 A 
ATOM     54  C   UNL A   1      42.532  23.757  26.389  1.00  0.00     0.091 A 
ATOM     55  F   UNL A   1      41.303  24.141  28.395  1.00  0.00    -0.205 F 
ATOM     56  C   UNL A   1      43.365  24.255  25.376  1.00  0.00     0.022 A 
BRANCH  54  57
ATOM     57  S   UNL A   1      42.096  22.016  26.338  1.00  0.00     0.127 S 
ATOM     58  O   UNL A   1      42.896  21.537  25.215  1.00  0.00    -0.237 OA
ATOM     59  O   UNL A   1      42.536  21.546  27.653  1.00  0.00    -0.237 OA
ATOM     60  O   UNL A   1      40.650  21.993  26.156  1.00  0.00    -0.744 OA
ENDBRANCH  54  57
ENDBRANCH  26  50
BRANCH  38  61
ATOM     61  C   UNL A   1      45.594  27.008  33.742  1.00  0.00     0.023 A 
ATOM     62  C   UNL A   1      46.819  27.686  33.587  1.00  0.00     0.012 A 
ATOM     63  C   UNL A   1      45.539  25.850  34.541  1.00  0.00     0.148 A 
ATOM     64  C   UNL A   1      47.978  27.202  34.192  1.00  0.00     0.002 A 
ATOM     65  C   UNL A   1      46.691  25.397  35.175  1.00  0.00     0.091 A 
ATOM     66  F   UNL A   1      44.369  25.205  34.657  1.00  0.00    -0.205 F 
ATOM     67  C   UNL A   1      47.912  26.065  34.994  1.00  0.00     0.022 A 
BRANCH  65  68
ATOM     68  S   UNL A   1      46.675  23.990  36.292  1.00  0.00     0.127 S 
ATOM     69  O   UNL A   1      45.677  24.402  37.277  1.00  0.00    -0.237 OA
ATOM     70  O   UNL A   1      46.252  22.898  35.415  1.00  0.00    -0.237 OA
ATOM     71  O   UNL A   1      48.038  23.865  36.791  1.00  0.00    -0.744 OA
ENDBRANCH  65  68
ENDBRANCH  38  61
ENDBRANCH  12  13
ENDBRANCH   5   7
ENDBRANCH   2   3
ENDBRANCH   1   2
BRANCH   1  72
ATOM     72  C   UNL A   1      33.091  26.818  26.488  1.00  0.00     0.002 C 
BRANCH  72  73
ATOM     73  C   UNL A   1      34.077  26.166  25.514  1.00  0.00     0.002 C 
BRANCH  73  74
ATOM     74  C   UNL A   1      34.443  24.709  25.809  1.00  0.00     0.021 C 
BRANCH  74  75
ATOM     75  C   UNL A   1      34.170  23.721  24.678  1.00  0.00     0.116 C 
BRANCH  75  76
ATOM     76  N   UNL A   1      33.208  22.698  25.055  1.00  0.00    -0.352 N 
ATOM     77  C   UNL A   1      31.851  22.810  25.229  1.00  0.00     0.251 C 
ATOM     78  H   UNL A   1      33.582  21.799  25.207  1.00  0.00     0.163 HD
ATOM     79  O   UNL A   1      31.204  21.879  25.700  1.00  0.00    -0.269 OA
BRANCH  77  80
ATOM     80  C   UNL A   1      31.166  24.067  24.862  1.00  0.00     0.040 A 
ATOM     81  C   UNL A   1      30.248  24.620  25.751  1.00  0.00     0.016 A 
ATOM     82  C   UNL A   1      31.435  24.700  23.648  1.00  0.00     0.020 A 
ATOM     83  C   UNL A   1      29.620  25.825  25.429  1.00  0.00     0.027 A 
ATOM     84  C   UNL A   1      30.852  25.944  23.351  1.00  0.00    -0.017 A 
ATOM     85  C   UNL A   1      29.892  26.485  24.221  1.00  0.00     0.038 A 
ATOM     86  C   UNL A   1      31.280  26.688  22.106  1.00  0.00     0.049 C 
ATOM     87  N   UNL A   1      29.270  27.697  23.957  1.00  0.00    -0.378 N 
ATOM     88  C   UNL A   1      32.768  26.948  22.070  1.00  0.00    -0.023 C 
ATOM     89  C   UNL A   1      30.744  28.129  22.025  1.00  0.00     0.031 C 
ATOM     90  C   UNL A   1      29.339  28.258  22.613  1.00  0.00     0.114 C 
ATOM     91  H   UNL A   1      28.786  28.175  24.670  1.00  0.00     0.161 HD
ATOM     92  C   UNL A   1      33.065  28.215  22.384  1.00  0.00    -0.030 C 
ATOM     93  C   UNL A   1      31.830  29.008  22.668  1.00  0.00     0.034 C 
BRANCH  90  94
ATOM     94  C   UNL A   1      28.818  29.686  22.560  1.00  0.00    -0.022 A 
ATOM     95  C   UNL A   1      29.052  30.459  21.414  1.00  0.00     0.026 A 
ATOM     96  C   UNL A   1      28.127  30.291  23.618  1.00  0.00     0.026 A 
ATOM     97  C   UNL A   1      28.584  31.764  21.369  1.00  0.00     0.111 A 
ATOM     98  C   UNL A   1      27.683  31.598  23.473  1.00  0.00     0.111 A 
ATOM     99  N   UNL A   1      27.890  32.345  22.368  1.00  0.00    -0.265 NA
ENDBRANCH  90  94
ENDBRANCH  77  80
ENDBRANCH  75  76
ENDBRANCH  74  75
ENDBRANCH  73  74
ENDBRANCH  72  73
ENDBRANCH   1  72
TORSDOF 17
ENDMDL
MODEL 2
REMARK VINA RESULT:     -12.4      2.771      8.928
REMARK SMILES O=C(NCCCCCCNC(=O)c1ccc2c(c1)[C@@H]1C=CC[C@@H]1[C@H](c1ccncc1)N2)c1ccc(-c2c3nc(c(-c4cccc(S(=O)(=O)[O-])c4F)c4ccc([nH]4)c(-c4cccc(S(=O)(=O)[O-])c4F)c4nc(c(-c5cccc(S(=O)(=O)[O-])c5F)c5ccc2[nH]5)C=C4)C=C3)cc1
REMARK SMILES IDX 5 1 4 2 3 3 1 4 2 5 32 7 33 8 94 9 34 10 93 11 35 12 36 13
REMARK SMILES IDX 37 14 87 15 38 16 92 17 86 18 88 19 39 20 91 21 85 22 84 23
REMARK SMILES IDX 40 25 72 26 52 27 71 28 53 29 56 30 70 31 89 32 54 33 55 34
REMARK SMILES IDX 69 36 90 37 57 38 41 39 42 40 50 41 43 42 45 43 51 44 44 45
REMARK SMILES IDX 46 46 47 47 48 48 49 49 73 50 74 51 82 52 75 53 77 54 83 55
REMARK SMILES IDX 76 56 78 57 79 58 80 59 81 60 58 61 59 62 67 63 60 64 62 65
REMARK SMILES IDX 68 66 61 67 63 68 64 69 65 70 66 71 6 72 7 73 8 74 9 75
REMARK SMILES IDX 10 76 11 77 12 79 13 80 14 81 18 82 15 83 17 84 16 85 19 86
REMARK SMILES IDX 31 87 20 88 23 89 24 90 21 92 22 93 25 94 26 95 30 96 27 97
REMARK SMILES IDX 29 98 28 99
REMARK H PARENT 3 6 88 24 56 35 10 78 31 91
REMARK Flexibility Score: inf
ROOT
ATOM      1  C   UNL A   1      31.550  32.207  26.601  1.00  0.00     0.021 C 
ENDROOT
BRANCH   1   2
ATOM      2  C   UNL A   1      32.777  32.800  27.283  1.00  0.00     0.116 C 
BRANCH   2   3
ATOM      3  N   UNL A   1      32.572  34.168  27.724  1.00  0.00    -0.352 N 
ATOM      4  O   UNL A   1      32.769  35.959  29.076  1.00  0.00    -0.269 OA
ATOM      5  C   UNL A   1      33.178  34.845  28.756  1.00  0.00     0.251 C 
ATOM      6  H   UNL A   1      31.906  34.682  27.212  1.00  0.00     0.163 HD
BRANCH   5   7
ATOM      7  C   UNL A   1      34.297  34.217  29.495  1.00  0.00     0.039 A 
ATOM      8  C   UNL A   1      35.623  34.459  29.126  1.00  0.00     0.014 A 
ATOM      9  C   UNL A   1      34.014  33.376  30.574  1.00  0.00     0.014 A 
ATOM     10  C   UNL A   1      36.652  33.755  29.743  1.00  0.00     0.010 A 
ATOM     11  C   UNL A   1      35.058  32.730  31.247  1.00  0.00     0.010 A 
ATOM     12  C   UNL A   1      36.384  32.890  30.818  1.00  0.00    -0.014 A 
BRANCH  12  13
ATOM     13  C   UNL A   1      37.515  32.228  31.517  1.00  0.00     0.031 A 
ATOM     14  C   UNL A   1      38.279  31.098  30.883  1.00  0.00     0.074 A 
ATOM     15  C   UNL A   1      37.861  32.672  32.742  1.00  0.00     0.049 A 
ATOM     16  N   UNL A   1      39.319  30.451  31.344  1.00  0.00    -0.248 NA
ATOM     17  C   UNL A   1      37.817  30.626  29.568  1.00  0.00     0.031 C 
ATOM     18  C   UNL A   1      37.161  33.726  33.482  1.00  0.00     0.029 A 
ATOM     19  N   UNL A   1      38.883  32.303  33.580  1.00  0.00    -0.354 N 
ATOM     20  C   UNL A   1      39.622  29.482  30.394  1.00  0.00     0.074 A 
ATOM     21  C   UNL A   1      38.645  29.615  29.334  1.00  0.00     0.031 C 
ATOM     22  C   UNL A   1      37.787  33.935  34.649  1.00  0.00     0.029 A 
ATOM     23  C   UNL A   1      38.905  33.006  34.761  1.00  0.00     0.049 A 
ATOM     24  H   UNL A   1      39.536  31.600  33.357  1.00  0.00     0.167 HD
ATOM     25  C   UNL A   1      40.636  28.582  30.393  1.00  0.00     0.034 A 
ATOM     26  C   UNL A   1      39.728  32.911  35.823  1.00  0.00     0.034 A 
ATOM     27  C   UNL A   1      41.623  28.473  31.435  1.00  0.00     0.049 A 
ATOM     28  C   UNL A   1      40.861  31.927  35.777  1.00  0.00     0.074 A 
ATOM     29  C   UNL A   1      42.709  27.617  31.507  1.00  0.00     0.029 A 
ATOM     30  N   UNL A   1      41.647  29.243  32.588  1.00  0.00    -0.354 N 
ATOM     31  N   UNL A   1      41.202  31.108  34.812  1.00  0.00    -0.248 NA
ATOM     32  C   UNL A   1      41.743  31.877  36.952  1.00  0.00     0.031 C 
ATOM     33  C   UNL A   1      43.387  27.865  32.706  1.00  0.00     0.029 A 
ATOM     34  C   UNL A   1      42.729  28.885  33.376  1.00  0.00     0.049 A 
ATOM     35  H   UNL A   1      40.992  29.942  32.815  1.00  0.00     0.167 HD
ATOM     36  C   UNL A   1      42.346  30.457  35.255  1.00  0.00     0.074 A 
ATOM     37  C   UNL A   1      42.661  31.005  36.558  1.00  0.00     0.031 C 
ATOM     38  C   UNL A   1      43.058  29.476  34.647  1.00  0.00     0.034 A 
BRANCH  25  39
ATOM     39  C   UNL A   1      40.771  27.677  29.196  1.00  0.00     0.023 A 
ATOM     40  C   UNL A   1      39.957  26.529  29.107  1.00  0.00     0.012 A 
ATOM     41  C   UNL A   1      41.633  27.996  28.127  1.00  0.00     0.148 A 
ATOM     42  C   UNL A   1      40.013  25.701  27.986  1.00  0.00     0.002 A 
ATOM     43  C   UNL A   1      41.658  27.184  26.997  1.00  0.00     0.091 A 
ATOM     44  F   UNL A   1      42.414  29.080  28.237  1.00  0.00    -0.205 F 
ATOM     45  C   UNL A   1      40.856  26.034  26.929  1.00  0.00     0.022 A 
BRANCH  43  46
ATOM     46  S   UNL A   1      42.656  27.565  25.552  1.00  0.00     0.127 S 
ATOM     47  O   UNL A   1      43.995  27.653  26.134  1.00  0.00    -0.237 OA
ATOM     48  O   UNL A   1      42.437  26.391  24.706  1.00  0.00    -0.237 OA
ATOM     49  O   UNL A   1      42.123  28.808  25.013  1.00  0.00    -0.744 OA
ENDBRANCH  43  46
ENDBRANCH  25  39
BRANCH  26  50
ATOM     50  C   UNL A   1      39.533  33.817  36.989  1.00  0.00     0.023 A 
ATOM     51  C   UNL A   1      39.890  35.175  36.882  1.00  0.00     0.012 A 
ATOM     52  C   UNL A   1      38.951  33.353  38.184  1.00  0.00     0.148 A 
ATOM     53  C   UNL A   1      39.692  36.049  37.951  1.00  0.00     0.002 A 
ATOM     54  C   UNL A   1      38.701  34.241  39.224  1.00  0.00     0.091 A 
ATOM     55  F   UNL A   1      38.637  32.053  38.279  1.00  0.00    -0.205 F 
ATOM     56  C   UNL A   1      39.085  35.585  39.116  1.00  0.00     0.022 A 
BRANCH  54  57
ATOM     57  S   UNL A   1      37.784  33.743  40.686  1.00  0.00     0.127 S 
ATOM     58  O   UNL A   1      38.734  32.855  41.349  1.00  0.00    -0.237 OA
ATOM     59  O   UNL A   1      37.560  35.021  41.363  1.00  0.00    -0.237 OA
ATOM     60  O   UNL A   1      36.568  33.122  40.177  1.00  0.00    -0.744 OA
ENDBRANCH  54  57
ENDBRANCH  26  50
BRANCH  38  61
ATOM     61  C   UNL A   1      44.257  28.940  35.383  1.00  0.00     0.023 A 
ATOM     62  C   UNL A   1      45.524  29.513  35.154  1.00  0.00     0.012 A 
ATOM     63  C   UNL A   1      44.123  27.910  36.333  1.00  0.00     0.148 A 
ATOM     64  C   UNL A   1      46.646  29.045  35.836  1.00  0.00     0.002 A 
ATOM     65  C   UNL A   1      45.240  27.479  37.041  1.00  0.00     0.091 A 
ATOM     66  F   UNL A   1      42.913  27.362  36.520  1.00  0.00    -0.205 F 
ATOM     67  C   UNL A   1      46.503  28.037  36.786  1.00  0.00     0.022 A 
BRANCH  65  68
ATOM     68  S   UNL A   1      45.127  26.244  38.340  1.00  0.00     0.127 S 
ATOM     69  O   UNL A   1      44.026  26.761  39.149  1.00  0.00    -0.237 OA
ATOM     70  O   UNL A   1      44.814  25.026  37.591  1.00  0.00    -0.237 OA
ATOM     71  O   UNL A   1      46.433  26.230  38.987  1.00  0.00    -0.744 OA
ENDBRANCH  65  68
ENDBRANCH  38  61
ENDBRANCH  12  13
ENDBRANCH   5   7
ENDBRANCH   2   3
ENDBRANCH   1   2
BRANCH   1  72
ATOM     72  C   UNL A   1      31.519  30.681  26.521  1.00  0.00     0.002 C 
BRANCH  72  73
ATOM     73  C   UNL A   1      32.010  30.071  25.205  1.00  0.00     0.002 C 
BRANCH  73  74
ATOM     74  C   UNL A   1      31.135  28.962  24.613  1.00  0.00     0.021 C 
BRANCH  74  75
ATOM     75  C   UNL A   1      31.156  28.849  23.092  1.00  0.00     0.116 C 
BRANCH  75  76
ATOM     76  N   UNL A   1      32.485  29.048  22.539  1.00  0.00    -0.352 N 
ATOM     77  C   UNL A   1      33.494  28.134  22.359  1.00  0.00     0.251 C 
ATOM     78  H   UNL A   1      32.693  29.968  22.254  1.00  0.00     0.163 HD
ATOM     79  O   UNL A   1      34.615  28.501  22.019  1.00  0.00    -0.269 OA
BRANCH  77  80
ATOM     80  C   UNL A   1      33.232  26.699  22.593  1.00  0.00     0.040 A 
ATOM     81  C   UNL A   1      32.640  25.947  21.580  1.00  0.00     0.016 A 
ATOM     82  C   UNL A   1      33.574  26.096  23.804  1.00  0.00     0.020 A 
ATOM     83  C   UNL A   1      32.418  24.582  21.778  1.00  0.00     0.027 A 
ATOM     84  C   UNL A   1      33.411  24.712  23.980  1.00  0.00    -0.017 A 
ATOM     85  C   UNL A   1      32.774  23.956  22.982  1.00  0.00     0.038 A 
ATOM     86  C   UNL A   1      33.938  24.054  25.236  1.00  0.00     0.049 C 
ATOM     87  N   UNL A   1      32.566  22.591  23.123  1.00  0.00    -0.378 N 
ATOM     88  C   UNL A   1      35.416  24.289  25.437  1.00  0.00    -0.023 C 
ATOM     89  C   UNL A   1      33.904  22.515  25.196  1.00  0.00     0.031 C 
ATOM     90  C   UNL A   1      32.685  21.982  24.442  1.00  0.00     0.114 C 
ATOM     91  H   UNL A   1      32.340  22.038  22.339  1.00  0.00     0.161 HD
ATOM     92  C   UNL A   1      36.146  23.216  25.109  1.00  0.00    -0.030 C 
ATOM     93  C   UNL A   1      35.277  22.088  24.650  1.00  0.00     0.034 C 
BRANCH  90  94
ATOM     94  C   UNL A   1      32.665  20.462  24.376  1.00  0.00    -0.022 A 
ATOM     95  C   UNL A   1      32.377  19.834  23.156  1.00  0.00     0.026 A 
ATOM     96  C   UNL A   1      32.897  19.642  25.487  1.00  0.00     0.026 A 
ATOM     97  C   UNL A   1      32.351  18.448  23.097  1.00  0.00     0.111 A 
ATOM     98  C   UNL A   1      32.866  18.265  25.325  1.00  0.00     0.111 A 
ATOM     99  N   UNL A   1      32.605  17.649  24.152  1.00  0.00    -0.265 NA
ENDBRANCH  90  94
ENDBRANCH  77  80
ENDBRANCH  75  76
ENDBRANCH  74  75
ENDBRANCH  73  74
ENDBRANCH  72  73
ENDBRANCH   1  72
TORSDOF 17
ENDMDL
MODEL 3
REMARK VINA RESULT:     -12.4      5.101     10.380
REMARK SMILES O=C(NCCCCCCNC(=O)c1ccc2c(c1)[C@@H]1C=CC[C@@H]1[C@H](c1ccncc1)N2)c1ccc(-c2c3nc(c(-c4cccc(S(=O)(=O)[O-])c4F)c4ccc([nH]4)c(-c4cccc(S(=O)(=O)[O-])c4F)c4nc(c(-c5cccc(S(=O)(=O)[O-])c5F)c5ccc2[nH]5)C=C4)C=C3)cc1
REMARK SMILES IDX 5 1 4 2 3 3 1 4 2 5 32 7 33 8 94 9 34 10 93 11 35 12 36 13
REMARK SMILES IDX 37 14 87 15 38 16 92 17 86 18 88 19 39 20 91 21 85 22 84 23
REMARK SMILES IDX 40 25 72 26 52 27 71 28 53 29 56 30 70 31 89 32 54 33 55 34
REMARK SMILES IDX 69 36 90 37 57 38 41 39 42 40 50 41 43 42 45 43 51 44 44 45
REMARK SMILES IDX 46 46 47 47 48 48 49 49 73 50 74 51 82 52 75 53 77 54 83 55
REMARK SMILES IDX 76 56 78 57 79 58 80 59 81 60 58 61 59 62 67 63 60 64 62 65
REMARK SMILES IDX 68 66 61 67 63 68 64 69 65 70 66 71 6 72 7 73 8 74 9 75
REMARK SMILES IDX 10 76 11 77 12 79 13 80 14 81 18 82 15 83 17 84 16 85 19 86
REMARK SMILES IDX 31 87 20 88 23 89 24 90 21 92 22 93 25 94 26 95 30 96 27 97
REMARK SMILES IDX 29 98 28 99
REMARK H PARENT 3 6 88 24 56 35 10 78 31 91
REMARK Flexibility Score: inf
ROOT
ATOM      1  C   UNL A   1      35.951  22.882  24.555  1.00  0.00     0.021 C 
ENDROOT
BRANCH   1   2
ATOM      2  C   UNL A   1      36.613  22.736  25.920  1.00  0.00     0.116 C 
BRANCH   2   3
ATOM      3  N   UNL A   1      37.558  21.634  25.973  1.00  0.00    -0.352 N 
ATOM      4  O   UNL A   1      39.577  20.643  26.084  1.00  0.00    -0.269 OA
ATOM      5  C   UNL A   1      38.909  21.665  26.224  1.00  0.00     0.251 C 
ATOM      6  H   UNL A   1      37.176  20.742  25.807  1.00  0.00     0.163 HD
BRANCH   5   7
ATOM      7  C   UNL A   1      39.556  22.932  26.632  1.00  0.00     0.039 A 
ATOM      8  C   UNL A   1      40.493  22.957  27.668  1.00  0.00     0.014 A 
ATOM      9  C   UNL A   1      39.223  24.114  25.964  1.00  0.00     0.014 A 
ATOM     10  C   UNL A   1      40.987  24.174  28.127  1.00  0.00     0.010 A 
ATOM     11  C   UNL A   1      39.784  25.329  26.374  1.00  0.00     0.010 A 
ATOM     12  C   UNL A   1      40.647  25.374  27.478  1.00  0.00    -0.014 A 
BRANCH  12  13
ATOM     13  C   UNL A   1      41.267  26.645  27.932  1.00  0.00     0.031 A 
ATOM     14  C   UNL A   1      42.702  26.975  27.627  1.00  0.00     0.074 A 
ATOM     15  C   UNL A   1      40.505  27.521  28.621  1.00  0.00     0.049 A 
ATOM     16  N   UNL A   1      43.372  28.063  27.911  1.00  0.00    -0.248 NA
ATOM     17  C   UNL A   1      43.492  25.956  26.918  1.00  0.00     0.031 C 
ATOM     18  C   UNL A   1      39.115  27.288  29.023  1.00  0.00     0.029 A 
ATOM     19  N   UNL A   1      40.784  28.774  29.101  1.00  0.00    -0.354 N 
ATOM     20  C   UNL A   1      44.664  27.853  27.443  1.00  0.00     0.074 A 
ATOM     21  C   UNL A   1      44.690  26.525  26.867  1.00  0.00     0.031 C 
ATOM     22  C   UNL A   1      38.656  28.372  29.665  1.00  0.00     0.029 A 
ATOM     23  C   UNL A   1      39.727  29.358  29.758  1.00  0.00     0.049 A 
ATOM     24  H   UNL A   1      41.658  29.214  28.987  1.00  0.00     0.167 HD
ATOM     25  C   UNL A   1      45.724  28.698  27.468  1.00  0.00     0.034 A 
ATOM     26  C   UNL A   1      39.627  30.551  30.375  1.00  0.00     0.034 A 
ATOM     27  C   UNL A   1      45.686  30.029  28.015  1.00  0.00     0.049 A 
ATOM     28  C   UNL A   1      40.808  31.478  30.356  1.00  0.00     0.074 A 
ATOM     29  C   UNL A   1      46.697  30.974  28.055  1.00  0.00     0.029 A 
ATOM     30  N   UNL A   1      44.579  30.607  28.619  1.00  0.00    -0.354 N 
ATOM     31  N   UNL A   1      41.981  31.306  29.796  1.00  0.00    -0.248 NA
ATOM     32  C   UNL A   1      40.642  32.776  31.025  1.00  0.00     0.031 C 
ATOM     33  C   UNL A   1      46.204  32.121  28.687  1.00  0.00     0.029 A 
ATOM     34  C   UNL A   1      44.881  31.894  29.031  1.00  0.00     0.049 A 
ATOM     35  H   UNL A   1      43.706  30.167  28.737  1.00  0.00     0.167 HD
ATOM     36  C   UNL A   1      42.687  32.479  30.029  1.00  0.00     0.074 A 
ATOM     37  C   UNL A   1      41.797  33.367  30.748  1.00  0.00     0.031 C 
ATOM     38  C   UNL A   1      43.967  32.784  29.700  1.00  0.00     0.034 A 
BRANCH  25  39
ATOM     39  C   UNL A   1      47.008  28.235  26.829  1.00  0.00     0.023 A 
ATOM     40  C   UNL A   1      48.075  27.823  27.652  1.00  0.00     0.012 A 
ATOM     41  C   UNL A   1      47.135  28.128  25.429  1.00  0.00     0.148 A 
ATOM     42  C   UNL A   1      49.256  27.332  27.096  1.00  0.00     0.002 A 
ATOM     43  C   UNL A   1      48.302  27.604  24.882  1.00  0.00     0.091 A 
ATOM     44  F   UNL A   1      46.118  28.542  24.660  1.00  0.00    -0.205 F 
ATOM     45  C   UNL A   1      49.366  27.215  25.712  1.00  0.00     0.022 A 
BRANCH  43  46
ATOM     46  S   UNL A   1      48.515  27.346  23.116  1.00  0.00     0.127 S 
ATOM     47  O   UNL A   1      47.456  28.192  22.565  1.00  0.00    -0.237 OA
ATOM     48  O   UNL A   1      49.871  27.846  22.891  1.00  0.00    -0.237 OA
ATOM     49  O   UNL A   1      48.353  25.915  22.899  1.00  0.00    -0.744 OA
ENDBRANCH  43  46
ENDBRANCH  25  39
BRANCH  26  50
ATOM     50  C   UNL A   1      38.339  30.947  31.009  1.00  0.00     0.023 A 
ATOM     51  C   UNL A   1      38.147  30.726  32.387  1.00  0.00     0.012 A 
ATOM     52  C   UNL A   1      37.326  31.585  30.269  1.00  0.00     0.148 A 
ATOM     53  C   UNL A   1      36.959  31.113  33.009  1.00  0.00     0.002 A 
ATOM     54  C   UNL A   1      36.171  32.022  30.907  1.00  0.00     0.091 A 
ATOM     55  F   UNL A   1      37.515  31.768  28.954  1.00  0.00    -0.205 F 
ATOM     56  C   UNL A   1      35.978  31.772  32.273  1.00  0.00     0.022 A 
BRANCH  54  57
ATOM     57  S   UNL A   1      34.941  33.013  30.051  1.00  0.00     0.127 S 
ATOM     58  O   UNL A   1      34.392  32.053  29.098  1.00  0.00    -0.237 OA
ATOM     59  O   UNL A   1      34.035  33.390  31.136  1.00  0.00    -0.237 OA
ATOM     60  O   UNL A   1      35.684  34.131  29.484  1.00  0.00    -0.744 OA
ENDBRANCH  54  57
ENDBRANCH  26  50
BRANCH  38  61
ATOM     61  C   UNL A   1      44.476  34.141  30.104  1.00  0.00     0.023 A 
ATOM     62  C   UNL A   1      45.173  34.286  31.320  1.00  0.00     0.012 A 
ATOM     63  C   UNL A   1      44.309  35.258  29.263  1.00  0.00     0.148 A 
ATOM     64  C   UNL A   1      45.669  35.530  31.708  1.00  0.00     0.002 A 
ATOM     65  C   UNL A   1      44.843  36.486  29.638  1.00  0.00     0.091 A 
ATOM     66  F   UNL A   1      43.622  35.105  28.122  1.00  0.00    -0.205 F 
ATOM     67  C   UNL A   1      45.514  36.627  30.863  1.00  0.00     0.022 A 
BRANCH  65  68
ATOM     68  S   UNL A   1      44.760  37.928  28.570  1.00  0.00     0.127 S 
ATOM     69  O   UNL A   1      43.321  38.179  28.517  1.00  0.00    -0.237 OA
ATOM     70  O   UNL A   1      45.525  38.922  29.323  1.00  0.00    -0.237 OA
ATOM     71  O   UNL A   1      45.376  37.525  27.312  1.00  0.00    -0.744 OA
ENDBRANCH  65  68
ENDBRANCH  38  61
ENDBRANCH  12  13
ENDBRANCH   5   7
ENDBRANCH   2   3
ENDBRANCH   1   2
BRANCH   1  72
ATOM     72  C   UNL A   1      35.379  24.267  24.248  1.00  0.00     0.002 C 
BRANCH  72  73
ATOM     73  C   UNL A   1      34.714  24.990  25.424  1.00  0.00     0.002 C 
BRANCH  73  74
ATOM     74  C   UNL A   1      34.189  26.398  25.132  1.00  0.00     0.021 C 
BRANCH  74  75
ATOM     75  C   UNL A   1      32.684  26.586  25.299  1.00  0.00     0.116 C 
BRANCH  75  76
ATOM     76  N   UNL A   1      32.028  26.941  24.051  1.00  0.00    -0.352 N 
ATOM     77  C   UNL A   1      31.750  26.150  22.964  1.00  0.00     0.251 C 
ATOM     78  H   UNL A   1      31.743  27.881  23.974  1.00  0.00     0.163 HD
ATOM     79  O   UNL A   1      31.326  26.646  21.924  1.00  0.00    -0.269 OA
BRANCH  77  80
ATOM     80  C   UNL A   1      31.980  24.692  23.041  1.00  0.00     0.040 A 
ATOM     81  C   UNL A   1      32.601  24.049  21.973  1.00  0.00     0.016 A 
ATOM     82  C   UNL A   1      31.589  23.964  24.166  1.00  0.00     0.020 A 
ATOM     83  C   UNL A   1      32.852  22.677  22.050  1.00  0.00     0.027 A 
ATOM     84  C   UNL A   1      31.899  22.598  24.271  1.00  0.00    -0.017 A 
ATOM     85  C   UNL A   1      32.484  21.934  23.180  1.00  0.00     0.038 A 
ATOM     86  C   UNL A   1      31.612  21.867  25.564  1.00  0.00     0.049 C 
ATOM     87  N   UNL A   1      32.783  20.579  23.228  1.00  0.00    -0.378 N 
ATOM     88  C   UNL A   1      32.293  22.503  26.752  1.00  0.00    -0.023 C 
ATOM     89  C   UNL A   1      32.209  20.450  25.625  1.00  0.00     0.031 C 
ATOM     90  C   UNL A   1      32.182  19.750  24.266  1.00  0.00     0.114 C 
ATOM     91  H   UNL A   1      33.396  20.181  22.567  1.00  0.00     0.161 HD
ATOM     92  C   UNL A   1      33.380  21.821  27.133  1.00  0.00    -0.030 C 
ATOM     93  C   UNL A   1      33.594  20.616  26.274  1.00  0.00     0.034 C 
BRANCH  90  94
ATOM     94  C   UNL A   1      32.799  18.360  24.318  1.00  0.00    -0.022 A 
ATOM     95  C   UNL A   1      32.613  17.571  25.461  1.00  0.00     0.026 A 
ATOM     96  C   UNL A   1      33.574  17.825  23.281  1.00  0.00     0.026 A 
ATOM     97  C   UNL A   1      33.182  16.306  25.511  1.00  0.00     0.111 A 
ATOM     98  C   UNL A   1      34.088  16.544  23.418  1.00  0.00     0.111 A 
ATOM     99  N   UNL A   1      33.902  15.769  24.507  1.00  0.00    -0.265 NA
ENDBRANCH  90  94
ENDBRANCH  77  80
ENDBRANCH  75  76
ENDBRANCH  74  75
ENDBRANCH  73  74
ENDBRANCH  72  73
ENDBRANCH   1  72
TORSDOF 17
ENDMDL
