MODEL 1
REMARK VINA RESULT:     -10.7      0.000      0.000
REMARK SMILES O=C(NCCCCCCNC(=O)[C@H](CO)NC(=O)[C@H](CS)NC(=O)[C@H](Cc1ccccc1)NC(=O)c1ccc(F)cc1)c1ccc(-c2c3nc(c(-c4cccc(S(=O)(=O)[O-])c4F)c4ccc([nH]4)c(-c4cccc(S(=O)(=O)[O-])c4F)c4nc(c(-c5cccc(S(=O)(=O)[O-])c5F)c5ccc2[nH]5)C=C4)C=C3)cc1
REMARK SMILES IDX 8 1 7 2 6 3 5 4 4 5 3 6 1 7 2 8 43 10 44 11 105 12 45 13
REMARK SMILES IDX 104 14 46 15 47 16 48 17 98 18 49 19 103 20 97 21 99 22
REMARK SMILES IDX 50 23 102 24 96 25 95 26 51 28 83 29 63 30 82 31 64 32 67 33
REMARK SMILES IDX 81 34 100 35 65 36 66 37 80 39 101 40 68 41 52 42 53 43
REMARK SMILES IDX 61 44 54 45 56 46 62 47 55 48 57 49 58 50 59 51 60 52 84 53
REMARK SMILES IDX 85 54 93 55 86 56 88 57 94 58 87 59 89 60 90 61 91 62 92 63
REMARK SMILES IDX 69 64 70 65 78 66 71 67 73 68 79 69 72 70 74 71 75 72 76 73
REMARK SMILES IDX 77 74 9 75 10 76 11 77 12 79 13 80 16 81 17 82 18 84 19 85
REMARK SMILES IDX 22 86 23 87 24 89 25 90 33 91 34 92 35 94 36 95 37 96 42 97
REMARK SMILES IDX 38 98 41 99 39 100 40 101 26 102 27 103 28 104 32 105 29 106
REMARK SMILES IDX 31 107 30 108 20 109 21 110 14 112 15 113
REMARK H PARENT 3 9 99 27 67 38 10 78 16 83 22 88 33 93 21 111 15 114
REMARK Flexibility Score: inf
ROOT
ATOM      1  C   UNL A   1      35.238  30.215  27.643  1.00  0.00     0.021 C 
ENDROOT
BRANCH   1   2
ATOM      2  C   UNL A   1      34.760  31.354  28.539  1.00  0.00     0.002 C 
BRANCH   2   3
ATOM      3  C   UNL A   1      35.026  32.768  28.015  1.00  0.00     0.002 C 
BRANCH   3   4
ATOM      4  C   UNL A   1      33.805  33.686  27.920  1.00  0.00     0.021 C 
BRANCH   4   5
ATOM      5  C   UNL A   1      34.024  35.112  28.407  1.00  0.00     0.116 C 
BRANCH   5   6
ATOM      6  N   UNL A   1      33.171  35.456  29.532  1.00  0.00    -0.352 N 
ATOM      7  O   UNL A   1      32.361  35.337  31.630  1.00  0.00    -0.269 OA
ATOM      8  C   UNL A   1      33.279  35.090  30.851  1.00  0.00     0.251 C 
ATOM      9  H   UNL A   1      32.404  36.034  29.317  1.00  0.00     0.163 HD
BRANCH   8  10
ATOM     10  C   UNL A   1      34.488  34.378  31.317  1.00  0.00     0.039 A 
ATOM     11  C   UNL A   1      35.761  34.835  30.966  1.00  0.00     0.014 A 
ATOM     12  C   UNL A   1      34.347  33.244  32.121  1.00  0.00     0.014 A 
ATOM     13  C   UNL A   1      36.882  34.081  31.296  1.00  0.00     0.010 A 
ATOM     14  C   UNL A   1      35.482  32.537  32.528  1.00  0.00     0.010 A 
ATOM     15  C   UNL A   1      36.757  32.933  32.095  1.00  0.00    -0.014 A 
BRANCH  15  16
ATOM     16  C   UNL A   1      37.981  32.218  32.536  1.00  0.00     0.031 A 
ATOM     17  C   UNL A   1      38.613  31.149  31.689  1.00  0.00     0.074 A 
ATOM     18  C   UNL A   1      38.519  32.543  33.728  1.00  0.00     0.049 A 
ATOM     19  N   UNL A   1      39.688  30.442  31.926  1.00  0.00    -0.248 NA
ATOM     20  C   UNL A   1      37.954  30.822  30.415  1.00  0.00     0.031 C 
ATOM     21  C   UNL A   1      37.967  33.535  34.656  1.00  0.00     0.029 A 
ATOM     22  N   UNL A   1      39.640  32.080  34.368  1.00  0.00    -0.354 N 
ATOM     23  C   UNL A   1      39.815  29.562  30.859  1.00  0.00     0.074 A 
ATOM     24  C   UNL A   1      38.701  29.818  29.970  1.00  0.00     0.031 C 
ATOM     25  C   UNL A   1      38.759  33.620  35.734  1.00  0.00     0.029 A 
ATOM     26  C   UNL A   1      39.840  32.652  35.602  1.00  0.00     0.049 A 
ATOM     27  H   UNL A   1      40.241  31.402  33.981  1.00  0.00     0.167 HD
ATOM     28  C   UNL A   1      40.779  28.636  30.634  1.00  0.00     0.034 A 
ATOM     29  C   UNL A   1      40.777  32.410  36.538  1.00  0.00     0.034 A 
ATOM     30  C   UNL A   1      41.898  28.405  31.512  1.00  0.00     0.049 A 
ATOM     31  C   UNL A   1      41.837  31.386  36.255  1.00  0.00     0.074 A 
ATOM     32  C   UNL A   1      42.961  27.537  31.339  1.00  0.00     0.029 A 
ATOM     33  N   UNL A   1      42.092  29.034  32.733  1.00  0.00    -0.354 N 
ATOM     34  N   UNL A   1      42.013  30.659  35.179  1.00  0.00    -0.248 NA
ATOM     35  C   UNL A   1      42.843  31.168  37.303  1.00  0.00     0.031 C 
ATOM     36  C   UNL A   1      43.781  27.618  32.470  1.00  0.00     0.029 A 
ATOM     37  C   UNL A   1      43.248  28.561  33.332  1.00  0.00     0.049 A 
ATOM     38  H   UNL A   1      41.495  29.715  33.119  1.00  0.00     0.167 HD
ATOM     39  C   UNL A   1      43.166  29.917  35.406  1.00  0.00     0.074 A 
ATOM     40  C   UNL A   1      43.660  30.304  36.713  1.00  0.00     0.031 C 
ATOM     41  C   UNL A   1      43.752  28.988  34.613  1.00  0.00     0.034 A 
BRANCH  28  42
ATOM     42  C   UNL A   1      40.690  27.816  29.372  1.00  0.00     0.023 A 
ATOM     43  C   UNL A   1      39.669  26.853  29.235  1.00  0.00     0.012 A 
ATOM     44  C   UNL A   1      41.566  28.050  28.293  1.00  0.00     0.148 A 
ATOM     45  C   UNL A   1      39.541  26.114  28.059  1.00  0.00     0.002 A 
ATOM     46  C   UNL A   1      41.405  27.340  27.107  1.00  0.00     0.091 A 
ATOM     47  F   UNL A   1      42.542  28.956  28.446  1.00  0.00    -0.205 F 
ATOM     48  C   UNL A   1      40.401  26.365  26.993  1.00  0.00     0.022 A 
BRANCH  46  49
ATOM     49  S   UNL A   1      42.410  27.644  25.649  1.00  0.00     0.127 S 
ATOM     50  O   UNL A   1      43.739  27.803  26.237  1.00  0.00    -0.237 OA
ATOM     51  O   UNL A   1      42.225  26.410  24.885  1.00  0.00    -0.237 OA
ATOM     52  O   UNL A   1      41.857  28.836  25.021  1.00  0.00    -0.744 OA
ENDBRANCH  46  49
ENDBRANCH  28  42
BRANCH  29  53
ATOM     53  C   UNL A   1      40.764  33.181  37.812  1.00  0.00     0.023 A 
ATOM     54  C   UNL A   1      40.006  32.710  38.902  1.00  0.00     0.012 A 
ATOM     55  C   UNL A   1      41.532  34.353  37.963  1.00  0.00     0.148 A 
ATOM     56  C   UNL A   1      39.993  33.407  40.110  1.00  0.00     0.002 A 
ATOM     57  C   UNL A   1      41.562  35.008  39.187  1.00  0.00     0.091 A 
ATOM     58  F   UNL A   1      42.236  34.790  36.909  1.00  0.00    -0.205 F 
ATOM     59  C   UNL A   1      40.779  34.548  40.257  1.00  0.00     0.022 A 
BRANCH  57  60
ATOM     60  S   UNL A   1      42.653  36.398  39.506  1.00  0.00     0.127 S 
ATOM     61  O   UNL A   1      43.970  35.778  39.384  1.00  0.00    -0.237 OA
ATOM     62  O   UNL A   1      42.300  37.315  38.421  1.00  0.00    -0.237 OA
ATOM     63  O   UNL A   1      42.298  36.877  40.834  1.00  0.00    -0.744 OA
ENDBRANCH  57  60
ENDBRANCH  29  53
BRANCH  41  64
ATOM     64  C   UNL A   1      45.016  28.344  35.120  1.00  0.00     0.023 A 
ATOM     65  C   UNL A   1      46.264  28.941  34.854  1.00  0.00     0.012 A 
ATOM     66  C   UNL A   1      44.960  27.179  35.910  1.00  0.00     0.148 A 
ATOM     67  C   UNL A   1      47.441  28.368  35.335  1.00  0.00     0.002 A 
ATOM     68  C   UNL A   1      46.132  26.643  36.430  1.00  0.00     0.091 A 
ATOM     69  F   UNL A   1      43.765  26.616  36.135  1.00  0.00    -0.205 F 
ATOM     70  C   UNL A   1      47.373  27.228  36.133  1.00  0.00     0.022 A 
BRANCH  68  71
ATOM     71  S   UNL A   1      46.133  25.234  37.544  1.00  0.00     0.127 S 
ATOM     72  O   UNL A   1      45.247  25.696  38.611  1.00  0.00    -0.237 OA
ATOM     73  O   UNL A   1      45.574  24.175  36.704  1.00  0.00    -0.237 OA
ATOM     74  O   UNL A   1      47.521  25.028  37.931  1.00  0.00    -0.744 OA
ENDBRANCH  68  71
ENDBRANCH  41  64
ENDBRANCH  15  16
ENDBRANCH   8  10
ENDBRANCH   5   6
ENDBRANCH   4   5
ENDBRANCH   3   4
ENDBRANCH   2   3
ENDBRANCH   1   2
BRANCH   1  75
ATOM     75  C   UNL A   1      34.153  29.517  26.842  1.00  0.00     0.116 C 
BRANCH  75  76
ATOM     76  N   UNL A   1      33.040  30.367  26.475  1.00  0.00    -0.354 N 
ATOM     77  C   UNL A   1      32.029  30.117  25.592  1.00  0.00     0.244 C 
ATOM     78  H   UNL A   1      33.008  31.242  26.923  1.00  0.00     0.163 HD
ATOM     79  O   UNL A   1      31.078  30.903  25.550  1.00  0.00    -0.273 OA
BRANCH  77  80
ATOM     80  C   UNL A   1      32.068  28.879  24.677  1.00  0.00     0.197 C 
BRANCH  80  81
ATOM     81  N   UNL A   1      30.739  28.741  24.072  1.00  0.00    -0.340 N 
ATOM     82  C   UNL A   1      30.038  27.694  23.566  1.00  0.00     0.244 C 
ATOM     83  H   UNL A   1      30.249  29.593  24.020  1.00  0.00     0.164 HD
ATOM     84  O   UNL A   1      28.867  27.947  23.253  1.00  0.00    -0.273 OA
BRANCH  82  85
ATOM     85  C   UNL A   1      30.643  26.305  23.199  1.00  0.00     0.181 C 
BRANCH  85  86
ATOM     86  N   UNL A   1      31.548  26.247  22.055  1.00  0.00    -0.342 N 
ATOM     87  C   UNL A   1      32.533  25.390  21.686  1.00  0.00     0.243 C 
ATOM     88  H   UNL A   1      31.416  26.985  21.417  1.00  0.00     0.164 HD
ATOM     89  O   UNL A   1      33.087  25.628  20.606  1.00  0.00    -0.273 OA
BRANCH  87  90
ATOM     90  C   UNL A   1      33.012  24.254  22.606  1.00  0.00     0.176 C 
BRANCH  90  91
ATOM     91  N   UNL A   1      32.254  23.064  22.188  1.00  0.00    -0.340 N 
ATOM     92  C   UNL A   1      32.156  21.813  22.727  1.00  0.00     0.251 C 
ATOM     93  H   UNL A   1      31.721  23.193  21.371  1.00  0.00     0.164 HD
ATOM     94  O   UNL A   1      31.669  20.895  22.074  1.00  0.00    -0.269 OA
BRANCH  92  95
ATOM     95  C   UNL A   1      32.591  21.550  24.111  1.00  0.00     0.040 A 
ATOM     96  C   UNL A   1      32.039  22.294  25.159  1.00  0.00     0.017 A 
ATOM     97  C   UNL A   1      33.663  20.686  24.351  1.00  0.00     0.017 A 
ATOM     98  C   UNL A   1      32.539  22.139  26.455  1.00  0.00     0.040 A 
ATOM     99  C   UNL A   1      34.164  20.535  25.644  1.00  0.00     0.040 A 
ATOM    100  C   UNL A   1      33.595  21.261  26.684  1.00  0.00     0.123 A 
ATOM    101  F   UNL A   1      34.084  21.128  27.923  1.00  0.00    -0.207 F 
ENDBRANCH  92  95
ENDBRANCH  90  91
BRANCH  90 102
ATOM    102  C   UNL A   1      34.524  24.103  22.333  1.00  0.00     0.070 C 
BRANCH 102 103
ATOM    103  C   UNL A   1      35.411  23.774  23.506  1.00  0.00    -0.045 A 
ATOM    104  C   UNL A   1      36.456  22.849  23.370  1.00  0.00     0.004 A 
ATOM    105  C   UNL A   1      35.137  24.297  24.777  1.00  0.00     0.004 A 
ATOM    106  C   UNL A   1      37.207  22.463  24.482  1.00  0.00     0.000 A 
ATOM    107  C   UNL A   1      35.900  23.925  25.883  1.00  0.00     0.000 A 
ATOM    108  C   UNL A   1      36.932  23.004  25.737  1.00  0.00     0.000 A 
ENDBRANCH 102 103
ENDBRANCH  90 102
ENDBRANCH  87  90
ENDBRANCH  85  86
BRANCH  85 109
ATOM    109  C   UNL A   1      31.340  25.715  24.456  1.00  0.00     0.101 C 
BRANCH 109 110
ATOM    110  S   UNL A   1      30.238  25.589  25.921  1.00  0.00    -0.177 SA
ATOM    111  H   UNL A   1      30.836  26.180  26.990  1.00  0.00     0.102 HD
ENDBRANCH 109 110
ENDBRANCH  85 109
ENDBRANCH  82  85
ENDBRANCH  80  81
BRANCH  80 112
ATOM    112  C   UNL A   1      33.167  29.103  23.623  1.00  0.00     0.191 C 
BRANCH 112 113
ATOM    113  O   UNL A   1      32.587  29.305  22.330  1.00  0.00    -0.394 OA
ATOM    114  H   UNL A   1      32.690  28.499  21.799  1.00  0.00     0.210 HD
ENDBRANCH 112 113
ENDBRANCH  80 112
ENDBRANCH  77  80
ENDBRANCH  75  76
ENDBRANCH   1  75
TORSDOF 28
ENDMDL
MODEL 2
REMARK VINA RESULT:     -10.3      1.646      7.352
REMARK SMILES O=C(NCCCCCCNC(=O)[C@H](CO)NC(=O)[C@H](CS)NC(=O)[C@H](Cc1ccccc1)NC(=O)c1ccc(F)cc1)c1ccc(-c2c3nc(c(-c4cccc(S(=O)(=O)[O-])c4F)c4ccc([nH]4)c(-c4cccc(S(=O)(=O)[O-])c4F)c4nc(c(-c5cccc(S(=O)(=O)[O-])c5F)c5ccc2[nH]5)C=C4)C=C3)cc1
REMARK SMILES IDX 8 1 7 2 6 3 5 4 4 5 3 6 1 7 2 8 43 10 44 11 105 12 45 13
REMARK SMILES IDX 104 14 46 15 47 16 48 17 98 18 49 19 103 20 97 21 99 22
REMARK SMILES IDX 50 23 102 24 96 25 95 26 51 28 83 29 63 30 82 31 64 32 67 33
REMARK SMILES IDX 81 34 100 35 65 36 66 37 80 39 101 40 68 41 52 42 53 43
REMARK SMILES IDX 61 44 54 45 56 46 62 47 55 48 57 49 58 50 59 51 60 52 84 53
REMARK SMILES IDX 85 54 93 55 86 56 88 57 94 58 87 59 89 60 90 61 91 62 92 63
REMARK SMILES IDX 69 64 70 65 78 66 71 67 73 68 79 69 72 70 74 71 75 72 76 73
REMARK SMILES IDX 77 74 9 75 10 76 11 77 12 79 13 80 16 81 17 82 18 84 19 85
REMARK SMILES IDX 22 86 23 87 24 89 25 90 33 91 34 92 35 94 36 95 37 96 42 97
REMARK SMILES IDX 38 98 41 99 39 100 40 101 26 102 27 103 28 104 32 105 29 106
REMARK SMILES IDX 31 107 30 108 20 109 21 110 14 112 15 113
REMARK H PARENT 3 9 99 27 67 38 10 78 16 83 22 88 33 93 21 111 15 114
REMARK Flexibility Score: inf
ROOT
ATOM      1  C   UNL A   1      35.312  30.658  27.892  1.00  0.00     0.021 C 
ENDROOT
BRANCH   1   2
ATOM      2  C   UNL A   1      35.377  31.943  28.713  1.00  0.00     0.002 C 
BRANCH   2   3
ATOM      3  C   UNL A   1      35.660  33.223  27.923  1.00  0.00     0.002 C 
BRANCH   3   4
ATOM      4  C   UNL A   1      34.622  34.339  28.064  1.00  0.00     0.021 C 
BRANCH   4   5
ATOM      5  C   UNL A   1      33.354  33.957  28.815  1.00  0.00     0.116 C 
BRANCH   5   6
ATOM      6  N   UNL A   1      33.006  34.917  29.849  1.00  0.00    -0.352 N 
ATOM      7  O   UNL A   1      32.995  35.833  31.906  1.00  0.00    -0.269 OA
ATOM      8  C   UNL A   1      33.538  35.074  31.105  1.00  0.00     0.251 C 
ATOM      9  H   UNL A   1      32.285  35.545  29.615  1.00  0.00     0.163 HD
BRANCH   8  10
ATOM     10  C   UNL A   1      34.744  34.312  31.492  1.00  0.00     0.039 A 
ATOM     11  C   UNL A   1      34.627  33.065  32.112  1.00  0.00     0.014 A 
ATOM     12  C   UNL A   1      36.006  34.847  31.225  1.00  0.00     0.014 A 
ATOM     13  C   UNL A   1      35.762  32.423  32.593  1.00  0.00     0.010 A 
ATOM     14  C   UNL A   1      37.152  34.156  31.629  1.00  0.00     0.010 A 
ATOM     15  C   UNL A   1      37.039  32.952  32.342  1.00  0.00    -0.014 A 
BRANCH  15  16
ATOM     16  C   UNL A   1      38.239  32.183  32.758  1.00  0.00     0.031 A 
ATOM     17  C   UNL A   1      38.950  32.476  34.050  1.00  0.00     0.074 A 
ATOM     18  C   UNL A   1      38.690  31.209  31.943  1.00  0.00     0.049 A 
ATOM     19  N   UNL A   1      40.001  31.887  34.560  1.00  0.00    -0.248 NA
ATOM     20  C   UNL A   1      38.423  33.575  34.874  1.00  0.00     0.031 C 
ATOM     21  C   UNL A   1      38.106  30.864  30.643  1.00  0.00     0.029 A 
ATOM     22  N   UNL A   1      39.737  30.334  32.077  1.00  0.00    -0.354 N 
ATOM     23  C   UNL A   1      40.287  32.563  35.740  1.00  0.00     0.074 A 
ATOM     24  C   UNL A   1      39.300  33.614  35.870  1.00  0.00     0.031 C 
ATOM     25  C   UNL A   1      38.789  29.841  30.110  1.00  0.00     0.029 A 
ATOM     26  C   UNL A   1      39.890  29.495  30.999  1.00  0.00     0.049 A 
ATOM     27  H   UNL A   1      40.323  30.310  32.869  1.00  0.00     0.167 HD
ATOM     28  C   UNL A   1      41.272  32.319  36.638  1.00  0.00     0.034 A 
ATOM     29  C   UNL A   1      40.827  28.564  30.739  1.00  0.00     0.034 A 
ATOM     30  C   UNL A   1      42.235  31.255  36.513  1.00  0.00     0.049 A 
ATOM     31  C   UNL A   1      41.900  28.311  31.757  1.00  0.00     0.074 A 
ATOM     32  C   UNL A   1      43.230  30.886  37.401  1.00  0.00     0.029 A 
ATOM     33  N   UNL A   1      42.333  30.397  35.427  1.00  0.00    -0.354 N 
ATOM     34  N   UNL A   1      42.072  28.873  32.929  1.00  0.00    -0.248 NA
ATOM     35  C   UNL A   1      42.891  27.277  31.433  1.00  0.00     0.031 C 
ATOM     36  C   UNL A   1      43.949  29.826  36.839  1.00  0.00     0.029 A 
ATOM     37  C   UNL A   1      43.382  29.511  35.615  1.00  0.00     0.049 A 
ATOM     38  H   UNL A   1      41.745  30.416  34.637  1.00  0.00     0.167 HD
ATOM     39  C   UNL A   1      43.173  28.243  33.495  1.00  0.00     0.074 A 
ATOM     40  C   UNL A   1      43.610  27.237  32.547  1.00  0.00     0.031 C 
ATOM     41  C   UNL A   1      43.778  28.486  34.683  1.00  0.00     0.034 A 
BRANCH  28  42
ATOM     42  C   UNL A   1      41.349  33.201  37.859  1.00  0.00     0.023 A 
ATOM     43  C   UNL A   1      40.662  32.831  39.033  1.00  0.00     0.012 A 
ATOM     44  C   UNL A   1      42.159  34.354  37.869  1.00  0.00     0.148 A 
ATOM     45  C   UNL A   1      40.755  33.609  40.187  1.00  0.00     0.002 A 
ATOM     46  C   UNL A   1      42.280  35.102  39.036  1.00  0.00     0.091 A 
ATOM     47  F   UNL A   1      42.791  34.703  36.739  1.00  0.00    -0.205 F 
ATOM     48  C   UNL A   1      41.571  34.737  40.191  1.00  0.00     0.022 A 
BRANCH  46  49
ATOM     49  S   UNL A   1      43.368  36.526  39.168  1.00  0.00     0.127 S 
ATOM     50  O   UNL A   1      44.666  35.935  38.844  1.00  0.00    -0.237 OA
ATOM     51  O   UNL A   1      42.831  37.419  38.142  1.00  0.00    -0.237 OA
ATOM     52  O   UNL A   1      43.227  37.014  40.534  1.00  0.00    -0.744 OA
ENDBRANCH  46  49
ENDBRANCH  28  42
BRANCH  29  53
ATOM     53  C   UNL A   1      40.763  27.786  29.471  1.00  0.00     0.023 A 
ATOM     54  C   UNL A   1      39.787  26.782  29.320  1.00  0.00     0.012 A 
ATOM     55  C   UNL A   1      41.634  28.066  28.399  1.00  0.00     0.148 A 
ATOM     56  C   UNL A   1      39.698  26.052  28.134  1.00  0.00     0.002 A 
ATOM     57  C   UNL A   1      41.500  27.378  27.200  1.00  0.00     0.091 A 
ATOM     58  F   UNL A   1      42.563  29.017  28.569  1.00  0.00    -0.205 F 
ATOM     59  C   UNL A   1      40.545  26.358  27.071  1.00  0.00     0.022 A 
BRANCH  57  60
ATOM     60  S   UNL A   1      42.451  27.804  25.738  1.00  0.00     0.127 S 
ATOM     61  O   UNL A   1      41.918  29.123  25.408  1.00  0.00    -0.237 OA
ATOM     62  O   UNL A   1      43.819  27.803  26.256  1.00  0.00    -0.237 OA
ATOM     63  O   UNL A   1      42.175  26.749  24.772  1.00  0.00    -0.744 OA
ENDBRANCH  57  60
ENDBRANCH  29  53
BRANCH  41  64
ATOM     64  C   UNL A   1      44.961  27.628  35.045  1.00  0.00     0.023 A 
ATOM     65  C   UNL A   1      46.264  28.058  34.724  1.00  0.00     0.012 A 
ATOM     66  C   UNL A   1      44.785  26.425  35.756  1.00  0.00     0.148 A 
ATOM     67  C   UNL A   1      47.372  27.284  35.072  1.00  0.00     0.002 A 
ATOM     68  C   UNL A   1      45.895  25.685  36.144  1.00  0.00     0.091 A 
ATOM     69  F   UNL A   1      43.536  26.024  36.033  1.00  0.00    -0.205 F 
ATOM     70  C   UNL A   1      47.187  26.106  35.792  1.00  0.00     0.022 A 
BRANCH  68  71
ATOM     71  S   UNL A   1      45.760  24.207  37.156  1.00  0.00     0.127 S 
ATOM     72  O   UNL A   1      45.042  23.299  36.262  1.00  0.00    -0.237 OA
ATOM     73  O   UNL A   1      47.162  23.857  37.382  1.00  0.00    -0.237 OA
ATOM     74  O   UNL A   1      45.036  24.605  38.354  1.00  0.00    -0.744 OA
ENDBRANCH  68  71
ENDBRANCH  41  64
ENDBRANCH  15  16
ENDBRANCH   8  10
ENDBRANCH   5   6
ENDBRANCH   4   5
ENDBRANCH   3   4
ENDBRANCH   2   3
ENDBRANCH   1   2
BRANCH   1  75
ATOM     75  C   UNL A   1      34.059  30.486  27.051  1.00  0.00     0.116 C 
BRANCH  75  76
ATOM     76  N   UNL A   1      34.211  29.584  25.929  1.00  0.00    -0.354 N 
ATOM     77  C   UNL A   1      33.243  28.948  25.207  1.00  0.00     0.244 C 
ATOM     78  H   UNL A   1      35.137  29.407  25.649  1.00  0.00     0.163 HD
ATOM     79  O   UNL A   1      33.572  28.356  24.175  1.00  0.00    -0.273 OA
BRANCH  77  80
ATOM     80  C   UNL A   1      31.772  28.974  25.663  1.00  0.00     0.197 C 
BRANCH  80  81
ATOM     81  N   UNL A   1      30.948  28.619  24.502  1.00  0.00    -0.340 N 
ATOM     82  C   UNL A   1      30.478  27.446  24.005  1.00  0.00     0.244 C 
ATOM     83  H   UNL A   1      30.679  29.400  23.968  1.00  0.00     0.164 HD
ATOM     84  O   UNL A   1      29.688  27.557  23.057  1.00  0.00    -0.273 OA
BRANCH  82  85
ATOM     85  C   UNL A   1      30.988  26.031  24.412  1.00  0.00     0.181 C 
BRANCH  85  86
ATOM     86  N   UNL A   1      30.315  25.369  25.524  1.00  0.00    -0.342 N 
ATOM     87  C   UNL A   1      30.592  24.262  26.260  1.00  0.00     0.243 C 
ATOM     88  H   UNL A   1      29.484  25.819  25.801  1.00  0.00     0.164 HD
ATOM     89  O   UNL A   1      29.804  24.003  27.176  1.00  0.00    -0.273 OA
BRANCH  87  90
ATOM     90  C   UNL A   1      31.756  23.320  25.905  1.00  0.00     0.176 C 
BRANCH  90  91
ATOM     91  N   UNL A   1      32.652  23.346  27.072  1.00  0.00    -0.340 N 
ATOM     92  C   UNL A   1      33.977  23.045  27.208  1.00  0.00     0.251 C 
ATOM     93  H   UNL A   1      32.217  23.633  27.907  1.00  0.00     0.164 HD
ATOM     94  O   UNL A   1      34.464  22.890  28.323  1.00  0.00    -0.269 OA
BRANCH  92  95
ATOM     95  C   UNL A   1      34.853  22.942  26.027  1.00  0.00     0.040 A 
ATOM     96  C   UNL A   1      34.988  24.041  25.171  1.00  0.00     0.017 A 
ATOM     97  C   UNL A   1      35.409  21.708  25.678  1.00  0.00     0.017 A 
ATOM     98  C   UNL A   1      35.714  23.909  23.985  1.00  0.00     0.040 A 
ATOM     99  C   UNL A   1      36.130  21.576  24.491  1.00  0.00     0.040 A 
ATOM    100  C   UNL A   1      36.278  22.679  23.657  1.00  0.00     0.123 A 
ATOM    101  F   UNL A   1      36.958  22.550  22.511  1.00  0.00    -0.207 F 
ENDBRANCH  92  95
ENDBRANCH  90  91
BRANCH  90 102
ATOM    102  C   UNL A   1      31.119  21.929  25.695  1.00  0.00     0.070 C 
BRANCH 102 103
ATOM    103  C   UNL A   1      31.894  20.929  24.875  1.00  0.00    -0.045 A 
ATOM    104  C   UNL A   1      31.953  21.047  23.479  1.00  0.00     0.004 A 
ATOM    105  C   UNL A   1      32.470  19.804  25.480  1.00  0.00     0.004 A 
ATOM    106  C   UNL A   1      32.578  20.062  22.713  1.00  0.00     0.000 A 
ATOM    107  C   UNL A   1      33.110  18.830  24.715  1.00  0.00     0.000 A 
ATOM    108  C   UNL A   1      33.160  18.956  23.330  1.00  0.00     0.000 A 
ENDBRANCH 102 103
ENDBRANCH  90 102
ENDBRANCH  87  90
ENDBRANCH  85  86
BRANCH  85 109
ATOM    109  C   UNL A   1      30.968  25.114  23.158  1.00  0.00     0.101 C 
BRANCH 109 110
ATOM    110  S   UNL A   1      32.517  25.174  22.172  1.00  0.00    -0.177 SA
ATOM    111  H   UNL A   1      32.291  25.851  21.015  1.00  0.00     0.102 HD
ENDBRANCH 109 110
ENDBRANCH  85 109
ENDBRANCH  82  85
ENDBRANCH  80  81
BRANCH  80 112
ATOM    112  C   UNL A   1      31.615  27.968  26.818  1.00  0.00     0.191 C 
BRANCH 112 113
ATOM    113  O   UNL A   1      32.706  27.042  26.827  1.00  0.00    -0.394 OA
ATOM    114  H   UNL A   1      33.342  27.284  26.135  1.00  0.00     0.210 HD
ENDBRANCH 112 113
ENDBRANCH  80 112
ENDBRANCH  77  80
ENDBRANCH  75  76
ENDBRANCH   1  75
TORSDOF 28
ENDMDL
MODEL 3
REMARK VINA RESULT:      -9.6      5.998     11.284
REMARK SMILES O=C(NCCCCCCNC(=O)[C@H](CO)NC(=O)[C@H](CS)NC(=O)[C@H](Cc1ccccc1)NC(=O)c1ccc(F)cc1)c1ccc(-c2c3nc(c(-c4cccc(S(=O)(=O)[O-])c4F)c4ccc([nH]4)c(-c4cccc(S(=O)(=O)[O-])c4F)c4nc(c(-c5cccc(S(=O)(=O)[O-])c5F)c5ccc2[nH]5)C=C4)C=C3)cc1
REMARK SMILES IDX 8 1 7 2 6 3 5 4 4 5 3 6 1 7 2 8 43 10 44 11 105 12 45 13
REMARK SMILES IDX 104 14 46 15 47 16 48 17 98 18 49 19 103 20 97 21 99 22
REMARK SMILES IDX 50 23 102 24 96 25 95 26 51 28 83 29 63 30 82 31 64 32 67 33
REMARK SMILES IDX 81 34 100 35 65 36 66 37 80 39 101 40 68 41 52 42 53 43
REMARK SMILES IDX 61 44 54 45 56 46 62 47 55 48 57 49 58 50 59 51 60 52 84 53
REMARK SMILES IDX 85 54 93 55 86 56 88 57 94 58 87 59 89 60 90 61 91 62 92 63
REMARK SMILES IDX 69 64 70 65 78 66 71 67 73 68 79 69 72 70 74 71 75 72 76 73
REMARK SMILES IDX 77 74 9 75 10 76 11 77 12 79 13 80 16 81 17 82 18 84 19 85
REMARK SMILES IDX 22 86 23 87 24 89 25 90 33 91 34 92 35 94 36 95 37 96 42 97
REMARK SMILES IDX 38 98 41 99 39 100 40 101 26 102 27 103 28 104 32 105 29 106
REMARK SMILES IDX 31 107 30 108 20 109 21 110 14 112 15 113
REMARK H PARENT 3 9 99 27 67 38 10 78 16 83 22 88 33 93 21 111 15 114
REMARK Flexibility Score: inf
ROOT
ATOM      1  C   UNL A   1      34.305  20.444  24.580  1.00  0.00     0.021 C 
ENDROOT
BRANCH   1   2
ATOM      2  C   UNL A   1      35.561  20.797  25.371  1.00  0.00     0.002 C 
BRANCH   2   3
ATOM      3  C   UNL A   1      36.855  20.887  24.558  1.00  0.00     0.002 C 
BRANCH   3   4
ATOM      4  C   UNL A   1      37.918  19.833  24.874  1.00  0.00     0.021 C 
BRANCH   4   5
ATOM      5  C   UNL A   1      38.951  20.243  25.915  1.00  0.00     0.116 C 
BRANCH   5   6
ATOM      6  N   UNL A   1      40.057  19.305  26.004  1.00  0.00    -0.352 N 
ATOM      7  O   UNL A   1      42.206  18.633  26.046  1.00  0.00    -0.269 OA
ATOM      8  C   UNL A   1      41.398  19.552  26.167  1.00  0.00     0.251 C 
ATOM      9  H   UNL A   1      39.809  18.354  25.938  1.00  0.00     0.163 HD
BRANCH   8  10
ATOM     10  C   UNL A   1      41.860  20.925  26.461  1.00  0.00     0.039 A 
ATOM     11  C   UNL A   1      42.169  21.305  27.770  1.00  0.00     0.014 A 
ATOM     12  C   UNL A   1      41.992  21.841  25.415  1.00  0.00     0.014 A 
ATOM     13  C   UNL A   1      42.469  22.633  28.051  1.00  0.00     0.010 A 
ATOM     14  C   UNL A   1      42.382  23.155  25.689  1.00  0.00     0.010 A 
ATOM     15  C   UNL A   1      42.597  23.569  27.013  1.00  0.00    -0.014 A 
BRANCH  15  16
ATOM     16  C   UNL A   1      43.040  24.950  27.330  1.00  0.00     0.031 A 
ATOM     17  C   UNL A   1      42.146  25.914  28.059  1.00  0.00     0.074 A 
ATOM     18  C   UNL A   1      44.273  25.332  26.940  1.00  0.00     0.049 A 
ATOM     19  N   UNL A   1      42.390  27.147  28.420  1.00  0.00    -0.248 NA
ATOM     20  C   UNL A   1      40.802  25.441  28.424  1.00  0.00     0.031 C 
ATOM     21  C   UNL A   1      45.213  24.496  26.187  1.00  0.00     0.029 A 
ATOM     22  N   UNL A   1      44.948  26.513  27.116  1.00  0.00    -0.354 N 
ATOM     23  C   UNL A   1      41.226  27.612  29.018  1.00  0.00     0.074 A 
ATOM     24  C   UNL A   1      40.267  26.528  28.966  1.00  0.00     0.031 C 
ATOM     25  C   UNL A   1      46.347  25.181  25.984  1.00  0.00     0.029 A 
ATOM     26  C   UNL A   1      46.196  26.519  26.539  1.00  0.00     0.049 A 
ATOM     27  H   UNL A   1      44.575  27.281  27.607  1.00  0.00     0.167 HD
ATOM     28  C   UNL A   1      40.983  28.825  29.571  1.00  0.00     0.034 A 
ATOM     29  C   UNL A   1      47.112  27.501  26.444  1.00  0.00     0.034 A 
ATOM     30  C   UNL A   1      41.951  29.890  29.640  1.00  0.00     0.049 A 
ATOM     31  C   UNL A   1      46.818  28.831  27.074  1.00  0.00     0.074 A 
ATOM     32  C   UNL A   1      41.823  31.131  30.238  1.00  0.00     0.029 A 
ATOM     33  N   UNL A   1      43.221  29.846  29.082  1.00  0.00    -0.354 N 
ATOM     34  N   UNL A   1      45.760  29.205  27.752  1.00  0.00    -0.248 NA
ATOM     35  C   UNL A   1      47.854  29.865  26.955  1.00  0.00     0.031 C 
ATOM     36  C   UNL A   1      43.003  31.849  30.015  1.00  0.00     0.029 A 
ATOM     37  C   UNL A   1      43.880  31.043  29.308  1.00  0.00     0.049 A 
ATOM     38  H   UNL A   1      43.598  29.077  28.596  1.00  0.00     0.167 HD
ATOM     39  C   UNL A   1      46.013  30.508  28.163  1.00  0.00     0.074 A 
ATOM     40  C   UNL A   1      47.337  30.847  27.681  1.00  0.00     0.031 C 
ATOM     41  C   UNL A   1      45.215  31.352  28.861  1.00  0.00     0.034 A 
BRANCH  28  42
ATOM     42  C   UNL A   1      39.623  29.066  30.176  1.00  0.00     0.023 A 
ATOM     43  C   UNL A   1      39.266  28.416  31.375  1.00  0.00     0.012 A 
ATOM     44  C   UNL A   1      38.729  29.992  29.602  1.00  0.00     0.148 A 
ATOM     45  C   UNL A   1      38.031  28.658  31.976  1.00  0.00     0.002 A 
ATOM     46  C   UNL A   1      37.516  30.260  30.229  1.00  0.00     0.091 A 
ATOM     47  F   UNL A   1      39.076  30.588  28.452  1.00  0.00    -0.205 F 
ATOM     48  C   UNL A   1      37.162  29.587  31.409  1.00  0.00     0.022 A 
BRANCH  46  49
ATOM     49  S   UNL A   1      36.362  31.497  29.623  1.00  0.00     0.127 S 
ATOM     50  O   UNL A   1      35.277  31.387  30.597  1.00  0.00    -0.237 OA
ATOM     51  O   UNL A   1      37.149  32.726  29.723  1.00  0.00    -0.237 OA
ATOM     52  O   UNL A   1      36.025  31.100  28.263  1.00  0.00    -0.744 OA
ENDBRANCH  46  49
ENDBRANCH  28  42
BRANCH  29  53
ATOM     53  C   UNL A   1      48.403  27.242  25.749  1.00  0.00     0.023 A 
ATOM     54  C   UNL A   1      49.495  26.730  26.477  1.00  0.00     0.012 A 
ATOM     55  C   UNL A   1      48.541  27.457  24.363  1.00  0.00     0.148 A 
ATOM     56  C   UNL A   1      50.708  26.464  25.842  1.00  0.00     0.002 A 
ATOM     57  C   UNL A   1      49.731  27.131  23.727  1.00  0.00     0.091 A 
ATOM     58  F   UNL A   1      47.493  27.956  23.691  1.00  0.00    -0.205 F 
ATOM     59  C   UNL A   1      50.823  26.652  24.467  1.00  0.00     0.022 A 
BRANCH  57  60
ATOM     60  S   UNL A   1      49.919  27.208  21.942  1.00  0.00     0.127 S 
ATOM     61  O   UNL A   1      48.859  26.311  21.492  1.00  0.00    -0.237 OA
ATOM     62  O   UNL A   1      49.683  28.627  21.674  1.00  0.00    -0.237 OA
ATOM     63  O   UNL A   1      51.281  26.767  21.673  1.00  0.00    -0.744 OA
ENDBRANCH  57  60
ENDBRANCH  29  53
BRANCH  41  64
ATOM     64  C   UNL A   1      45.762  32.718  29.177  1.00  0.00     0.023 A 
ATOM     65  C   UNL A   1      46.457  32.935  30.383  1.00  0.00     0.012 A 
ATOM     66  C   UNL A   1      45.639  33.772  28.250  1.00  0.00     0.148 A 
ATOM     67  C   UNL A   1      46.989  34.191  30.679  1.00  0.00     0.002 A 
ATOM     68  C   UNL A   1      46.216  35.005  28.528  1.00  0.00     0.091 A 
ATOM     69  F   UNL A   1      44.956  33.551  27.118  1.00  0.00    -0.205 F 
ATOM     70  C   UNL A   1      46.879  35.220  29.746  1.00  0.00     0.022 A 
BRANCH  68  71
ATOM     71  S   UNL A   1      46.207  36.359  27.348  1.00  0.00     0.127 S 
ATOM     72  O   UNL A   1      44.791  36.719  27.317  1.00  0.00    -0.237 OA
ATOM     73  O   UNL A   1      47.072  37.343  27.999  1.00  0.00    -0.237 OA
ATOM     74  O   UNL A   1      46.740  35.814  26.107  1.00  0.00    -0.744 OA
ENDBRANCH  68  71
ENDBRANCH  41  64
ENDBRANCH  15  16
ENDBRANCH   8  10
ENDBRANCH   5   6
ENDBRANCH   4   5
ENDBRANCH   3   4
ENDBRANCH   2   3
ENDBRANCH   1   2
BRANCH   1  75
ATOM     75  C   UNL A   1      32.992  20.833  25.236  1.00  0.00     0.116 C 
BRANCH  75  76
ATOM     76  N   UNL A   1      33.117  21.279  26.608  1.00  0.00    -0.354 N 
ATOM     77  C   UNL A   1      32.400  22.237  27.263  1.00  0.00     0.244 C 
ATOM     78  H   UNL A   1      33.813  20.829  27.138  1.00  0.00     0.163 HD
ATOM     79  O   UNL A   1      32.545  22.347  28.485  1.00  0.00    -0.273 OA
BRANCH  77  80
ATOM     80  C   UNL A   1      31.426  23.154  26.501  1.00  0.00     0.197 C 
BRANCH  80  81
ATOM     81  N   UNL A   1      31.906  23.250  25.119  1.00  0.00    -0.340 N 
ATOM     82  C   UNL A   1      31.992  24.263  24.219  1.00  0.00     0.244 C 
ATOM     83  H   UNL A   1      32.236  22.392  24.766  1.00  0.00     0.164 HD
ATOM     84  O   UNL A   1      32.587  23.984  23.169  1.00  0.00    -0.273 OA
BRANCH  82  85
ATOM     85  C   UNL A   1      31.263  25.635  24.342  1.00  0.00     0.181 C 
BRANCH  85  86
ATOM     86  N   UNL A   1      29.810  25.637  24.214  1.00  0.00    -0.342 N 
ATOM     87  C   UNL A   1      28.902  26.590  23.882  1.00  0.00     0.243 C 
ATOM     88  H   UNL A   1      29.400  24.762  24.409  1.00  0.00     0.164 HD
ATOM     89  O   UNL A   1      27.721  26.226  23.834  1.00  0.00    -0.273 OA
BRANCH  87  90
ATOM     90  C   UNL A   1      29.301  28.063  23.687  1.00  0.00     0.176 C 
BRANCH  90  91
ATOM     91  N   UNL A   1      30.543  28.032  22.898  1.00  0.00    -0.340 N 
ATOM     92  C   UNL A   1      31.738  28.673  23.058  1.00  0.00     0.251 C 
ATOM     93  H   UNL A   1      30.506  27.441  22.112  1.00  0.00     0.164 HD
ATOM     94  O   UNL A   1      32.553  28.700  22.141  1.00  0.00    -0.269 OA
BRANCH  92  95
ATOM     95  C   UNL A   1      32.091  29.305  24.342  1.00  0.00     0.040 A 
ATOM     96  C   UNL A   1      31.149  30.110  24.994  1.00  0.00     0.017 A 
ATOM     97  C   UNL A   1      33.404  29.237  24.815  1.00  0.00     0.017 A 
ATOM     98  C   UNL A   1      31.520  30.813  26.144  1.00  0.00     0.040 A 
ATOM     99  C   UNL A   1      33.773  29.943  25.960  1.00  0.00     0.040 A 
ATOM    100  C   UNL A   1      32.826  30.722  26.615  1.00  0.00     0.123 A 
ATOM    101  F   UNL A   1      33.183  31.411  27.706  1.00  0.00    -0.207 F 
ENDBRANCH  92  95
ENDBRANCH  90  91
BRANCH  90 102
ATOM    102  C   UNL A   1      28.137  28.712  22.909  1.00  0.00     0.070 C 
BRANCH 102 103
ATOM    103  C   UNL A   1      28.271  30.171  22.551  1.00  0.00    -0.045 A 
ATOM    104  C   UNL A   1      28.482  31.132  23.550  1.00  0.00     0.004 A 
ATOM    105  C   UNL A   1      28.073  30.603  21.233  1.00  0.00     0.004 A 
ATOM    106  C   UNL A   1      28.497  32.491  23.231  1.00  0.00     0.000 A 
ATOM    107  C   UNL A   1      28.107  31.959  20.913  1.00  0.00     0.000 A 
ATOM    108  C   UNL A   1      28.314  32.904  21.913  1.00  0.00     0.000 A 
ENDBRANCH 102 103
ENDBRANCH  90 102
ENDBRANCH  87  90
ENDBRANCH  85  86
BRANCH  85 109
ATOM    109  C   UNL A   1      31.678  26.303  25.682  1.00  0.00     0.101 C 
BRANCH 109 110
ATOM    110  S   UNL A   1      33.481  26.215  26.025  1.00  0.00    -0.177 SA
ATOM    111  H   UNL A   1      34.131  25.761  24.920  1.00  0.00     0.102 HD
ENDBRANCH 109 110
ENDBRANCH  85 109
ENDBRANCH  82  85
ENDBRANCH  80  81
BRANCH  80 112
ATOM    112  C   UNL A   1      30.021  22.530  26.587  1.00  0.00     0.191 C 
BRANCH 112 113
ATOM    113  O   UNL A   1      29.633  22.356  27.954  1.00  0.00    -0.394 OA
ATOM    114  H   UNL A   1      30.287  21.801  28.408  1.00  0.00     0.210 HD
ENDBRANCH 112 113
ENDBRANCH  80 112
ENDBRANCH  77  80
ENDBRANCH  75  76
ENDBRANCH   1  75
TORSDOF 28
ENDMDL
