MODEL 1
REMARK VINA RESULT:     -10.8      0.000      0.000
REMARK SMILES O=C(CC1(NS(=O)(=O)C[C@H]2CCCO2)CCC1)NCCCCCCNC(=O)c1ccc(-c2c3nc(c(-c4cccc(S(=O)(=O)[O-])c4F)c4ccc([nH]4)c(-c4cccc(S(=O)(=O)[O-])c4F)c4nc(c(-c5cccc(S(=O)(=O)[O-])c5F)c5ccc2[nH]5)C=C4)C=C3)cc1
REMARK SMILES IDX 20 1 19 2 18 3 1 4 2 5 3 7 4 8 15 9 17 10 16 11 5 12 6 14
REMARK SMILES IDX 7 15 8 16 9 17 10 18 11 19 14 20 12 21 13 22 21 23 22 24
REMARK SMILES IDX 23 25 24 26 25 27 26 28 27 30 28 31 29 32 90 33 30 34 89 35
REMARK SMILES IDX 31 36 32 37 33 38 83 39 34 40 88 41 82 42 84 43 35 44 87 45
REMARK SMILES IDX 81 46 80 47 36 49 68 50 48 51 67 52 49 53 52 54 66 55 85 56
REMARK SMILES IDX 50 57 51 58 65 60 86 61 53 62 37 63 38 64 46 65 39 66 41 67
REMARK SMILES IDX 47 68 40 69 42 70 43 71 44 72 45 73 69 74 70 75 78 76 71 77
REMARK SMILES IDX 73 78 79 79 72 80 74 81 75 82 76 83 77 84 54 85 55 86 63 87
REMARK SMILES IDX 56 88 58 89 64 90 57 91 59 92 60 93 61 94 62 95
REMARK H PARENT 18 6 5 13 25 29 84 48 52 59
REMARK Flexibility Score: inf
ROOT
ATOM      1  C   UNL A   1      36.340  22.691  23.662  1.00  0.00     0.021 C 
ENDROOT
BRANCH   1   2
ATOM      2  C   UNL A   1      34.836  22.965  23.729  1.00  0.00     0.116 C 
BRANCH   2   3
ATOM      3  N   UNL A   1      34.615  24.384  23.848  1.00  0.00    -0.356 N 
ATOM      4  O   UNL A   1      32.361  24.402  23.420  1.00  0.00    -0.275 OA
ATOM      5  C   UNL A   1      33.428  24.986  23.555  1.00  0.00     0.221 C 
ATOM      6  H   UNL A   1      35.362  24.948  24.156  1.00  0.00     0.163 HD
BRANCH   5   7
ATOM      7  C   UNL A   1      33.584  26.452  23.291  1.00  0.00     0.123 C 
BRANCH   7   8
ATOM      8  C   UNL A   1      32.889  27.444  24.215  1.00  0.00     0.042 C 
ATOM      9  C   UNL A   1      33.544  27.847  25.575  1.00  0.00     0.024 C 
ATOM     10  C   UNL A   1      33.187  28.914  23.749  1.00  0.00     0.024 C 
ATOM     11  C   UNL A   1      33.321  29.325  25.217  1.00  0.00     0.004 C 
BRANCH   8  12
ATOM     12  N   UNL A   1      31.398  27.124  24.255  1.00  0.00    -0.208 NA
ATOM     13  H   UNL A   1      31.054  27.611  25.083  1.00  0.00     0.141 HD
BRANCH  12  14
ATOM     14  S   UNL A   1      30.237  27.418  23.082  1.00  0.00     0.214 S 
ATOM     15  O   UNL A   1      30.819  27.048  21.808  1.00  0.00    -0.212 OA
ATOM     16  O   UNL A   1      29.046  26.738  23.543  1.00  0.00    -0.212 OA
BRANCH  14  17
ATOM     17  C   UNL A   1      29.909  29.173  23.049  1.00  0.00     0.185 C 
BRANCH  17  18
ATOM     18  C   UNL A   1      28.524  29.660  22.638  1.00  0.00     0.134 C 
ATOM     19  C   UNL A   1      27.943  30.815  23.431  1.00  0.00     0.035 C 
ATOM     20  O   UNL A   1      28.413  30.010  21.256  1.00  0.00    -0.377 OA
ATOM     21  C   UNL A   1      28.098  31.999  22.513  1.00  0.00     0.031 C 
ATOM     22  C   UNL A   1      28.042  31.386  21.134  1.00  0.00     0.160 C 
ENDBRANCH  17  18
ENDBRANCH  14  17
ENDBRANCH  12  14
ENDBRANCH   8  12
ENDBRANCH   7   8
ENDBRANCH   5   7
ENDBRANCH   2   3
ENDBRANCH   1   2
BRANCH   1  23
ATOM     23  C   UNL A   1      36.882  21.828  24.814  1.00  0.00     0.002 C 
BRANCH  23  24
ATOM     24  C   UNL A   1      36.620  20.324  24.669  1.00  0.00     0.002 C 
BRANCH  24  25
ATOM     25  C   UNL A   1      37.823  19.443  25.003  1.00  0.00     0.021 C 
BRANCH  25  26
ATOM     26  C   UNL A   1      38.893  20.142  25.827  1.00  0.00     0.116 C 
BRANCH  26  27
ATOM     27  N   UNL A   1      40.045  19.286  26.063  1.00  0.00    -0.352 N 
ATOM     28  C   UNL A   1      41.337  19.656  26.345  1.00  0.00     0.251 C 
ATOM     29  H   UNL A   1      39.878  18.317  26.015  1.00  0.00     0.163 HD
ATOM     30  O   UNL A   1      42.237  18.824  26.332  1.00  0.00    -0.269 OA
BRANCH  28  31
ATOM     31  C   UNL A   1      41.628  21.074  26.638  1.00  0.00     0.039 A 
ATOM     32  C   UNL A   1      41.893  21.453  27.955  1.00  0.00     0.014 A 
ATOM     33  C   UNL A   1      41.676  22.016  25.605  1.00  0.00     0.014 A 
ATOM     34  C   UNL A   1      42.261  22.772  28.228  1.00  0.00     0.010 A 
ATOM     35  C   UNL A   1      42.126  23.304  25.869  1.00  0.00     0.010 A 
ATOM     36  C   UNL A   1      42.410  23.700  27.184  1.00  0.00    -0.014 A 
BRANCH  36  37
ATOM     37  C   UNL A   1      42.870  25.088  27.448  1.00  0.00     0.031 A 
ATOM     38  C   UNL A   1      41.941  26.080  28.095  1.00  0.00     0.074 A 
ATOM     39  C   UNL A   1      44.092  25.475  27.036  1.00  0.00     0.049 A 
ATOM     40  N   UNL A   1      42.149  27.342  28.373  1.00  0.00    -0.248 NA
ATOM     41  C   UNL A   1      40.596  25.603  28.453  1.00  0.00     0.031 C 
ATOM     42  C   UNL A   1      45.057  24.627  26.332  1.00  0.00     0.029 A 
ATOM     43  N   UNL A   1      44.727  26.688  27.132  1.00  0.00    -0.354 N 
ATOM     44  C   UNL A   1      40.955  27.816  28.903  1.00  0.00     0.074 A 
ATOM     45  C   UNL A   1      40.014  26.717  28.870  1.00  0.00     0.031 C 
ATOM     46  C   UNL A   1      46.165  25.340  26.074  1.00  0.00     0.029 A 
ATOM     47  C   UNL A   1      45.978  26.703  26.558  1.00  0.00     0.049 A 
ATOM     48  H   UNL A   1      44.325  27.474  27.569  1.00  0.00     0.167 HD
ATOM     49  C   UNL A   1      40.672  29.044  29.396  1.00  0.00     0.034 A 
ATOM     50  C   UNL A   1      46.869  27.705  26.431  1.00  0.00     0.034 A 
ATOM     51  C   UNL A   1      41.619  30.124  29.454  1.00  0.00     0.049 A 
ATOM     52  C   UNL A   1      46.536  29.057  27.001  1.00  0.00     0.074 A 
ATOM     53  C   UNL A   1      41.461  31.379  30.014  1.00  0.00     0.029 A 
ATOM     54  N   UNL A   1      42.898  30.085  28.917  1.00  0.00    -0.354 N 
ATOM     55  N   UNL A   1      45.459  29.441  27.642  1.00  0.00    -0.248 NA
ATOM     56  C   UNL A   1      47.557  30.106  26.861  1.00  0.00     0.031 C 
ATOM     57  C   UNL A   1      42.628  32.112  29.780  1.00  0.00     0.029 A 
ATOM     58  C   UNL A   1      43.532  31.300  29.115  1.00  0.00     0.049 A 
ATOM     59  H   UNL A   1      43.296  29.307  28.464  1.00  0.00     0.167 HD
ATOM     60  C   UNL A   1      45.688  30.760  28.018  1.00  0.00     0.074 A 
ATOM     61  C   UNL A   1      47.014  31.102  27.548  1.00  0.00     0.031 C 
ATOM     62  C   UNL A   1      44.870  31.613  28.684  1.00  0.00     0.034 A 
BRANCH  49  63
ATOM     63  C   UNL A   1      39.286  29.276  29.946  1.00  0.00     0.023 A 
ATOM     64  C   UNL A   1      38.974  28.865  31.258  1.00  0.00     0.012 A 
ATOM     65  C   UNL A   1      38.306  29.937  29.179  1.00  0.00     0.148 A 
ATOM     66  C   UNL A   1      37.699  29.068  31.783  1.00  0.00     0.002 A 
ATOM     67  C   UNL A   1      37.054  30.182  29.728  1.00  0.00     0.091 A 
ATOM     68  F   UNL A   1      38.614  30.303  27.927  1.00  0.00    -0.205 F 
ATOM     69  C   UNL A   1      36.743  29.734  31.022  1.00  0.00     0.022 A 
BRANCH  67  70
ATOM     70  S   UNL A   1      35.780  31.105  28.861  1.00  0.00     0.127 S 
ATOM     71  O   UNL A   1      36.558  32.186  28.258  1.00  0.00    -0.237 OA
ATOM     72  O   UNL A   1      35.277  30.113  27.909  1.00  0.00    -0.237 OA
ATOM     73  O   UNL A   1      34.819  31.515  29.874  1.00  0.00    -0.744 OA
ENDBRANCH  67  70
ENDBRANCH  49  63
BRANCH  50  74
ATOM     74  C   UNL A   1      48.191  27.454  25.790  1.00  0.00     0.023 A 
ATOM     75  C   UNL A   1      49.281  27.054  26.587  1.00  0.00     0.012 A 
ATOM     76  C   UNL A   1      48.371  27.592  24.400  1.00  0.00     0.148 A 
ATOM     77  C   UNL A   1      50.537  26.833  26.019  1.00  0.00     0.002 A 
ATOM     78  C   UNL A   1      49.609  27.316  23.832  1.00  0.00     0.091 A 
ATOM     79  F   UNL A   1      47.324  27.980  23.660  1.00  0.00    -0.205 F 
ATOM     80  C   UNL A   1      50.699  26.955  24.642  1.00  0.00     0.022 A 
BRANCH  78  81
ATOM     81  S   UNL A   1      49.881  27.323  22.057  1.00  0.00     0.127 S 
ATOM     82  O   UNL A   1      51.273  26.892  21.966  1.00  0.00    -0.237 OA
ATOM     83  O   UNL A   1      48.899  26.339  21.600  1.00  0.00    -0.237 OA
ATOM     84  O   UNL A   1      49.612  28.687  21.623  1.00  0.00    -0.744 OA
ENDBRANCH  78  81
ENDBRANCH  50  74
BRANCH  62  85
ATOM     85  C   UNL A   1      45.398  32.991  28.992  1.00  0.00     0.023 A 
ATOM     86  C   UNL A   1      46.197  33.205  30.133  1.00  0.00     0.012 A 
ATOM     87  C   UNL A   1      45.155  34.060  28.108  1.00  0.00     0.148 A 
ATOM     88  C   UNL A   1      46.715  34.471  30.408  1.00  0.00     0.002 A 
ATOM     89  C   UNL A   1      45.720  35.305  28.358  1.00  0.00     0.091 A 
ATOM     90  F   UNL A   1      44.379  33.841  27.036  1.00  0.00    -0.205 F 
ATOM     91  C   UNL A   1      46.487  35.516  29.516  1.00  0.00     0.022 A 
BRANCH  89  92
ATOM     92  S   UNL A   1      45.567  36.682  27.214  1.00  0.00     0.127 S 
ATOM     93  O   UNL A   1      46.396  36.233  26.097  1.00  0.00    -0.237 OA
ATOM     94  O   UNL A   1      44.130  36.696  26.941  1.00  0.00    -0.237 OA
ATOM     95  O   UNL A   1      46.060  37.854  27.925  1.00  0.00    -0.744 OA
ENDBRANCH  89  92
ENDBRANCH  62  85
ENDBRANCH  36  37
ENDBRANCH  28  31
ENDBRANCH  26  27
ENDBRANCH  25  26
ENDBRANCH  24  25
ENDBRANCH  23  24
ENDBRANCH   1  23
TORSDOF 21
ENDMDL
MODEL 2
REMARK VINA RESULT:     -10.7      5.604     11.086
REMARK SMILES O=C(CC1(NS(=O)(=O)C[C@H]2CCCO2)CCC1)NCCCCCCNC(=O)c1ccc(-c2c3nc(c(-c4cccc(S(=O)(=O)[O-])c4F)c4ccc([nH]4)c(-c4cccc(S(=O)(=O)[O-])c4F)c4nc(c(-c5cccc(S(=O)(=O)[O-])c5F)c5ccc2[nH]5)C=C4)C=C3)cc1
REMARK SMILES IDX 20 1 19 2 18 3 1 4 2 5 3 7 4 8 15 9 17 10 16 11 5 12 6 14
REMARK SMILES IDX 7 15 8 16 9 17 10 18 11 19 14 20 12 21 13 22 21 23 22 24
REMARK SMILES IDX 23 25 24 26 25 27 26 28 27 30 28 31 29 32 90 33 30 34 89 35
REMARK SMILES IDX 31 36 32 37 33 38 83 39 34 40 88 41 82 42 84 43 35 44 87 45
REMARK SMILES IDX 81 46 80 47 36 49 68 50 48 51 67 52 49 53 52 54 66 55 85 56
REMARK SMILES IDX 50 57 51 58 65 60 86 61 53 62 37 63 38 64 46 65 39 66 41 67
REMARK SMILES IDX 47 68 40 69 42 70 43 71 44 72 45 73 69 74 70 75 78 76 71 77
REMARK SMILES IDX 73 78 79 79 72 80 74 81 75 82 76 83 77 84 54 85 55 86 63 87
REMARK SMILES IDX 56 88 58 89 64 90 57 91 59 92 60 93 61 94 62 95
REMARK H PARENT 18 6 5 13 25 29 84 48 52 59
REMARK Flexibility Score: inf
ROOT
ATOM      1  C   UNL A   1      30.447  27.682  22.749  1.00  0.00     0.021 C 
ENDROOT
BRANCH   1   2
ATOM      2  C   UNL A   1      30.304  26.439  23.630  1.00  0.00     0.116 C 
BRANCH   2   3
ATOM      3  N   UNL A   1      31.603  25.852  23.838  1.00  0.00    -0.356 N 
ATOM      4  O   UNL A   1      31.508  25.650  26.122  1.00  0.00    -0.275 OA
ATOM      5  C   UNL A   1      32.138  25.632  25.073  1.00  0.00     0.221 C 
ATOM      6  H   UNL A   1      32.132  25.597  23.048  1.00  0.00     0.163 HD
BRANCH   5   7
ATOM      7  C   UNL A   1      33.627  25.482  25.029  1.00  0.00     0.123 C 
BRANCH   7   8
ATOM      8  C   UNL A   1      34.220  24.099  24.785  1.00  0.00     0.042 C 
ATOM      9  C   UNL A   1      34.890  23.760  23.416  1.00  0.00     0.024 C 
ATOM     10  C   UNL A   1      35.663  24.015  25.400  1.00  0.00     0.024 C 
ATOM     11  C   UNL A   1      36.111  23.215  24.176  1.00  0.00     0.004 C 
BRANCH   8  12
ATOM     12  N   UNL A   1      33.271  23.047  25.348  1.00  0.00    -0.208 NA
ATOM     13  H   UNL A   1      32.664  23.563  25.985  1.00  0.00     0.141 HD
BRANCH  12  14
ATOM     14  S   UNL A   1      32.235  22.024  24.516  1.00  0.00     0.214 S 
ATOM     15  O   UNL A   1      31.322  21.462  25.490  1.00  0.00    -0.212 OA
ATOM     16  O   UNL A   1      31.710  22.815  23.425  1.00  0.00    -0.212 OA
BRANCH  14  17
ATOM     17  C   UNL A   1      33.202  20.687  23.832  1.00  0.00     0.185 C 
BRANCH  17  18
ATOM     18  C   UNL A   1      33.265  19.360  24.581  1.00  0.00     0.134 C 
ATOM     19  C   UNL A   1      32.481  18.204  23.990  1.00  0.00     0.035 C 
ATOM     20  O   UNL A   1      34.592  18.884  24.815  1.00  0.00    -0.377 OA
ATOM     21  C   UNL A   1      33.536  17.338  23.355  1.00  0.00     0.031 C 
ATOM     22  C   UNL A   1      34.765  17.608  24.190  1.00  0.00     0.160 C 
ENDBRANCH  17  18
ENDBRANCH  14  17
ENDBRANCH  12  14
ENDBRANCH   8  12
ENDBRANCH   7   8
ENDBRANCH   5   7
ENDBRANCH   2   3
ENDBRANCH   1   2
BRANCH   1  23
ATOM     23  C   UNL A   1      31.386  28.760  23.317  1.00  0.00     0.002 C 
BRANCH  23  24
ATOM     24  C   UNL A   1      30.857  29.484  24.560  1.00  0.00     0.002 C 
BRANCH  24  25
ATOM     25  C   UNL A   1      31.661  29.216  25.832  1.00  0.00     0.021 C 
BRANCH  25  26
ATOM     26  C   UNL A   1      32.922  30.057  25.957  1.00  0.00     0.116 C 
BRANCH  26  27
ATOM     27  N   UNL A   1      32.625  31.431  26.333  1.00  0.00    -0.352 N 
ATOM     28  C   UNL A   1      33.263  32.216  27.261  1.00  0.00     0.251 C 
ATOM     29  H   UNL A   1      31.870  31.852  25.861  1.00  0.00     0.163 HD
ATOM     30  O   UNL A   1      32.780  33.290  27.602  1.00  0.00    -0.269 OA
BRANCH  28  31
ATOM     31  C   UNL A   1      34.525  31.734  27.860  1.00  0.00     0.039 A 
ATOM     32  C   UNL A   1      35.591  32.625  28.001  1.00  0.00     0.014 A 
ATOM     33  C   UNL A   1      34.636  30.416  28.314  1.00  0.00     0.014 A 
ATOM     34  C   UNL A   1      36.753  32.205  28.651  1.00  0.00     0.010 A 
ATOM     35  C   UNL A   1      35.760  30.029  29.035  1.00  0.00     0.010 A 
ATOM     36  C   UNL A   1      36.836  30.914  29.200  1.00  0.00    -0.014 A 
BRANCH  36  37
ATOM     37  C   UNL A   1      38.036  30.475  29.955  1.00  0.00     0.031 A 
ATOM     38  C   UNL A   1      39.004  29.502  29.337  1.00  0.00     0.074 A 
ATOM     39  C   UNL A   1      38.215  30.891  31.224  1.00  0.00     0.049 A 
ATOM     40  N   UNL A   1      40.086  28.977  29.852  1.00  0.00    -0.248 NA
ATOM     41  C   UNL A   1      38.704  29.036  27.973  1.00  0.00     0.031 C 
ATOM     42  C   UNL A   1      37.310  31.777  31.961  1.00  0.00     0.029 A 
ATOM     43  N   UNL A   1      39.208  30.608  32.128  1.00  0.00    -0.354 N 
ATOM     44  C   UNL A   1      40.574  28.096  28.894  1.00  0.00     0.074 A 
ATOM     45  C   UNL A   1      39.648  28.127  27.783  1.00  0.00     0.031 C 
ATOM     46  C   UNL A   1      37.797  31.977  33.195  1.00  0.00     0.029 A 
ATOM     47  C   UNL A   1      39.026  31.207  33.353  1.00  0.00     0.049 A 
ATOM     48  H   UNL A   1      39.979  30.032  31.920  1.00  0.00     0.167 HD
ATOM     49  C   UNL A   1      41.703  27.349  28.922  1.00  0.00     0.034 A 
ATOM     50  C   UNL A   1      39.763  31.137  34.479  1.00  0.00     0.034 A 
ATOM     51  C   UNL A   1      42.634  27.344  30.017  1.00  0.00     0.049 A 
ATOM     52  C   UNL A   1      41.021  30.311  34.479  1.00  0.00     0.074 A 
ATOM     53  C   UNL A   1      43.851  26.691  30.108  1.00  0.00     0.029 A 
ATOM     54  N   UNL A   1      42.447  28.010  31.219  1.00  0.00    -0.354 N 
ATOM     55  N   UNL A   1      41.549  29.611  33.505  1.00  0.00    -0.248 NA
ATOM     56  C   UNL A   1      41.802  30.294  35.725  1.00  0.00     0.031 C 
ATOM     57  C   UNL A   1      44.380  26.929  31.380  1.00  0.00     0.029 A 
ATOM     58  C   UNL A   1      43.516  27.768  32.066  1.00  0.00     0.049 A 
ATOM     59  H   UNL A   1      41.670  28.572  31.437  1.00  0.00     0.167 HD
ATOM     60  C   UNL A   1      42.744  29.105  34.005  1.00  0.00     0.074 A 
ATOM     61  C   UNL A   1      42.869  29.594  35.362  1.00  0.00     0.031 C 
ATOM     62  C   UNL A   1      43.651  28.300  33.398  1.00  0.00     0.034 A 
BRANCH  49  63
ATOM     63  C   UNL A   1      42.008  26.498  27.715  1.00  0.00     0.023 A 
ATOM     64  C   UNL A   1      42.664  27.066  26.603  1.00  0.00     0.012 A 
ATOM     65  C   UNL A   1      41.687  25.126  27.698  1.00  0.00     0.148 A 
ATOM     66  C   UNL A   1      42.953  26.297  25.477  1.00  0.00     0.002 A 
ATOM     67  C   UNL A   1      42.025  24.354  26.594  1.00  0.00     0.091 A 
ATOM     68  F   UNL A   1      41.047  24.606  28.755  1.00  0.00    -0.205 F 
ATOM     69  C   UNL A   1      42.643  24.940  25.477  1.00  0.00     0.022 A 
BRANCH  67  70
ATOM     70  S   UNL A   1      41.744  22.581  26.529  1.00  0.00     0.127 S 
ATOM     71  O   UNL A   1      40.284  22.515  26.509  1.00  0.00    -0.237 OA
ATOM     72  O   UNL A   1      42.388  22.215  25.266  1.00  0.00    -0.237 OA
ATOM     73  O   UNL A   1      42.380  22.029  27.717  1.00  0.00    -0.744 OA
ENDBRANCH  67  70
ENDBRANCH  49  63
BRANCH  50  74
ATOM     74  C   UNL A   1      39.366  31.921  35.683  1.00  0.00     0.023 A 
ATOM     75  C   UNL A   1      39.795  33.256  35.811  1.00  0.00     0.012 A 
ATOM     76  C   UNL A   1      38.558  31.360  36.691  1.00  0.00     0.148 A 
ATOM     77  C   UNL A   1      39.458  34.008  36.938  1.00  0.00     0.002 A 
ATOM     78  C   UNL A   1      38.178  32.131  37.783  1.00  0.00     0.091 A 
ATOM     79  F   UNL A   1      38.165  30.086  36.553  1.00  0.00    -0.205 F 
ATOM     80  C   UNL A   1      38.643  33.449  37.918  1.00  0.00     0.022 A 
BRANCH  78  81
ATOM     81  S   UNL A   1      37.030  31.539  39.031  1.00  0.00     0.127 S 
ATOM     82  O   UNL A   1      35.890  32.431  38.834  1.00  0.00    -0.237 OA
ATOM     83  O   UNL A   1      36.812  30.156  38.605  1.00  0.00    -0.237 OA
ATOM     84  O   UNL A   1      37.726  31.675  40.302  1.00  0.00    -0.744 OA
ENDBRANCH  78  81
ENDBRANCH  50  74
BRANCH  62  85
ATOM     85  C   UNL A   1      44.890  27.931  34.174  1.00  0.00     0.023 A 
ATOM     86  C   UNL A   1      46.043  28.736  34.094  1.00  0.00     0.012 A 
ATOM     87  C   UNL A   1      44.883  26.817  35.037  1.00  0.00     0.148 A 
ATOM     88  C   UNL A   1      47.182  28.418  34.834  1.00  0.00     0.002 A 
ATOM     89  C   UNL A   1      46.002  26.538  35.813  1.00  0.00     0.091 A 
ATOM     90  F   UNL A   1      43.783  26.052  35.087  1.00  0.00    -0.205 F 
ATOM     91  C   UNL A   1      47.158  27.328  35.700  1.00  0.00     0.022 A 
BRANCH  89  92
ATOM     92  S   UNL A   1      46.027  25.218  37.031  1.00  0.00     0.127 S 
ATOM     93  O   UNL A   1      45.965  24.030  36.182  1.00  0.00    -0.237 OA
ATOM     94  O   UNL A   1      47.316  25.432  37.690  1.00  0.00    -0.237 OA
ATOM     95  O   UNL A   1      44.867  25.435  37.885  1.00  0.00    -0.744 OA
ENDBRANCH  89  92
ENDBRANCH  62  85
ENDBRANCH  36  37
ENDBRANCH  28  31
ENDBRANCH  26  27
ENDBRANCH  25  26
ENDBRANCH  24  25
ENDBRANCH  23  24
ENDBRANCH   1  23
TORSDOF 21
ENDMDL
MODEL 3
REMARK VINA RESULT:     -10.6      5.398      9.083
REMARK SMILES O=C(CC1(NS(=O)(=O)C[C@H]2CCCO2)CCC1)NCCCCCCNC(=O)c1ccc(-c2c3nc(c(-c4cccc(S(=O)(=O)[O-])c4F)c4ccc([nH]4)c(-c4cccc(S(=O)(=O)[O-])c4F)c4nc(c(-c5cccc(S(=O)(=O)[O-])c5F)c5ccc2[nH]5)C=C4)C=C3)cc1
REMARK SMILES IDX 20 1 19 2 18 3 1 4 2 5 3 7 4 8 15 9 17 10 16 11 5 12 6 14
REMARK SMILES IDX 7 15 8 16 9 17 10 18 11 19 14 20 12 21 13 22 21 23 22 24
REMARK SMILES IDX 23 25 24 26 25 27 26 28 27 30 28 31 29 32 90 33 30 34 89 35
REMARK SMILES IDX 31 36 32 37 33 38 83 39 34 40 88 41 82 42 84 43 35 44 87 45
REMARK SMILES IDX 81 46 80 47 36 49 68 50 48 51 67 52 49 53 52 54 66 55 85 56
REMARK SMILES IDX 50 57 51 58 65 60 86 61 53 62 37 63 38 64 46 65 39 66 41 67
REMARK SMILES IDX 47 68 40 69 42 70 43 71 44 72 45 73 69 74 70 75 78 76 71 77
REMARK SMILES IDX 73 78 79 79 72 80 74 81 75 82 76 83 77 84 54 85 55 86 63 87
REMARK SMILES IDX 56 88 58 89 64 90 57 91 59 92 60 93 61 94 62 95
REMARK H PARENT 18 6 5 13 25 29 84 48 52 59
REMARK Flexibility Score: inf
ROOT
ATOM      1  C   UNL A   1      33.663  26.686  22.151  1.00  0.00     0.021 C 
ENDROOT
BRANCH   1   2
ATOM      2  C   UNL A   1      32.667  25.919  21.277  1.00  0.00     0.116 C 
BRANCH   2   3
ATOM      3  N   UNL A   1      32.206  24.755  21.991  1.00  0.00    -0.356 N 
ATOM      4  O   UNL A   1      30.383  25.700  23.015  1.00  0.00    -0.275 OA
ATOM      5  C   UNL A   1      31.186  24.784  22.894  1.00  0.00     0.221 C 
ATOM      6  H   UNL A   1      32.652  23.895  21.817  1.00  0.00     0.163 HD
BRANCH   5   7
ATOM      7  C   UNL A   1      31.218  23.613  23.826  1.00  0.00     0.123 C 
BRANCH   7   8
ATOM      8  C   UNL A   1      31.690  23.825  25.259  1.00  0.00     0.042 C 
ATOM      9  C   UNL A   1      32.375  25.167  25.673  1.00  0.00     0.024 C 
ATOM     10  C   UNL A   1      30.486  24.275  26.162  1.00  0.00     0.024 C 
ATOM     11  C   UNL A   1      31.420  25.255  26.876  1.00  0.00     0.004 C 
BRANCH   8  12
ATOM     12  N   UNL A   1      32.360  22.548  25.754  1.00  0.00    -0.208 NA
ATOM     13  H   UNL A   1      31.816  21.794  25.334  1.00  0.00     0.141 HD
BRANCH  12  14
ATOM     14  S   UNL A   1      33.956  22.067  25.570  1.00  0.00     0.214 S 
ATOM     15  O   UNL A   1      34.617  23.089  24.784  1.00  0.00    -0.212 OA
ATOM     16  O   UNL A   1      34.428  21.783  26.907  1.00  0.00    -0.212 OA
BRANCH  14  17
ATOM     17  C   UNL A   1      33.976  20.550  24.628  1.00  0.00     0.185 C 
BRANCH  17  18
ATOM     18  C   UNL A   1      32.718  19.691  24.582  1.00  0.00     0.134 C 
ATOM     19  C   UNL A   1      32.524  18.828  23.349  1.00  0.00     0.035 C 
ATOM     20  O   UNL A   1      32.551  18.836  25.716  1.00  0.00    -0.377 OA
ATOM     21  C   UNL A   1      32.867  17.440  23.821  1.00  0.00     0.031 C 
ATOM     22  C   UNL A   1      32.518  17.469  25.290  1.00  0.00     0.160 C 
ENDBRANCH  17  18
ENDBRANCH  14  17
ENDBRANCH  12  14
ENDBRANCH   8  12
ENDBRANCH   7   8
ENDBRANCH   5   7
ENDBRANCH   2   3
ENDBRANCH   1   2
BRANCH   1  23
ATOM     23  C   UNL A   1      33.211  28.105  22.534  1.00  0.00     0.002 C 
BRANCH  23  24
ATOM     24  C   UNL A   1      33.460  28.486  23.998  1.00  0.00     0.002 C 
BRANCH  24  25
ATOM     25  C   UNL A   1      32.348  29.326  24.625  1.00  0.00     0.021 C 
BRANCH  25  26
ATOM     26  C   UNL A   1      32.564  29.639  26.098  1.00  0.00     0.116 C 
BRANCH  26  27
ATOM     27  N   UNL A   1      32.342  31.046  26.395  1.00  0.00    -0.352 N 
ATOM     28  C   UNL A   1      33.055  31.861  27.239  1.00  0.00     0.251 C 
ATOM     29  H   UNL A   1      31.583  31.468  25.931  1.00  0.00     0.163 HD
ATOM     30  O   UNL A   1      32.633  32.975  27.529  1.00  0.00    -0.269 OA
BRANCH  28  31
ATOM     31  C   UNL A   1      34.324  31.365  27.810  1.00  0.00     0.039 A 
ATOM     32  C   UNL A   1      35.364  32.268  28.036  1.00  0.00     0.014 A 
ATOM     33  C   UNL A   1      34.466  30.017  28.157  1.00  0.00     0.014 A 
ATOM     34  C   UNL A   1      36.531  31.826  28.662  1.00  0.00     0.010 A 
ATOM     35  C   UNL A   1      35.593  29.601  28.856  1.00  0.00     0.010 A 
ATOM     36  C   UNL A   1      36.643  30.498  29.105  1.00  0.00    -0.014 A 
BRANCH  36  37
ATOM     37  C   UNL A   1      37.848  30.029  29.836  1.00  0.00     0.031 A 
ATOM     38  C   UNL A   1      38.134  30.535  31.224  1.00  0.00     0.074 A 
ATOM     39  C   UNL A   1      38.724  29.210  29.221  1.00  0.00     0.049 A 
ATOM     40  N   UNL A   1      39.150  30.268  32.004  1.00  0.00    -0.248 NA
ATOM     41  C   UNL A   1      37.168  31.483  31.803  1.00  0.00     0.031 C 
ATOM     42  C   UNL A   1      38.597  28.709  27.850  1.00  0.00     0.029 A 
ATOM     43  N   UNL A   1      39.906  28.671  29.662  1.00  0.00    -0.354 N 
ATOM     44  C   UNL A   1      38.965  31.040  33.146  1.00  0.00     0.074 A 
ATOM     45  C   UNL A   1      37.760  31.815  32.939  1.00  0.00     0.031 C 
ATOM     46  C   UNL A   1      39.648  27.924  27.569  1.00  0.00     0.029 A 
ATOM     47  C   UNL A   1      40.543  27.895  28.721  1.00  0.00     0.049 A 
ATOM     48  H   UNL A   1      40.265  28.824  30.566  1.00  0.00     0.167 HD
ATOM     49  C   UNL A   1      39.712  31.082  34.274  1.00  0.00     0.034 A 
ATOM     50  C   UNL A   1      41.719  27.240  28.778  1.00  0.00     0.034 A 
ATOM     51  C   UNL A   1      40.891  30.288  34.485  1.00  0.00     0.049 A 
ATOM     52  C   UNL A   1      42.523  27.291  30.049  1.00  0.00     0.074 A 
ATOM     53  C   UNL A   1      41.670  30.190  35.625  1.00  0.00     0.029 A 
ATOM     54  N   UNL A   1      41.474  29.467  33.532  1.00  0.00    -0.354 N 
ATOM     55  N   UNL A   1      42.248  27.901  31.176  1.00  0.00    -0.248 NA
ATOM     56  C   UNL A   1      43.784  26.535  30.067  1.00  0.00     0.031 C 
ATOM     57  C   UNL A   1      42.746  29.342  35.347  1.00  0.00     0.029 A 
ATOM     58  C   UNL A   1      42.614  28.875  34.049  1.00  0.00     0.049 A 
ATOM     59  H   UNL A   1      41.129  29.325  32.621  1.00  0.00     0.167 HD
ATOM     60  C   UNL A   1      43.278  27.569  32.050  1.00  0.00     0.074 A 
ATOM     61  C   UNL A   1      44.172  26.690  31.325  1.00  0.00     0.031 C 
ATOM     62  C   UNL A   1      43.470  27.964  33.333  1.00  0.00     0.034 A 
BRANCH  49  63
ATOM     63  C   UNL A   1      39.254  31.996  35.382  1.00  0.00     0.023 A 
ATOM     64  C   UNL A   1      38.335  31.528  36.345  1.00  0.00     0.012 A 
ATOM     65  C   UNL A   1      39.765  33.304  35.498  1.00  0.00     0.148 A 
ATOM     66  C   UNL A   1      37.898  32.358  37.375  1.00  0.00     0.002 A 
ATOM     67  C   UNL A   1      39.364  34.109  36.557  1.00  0.00     0.091 A 
ATOM     68  F   UNL A   1      40.622  33.740  34.563  1.00  0.00    -0.205 F 
ATOM     69  C   UNL A   1      38.420  33.644  37.487  1.00  0.00     0.022 A 
BRANCH  67  70
ATOM     70  S   UNL A   1      40.039  35.749  36.837  1.00  0.00     0.127 S 
ATOM     71  O   UNL A   1      41.469  35.464  36.951  1.00  0.00    -0.237 OA
ATOM     72  O   UNL A   1      39.654  36.452  35.612  1.00  0.00    -0.237 OA
ATOM     73  O   UNL A   1      39.401  36.246  38.048  1.00  0.00    -0.744 OA
ENDBRANCH  67  70
ENDBRANCH  49  63
BRANCH  50  74
ATOM     74  C   UNL A   1      42.180  26.426  27.617  1.00  0.00     0.023 A 
ATOM     75  C   UNL A   1      42.993  27.023  26.634  1.00  0.00     0.012 A 
ATOM     76  C   UNL A   1      41.832  25.068  27.489  1.00  0.00     0.148 A 
ATOM     77  C   UNL A   1      43.422  26.293  25.524  1.00  0.00     0.002 A 
ATOM     78  C   UNL A   1      42.309  24.331  26.411  1.00  0.00     0.091 A 
ATOM     79  F   UNL A   1      41.053  24.520  28.431  1.00  0.00    -0.205 F 
ATOM     80  C   UNL A   1      43.087  24.946  25.417  1.00  0.00     0.022 A 
BRANCH  78  81
ATOM     81  S   UNL A   1      42.037  22.562  26.254  1.00  0.00     0.127 S 
ATOM     82  O   UNL A   1      42.709  22.268  24.991  1.00  0.00    -0.237 OA
ATOM     83  O   UNL A   1      42.711  22.049  27.447  1.00  0.00    -0.237 OA
ATOM     84  O   UNL A   1      40.592  22.385  26.257  1.00  0.00    -0.744 OA
ENDBRANCH  78  81
ENDBRANCH  50  74
BRANCH  62  85
ATOM     85  C   UNL A   1      44.669  27.413  34.063  1.00  0.00     0.023 A 
ATOM     86  C   UNL A   1      45.891  28.113  34.049  1.00  0.00     0.012 A 
ATOM     87  C   UNL A   1      44.559  26.230  34.820  1.00  0.00     0.148 A 
ATOM     88  C   UNL A   1      46.995  27.626  34.747  1.00  0.00     0.002 A 
ATOM     89  C   UNL A   1      45.647  25.779  35.559  1.00  0.00     0.091 A 
ATOM     90  F   UNL A   1      43.393  25.567  34.808  1.00  0.00    -0.205 F 
ATOM     91  C   UNL A   1      46.870  26.468  35.510  1.00  0.00     0.022 A 
BRANCH  89  92
ATOM     92  S   UNL A   1      45.550  24.356  36.650  1.00  0.00     0.127 S 
ATOM     93  O   UNL A   1      46.843  24.414  37.330  1.00  0.00    -0.237 OA
ATOM     94  O   UNL A   1      44.401  24.693  37.492  1.00  0.00    -0.237 OA
ATOM     95  O   UNL A   1      45.350  23.199  35.788  1.00  0.00    -0.744 OA
ENDBRANCH  89  92
ENDBRANCH  62  85
ENDBRANCH  36  37
ENDBRANCH  28  31
ENDBRANCH  26  27
ENDBRANCH  25  26
ENDBRANCH  24  25
ENDBRANCH  23  24
ENDBRANCH   1  23
TORSDOF 21
ENDMDL
