MODEL 1
REMARK VINA RESULT:     -11.1      0.000      0.000
REMARK SMILES CCCN1C(=O)/C(=C\c2ccc(OC)c(OC)c2C(=O)NCCCCCCNC(=O)c2ccc(-c3c4nc(c(-c5cccc(S(=O)(=O)[O-])c5F)c5ccc([nH]5)c(-c5cccc(S(=O)(=O)[O-])c5F)c5nc(c(-c6cccc(S(=O)(=O)[O-])c6F)c6ccc3[nH]6)C=C5)C=C4)cc2)S/C1=[NH+]\c1nccs1
REMARK SMILES IDX 24 1 23 2 22 3 21 4 19 5 20 6 18 8 9 9 10 10 11 11 15 12
REMARK SMILES IDX 12 13 8 14 4 15 5 16 95 17 6 18 7 19 94 20 96 21 3 23 2 24
REMARK SMILES IDX 1 25 97 26 98 27 101 28 99 29 100 30 16 31 17 32 13 33 14 34
REMARK SMILES IDX 25 35 26 36 27 37 28 38 29 39 30 41 31 42 32 43 93 44 33 45
REMARK SMILES IDX 92 46 34 47 35 48 36 49 86 50 37 51 91 52 85 53 87 54 38 55
REMARK SMILES IDX 90 56 84 57 83 58 39 60 71 61 51 62 70 63 52 64 55 65 69 66
REMARK SMILES IDX 88 67 53 68 54 69 68 71 89 72 56 73 40 74 41 75 49 76 42 77
REMARK SMILES IDX 44 78 50 79 43 80 45 81 46 82 47 83 48 84 72 85 73 86 81 87
REMARK SMILES IDX 74 88 76 89 82 90 75 91 77 92 78 93 79 94 80 95 57 96 58 97
REMARK SMILES IDX 66 98 59 99 61 100 67 101 60 102 62 103 63 104 64 105 65 106
REMARK H PARENT 21 7 96 22 28 40 87 59 55 70
REMARK Flexibility Score: inf
ROOT
ATOM      1  C   UNL A   1      35.709  23.852  24.448  1.00  0.00     0.002 C 
ENDROOT
BRANCH   1   2
ATOM      2  C   UNL A   1      34.826  25.096  24.599  1.00  0.00     0.021 C 
BRANCH   2   3
ATOM      3  C   UNL A   1      34.369  25.440  26.009  1.00  0.00     0.116 C 
BRANCH   3   4
ATOM      4  N   UNL A   1      32.956  25.656  26.192  1.00  0.00    -0.352 N 
ATOM      5  C   UNL A   1      31.937  24.736  26.073  1.00  0.00     0.255 C 
ATOM      6  O   UNL A   1      30.888  24.983  26.664  1.00  0.00    -0.269 OA
ATOM      7  H   UNL A   1      32.685  26.572  26.428  1.00  0.00     0.163 HD
BRANCH   5   8
ATOM      8  C   UNL A   1      32.051  23.485  25.267  1.00  0.00     0.092 A 
ATOM      9  C   UNL A   1      31.358  23.339  24.025  1.00  0.00    -0.007 A 
ATOM     10  C   UNL A   1      31.449  22.130  23.323  1.00  0.00     0.013 A 
ATOM     11  C   UNL A   1      32.275  21.106  23.777  1.00  0.00     0.051 A 
ATOM     12  C   UNL A   1      32.891  22.430  25.730  1.00  0.00     0.174 A 
ATOM     13  C   UNL A   1      33.020  21.263  24.945  1.00  0.00     0.161 A 
BRANCH   9  14
ATOM     14  C   UNL A   1      30.437  24.333  23.433  1.00  0.00     0.032 C 
ATOM     15  N   UNL A   1      32.333  27.115  22.334  1.00  0.00    -0.219 N 
ATOM     16  C   UNL A   1      32.149  25.750  22.274  1.00  0.00     0.321 C 
ATOM     17  C   UNL A   1      31.192  27.879  22.497  1.00  0.00     0.271 C 
ATOM     18  O   UNL A   1      32.909  24.910  21.830  1.00  0.00    -0.250 OA
ATOM     19  C   UNL A   1      30.791  25.429  22.752  1.00  0.00     0.100 C 
ATOM     20  S   UNL A   1      29.791  26.818  22.538  1.00  0.00    -0.012 SA
ATOM     21  N   UNL A   1      31.252  29.164  22.602  1.00  0.00    -0.228 N 
ATOM     22  H   UNL A   1      32.120  29.615  22.487  1.00  0.00     0.268 HD
BRANCH  15  23
ATOM     23  C   UNL A   1      33.645  27.698  22.094  1.00  0.00     0.206 C 
BRANCH  23  24
ATOM     24  C   UNL A   1      34.007  28.886  22.997  1.00  0.00     0.035 C 
ATOM     25  C   UNL A   1      34.028  28.579  24.490  1.00  0.00     0.007 C 
ENDBRANCH  23  24
ENDBRANCH  15  23
BRANCH  21  26
ATOM     26  C   UNL A   1      30.151  29.910  22.866  1.00  0.00     0.319 A 
ATOM     27  N   UNL A   1      29.932  30.533  24.009  1.00  0.00    -0.101 NA
ATOM     28  S   UNL A   1      29.007  30.310  21.626  1.00  0.00    -0.070 S 
ATOM     29  C   UNL A   1      28.811  31.338  23.930  1.00  0.00     0.219 A 
ATOM     30  C   UNL A   1      28.165  31.331  22.717  1.00  0.00     0.110 A 
ENDBRANCH  21  26
ENDBRANCH   9  14
BRANCH  12  31
ATOM     31  O   UNL A   1      33.424  22.313  26.994  1.00  0.00    -0.492 OA
ATOM     32  C   UNL A   1      32.547  22.201  28.105  1.00  0.00     0.278 C 
ENDBRANCH  12  31
BRANCH  13  33
ATOM     33  O   UNL A   1      33.775  20.161  25.273  1.00  0.00    -0.493 OA
ATOM     34  C   UNL A   1      33.389  18.956  24.614  1.00  0.00     0.278 C 
ENDBRANCH  13  33
ENDBRANCH   5   8
ENDBRANCH   3   4
ENDBRANCH   2   3
ENDBRANCH   1   2
BRANCH   1  35
ATOM     35  C   UNL A   1      36.429  23.351  25.703  1.00  0.00     0.002 C 
BRANCH  35  36
ATOM     36  C   UNL A   1      36.729  21.853  25.757  1.00  0.00     0.021 C 
BRANCH  36  37
ATOM     37  C   UNL A   1      37.950  21.385  24.987  1.00  0.00     0.116 C 
BRANCH  37  38
ATOM     38  N   UNL A   1      38.741  20.406  25.719  1.00  0.00    -0.352 N 
ATOM     39  C   UNL A   1      39.857  20.570  26.500  1.00  0.00     0.251 C 
ATOM     40  H   UNL A   1      38.423  19.478  25.639  1.00  0.00     0.163 HD
ATOM     41  O   UNL A   1      40.492  19.579  26.858  1.00  0.00    -0.269 OA
BRANCH  39  42
ATOM     42  C   UNL A   1      40.322  21.924  26.889  1.00  0.00     0.039 A 
ATOM     43  C   UNL A   1      41.173  22.054  27.992  1.00  0.00     0.014 A 
ATOM     44  C   UNL A   1      39.921  23.062  26.189  1.00  0.00     0.014 A 
ATOM     45  C   UNL A   1      41.674  23.311  28.342  1.00  0.00     0.010 A 
ATOM     46  C   UNL A   1      40.501  24.295  26.471  1.00  0.00     0.010 A 
ATOM     47  C   UNL A   1      41.374  24.438  27.559  1.00  0.00    -0.014 A 
BRANCH  47  48
ATOM     48  C   UNL A   1      41.954  25.773  27.855  1.00  0.00     0.031 A 
ATOM     49  C   UNL A   1      41.119  26.821  28.543  1.00  0.00     0.074 A 
ATOM     50  C   UNL A   1      43.193  26.074  27.419  1.00  0.00     0.049 A 
ATOM     51  N   UNL A   1      41.412  28.068  28.804  1.00  0.00    -0.248 NA
ATOM     52  C   UNL A   1      39.765  26.426  28.965  1.00  0.00     0.031 C 
ATOM     53  C   UNL A   1      44.070  25.170  26.672  1.00  0.00     0.029 A 
ATOM     54  N   UNL A   1      43.918  27.236  27.510  1.00  0.00    -0.354 N 
ATOM     55  C   UNL A   1      40.270  28.617  29.374  1.00  0.00     0.074 A 
ATOM     56  C   UNL A   1      39.265  27.577  29.393  1.00  0.00     0.031 C 
ATOM     57  C   UNL A   1      45.214  25.808  26.377  1.00  0.00     0.029 A 
ATOM     58  C   UNL A   1      45.137  27.177  26.873  1.00  0.00     0.049 A 
ATOM     59  H   UNL A   1      43.597  28.036  27.986  1.00  0.00     0.167 HD
ATOM     60  C   UNL A   1      40.080  29.865  29.864  1.00  0.00     0.034 A 
ATOM     61  C   UNL A   1      46.077  28.125  26.691  1.00  0.00     0.034 A 
ATOM     62  C   UNL A   1      41.096  30.882  29.881  1.00  0.00     0.049 A 
ATOM     63  C   UNL A   1      45.853  29.496  27.271  1.00  0.00     0.074 A 
ATOM     64  C   UNL A   1      41.038  32.145  30.442  1.00  0.00     0.029 A 
ATOM     65  N   UNL A   1      42.348  30.759  29.298  1.00  0.00    -0.354 N 
ATOM     66  N   UNL A   1      44.826  29.946  27.949  1.00  0.00    -0.248 NA
ATOM     67  C   UNL A   1      46.931  30.479  27.090  1.00  0.00     0.031 C 
ATOM     68  C   UNL A   1      42.240  32.802  30.162  1.00  0.00     0.029 A 
ATOM     69  C   UNL A   1      43.065  31.931  29.466  1.00  0.00     0.049 A 
ATOM     70  H   UNL A   1      42.678  29.957  28.834  1.00  0.00     0.167 HD
ATOM     71  C   UNL A   1      45.144  31.252  28.301  1.00  0.00     0.074 A 
ATOM     72  C   UNL A   1      46.472  31.512  27.783  1.00  0.00     0.031 C 
ATOM     73  C   UNL A   1      44.401  32.160  28.982  1.00  0.00     0.034 A 
BRANCH  60  74
ATOM     74  C   UNL A   1      38.732  30.193  30.454  1.00  0.00     0.023 A 
ATOM     75  C   UNL A   1      38.443  29.833  31.787  1.00  0.00     0.012 A 
ATOM     76  C   UNL A   1      37.775  30.910  29.710  1.00  0.00     0.148 A 
ATOM     77  C   UNL A   1      37.209  30.147  32.356  1.00  0.00     0.002 A 
ATOM     78  C   UNL A   1      36.567  31.264  30.301  1.00  0.00     0.091 A 
ATOM     79  F   UNL A   1      38.059  31.227  28.440  1.00  0.00    -0.205 F 
ATOM     80  C   UNL A   1      36.278  30.873  31.618  1.00  0.00     0.022 A 
BRANCH  78  81
ATOM     81  S   UNL A   1      35.335  32.268  29.465  1.00  0.00     0.127 S 
ATOM     82  O   UNL A   1      34.405  32.561  30.555  1.00  0.00    -0.237 OA
ATOM     83  O   UNL A   1      36.126  33.412  29.014  1.00  0.00    -0.237 OA
ATOM     84  O   UNL A   1      34.797  31.438  28.396  1.00  0.00    -0.744 OA
ENDBRANCH  78  81
ENDBRANCH  60  74
BRANCH  61  85
ATOM     85  C   UNL A   1      47.334  27.799  25.957  1.00  0.00     0.023 A 
ATOM     86  C   UNL A   1      48.472  27.388  26.676  1.00  0.00     0.012 A 
ATOM     87  C   UNL A   1      47.398  27.874  24.552  1.00  0.00     0.148 A 
ATOM     88  C   UNL A   1      49.663  27.090  26.012  1.00  0.00     0.002 A 
ATOM     89  C   UNL A   1      48.569  27.518  23.893  1.00  0.00     0.091 A 
ATOM     90  F   UNL A   1      46.307  28.277  23.887  1.00  0.00    -0.205 F 
ATOM     91  C   UNL A   1      49.708  27.145  24.622  1.00  0.00     0.022 A 
BRANCH  89  92
ATOM     92  S   UNL A   1      48.679  27.431  22.102  1.00  0.00     0.127 S 
ATOM     93  O   UNL A   1      47.504  28.197  21.693  1.00  0.00    -0.237 OA
ATOM     94  O   UNL A   1      49.962  28.086  21.849  1.00  0.00    -0.237 OA
ATOM     95  O   UNL A   1      48.653  26.012  21.775  1.00  0.00    -0.744 OA
ENDBRANCH  89  92
ENDBRANCH  61  85
BRANCH  73  96
ATOM     96  C   UNL A   1      45.014  33.512  29.241  1.00  0.00     0.023 A 
ATOM     97  C   UNL A   1      45.763  33.733  30.413  1.00  0.00     0.012 A 
ATOM     98  C   UNL A   1      44.911  34.537  28.281  1.00  0.00     0.148 A 
ATOM     99  C   UNL A   1      46.369  34.967  30.643  1.00  0.00     0.002 A 
ATOM    100  C   UNL A   1      45.563  35.746  28.491  1.00  0.00     0.091 A 
ATOM    101  F   UNL A   1      44.181  34.310  27.179  1.00  0.00    -0.205 F 
ATOM    102  C   UNL A   1      46.280  35.968  29.677  1.00  0.00     0.022 A 
BRANCH 100 103
ATOM    103  S   UNL A   1      45.589  37.054  27.262  1.00  0.00     0.127 S 
ATOM    104  O   UNL A   1      46.398  38.073  27.929  1.00  0.00    -0.237 OA
ATOM    105  O   UNL A   1      46.246  36.400  26.129  1.00  0.00    -0.237 OA
ATOM    106  O   UNL A   1      44.198  37.419  27.028  1.00  0.00    -0.744 OA
ENDBRANCH 100 103
ENDBRANCH  73  96
ENDBRANCH  47  48
ENDBRANCH  39  42
ENDBRANCH  37  38
ENDBRANCH  36  37
ENDBRANCH  35  36
ENDBRANCH   1  35
TORSDOF 22
ENDMDL
MODEL 2
REMARK VINA RESULT:     -10.9      1.015      7.130
REMARK SMILES CCCN1C(=O)/C(=C\c2ccc(OC)c(OC)c2C(=O)NCCCCCCNC(=O)c2ccc(-c3c4nc(c(-c5cccc(S(=O)(=O)[O-])c5F)c5ccc([nH]5)c(-c5cccc(S(=O)(=O)[O-])c5F)c5nc(c(-c6cccc(S(=O)(=O)[O-])c6F)c6ccc3[nH]6)C=C5)C=C4)cc2)S/C1=[NH+]\c1nccs1
REMARK SMILES IDX 24 1 23 2 22 3 21 4 19 5 20 6 18 8 9 9 10 10 11 11 15 12
REMARK SMILES IDX 12 13 8 14 4 15 5 16 95 17 6 18 7 19 94 20 96 21 3 23 2 24
REMARK SMILES IDX 1 25 97 26 98 27 101 28 99 29 100 30 16 31 17 32 13 33 14 34
REMARK SMILES IDX 25 35 26 36 27 37 28 38 29 39 30 41 31 42 32 43 93 44 33 45
REMARK SMILES IDX 92 46 34 47 35 48 36 49 86 50 37 51 91 52 85 53 87 54 38 55
REMARK SMILES IDX 90 56 84 57 83 58 39 60 71 61 51 62 70 63 52 64 55 65 69 66
REMARK SMILES IDX 88 67 53 68 54 69 68 71 89 72 56 73 40 74 41 75 49 76 42 77
REMARK SMILES IDX 44 78 50 79 43 80 45 81 46 82 47 83 48 84 72 85 73 86 81 87
REMARK SMILES IDX 74 88 76 89 82 90 75 91 77 92 78 93 79 94 80 95 57 96 58 97
REMARK SMILES IDX 66 98 59 99 61 100 67 101 60 102 62 103 63 104 64 105 65 106
REMARK H PARENT 21 7 96 22 28 40 87 59 55 70
REMARK Flexibility Score: inf
ROOT
ATOM      1  C   UNL A   1      35.134  24.916  25.264  1.00  0.00     0.002 C 
ENDROOT
BRANCH   1   2
ATOM      2  C   UNL A   1      33.961  24.814  26.246  1.00  0.00     0.021 C 
BRANCH   2   3
ATOM      3  C   UNL A   1      32.896  25.897  26.149  1.00  0.00     0.116 C 
BRANCH   3   4
ATOM      4  N   UNL A   1      31.552  25.510  26.499  1.00  0.00    -0.352 N 
ATOM      5  C   UNL A   1      30.975  24.264  26.389  1.00  0.00     0.255 C 
ATOM      6  O   UNL A   1      30.006  24.031  27.108  1.00  0.00    -0.269 OA
ATOM      7  H   UNL A   1      30.977  26.223  26.858  1.00  0.00     0.163 HD
BRANCH   5   8
ATOM      8  C   UNL A   1      31.463  23.213  25.447  1.00  0.00     0.092 A 
ATOM      9  C   UNL A   1      31.194  23.293  24.045  1.00  0.00    -0.007 A 
ATOM     10  C   UNL A   1      31.625  22.261  23.202  1.00  0.00     0.013 A 
ATOM     11  C   UNL A   1      32.386  21.208  23.699  1.00  0.00     0.051 A 
ATOM     12  C   UNL A   1      32.239  22.130  25.952  1.00  0.00     0.174 A 
ATOM     13  C   UNL A   1      32.726  21.158  25.050  1.00  0.00     0.161 A 
BRANCH   9  14
ATOM     14  C   UNL A   1      30.386  24.340  23.384  1.00  0.00     0.032 C 
ATOM     15  N   UNL A   1      32.470  27.128  22.730  1.00  0.00    -0.219 N 
ATOM     16  C   UNL A   1      32.273  25.773  22.567  1.00  0.00     0.321 C 
ATOM     17  C   UNL A   1      31.331  27.911  22.770  1.00  0.00     0.271 C 
ATOM     18  O   UNL A   1      33.076  24.939  22.190  1.00  0.00    -0.250 OA
ATOM     19  C   UNL A   1      30.854  25.462  22.824  1.00  0.00     0.100 C 
ATOM     20  S   UNL A   1      29.921  26.885  22.547  1.00  0.00    -0.012 SA
ATOM     21  N   UNL A   1      31.398  29.187  22.954  1.00  0.00    -0.228 N 
ATOM     22  H   UNL A   1      32.280  29.621  22.992  1.00  0.00     0.268 HD
BRANCH  15  23
ATOM     23  C   UNL A   1      33.813  27.689  22.716  1.00  0.00     0.206 C 
BRANCH  23  24
ATOM     24  C   UNL A   1      34.009  28.937  23.590  1.00  0.00     0.035 C 
ATOM     25  C   UNL A   1      34.256  28.657  25.068  1.00  0.00     0.007 C 
ENDBRANCH  23  24
ENDBRANCH  15  23
BRANCH  21  26
ATOM     26  C   UNL A   1      30.283  29.945  23.098  1.00  0.00     0.319 A 
ATOM     27  N   UNL A   1      29.982  30.625  24.189  1.00  0.00    -0.101 NA
ATOM     28  S   UNL A   1      29.235  30.283  21.758  1.00  0.00    -0.070 S 
ATOM     29  C   UNL A   1      28.873  31.425  23.987  1.00  0.00     0.219 A 
ATOM     30  C   UNL A   1      28.319  31.357  22.730  1.00  0.00     0.110 A 
ENDBRANCH  21  26
ENDBRANCH   9  14
BRANCH  12  31
ATOM     31  O   UNL A   1      32.380  21.780  27.277  1.00  0.00    -0.492 OA
ATOM     32  C   UNL A   1      33.595  22.088  27.946  1.00  0.00     0.278 C 
ENDBRANCH  12  31
BRANCH  13  33
ATOM     33  O   UNL A   1      33.467  20.051  25.394  1.00  0.00    -0.493 OA
ATOM     34  C   UNL A   1      33.625  19.091  24.351  1.00  0.00     0.278 C 
ENDBRANCH  13  33
ENDBRANCH   5   8
ENDBRANCH   3   4
ENDBRANCH   2   3
ENDBRANCH   1   2
BRANCH   1  35
ATOM     35  C   UNL A   1      35.229  23.843  24.177  1.00  0.00     0.002 C 
BRANCH  35  36
ATOM     36  C   UNL A   1      36.016  22.583  24.537  1.00  0.00     0.021 C 
BRANCH  36  37
ATOM     37  C   UNL A   1      36.646  22.556  25.917  1.00  0.00     0.116 C 
BRANCH  37  38
ATOM     38  N   UNL A   1      37.759  21.624  26.015  1.00  0.00    -0.352 N 
ATOM     39  C   UNL A   1      39.090  21.852  26.262  1.00  0.00     0.251 C 
ATOM     40  H   UNL A   1      37.518  20.679  25.882  1.00  0.00     0.163 HD
ATOM     41  O   UNL A   1      39.897  20.939  26.095  1.00  0.00    -0.269 OA
BRANCH  39  42
ATOM     42  C   UNL A   1      39.567  23.188  26.695  1.00  0.00     0.039 A 
ATOM     43  C   UNL A   1      40.351  23.283  27.849  1.00  0.00     0.014 A 
ATOM     44  C   UNL A   1      39.240  24.343  25.985  1.00  0.00     0.014 A 
ATOM     45  C   UNL A   1      40.863  24.522  28.244  1.00  0.00     0.010 A 
ATOM     46  C   UNL A   1      39.835  25.557  26.316  1.00  0.00     0.010 A 
ATOM     47  C   UNL A   1      40.643  25.664  27.457  1.00  0.00    -0.014 A 
BRANCH  47  48
ATOM     48  C   UNL A   1      41.239  26.980  27.805  1.00  0.00     0.031 A 
ATOM     49  C   UNL A   1      42.687  27.257  27.499  1.00  0.00     0.074 A 
ATOM     50  C   UNL A   1      40.505  27.886  28.482  1.00  0.00     0.049 A 
ATOM     51  N   UNL A   1      43.410  28.302  27.807  1.00  0.00    -0.248 NA
ATOM     52  C   UNL A   1      43.431  26.208  26.782  1.00  0.00     0.031 C 
ATOM     53  C   UNL A   1      39.115  27.703  28.905  1.00  0.00     0.029 A 
ATOM     54  N   UNL A   1      40.836  29.128  28.965  1.00  0.00    -0.354 N 
ATOM     55  C   UNL A   1      44.696  28.019  27.365  1.00  0.00     0.074 A 
ATOM     56  C   UNL A   1      44.666  26.690  26.797  1.00  0.00     0.031 C 
ATOM     57  C   UNL A   1      38.712  28.792  29.579  1.00  0.00     0.029 A 
ATOM     58  C   UNL A   1      39.823  29.732  29.675  1.00  0.00     0.049 A 
ATOM     59  H   UNL A   1      41.714  29.547  28.816  1.00  0.00     0.167 HD
ATOM     60  C   UNL A   1      45.800  28.803  27.403  1.00  0.00     0.034 A 
ATOM     61  C   UNL A   1      39.799  30.900  30.346  1.00  0.00     0.034 A 
ATOM     62  C   UNL A   1      45.814  30.140  27.931  1.00  0.00     0.049 A 
ATOM     63  C   UNL A   1      41.030  31.766  30.347  1.00  0.00     0.074 A 
ATOM     64  C   UNL A   1      46.853  31.054  27.928  1.00  0.00     0.029 A 
ATOM     65  N   UNL A   1      44.746  30.750  28.570  1.00  0.00    -0.354 N 
ATOM     66  N   UNL A   1      42.193  31.546  29.783  1.00  0.00    -0.248 NA
ATOM     67  C   UNL A   1      40.937  33.054  31.049  1.00  0.00     0.031 C 
ATOM     68  C   UNL A   1      46.426  32.201  28.603  1.00  0.00     0.029 A 
ATOM     69  C   UNL A   1      45.106  32.020  28.986  1.00  0.00     0.049 A 
ATOM     70  H   UNL A   1      43.862  30.340  28.708  1.00  0.00     0.167 HD
ATOM     71  C   UNL A   1      42.959  32.678  30.034  1.00  0.00     0.074 A 
ATOM     72  C   UNL A   1      42.119  33.593  30.780  1.00  0.00     0.031 C 
ATOM     73  C   UNL A   1      44.246  32.935  29.690  1.00  0.00     0.034 A 
BRANCH  60  74
ATOM     74  C   UNL A   1      47.078  28.250  26.827  1.00  0.00     0.023 A 
ATOM     75  C   UNL A   1      48.115  27.834  27.689  1.00  0.00     0.012 A 
ATOM     76  C   UNL A   1      47.231  28.087  25.436  1.00  0.00     0.148 A 
ATOM     77  C   UNL A   1      49.296  27.300  27.175  1.00  0.00     0.002 A 
ATOM     78  C   UNL A   1      48.390  27.506  24.934  1.00  0.00     0.091 A 
ATOM     79  F   UNL A   1      46.244  28.505  24.632  1.00  0.00    -0.205 F 
ATOM     80  C   UNL A   1      49.428  27.125  25.799  1.00  0.00     0.022 A 
BRANCH  78  81
ATOM     81  S   UNL A   1      48.625  27.162  23.187  1.00  0.00     0.127 S 
ATOM     82  O   UNL A   1      50.041  27.480  23.012  1.00  0.00    -0.237 OA
ATOM     83  O   UNL A   1      48.305  25.737  23.110  1.00  0.00    -0.237 OA
ATOM     84  O   UNL A   1      47.700  28.034  22.476  1.00  0.00    -0.744 OA
ENDBRANCH  78  81
ENDBRANCH  60  74
BRANCH  61  85
ATOM     85  C   UNL A   1      38.554  31.337  31.040  1.00  0.00     0.023 A 
ATOM     86  C   UNL A   1      38.407  31.101  32.420  1.00  0.00     0.012 A 
ATOM     87  C   UNL A   1      37.527  32.005  30.344  1.00  0.00     0.148 A 
ATOM     88  C   UNL A   1      37.245  31.490  33.088  1.00  0.00     0.002 A 
ATOM     89  C   UNL A   1      36.399  32.443  31.028  1.00  0.00     0.091 A 
ATOM     90  F   UNL A   1      37.682  32.211  29.029  1.00  0.00    -0.205 F 
ATOM     91  C   UNL A   1      36.247  32.169  32.395  1.00  0.00     0.022 A 
BRANCH  89  92
ATOM     92  S   UNL A   1      35.126  33.439  30.246  1.00  0.00     0.127 S 
ATOM     93  O   UNL A   1      35.869  34.082  29.166  1.00  0.00    -0.237 OA
ATOM     94  O   UNL A   1      34.168  32.420  29.818  1.00  0.00    -0.237 OA
ATOM     95  O   UNL A   1      34.629  34.330  31.287  1.00  0.00    -0.744 OA
ENDBRANCH  89  92
ENDBRANCH  61  85
BRANCH  73  96
ATOM     96  C   UNL A   1      44.821  34.271  30.083  1.00  0.00     0.023 A 
ATOM     97  C   UNL A   1      45.525  34.406  31.296  1.00  0.00     0.012 A 
ATOM     98  C   UNL A   1      44.728  35.372  29.209  1.00  0.00     0.148 A 
ATOM     99  C   UNL A   1      46.097  35.627  31.649  1.00  0.00     0.002 A 
ATOM    100  C   UNL A   1      45.347  36.570  29.543  1.00  0.00     0.091 A 
ATOM    101  F   UNL A   1      44.041  35.226  28.067  1.00  0.00    -0.205 F 
ATOM    102  C   UNL A   1      46.019  36.704  30.768  1.00  0.00     0.022 A 
BRANCH 100 103
ATOM    103  S   UNL A   1      45.386  37.978  28.430  1.00  0.00     0.127 S 
ATOM    104  O   UNL A   1      45.984  39.010  29.275  1.00  0.00    -0.237 OA
ATOM    105  O   UNL A   1      46.251  37.495  27.353  1.00  0.00    -0.237 OA
ATOM    106  O   UNL A   1      44.005  38.221  28.034  1.00  0.00    -0.744 OA
ENDBRANCH 100 103
ENDBRANCH  73  96
ENDBRANCH  47  48
ENDBRANCH  39  42
ENDBRANCH  37  38
ENDBRANCH  36  37
ENDBRANCH  35  36
ENDBRANCH   1  35
TORSDOF 22
ENDMDL
MODEL 3
REMARK VINA RESULT:     -10.6      3.055      3.632
REMARK SMILES CCCN1C(=O)/C(=C\c2ccc(OC)c(OC)c2C(=O)NCCCCCCNC(=O)c2ccc(-c3c4nc(c(-c5cccc(S(=O)(=O)[O-])c5F)c5ccc([nH]5)c(-c5cccc(S(=O)(=O)[O-])c5F)c5nc(c(-c6cccc(S(=O)(=O)[O-])c6F)c6ccc3[nH]6)C=C5)C=C4)cc2)S/C1=[NH+]\c1nccs1
REMARK SMILES IDX 24 1 23 2 22 3 21 4 19 5 20 6 18 8 9 9 10 10 11 11 15 12
REMARK SMILES IDX 12 13 8 14 4 15 5 16 95 17 6 18 7 19 94 20 96 21 3 23 2 24
REMARK SMILES IDX 1 25 97 26 98 27 101 28 99 29 100 30 16 31 17 32 13 33 14 34
REMARK SMILES IDX 25 35 26 36 27 37 28 38 29 39 30 41 31 42 32 43 93 44 33 45
REMARK SMILES IDX 92 46 34 47 35 48 36 49 86 50 37 51 91 52 85 53 87 54 38 55
REMARK SMILES IDX 90 56 84 57 83 58 39 60 71 61 51 62 70 63 52 64 55 65 69 66
REMARK SMILES IDX 88 67 53 68 54 69 68 71 89 72 56 73 40 74 41 75 49 76 42 77
REMARK SMILES IDX 44 78 50 79 43 80 45 81 46 82 47 83 48 84 72 85 73 86 81 87
REMARK SMILES IDX 74 88 76 89 82 90 75 91 77 92 78 93 79 94 80 95 57 96 58 97
REMARK SMILES IDX 66 98 59 99 61 100 67 101 60 102 62 103 63 104 64 105 65 106
REMARK H PARENT 21 7 96 22 28 40 87 59 55 70
REMARK Flexibility Score: inf
ROOT
ATOM      1  C   UNL A   1      34.673  25.172  24.887  1.00  0.00     0.002 C 
ENDROOT
BRANCH   1   2
ATOM      2  C   UNL A   1      33.768  25.163  26.125  1.00  0.00     0.021 C 
BRANCH   2   3
ATOM      3  C   UNL A   1      32.516  26.024  26.059  1.00  0.00     0.116 C 
BRANCH   3   4
ATOM      4  N   UNL A   1      31.287  25.404  26.490  1.00  0.00    -0.352 N 
ATOM      5  C   UNL A   1      30.954  24.068  26.449  1.00  0.00     0.255 C 
ATOM      6  O   UNL A   1      30.080  23.685  27.225  1.00  0.00    -0.269 OA
ATOM      7  H   UNL A   1      30.603  26.009  26.856  1.00  0.00     0.163 HD
BRANCH   5   8
ATOM      8  C   UNL A   1      31.591  23.091  25.517  1.00  0.00     0.092 A 
ATOM      9  C   UNL A   1      31.379  23.169  24.105  1.00  0.00    -0.007 A 
ATOM     10  C   UNL A   1      31.952  22.203  23.269  1.00  0.00     0.013 A 
ATOM     11  C   UNL A   1      32.795  21.225  23.786  1.00  0.00     0.051 A 
ATOM     12  C   UNL A   1      32.451  22.083  26.043  1.00  0.00     0.174 A 
ATOM     13  C   UNL A   1      33.076  21.184  25.152  1.00  0.00     0.161 A 
BRANCH   9  14
ATOM     14  C   UNL A   1      30.498  24.141  23.421  1.00  0.00     0.032 C 
ATOM     15  N   UNL A   1      32.485  26.816  22.224  1.00  0.00    -0.219 N 
ATOM     16  C   UNL A   1      32.277  25.453  22.240  1.00  0.00     0.321 C 
ATOM     17  C   UNL A   1      31.355  27.608  22.298  1.00  0.00     0.271 C 
ATOM     18  O   UNL A   1      33.036  24.575  21.876  1.00  0.00    -0.250 OA
ATOM     19  C   UNL A   1      30.897  25.186  22.687  1.00  0.00     0.100 C 
ATOM     20  S   UNL A   1      29.932  26.576  22.354  1.00  0.00    -0.012 SA
ATOM     21  N   UNL A   1      31.436  28.897  22.327  1.00  0.00    -0.228 N 
ATOM     22  H   UNL A   1      32.315  29.324  22.216  1.00  0.00     0.268 HD
BRANCH  15  23
ATOM     23  C   UNL A   1      33.816  27.361  21.996  1.00  0.00     0.206 C 
BRANCH  23  24
ATOM     24  C   UNL A   1      34.130  28.657  22.756  1.00  0.00     0.035 C 
ATOM     25  C   UNL A   1      34.139  28.528  24.275  1.00  0.00     0.007 C 
ENDBRANCH  23  24
ENDBRANCH  15  23
BRANCH  21  26
ATOM     26  C   UNL A   1      30.341  29.676  22.504  1.00  0.00     0.319 A 
ATOM     27  N   UNL A   1      29.401  29.856  21.594  1.00  0.00    -0.101 NA
ATOM     28  S   UNL A   1      29.944  30.346  24.054  1.00  0.00    -0.070 S 
ATOM     29  C   UNL A   1      28.336  30.569  22.112  1.00  0.00     0.219 A 
ATOM     30  C   UNL A   1      28.461  30.939  23.431  1.00  0.00     0.110 A 
ENDBRANCH  21  26
ENDBRANCH   9  14
BRANCH  12  31
ATOM     31  O   UNL A   1      32.566  21.725  27.368  1.00  0.00    -0.492 OA
ATOM     32  C   UNL A   1      33.665  22.216  28.122  1.00  0.00     0.278 C 
ENDBRANCH  12  31
BRANCH  13  33
ATOM     33  O   UNL A   1      33.911  20.152  25.514  1.00  0.00    -0.493 OA
ATOM     34  C   UNL A   1      33.989  19.087  24.569  1.00  0.00     0.278 C 
ENDBRANCH  13  33
ENDBRANCH   5   8
ENDBRANCH   3   4
ENDBRANCH   2   3
ENDBRANCH   1   2
BRANCH   1  35
ATOM     35  C   UNL A   1      35.326  23.846  24.490  1.00  0.00     0.002 C 
BRANCH  35  36
ATOM     36  C   UNL A   1      36.107  23.122  25.587  1.00  0.00     0.021 C 
BRANCH  36  37
ATOM     37  C   UNL A   1      37.444  23.729  25.971  1.00  0.00     0.116 C 
BRANCH  37  38
ATOM     38  N   UNL A   1      38.520  22.750  26.014  1.00  0.00    -0.352 N 
ATOM     39  C   UNL A   1      39.851  22.904  26.310  1.00  0.00     0.251 C 
ATOM     40  H   UNL A   1      38.248  21.829  25.795  1.00  0.00     0.163 HD
ATOM     41  O   UNL A   1      40.629  21.978  26.084  1.00  0.00    -0.269 OA
BRANCH  39  42
ATOM     42  C   UNL A   1      40.365  24.179  26.867  1.00  0.00     0.039 A 
ATOM     43  C   UNL A   1      40.430  25.301  26.034  1.00  0.00     0.014 A 
ATOM     44  C   UNL A   1      40.792  24.277  28.191  1.00  0.00     0.014 A 
ATOM     45  C   UNL A   1      40.853  26.529  26.550  1.00  0.00     0.010 A 
ATOM     46  C   UNL A   1      41.111  25.519  28.731  1.00  0.00     0.010 A 
ATOM     47  C   UNL A   1      41.158  26.658  27.914  1.00  0.00    -0.014 A 
BRANCH  47  48
ATOM     48  C   UNL A   1      41.533  27.966  28.512  1.00  0.00     0.031 A 
ATOM     49  C   UNL A   1      40.465  28.897  29.020  1.00  0.00     0.074 A 
ATOM     50  C   UNL A   1      42.824  28.355  28.507  1.00  0.00     0.049 A 
ATOM     51  N   UNL A   1      40.584  30.113  29.487  1.00  0.00    -0.248 NA
ATOM     52  C   UNL A   1      39.075  28.413  28.966  1.00  0.00     0.031 C 
ATOM     53  C   UNL A   1      43.942  27.574  27.971  1.00  0.00     0.029 A 
ATOM     54  N   UNL A   1      43.411  29.520  28.935  1.00  0.00    -0.354 N 
ATOM     55  C   UNL A   1      39.291  30.553  29.738  1.00  0.00     0.074 A 
ATOM     56  C   UNL A   1      38.396  29.489  29.341  1.00  0.00     0.031 C 
ATOM     57  C   UNL A   1      45.077  28.279  28.105  1.00  0.00     0.029 A 
ATOM     58  C   UNL A   1      44.766  29.575  28.697  1.00  0.00     0.049 A 
ATOM     59  H   UNL A   1      42.911  30.246  29.373  1.00  0.00     0.167 HD
ATOM     60  C   UNL A   1      38.882  31.727  30.275  1.00  0.00     0.034 A 
ATOM     61  C   UNL A   1      45.653  30.566  28.909  1.00  0.00     0.034 A 
ATOM     62  C   UNL A   1      39.778  32.765  30.706  1.00  0.00     0.049 A 
ATOM     63  C   UNL A   1      45.177  31.850  29.534  1.00  0.00     0.074 A 
ATOM     64  C   UNL A   1      39.472  33.950  31.353  1.00  0.00     0.029 A 
ATOM     65  N   UNL A   1      41.151  32.752  30.522  1.00  0.00    -0.354 N 
ATOM     66  N   UNL A   1      43.967  32.184  29.911  1.00  0.00    -0.248 NA
ATOM     67  C   UNL A   1      46.192  32.880  29.794  1.00  0.00     0.031 C 
ATOM     68  C   UNL A   1      40.657  34.672  31.522  1.00  0.00     0.029 A 
ATOM     69  C   UNL A   1      41.707  33.917  31.023  1.00  0.00     0.049 A 
ATOM     70  H   UNL A   1      41.657  32.022  30.099  1.00  0.00     0.167 HD
ATOM     71  C   UNL A   1      44.079  33.447  30.479  1.00  0.00     0.074 A 
ATOM     72  C   UNL A   1      45.481  33.808  30.420  1.00  0.00     0.031 C 
ATOM     73  C   UNL A   1      43.109  34.244  30.994  1.00  0.00     0.034 A 
BRANCH  60  74
ATOM     74  C   UNL A   1      37.401  31.941  30.459  1.00  0.00     0.023 A 
ATOM     75  C   UNL A   1      36.811  31.721  31.721  1.00  0.00     0.012 A 
ATOM     76  C   UNL A   1      36.604  32.415  29.399  1.00  0.00     0.148 A 
ATOM     77  C   UNL A   1      35.447  31.934  31.916  1.00  0.00     0.002 A 
ATOM     78  C   UNL A   1      35.255  32.673  29.614  1.00  0.00     0.091 A 
ATOM     79  F   UNL A   1      37.176  32.598  28.201  1.00  0.00    -0.205 F 
ATOM     80  C   UNL A   1      34.672  32.421  30.866  1.00  0.00     0.022 A 
BRANCH  78  81
ATOM     81  S   UNL A   1      34.189  33.378  28.352  1.00  0.00     0.127 S 
ATOM     82  O   UNL A   1      33.698  32.178  27.677  1.00  0.00    -0.237 OA
ATOM     83  O   UNL A   1      33.187  34.080  29.155  1.00  0.00    -0.237 OA
ATOM     84  O   UNL A   1      35.037  34.243  27.544  1.00  0.00    -0.744 OA
ENDBRANCH  78  81
ENDBRANCH  60  74
BRANCH  61  85
ATOM     85  C   UNL A   1      47.090  30.370  28.562  1.00  0.00     0.023 A 
ATOM     86  C   UNL A   1      47.576  30.831  27.324  1.00  0.00     0.012 A 
ATOM     87  C   UNL A   1      47.979  29.749  29.461  1.00  0.00     0.148 A 
ATOM     88  C   UNL A   1      48.914  30.647  26.972  1.00  0.00     0.002 A 
ATOM     89  C   UNL A   1      49.322  29.623  29.130  1.00  0.00     0.091 A 
ATOM     90  F   UNL A   1      47.494  29.308  30.630  1.00  0.00    -0.205 F 
ATOM     91  C   UNL A   1      49.788  30.053  27.878  1.00  0.00     0.022 A 
BRANCH  89  92
ATOM     92  S   UNL A   1      50.545  28.992  30.285  1.00  0.00     0.127 S 
ATOM     93  O   UNL A   1      51.772  29.080  29.499  1.00  0.00    -0.237 OA
ATOM     94  O   UNL A   1      50.443  29.954  31.383  1.00  0.00    -0.237 OA
ATOM     95  O   UNL A   1      50.107  27.645  30.624  1.00  0.00    -0.744 OA
ENDBRANCH  89  92
ENDBRANCH  61  85
BRANCH  73  96
ATOM     96  C   UNL A   1      43.527  35.573  31.567  1.00  0.00     0.023 A 
ATOM     97  C   UNL A   1      43.725  36.677  30.716  1.00  0.00     0.012 A 
ATOM     98  C   UNL A   1      43.647  35.742  32.961  1.00  0.00     0.148 A 
ATOM     99  C   UNL A   1      44.071  37.921  31.240  1.00  0.00     0.002 A 
ATOM    100  C   UNL A   1      43.939  36.997  33.479  1.00  0.00     0.091 A 
ATOM    101  F   UNL A   1      43.470  34.674  33.752  1.00  0.00    -0.205 F 
ATOM    102  C   UNL A   1      44.166  38.084  32.620  1.00  0.00     0.022 A 
BRANCH 100 103
ATOM    103  S   UNL A   1      43.982  37.325  35.244  1.00  0.00     0.127 S 
ATOM    104  O   UNL A   1      45.132  36.527  35.667  1.00  0.00    -0.237 OA
ATOM    105  O   UNL A   1      44.196  38.772  35.283  1.00  0.00    -0.237 OA
ATOM    106  O   UNL A   1      42.695  36.888  35.769  1.00  0.00    -0.744 OA
ENDBRANCH 100 103
ENDBRANCH  73  96
ENDBRANCH  47  48
ENDBRANCH  39  42
ENDBRANCH  37  38
ENDBRANCH  36  37
ENDBRANCH  35  36
ENDBRANCH   1  35
TORSDOF 22
ENDMDL
