MODEL 1
REMARK VINA RESULT:     -12.8      0.000      0.000
REMARK SMILES CN1C(=O)C[C@H](C(=O)Nc2ccc(C(=O)NCCCCCCNC(=O)c3ccc(-c4c5nc(c(-c6cccc(S(=O)(=O)[O-])c6F)c6ccc([nH]6)c(-c6cccc(S(=O)(=O)[O-])c6F)c6nc(c(-c7cccc(S(=O)(=O)[O-])c7F)c7ccc4[nH]7)C=C6)C=C5)cc3)cc2)S/C1=[NH+]\c1cccc(C(F)(F)F)c1
REMARK SMILES IDX 19 1 18 2 17 3 16 4 14 5 15 6 13 8 10 9 11 10 90 11 12 12
REMARK SMILES IDX 89 13 9 14 7 15 8 16 6 18 1 19 2 20 3 21 92 22 4 23 5 24
REMARK SMILES IDX 91 25 93 26 94 28 95 29 103 30 96 31 98 32 97 33 99 34
REMARK SMILES IDX 100 35 101 36 102 37 20 38 21 39 22 40 23 41 24 42 25 44
REMARK SMILES IDX 26 45 27 46 88 47 28 48 87 49 29 50 30 51 31 52 81 53 32 54
REMARK SMILES IDX 86 55 80 56 82 57 33 58 85 59 79 60 78 61 34 63 66 64 46 65
REMARK SMILES IDX 65 66 47 67 50 68 64 69 83 70 48 71 49 72 63 74 84 75 51 76
REMARK SMILES IDX 35 77 36 78 44 79 37 80 39 81 45 82 38 83 40 84 41 85 42 86
REMARK SMILES IDX 43 87 67 88 68 89 76 90 69 91 71 92 77 93 70 94 72 95 73 96
REMARK SMILES IDX 74 97 75 98 52 99 53 100 61 101 54 102 56 103 62 104 55 105
REMARK SMILES IDX 57 106 58 107 59 108 60 109
REMARK H PARENT 16 7 9 17 93 27 23 43 82 62 50 73
REMARK Flexibility Score: inf
ROOT
ATOM      1  C   UNL A   1      31.734  28.630  24.892  1.00  0.00     0.002 C 
ENDROOT
BRANCH   1   2
ATOM      2  C   UNL A   1      30.440  28.356  24.140  1.00  0.00     0.021 C 
BRANCH   2   3
ATOM      3  C   UNL A   1      30.564  27.835  22.704  1.00  0.00     0.116 C 
BRANCH   3   4
ATOM      4  N   UNL A   1      31.865  28.066  22.044  1.00  0.00    -0.352 N 
ATOM      5  C   UNL A   1      33.070  27.363  22.027  1.00  0.00     0.251 C 
ATOM      6  O   UNL A   1      34.041  27.829  21.436  1.00  0.00    -0.269 OA
ATOM      7  H   UNL A   1      31.887  28.888  21.503  1.00  0.00     0.163 HD
BRANCH   5   8
ATOM      8  C   UNL A   1      33.229  26.058  22.721  1.00  0.00     0.039 A 
ATOM      9  C   UNL A   1      34.117  23.492  23.558  1.00  0.00     0.041 A 
ATOM     10  C   UNL A   1      32.897  23.615  22.899  1.00  0.00     0.027 A 
ATOM     11  C   UNL A   1      34.732  24.684  23.831  1.00  0.00     0.027 A 
ATOM     12  C   UNL A   1      32.482  24.897  22.428  1.00  0.00     0.016 A 
ATOM     13  C   UNL A   1      34.241  25.948  23.621  1.00  0.00     0.016 A 
BRANCH   9  14
ATOM     14  N   UNL A   1      34.769  22.259  23.798  1.00  0.00    -0.325 N 
ATOM     15  C   UNL A   1      35.282  21.651  24.937  1.00  0.00     0.238 C 
ATOM     16  O   UNL A   1      35.969  20.637  24.733  1.00  0.00    -0.273 OA
ATOM     17  H   UNL A   1      34.880  21.715  22.985  1.00  0.00     0.169 HD
BRANCH  15  18
ATOM     18  C   UNL A   1      34.970  22.066  26.404  1.00  0.00     0.160 C 
ATOM     19  C   UNL A   1      30.670  23.203  26.571  1.00  0.00     0.301 C 
ATOM     20  N   UNL A   1      32.074  22.894  26.403  1.00  0.00    -0.194 N 
ATOM     21  C   UNL A   1      33.036  23.899  26.506  1.00  0.00     0.311 C 
ATOM     22  C   UNL A   1      32.404  21.584  26.175  1.00  0.00     0.319 C 
ATOM     23  O   UNL A   1      32.735  25.095  26.561  1.00  0.00    -0.247 OA
ATOM     24  C   UNL A   1      34.539  23.530  26.555  1.00  0.00     0.153 C 
ATOM     25  S   UNL A   1      33.659  21.160  27.242  1.00  0.00    -0.024 SA
ATOM     26  N   UNL A   1      31.778  20.850  25.315  1.00  0.00    -0.235 N 
ATOM     27  H   UNL A   1      30.840  21.077  25.118  1.00  0.00     0.313 HD
BRANCH  26  28
ATOM     28  C   UNL A   1      32.339  19.747  24.641  1.00  0.00     0.126 A 
ATOM     29  C   UNL A   1      32.190  19.783  23.244  1.00  0.00     0.052 A 
ATOM     30  C   UNL A   1      32.824  18.561  25.211  1.00  0.00     0.064 A 
ATOM     31  C   UNL A   1      32.528  18.710  22.423  1.00  0.00     0.005 A 
ATOM     32  C   UNL A   1      33.161  17.450  24.385  1.00  0.00     0.060 A 
ATOM     33  C   UNL A   1      33.018  17.549  22.992  1.00  0.00     0.013 A 
BRANCH  32  34
ATOM     34  C   UNL A   1      33.651  16.132  24.937  1.00  0.00     0.416 C 
ATOM     35  F   UNL A   1      32.841  15.085  24.630  1.00  0.00    -0.166 F 
ATOM     36  F   UNL A   1      34.891  15.775  24.485  1.00  0.00    -0.166 F 
ATOM     37  F   UNL A   1      33.771  16.156  26.287  1.00  0.00    -0.166 F 
ENDBRANCH  32  34
ENDBRANCH  26  28
ENDBRANCH  15  18
ENDBRANCH   9  14
ENDBRANCH   5   8
ENDBRANCH   3   4
ENDBRANCH   2   3
ENDBRANCH   1   2
BRANCH   1  38
ATOM     38  C   UNL A   1      31.695  28.319  26.387  1.00  0.00     0.002 C 
BRANCH  38  39
ATOM     39  C   UNL A   1      33.052  28.326  27.103  1.00  0.00     0.021 C 
BRANCH  39  40
ATOM     40  C   UNL A   1      34.138  29.174  26.443  1.00  0.00     0.116 C 
BRANCH  40  41
ATOM     41  N   UNL A   1      34.033  30.578  26.813  1.00  0.00    -0.352 N 
ATOM     42  C   UNL A   1      34.748  31.281  27.751  1.00  0.00     0.251 C 
ATOM     43  H   UNL A   1      33.354  31.094  26.323  1.00  0.00     0.163 HD
ATOM     44  O   UNL A   1      34.366  32.395  28.105  1.00  0.00    -0.269 OA
BRANCH  42  45
ATOM     45  C   UNL A   1      35.973  30.698  28.337  1.00  0.00     0.039 A 
ATOM     46  C   UNL A   1      35.857  29.706  29.315  1.00  0.00     0.014 A 
ATOM     47  C   UNL A   1      37.237  31.149  27.940  1.00  0.00     0.014 A 
ATOM     48  C   UNL A   1      37.010  29.132  29.860  1.00  0.00     0.010 A 
ATOM     49  C   UNL A   1      38.382  30.532  28.440  1.00  0.00     0.010 A 
ATOM     50  C   UNL A   1      38.282  29.523  29.410  1.00  0.00    -0.014 A 
BRANCH  50  51
ATOM     51  C   UNL A   1      39.516  28.888  29.940  1.00  0.00     0.031 A 
ATOM     52  C   UNL A   1      40.192  29.444  31.165  1.00  0.00     0.074 A 
ATOM     53  C   UNL A   1      40.077  27.861  29.271  1.00  0.00     0.049 A 
ATOM     54  N   UNL A   1      41.300  29.057  31.743  1.00  0.00    -0.248 NA
ATOM     55  C   UNL A   1      39.554  30.601  31.814  1.00  0.00     0.031 C 
ATOM     56  C   UNL A   1      39.563  27.281  28.028  1.00  0.00     0.029 A 
ATOM     57  N   UNL A   1      41.218  27.141  29.525  1.00  0.00    -0.354 N 
ATOM     58  C   UNL A   1      41.512  29.941  32.795  1.00  0.00     0.074 A 
ATOM     59  C   UNL A   1      40.433  30.904  32.758  1.00  0.00     0.031 C 
ATOM     60  C   UNL A   1      40.384  26.297  27.629  1.00  0.00     0.029 A 
ATOM     61  C   UNL A   1      41.497  26.192  28.568  1.00  0.00     0.049 A 
ATOM     62  H   UNL A   1      41.784  27.290  30.317  1.00  0.00     0.167 HD
ATOM     63  C   UNL A   1      42.496  29.936  33.725  1.00  0.00     0.034 A 
ATOM     64  C   UNL A   1      42.534  25.339  28.456  1.00  0.00     0.034 A 
ATOM     65  C   UNL A   1      43.543  28.950  33.786  1.00  0.00     0.049 A 
ATOM     66  C   UNL A   1      43.591  25.326  29.526  1.00  0.00     0.074 A 
ATOM     67  C   UNL A   1      44.533  28.805  34.741  1.00  0.00     0.029 A 
ATOM     68  N   UNL A   1      43.740  27.947  32.850  1.00  0.00    -0.354 N 
ATOM     69  N   UNL A   1      43.682  26.065  30.606  1.00  0.00    -0.248 NA
ATOM     70  C   UNL A   1      44.668  24.334  29.388  1.00  0.00     0.031 C 
ATOM     71  C   UNL A   1      45.344  27.728  34.371  1.00  0.00     0.029 A 
ATOM     72  C   UNL A   1      44.842  27.185  33.200  1.00  0.00     0.049 A 
ATOM     73  H   UNL A   1      43.180  27.798  32.055  1.00  0.00     0.167 HD
ATOM     74  C   UNL A   1      44.802  25.606  31.290  1.00  0.00     0.074 A 
ATOM     75  C   UNL A   1      45.344  24.509  30.515  1.00  0.00     0.031 C 
ATOM     76  C   UNL A   1      45.340  26.061  32.448  1.00  0.00     0.034 A 
BRANCH  63  77
ATOM     77  C   UNL A   1      42.461  31.001  34.791  1.00  0.00     0.023 A 
ATOM     78  C   UNL A   1      41.714  30.781  35.968  1.00  0.00     0.012 A 
ATOM     79  C   UNL A   1      43.212  32.186  34.662  1.00  0.00     0.148 A 
ATOM     80  C   UNL A   1      41.687  31.737  36.982  1.00  0.00     0.002 A 
ATOM     81  C   UNL A   1      43.216  33.113  35.696  1.00  0.00     0.091 A 
ATOM     82  F   UNL A   1      43.899  32.386  33.529  1.00  0.00    -0.205 F 
ATOM     83  C   UNL A   1      42.446  32.897  36.851  1.00  0.00     0.022 A 
BRANCH  81  84
ATOM     84  S   UNL A   1      44.223  34.601  35.660  1.00  0.00     0.127 S 
ATOM     85  O   UNL A   1      43.771  35.292  36.869  1.00  0.00    -0.237 OA
ATOM     86  O   UNL A   1      45.580  34.056  35.743  1.00  0.00    -0.237 OA
ATOM     87  O   UNL A   1      43.911  35.267  34.407  1.00  0.00    -0.744 OA
ENDBRANCH  81  84
ENDBRANCH  63  77
BRANCH  64  88
ATOM     88  C   UNL A   1      42.588  24.380  27.315  1.00  0.00     0.023 A 
ATOM     89  C   UNL A   1      43.256  24.750  26.132  1.00  0.00     0.012 A 
ATOM     90  C   UNL A   1      42.010  23.099  27.406  1.00  0.00     0.148 A 
ATOM     91  C   UNL A   1      43.320  23.874  25.047  1.00  0.00     0.002 A 
ATOM     92  C   UNL A   1      42.127  22.210  26.342  1.00  0.00     0.091 A 
ATOM     93  F   UNL A   1      41.368  22.770  28.536  1.00  0.00    -0.205 F 
ATOM     94  C   UNL A   1      42.764  22.603  25.156  1.00  0.00     0.022 A 
BRANCH  92  95
ATOM     95  S   UNL A   1      41.561  20.509  26.459  1.00  0.00     0.127 S 
ATOM     96  O   UNL A   1      40.124  20.657  26.192  1.00  0.00    -0.237 OA
ATOM     97  O   UNL A   1      42.315  19.869  25.369  1.00  0.00    -0.237 OA
ATOM     98  O   UNL A   1      41.920  20.058  27.778  1.00  0.00    -0.744 OA
ENDBRANCH  92  95
ENDBRANCH  64  88
BRANCH  76  99
ATOM     99  C   UNL A   1      46.561  25.355  32.977  1.00  0.00     0.023 A 
ATOM    100  C   UNL A   1      47.845  25.845  32.668  1.00  0.00     0.012 A 
ATOM    101  C   UNL A   1      46.433  24.250  33.843  1.00  0.00     0.148 A 
ATOM    102  C   UNL A   1      48.983  25.229  33.186  1.00  0.00     0.002 A 
ATOM    103  C   UNL A   1      47.569  23.671  34.395  1.00  0.00     0.091 A 
ATOM    104  F   UNL A   1      45.202  23.786  34.109  1.00  0.00    -0.205 F 
ATOM    105  C   UNL A   1      48.845  24.151  34.058  1.00  0.00     0.022 A 
BRANCH 103 106
ATOM    106  S   UNL A   1      47.483  22.344  35.602  1.00  0.00     0.127 S 
ATOM    107  O   UNL A   1      46.652  22.944  36.646  1.00  0.00    -0.237 OA
ATOM    108  O   UNL A   1      46.831  21.275  34.844  1.00  0.00    -0.237 OA
ATOM    109  O   UNL A   1      48.859  22.059  35.985  1.00  0.00    -0.744 OA
ENDBRANCH 103 106
ENDBRANCH  76  99
ENDBRANCH  50  51
ENDBRANCH  42  45
ENDBRANCH  40  41
ENDBRANCH  39  40
ENDBRANCH  38  39
ENDBRANCH   1  38
TORSDOF 20
ENDMDL
MODEL 2
REMARK VINA RESULT:     -12.8      1.712      2.004
REMARK SMILES CN1C(=O)C[C@H](C(=O)Nc2ccc(C(=O)NCCCCCCNC(=O)c3ccc(-c4c5nc(c(-c6cccc(S(=O)(=O)[O-])c6F)c6ccc([nH]6)c(-c6cccc(S(=O)(=O)[O-])c6F)c6nc(c(-c7cccc(S(=O)(=O)[O-])c7F)c7ccc4[nH]7)C=C6)C=C5)cc3)cc2)S/C1=[NH+]\c1cccc(C(F)(F)F)c1
REMARK SMILES IDX 19 1 18 2 17 3 16 4 14 5 15 6 13 8 10 9 11 10 90 11 12 12
REMARK SMILES IDX 89 13 9 14 7 15 8 16 6 18 1 19 2 20 3 21 92 22 4 23 5 24
REMARK SMILES IDX 91 25 93 26 94 28 95 29 103 30 96 31 98 32 97 33 99 34
REMARK SMILES IDX 100 35 101 36 102 37 20 38 21 39 22 40 23 41 24 42 25 44
REMARK SMILES IDX 26 45 27 46 88 47 28 48 87 49 29 50 30 51 31 52 81 53 32 54
REMARK SMILES IDX 86 55 80 56 82 57 33 58 85 59 79 60 78 61 34 63 66 64 46 65
REMARK SMILES IDX 65 66 47 67 50 68 64 69 83 70 48 71 49 72 63 74 84 75 51 76
REMARK SMILES IDX 35 77 36 78 44 79 37 80 39 81 45 82 38 83 40 84 41 85 42 86
REMARK SMILES IDX 43 87 67 88 68 89 76 90 69 91 71 92 77 93 70 94 72 95 73 96
REMARK SMILES IDX 74 97 75 98 52 99 53 100 61 101 54 102 56 103 62 104 55 105
REMARK SMILES IDX 57 106 58 107 59 108 60 109
REMARK H PARENT 16 7 9 17 93 27 23 43 82 62 50 73
REMARK Flexibility Score: inf
ROOT
ATOM      1  C   UNL A   1      30.811  29.674  24.490  1.00  0.00     0.002 C 
ENDROOT
BRANCH   1   2
ATOM      2  C   UNL A   1      30.326  28.321  23.993  1.00  0.00     0.021 C 
BRANCH   2   3
ATOM      3  C   UNL A   1      30.581  27.987  22.519  1.00  0.00     0.116 C 
BRANCH   3   4
ATOM      4  N   UNL A   1      31.942  28.266  22.020  1.00  0.00    -0.352 N 
ATOM      5  C   UNL A   1      33.156  27.584  22.113  1.00  0.00     0.251 C 
ATOM      6  O   UNL A   1      34.178  28.091  21.655  1.00  0.00    -0.269 OA
ATOM      7  H   UNL A   1      32.007  29.110  21.517  1.00  0.00     0.163 HD
BRANCH   5   8
ATOM      8  C   UNL A   1      33.264  26.255  22.770  1.00  0.00     0.039 A 
ATOM      9  C   UNL A   1      34.069  23.647  23.556  1.00  0.00     0.041 A 
ATOM     10  C   UNL A   1      32.878  23.815  22.856  1.00  0.00     0.027 A 
ATOM     11  C   UNL A   1      34.696  24.816  23.891  1.00  0.00     0.027 A 
ATOM     12  C   UNL A   1      32.506  25.119  22.412  1.00  0.00     0.016 A 
ATOM     13  C   UNL A   1      34.238  26.096  23.704  1.00  0.00     0.016 A 
BRANCH   9  14
ATOM     14  N   UNL A   1      34.688  22.393  23.781  1.00  0.00    -0.325 N 
ATOM     15  C   UNL A   1      35.187  21.758  24.911  1.00  0.00     0.238 C 
ATOM     16  O   UNL A   1      35.845  20.729  24.693  1.00  0.00    -0.273 OA
ATOM     17  H   UNL A   1      34.782  21.856  22.961  1.00  0.00     0.169 HD
BRANCH  15  18
ATOM     18  C   UNL A   1      34.891  22.165  26.383  1.00  0.00     0.160 C 
ATOM     19  C   UNL A   1      30.547  23.102  26.648  1.00  0.00     0.301 C 
ATOM     20  N   UNL A   1      31.960  22.858  26.448  1.00  0.00    -0.194 N 
ATOM     21  C   UNL A   1      32.876  23.907  26.524  1.00  0.00     0.311 C 
ATOM     22  C   UNL A   1      32.345  21.564  26.216  1.00  0.00     0.319 C 
ATOM     23  O   UNL A   1      32.521  25.088  26.582  1.00  0.00    -0.247 OA
ATOM     24  C   UNL A   1      34.396  23.609  26.539  1.00  0.00     0.153 C 
ATOM     25  S   UNL A   1      33.643  21.204  27.255  1.00  0.00    -0.024 SA
ATOM     26  N   UNL A   1      31.734  20.798  25.375  1.00  0.00    -0.235 N 
ATOM     27  H   UNL A   1      30.782  20.980  25.199  1.00  0.00     0.313 HD
BRANCH  26  28
ATOM     28  C   UNL A   1      32.330  19.719  24.691  1.00  0.00     0.126 A 
ATOM     29  C   UNL A   1      32.203  19.776  23.292  1.00  0.00     0.052 A 
ATOM     30  C   UNL A   1      32.830  18.533  25.249  1.00  0.00     0.064 A 
ATOM     31  C   UNL A   1      32.578  18.725  22.459  1.00  0.00     0.005 A 
ATOM     32  C   UNL A   1      33.205  17.444  24.410  1.00  0.00     0.060 A 
ATOM     33  C   UNL A   1      33.084  17.564  23.017  1.00  0.00     0.013 A 
BRANCH  32  34
ATOM     34  C   UNL A   1      33.714  16.128  24.948  1.00  0.00     0.416 C 
ATOM     35  F   UNL A   1      33.986  16.158  26.279  1.00  0.00    -0.166 F 
ATOM     36  F   UNL A   1      32.837  15.092  24.781  1.00  0.00    -0.166 F 
ATOM     37  F   UNL A   1      34.847  15.724  24.323  1.00  0.00    -0.166 F 
ENDBRANCH  32  34
ENDBRANCH  26  28
ENDBRANCH  15  18
ENDBRANCH   9  14
ENDBRANCH   5   8
ENDBRANCH   3   4
ENDBRANCH   2   3
ENDBRANCH   1   2
BRANCH   1  38
ATOM     38  C   UNL A   1      31.653  29.634  25.764  1.00  0.00     0.002 C 
BRANCH  38  39
ATOM     39  C   UNL A   1      32.899  28.742  25.710  1.00  0.00     0.021 C 
BRANCH  39  40
ATOM     40  C   UNL A   1      34.111  29.258  26.485  1.00  0.00     0.116 C 
BRANCH  40  41
ATOM     41  N   UNL A   1      33.918  30.624  26.949  1.00  0.00    -0.352 N 
ATOM     42  C   UNL A   1      34.596  31.309  27.927  1.00  0.00     0.251 C 
ATOM     43  H   UNL A   1      33.201  31.126  26.499  1.00  0.00     0.163 HD
ATOM     44  O   UNL A   1      34.146  32.370  28.357  1.00  0.00    -0.269 OA
BRANCH  42  45
ATOM     45  C   UNL A   1      35.863  30.771  28.465  1.00  0.00     0.039 A 
ATOM     46  C   UNL A   1      35.821  29.806  29.474  1.00  0.00     0.014 A 
ATOM     47  C   UNL A   1      37.093  31.240  27.991  1.00  0.00     0.014 A 
ATOM     48  C   UNL A   1      37.013  29.273  29.974  1.00  0.00     0.010 A 
ATOM     49  C   UNL A   1      38.277  30.663  28.447  1.00  0.00     0.010 A 
ATOM     50  C   UNL A   1      38.251  29.680  29.449  1.00  0.00    -0.014 A 
BRANCH  50  51
ATOM     51  C   UNL A   1      39.525  29.088  29.932  1.00  0.00     0.031 A 
ATOM     52  C   UNL A   1      40.271  29.718  31.078  1.00  0.00     0.074 A 
ATOM     53  C   UNL A   1      40.056  28.032  29.284  1.00  0.00     0.049 A 
ATOM     54  N   UNL A   1      41.419  29.375  31.603  1.00  0.00    -0.248 NA
ATOM     55  C   UNL A   1      39.659  30.903  31.702  1.00  0.00     0.031 C 
ATOM     56  C   UNL A   1      39.471  27.378  28.112  1.00  0.00     0.029 A 
ATOM     57  N   UNL A   1      41.221  27.338  29.503  1.00  0.00    -0.354 N 
ATOM     58  C   UNL A   1      41.685  30.319  32.588  1.00  0.00     0.074 A 
ATOM     59  C   UNL A   1      40.593  31.267  32.569  1.00  0.00     0.031 C 
ATOM     60  C   UNL A   1      40.279  26.382  27.715  1.00  0.00     0.029 A 
ATOM     61  C   UNL A   1      41.451  26.341  28.584  1.00  0.00     0.049 A 
ATOM     62  H   UNL A   1      41.835  27.536  30.248  1.00  0.00     0.167 HD
ATOM     63  C   UNL A   1      42.728  30.376  33.452  1.00  0.00     0.034 A 
ATOM     64  C   UNL A   1      42.490  25.493  28.451  1.00  0.00     0.034 A 
ATOM     65  C   UNL A   1      43.789  29.406  33.498  1.00  0.00     0.049 A 
ATOM     66  C   UNL A   1      43.614  25.551  29.450  1.00  0.00     0.074 A 
ATOM     67  C   UNL A   1      44.841  29.324  34.394  1.00  0.00     0.029 A 
ATOM     68  N   UNL A   1      43.940  28.354  32.608  1.00  0.00    -0.354 N 
ATOM     69  N   UNL A   1      43.764  26.350  30.479  1.00  0.00    -0.248 NA
ATOM     70  C   UNL A   1      44.694  24.564  29.296  1.00  0.00     0.031 C 
ATOM     71  C   UNL A   1      45.642  28.236  34.031  1.00  0.00     0.029 A 
ATOM     72  C   UNL A   1      45.073  27.624  32.926  1.00  0.00     0.049 A 
ATOM     73  H   UNL A   1      43.333  28.155  31.860  1.00  0.00     0.167 HD
ATOM     74  C   UNL A   1      44.932  25.941  31.113  1.00  0.00     0.074 A 
ATOM     75  C   UNL A   1      45.438  24.808  30.365  1.00  0.00     0.031 C 
ATOM     76  C   UNL A   1      45.538  26.465  32.207  1.00  0.00     0.034 A 
BRANCH  63  77
ATOM     77  C   UNL A   1      42.746  31.497  34.457  1.00  0.00     0.023 A 
ATOM     78  C   UNL A   1      43.537  32.640  34.209  1.00  0.00     0.012 A 
ATOM     79  C   UNL A   1      41.938  31.455  35.611  1.00  0.00     0.148 A 
ATOM     80  C   UNL A   1      43.550  33.704  35.109  1.00  0.00     0.002 A 
ATOM     81  C   UNL A   1      41.922  32.539  36.480  1.00  0.00     0.091 A 
ATOM     82  F   UNL A   1      41.209  30.354  35.840  1.00  0.00    -0.205 F 
ATOM     83  C   UNL A   1      42.735  33.659  36.238  1.00  0.00     0.022 A 
BRANCH  81  84
ATOM     84  S   UNL A   1      40.848  32.613  37.918  1.00  0.00     0.127 S 
ATOM     85  O   UNL A   1      41.665  31.943  38.931  1.00  0.00    -0.237 OA
ATOM     86  O   UNL A   1      40.698  34.056  38.116  1.00  0.00    -0.237 OA
ATOM     87  O   UNL A   1      39.626  31.921  37.543  1.00  0.00    -0.744 OA
ENDBRANCH  81  84
ENDBRANCH  63  77
BRANCH  64  88
ATOM     88  C   UNL A   1      42.484  24.473  27.364  1.00  0.00     0.023 A 
ATOM     89  C   UNL A   1      43.305  24.661  26.235  1.00  0.00     0.012 A 
ATOM     90  C   UNL A   1      41.697  23.309  27.455  1.00  0.00     0.148 A 
ATOM     91  C   UNL A   1      43.317  23.724  25.200  1.00  0.00     0.002 A 
ATOM     92  C   UNL A   1      41.758  22.352  26.446  1.00  0.00     0.091 A 
ATOM     93  F   UNL A   1      40.914  23.154  28.531  1.00  0.00    -0.205 F 
ATOM     94  C   UNL A   1      42.552  22.567  25.311  1.00  0.00     0.022 A 
BRANCH  92  95
ATOM     95  S   UNL A   1      40.911  20.773  26.582  1.00  0.00     0.127 S 
ATOM     96  O   UNL A   1      39.582  21.105  26.051  1.00  0.00    -0.237 OA
ATOM     97  O   UNL A   1      41.720  19.923  25.696  1.00  0.00    -0.237 OA
ATOM     98  O   UNL A   1      40.967  20.408  27.974  1.00  0.00    -0.744 OA
ENDBRANCH  92  95
ENDBRANCH  64  88
BRANCH  76  99
ATOM     99  C   UNL A   1      46.799  25.802  32.693  1.00  0.00     0.023 A 
ATOM    100  C   UNL A   1      46.742  24.878  33.755  1.00  0.00     0.012 A 
ATOM    101  C   UNL A   1      48.030  26.038  32.047  1.00  0.00     0.148 A 
ATOM    102  C   UNL A   1      47.895  24.223  34.187  1.00  0.00     0.002 A 
ATOM    103  C   UNL A   1      49.165  25.345  32.451  1.00  0.00     0.091 A 
ATOM    104  F   UNL A   1      48.067  26.936  31.051  1.00  0.00    -0.205 F 
ATOM    105  C   UNL A   1      49.102  24.447  33.528  1.00  0.00     0.022 A 
BRANCH 103 106
ATOM    106  S   UNL A   1      50.738  25.497  31.598  1.00  0.00     0.127 S 
ATOM    107  O   UNL A   1      51.587  24.597  32.379  1.00  0.00    -0.237 OA
ATOM    108  O   UNL A   1      50.412  25.015  30.256  1.00  0.00    -0.237 OA
ATOM    109  O   UNL A   1      51.096  26.907  31.663  1.00  0.00    -0.744 OA
ENDBRANCH 103 106
ENDBRANCH  76  99
ENDBRANCH  50  51
ENDBRANCH  42  45
ENDBRANCH  40  41
ENDBRANCH  39  40
ENDBRANCH  38  39
ENDBRANCH   1  38
TORSDOF 20
ENDMDL
MODEL 3
REMARK VINA RESULT:     -11.7      6.524      8.553
REMARK SMILES CN1C(=O)C[C@H](C(=O)Nc2ccc(C(=O)NCCCCCCNC(=O)c3ccc(-c4c5nc(c(-c6cccc(S(=O)(=O)[O-])c6F)c6ccc([nH]6)c(-c6cccc(S(=O)(=O)[O-])c6F)c6nc(c(-c7cccc(S(=O)(=O)[O-])c7F)c7ccc4[nH]7)C=C6)C=C5)cc3)cc2)S/C1=[NH+]\c1cccc(C(F)(F)F)c1
REMARK SMILES IDX 19 1 18 2 17 3 16 4 14 5 15 6 13 8 10 9 11 10 90 11 12 12
REMARK SMILES IDX 89 13 9 14 7 15 8 16 6 18 1 19 2 20 3 21 92 22 4 23 5 24
REMARK SMILES IDX 91 25 93 26 94 28 95 29 103 30 96 31 98 32 97 33 99 34
REMARK SMILES IDX 100 35 101 36 102 37 20 38 21 39 22 40 23 41 24 42 25 44
REMARK SMILES IDX 26 45 27 46 88 47 28 48 87 49 29 50 30 51 31 52 81 53 32 54
REMARK SMILES IDX 86 55 80 56 82 57 33 58 85 59 79 60 78 61 34 63 66 64 46 65
REMARK SMILES IDX 65 66 47 67 50 68 64 69 83 70 48 71 49 72 63 74 84 75 51 76
REMARK SMILES IDX 35 77 36 78 44 79 37 80 39 81 45 82 38 83 40 84 41 85 42 86
REMARK SMILES IDX 43 87 67 88 68 89 76 90 69 91 71 92 77 93 70 94 72 95 73 96
REMARK SMILES IDX 74 97 75 98 52 99 53 100 61 101 54 102 56 103 62 104 55 105
REMARK SMILES IDX 57 106 58 107 59 108 60 109
REMARK H PARENT 16 7 9 17 93 27 23 43 82 62 50 73
REMARK Flexibility Score: inf
ROOT
ATOM      1  C   UNL A   1      39.969  27.027  28.627  1.00  0.00     0.002 C 
ENDROOT
BRANCH   1   2
ATOM      2  C   UNL A   1      39.614  25.574  28.352  1.00  0.00     0.021 C 
BRANCH   2   3
ATOM      3  C   UNL A   1      39.781  25.075  26.912  1.00  0.00     0.116 C 
BRANCH   3   4
ATOM      4  N   UNL A   1      40.136  23.650  26.760  1.00  0.00    -0.352 N 
ATOM      5  C   UNL A   1      39.428  22.525  26.335  1.00  0.00     0.251 C 
ATOM      6  O   UNL A   1      39.959  21.418  26.375  1.00  0.00    -0.269 OA
ATOM      7  H   UNL A   1      41.067  23.452  27.012  1.00  0.00     0.163 HD
BRANCH   5   8
ATOM      8  C   UNL A   1      38.028  22.616  25.843  1.00  0.00     0.039 A 
ATOM      9  C   UNL A   1      35.702  22.807  24.223  1.00  0.00     0.041 A 
ATOM     10  C   UNL A   1      36.070  23.884  25.025  1.00  0.00     0.027 A 
ATOM     11  C   UNL A   1      36.476  21.690  24.389  1.00  0.00     0.027 A 
ATOM     12  C   UNL A   1      37.271  23.806  25.792  1.00  0.00     0.016 A 
ATOM     13  C   UNL A   1      37.481  21.495  25.303  1.00  0.00     0.016 A 
BRANCH   9  14
ATOM     14  N   UNL A   1      34.721  22.874  23.205  1.00  0.00    -0.325 N 
ATOM     15  C   UNL A   1      33.799  23.840  22.822  1.00  0.00     0.238 C 
ATOM     16  O   UNL A   1      32.954  23.467  21.994  1.00  0.00    -0.273 OA
ATOM     17  H   UNL A   1      34.685  22.062  22.649  1.00  0.00     0.169 HD
BRANCH  15  18
ATOM     18  C   UNL A   1      33.825  25.336  23.252  1.00  0.00     0.160 C 
ATOM     19  C   UNL A   1      29.659  26.475  24.327  1.00  0.00     0.301 C 
ATOM     20  N   UNL A   1      30.963  26.039  23.878  1.00  0.00    -0.194 N 
ATOM     21  C   UNL A   1      31.513  26.546  22.700  1.00  0.00     0.311 C 
ATOM     22  C   UNL A   1      31.630  25.143  24.672  1.00  0.00     0.319 C 
ATOM     23  O   UNL A   1      30.858  27.232  21.911  1.00  0.00    -0.247 OA
ATOM     24  C   UNL A   1      32.992  26.253  22.348  1.00  0.00     0.153 C 
ATOM     25  S   UNL A   1      33.215  25.716  24.902  1.00  0.00    -0.024 SA
ATOM     26  N   UNL A   1      31.060  24.095  25.167  1.00  0.00    -0.235 N 
ATOM     27  H   UNL A   1      30.088  24.133  25.319  1.00  0.00     0.313 HD
BRANCH  26  28
ATOM     28  C   UNL A   1      31.728  22.901  25.506  1.00  0.00     0.126 A 
ATOM     29  C   UNL A   1      32.568  23.006  26.629  1.00  0.00     0.052 A 
ATOM     30  C   UNL A   1      31.807  21.726  24.746  1.00  0.00     0.064 A 
ATOM     31  C   UNL A   1      33.435  21.987  27.018  1.00  0.00     0.005 A 
ATOM     32  C   UNL A   1      32.699  20.681  25.123  1.00  0.00     0.060 A 
ATOM     33  C   UNL A   1      33.496  20.826  26.270  1.00  0.00     0.013 A 
BRANCH  32  34
ATOM     34  C   UNL A   1      32.860  19.408  24.327  1.00  0.00     0.416 C 
ATOM     35  F   UNL A   1      34.145  18.970  24.265  1.00  0.00    -0.166 F 
ATOM     36  F   UNL A   1      32.144  18.355  24.827  1.00  0.00    -0.166 F 
ATOM     37  F   UNL A   1      32.426  19.544  23.050  1.00  0.00    -0.166 F 
ENDBRANCH  32  34
ENDBRANCH  26  28
ENDBRANCH  15  18
ENDBRANCH   9  14
ENDBRANCH   5   8
ENDBRANCH   3   4
ENDBRANCH   2   3
ENDBRANCH   1   2
BRANCH   1  38
ATOM     38  C   UNL A   1      39.927  27.440  30.097  1.00  0.00     0.002 C 
BRANCH  38  39
ATOM     39  C   UNL A   1      38.546  27.390  30.762  1.00  0.00     0.021 C 
BRANCH  39  40
ATOM     40  C   UNL A   1      38.512  27.795  32.235  1.00  0.00     0.116 C 
BRANCH  40  41
ATOM     41  N   UNL A   1      37.606  28.909  32.473  1.00  0.00    -0.352 N 
ATOM     42  C   UNL A   1      37.852  30.257  32.386  1.00  0.00     0.251 C 
ATOM     43  H   UNL A   1      36.690  28.661  32.732  1.00  0.00     0.163 HD
ATOM     44  O   UNL A   1      37.045  31.060  32.853  1.00  0.00    -0.269 OA
BRANCH  42  45
ATOM     45  C   UNL A   1      39.086  30.745  31.734  1.00  0.00     0.039 A 
ATOM     46  C   UNL A   1      39.099  30.930  30.349  1.00  0.00     0.014 A 
ATOM     47  C   UNL A   1      40.238  30.994  32.488  1.00  0.00     0.014 A 
ATOM     48  C   UNL A   1      40.254  31.413  29.725  1.00  0.00     0.010 A 
ATOM     49  C   UNL A   1      41.366  31.532  31.872  1.00  0.00     0.010 A 
ATOM     50  C   UNL A   1      41.390  31.740  30.484  1.00  0.00    -0.014 A 
BRANCH  50  51
ATOM     51  C   UNL A   1      42.608  32.303  29.845  1.00  0.00     0.031 A 
ATOM     52  C   UNL A   1      42.698  33.776  29.546  1.00  0.00     0.074 A 
ATOM     53  C   UNL A   1      43.598  31.476  29.457  1.00  0.00     0.049 A 
ATOM     54  N   UNL A   1      43.655  34.439  28.949  1.00  0.00    -0.248 NA
ATOM     55  C   UNL A   1      41.554  34.611  29.949  1.00  0.00     0.031 C 
ATOM     56  C   UNL A   1      43.597  30.021  29.618  1.00  0.00     0.029 A 
ATOM     57  N   UNL A   1      44.787  31.737  28.820  1.00  0.00    -0.354 N 
ATOM     58  C   UNL A   1      43.215  35.755  28.870  1.00  0.00     0.074 A 
ATOM     59  C   UNL A   1      41.892  35.792  29.454  1.00  0.00     0.031 C 
ATOM     60  C   UNL A   1      44.727  29.519  29.096  1.00  0.00     0.029 A 
ATOM     61  C   UNL A   1      45.521  30.609  28.537  1.00  0.00     0.049 A 
ATOM     62  H   UNL A   1      45.086  32.647  28.588  1.00  0.00     0.167 HD
ATOM     63  C   UNL A   1      43.864  36.840  28.384  1.00  0.00     0.034 A 
ATOM     64  C   UNL A   1      46.698  30.466  27.895  1.00  0.00     0.034 A 
ATOM     65  C   UNL A   1      45.197  36.808  27.845  1.00  0.00     0.049 A 
ATOM     66  C   UNL A   1      47.417  31.693  27.404  1.00  0.00     0.074 A 
ATOM     67  C   UNL A   1      45.976  37.867  27.412  1.00  0.00     0.029 A 
ATOM     68  N   UNL A   1      45.948  35.657  27.659  1.00  0.00    -0.354 N 
ATOM     69  N   UNL A   1      47.056  32.951  27.488  1.00  0.00    -0.248 NA
ATOM     70  C   UNL A   1      48.725  31.488  26.764  1.00  0.00     0.031 C 
ATOM     71  C   UNL A   1      47.189  37.354  26.941  1.00  0.00     0.029 A 
ATOM     72  C   UNL A   1      47.176  35.979  27.107  1.00  0.00     0.049 A 
ATOM     73  H   UNL A   1      45.652  34.747  27.884  1.00  0.00     0.167 HD
ATOM     74  C   UNL A   1      48.104  33.687  26.946  1.00  0.00     0.074 A 
ATOM     75  C   UNL A   1      49.124  32.735  26.557  1.00  0.00     0.031 C 
ATOM     76  C   UNL A   1      48.206  35.027  26.774  1.00  0.00     0.034 A 
BRANCH  63  77
ATOM     77  C   UNL A   1      43.161  38.171  28.461  1.00  0.00     0.023 A 
ATOM     78  C   UNL A   1      42.303  38.565  27.413  1.00  0.00     0.012 A 
ATOM     79  C   UNL A   1      43.296  39.002  29.591  1.00  0.00     0.148 A 
ATOM     80  C   UNL A   1      41.619  39.778  27.472  1.00  0.00     0.002 A 
ATOM     81  C   UNL A   1      42.575  40.188  29.663  1.00  0.00     0.091 A 
ATOM     82  F   UNL A   1      44.130  38.620  30.568  1.00  0.00    -0.205 F 
ATOM     83  C   UNL A   1      41.746  40.584  28.601  1.00  0.00     0.022 A 
BRANCH  81  84
ATOM     84  S   UNL A   1      42.607  41.256  31.107  1.00  0.00     0.127 S 
ATOM     85  O   UNL A   1      43.233  42.464  30.567  1.00  0.00    -0.237 OA
ATOM     86  O   UNL A   1      41.183  41.396  31.418  1.00  0.00    -0.237 OA
ATOM     87  O   UNL A   1      43.382  40.548  32.113  1.00  0.00    -0.744 OA
ENDBRANCH  81  84
ENDBRANCH  63  77
BRANCH  64  88
ATOM     88  C   UNL A   1      47.300  29.112  27.737  1.00  0.00     0.023 A 
ATOM     89  C   UNL A   1      48.155  28.614  28.740  1.00  0.00     0.012 A 
ATOM     90  C   UNL A   1      47.008  28.305  26.621  1.00  0.00     0.148 A 
ATOM     91  C   UNL A   1      48.736  27.351  28.617  1.00  0.00     0.002 A 
ATOM     92  C   UNL A   1      47.546  27.024  26.533  1.00  0.00     0.091 A 
ATOM     93  F   UNL A   1      46.202  28.801  25.672  1.00  0.00    -0.205 F 
ATOM     94  C   UNL A   1      48.424  26.554  27.520  1.00  0.00     0.022 A 
BRANCH  92  95
ATOM     95  S   UNL A   1      47.079  25.886  25.223  1.00  0.00     0.127 S 
ATOM     96  O   UNL A   1      47.774  24.660  25.637  1.00  0.00    -0.237 OA
ATOM     97  O   UNL A   1      45.618  25.834  25.380  1.00  0.00    -0.237 OA
ATOM     98  O   UNL A   1      47.527  26.486  23.994  1.00  0.00    -0.744 OA
ENDBRANCH  92  95
ENDBRANCH  64  88
BRANCH  76  99
ATOM     99  C   UNL A   1      49.479  35.560  26.170  1.00  0.00     0.023 A 
ATOM    100  C   UNL A   1      49.553  35.795  24.783  1.00  0.00     0.012 A 
ATOM    101  C   UNL A   1      50.575  35.900  26.989  1.00  0.00     0.148 A 
ATOM    102  C   UNL A   1      50.709  36.329  24.216  1.00  0.00     0.002 A 
ATOM    103  C   UNL A   1      51.705  36.478  26.423  1.00  0.00     0.091 A 
ATOM    104  F   UNL A   1      50.491  35.651  28.304  1.00  0.00    -0.205 F 
ATOM    105  C   UNL A   1      51.779  36.682  25.036  1.00  0.00     0.022 A 
BRANCH 103 106
ATOM    106  S   UNL A   1      53.089  37.053  27.413  1.00  0.00     0.127 S 
ATOM    107  O   UNL A   1      53.959  37.640  26.395  1.00  0.00    -0.237 OA
ATOM    108  O   UNL A   1      52.453  38.024  28.304  1.00  0.00    -0.237 OA
ATOM    109  O   UNL A   1      53.620  35.874  28.085  1.00  0.00    -0.744 OA
ENDBRANCH 103 106
ENDBRANCH  76  99
ENDBRANCH  50  51
ENDBRANCH  42  45
ENDBRANCH  40  41
ENDBRANCH  39  40
ENDBRANCH  38  39
ENDBRANCH   1  38
TORSDOF 20
ENDMDL
