MODEL 1
REMARK VINA RESULT:     -11.8      0.000      0.000
REMARK SMILES C[C@H](CC(=O)NCCCCCCNC(=O)c1ccc(-c2c3nc(c(-c4cccc(S(=O)(=O)[O-])c4F)c4ccc([nH]4)c(-c4cccc(S(=O)(=O)[O-])c4F)c4nc(c(-c5cccc(S(=O)(=O)[O-])c5F)c5ccc2[nH]5)C=C4)C=C3)cc1)NC(=O)Cn1nc2ccccn2c1=O
REMARK SMILES IDX 9 1 8 2 7 3 6 4 4 5 5 6 3 8 2 9 1 10 79 11 80 12 81 14 82 15
REMARK SMILES IDX 83 16 84 17 91 18 85 19 90 20 92 21 86 22 89 23 87 24 88 25
REMARK SMILES IDX 10 26 11 27 12 28 13 29 14 30 15 32 16 33 17 34 78 35 18 36
REMARK SMILES IDX 77 37 19 38 20 39 21 40 71 41 22 42 76 43 70 44 72 45 23 46
REMARK SMILES IDX 75 47 69 48 68 49 24 51 56 52 36 53 55 54 37 55 40 56 54 57
REMARK SMILES IDX 73 58 38 59 39 60 53 62 74 63 41 64 25 65 26 66 34 67 27 68
REMARK SMILES IDX 29 69 35 70 28 71 30 72 31 73 32 74 33 75 57 76 58 77 66 78
REMARK SMILES IDX 59 79 61 80 67 81 60 82 62 83 63 84 64 85 65 86 42 87 43 88
REMARK SMILES IDX 51 89 44 90 46 91 52 92 45 93 47 94 48 95 49 96 50 97
REMARK H PARENT 6 7 79 13 13 31 72 50 40 61
REMARK Flexibility Score: inf
ROOT
ATOM      1  C   UNL A   1      32.345  29.431  25.630  1.00  0.00     0.002 C 
ENDROOT
BRANCH   1   2
ATOM      2  C   UNL A   1      33.638  28.618  25.778  1.00  0.00     0.021 C 
BRANCH   2   3
ATOM      3  C   UNL A   1      33.425  27.109  25.919  1.00  0.00     0.116 C 
BRANCH   3   4
ATOM      4  N   UNL A   1      32.137  26.779  26.503  1.00  0.00    -0.356 N 
ATOM      5  C   UNL A   1      31.176  25.917  26.082  1.00  0.00     0.222 C 
ATOM      6  O   UNL A   1      30.130  25.823  26.727  1.00  0.00    -0.275 OA
ATOM      7  H   UNL A   1      31.927  27.257  27.339  1.00  0.00     0.163 HD
BRANCH   5   8
ATOM      8  C   UNL A   1      31.391  25.109  24.830  1.00  0.00     0.124 C 
BRANCH   8   9
ATOM      9  C   UNL A   1      30.901  25.777  23.538  1.00  0.00     0.088 C 
ATOM     10  C   UNL A   1      29.812  26.839  23.656  1.00  0.00     0.031 C 
BRANCH   9  11
ATOM     11  N   UNL A   1      32.030  26.314  22.775  1.00  0.00    -0.352 N 
ATOM     12  C   UNL A   1      32.939  25.631  22.012  1.00  0.00     0.242 C 
ATOM     13  H   UNL A   1      32.151  27.291  22.817  1.00  0.00     0.163 HD
ATOM     14  O   UNL A   1      33.752  26.278  21.349  1.00  0.00    -0.273 OA
BRANCH  12  15
ATOM     15  C   UNL A   1      32.842  24.114  21.892  1.00  0.00     0.249 C 
BRANCH  15  16
ATOM     16  N   UNL A   1      33.757  23.390  22.744  1.00  0.00    -0.203 N 
ATOM     17  N   UNL A   1      35.111  23.654  22.811  1.00  0.00    -0.149 NA
ATOM     18  C   UNL A   1      33.428  22.297  23.558  1.00  0.00     0.350 A 
ATOM     19  C   UNL A   1      35.556  22.755  23.628  1.00  0.00     0.161 A 
ATOM     20  N   UNL A   1      34.623  21.896  24.103  1.00  0.00    -0.250 N 
ATOM     21  O   UNL A   1      32.320  21.808  23.728  1.00  0.00    -0.246 OA
ATOM     22  C   UNL A   1      36.963  22.592  24.088  1.00  0.00     0.050 A 
ATOM     23  C   UNL A   1      34.900  20.825  24.903  1.00  0.00     0.098 A 
ATOM     24  C   UNL A   1      37.238  21.367  24.583  1.00  0.00     0.005 A 
ATOM     25  C   UNL A   1      36.186  20.535  25.152  1.00  0.00     0.019 A 
ENDBRANCH  15  16
ENDBRANCH  12  15
ENDBRANCH   9  11
ENDBRANCH   8   9
ENDBRANCH   5   8
ENDBRANCH   3   4
ENDBRANCH   2   3
ENDBRANCH   1   2
BRANCH   1  26
ATOM     26  C   UNL A   1      31.899  30.155  26.904  1.00  0.00     0.002 C 
BRANCH  26  27
ATOM     27  C   UNL A   1      31.790  31.673  26.767  1.00  0.00     0.021 C 
BRANCH  27  28
ATOM     28  C   UNL A   1      32.946  32.441  27.395  1.00  0.00     0.116 C 
BRANCH  28  29
ATOM     29  N   UNL A   1      32.613  33.842  27.608  1.00  0.00    -0.352 N 
ATOM     30  C   UNL A   1      33.109  34.691  28.568  1.00  0.00     0.251 C 
ATOM     31  H   UNL A   1      31.952  34.227  26.989  1.00  0.00     0.163 HD
ATOM     32  O   UNL A   1      32.592  35.784  28.767  1.00  0.00    -0.269 OA
BRANCH  30  33
ATOM     33  C   UNL A   1      34.269  34.249  29.370  1.00  0.00     0.039 A 
ATOM     34  C   UNL A   1      34.052  33.567  30.568  1.00  0.00     0.014 A 
ATOM     35  C   UNL A   1      35.566  34.466  28.897  1.00  0.00     0.014 A 
ATOM     36  C   UNL A   1      35.144  33.051  31.271  1.00  0.00     0.010 A 
ATOM     37  C   UNL A   1      36.643  33.887  29.559  1.00  0.00     0.010 A 
ATOM     38  C   UNL A   1      36.445  33.180  30.755  1.00  0.00    -0.014 A 
BRANCH  38  39
ATOM     39  C   UNL A   1      37.618  32.588  31.448  1.00  0.00     0.031 A 
ATOM     40  C   UNL A   1      38.346  31.428  30.824  1.00  0.00     0.074 A 
ATOM     41  C   UNL A   1      37.966  33.027  32.674  1.00  0.00     0.049 A 
ATOM     42  N   UNL A   1      39.329  30.714  31.310  1.00  0.00    -0.248 NA
ATOM     43  C   UNL A   1      37.894  30.996  29.491  1.00  0.00     0.031 C 
ATOM     44  C   UNL A   1      37.296  34.100  33.412  1.00  0.00     0.029 A 
ATOM     45  N   UNL A   1      38.953  32.604  33.529  1.00  0.00    -0.354 N 
ATOM     46  C   UNL A   1      39.587  29.731  30.361  1.00  0.00     0.074 A 
ATOM     47  C   UNL A   1      38.635  29.917  29.289  1.00  0.00     0.031 C 
ATOM     48  C   UNL A   1      37.891  34.251  34.606  1.00  0.00     0.029 A 
ATOM     49  C   UNL A   1      38.958  33.264  34.736  1.00  0.00     0.049 A 
ATOM     50  H   UNL A   1      39.595  31.893  33.301  1.00  0.00     0.167 HD
ATOM     51  C   UNL A   1      40.550  28.779  30.367  1.00  0.00     0.034 A 
ATOM     52  C   UNL A   1      39.728  33.086  35.828  1.00  0.00     0.034 A 
ATOM     53  C   UNL A   1      41.519  28.623  31.417  1.00  0.00     0.049 A 
ATOM     54  C   UNL A   1      40.801  32.029  35.801  1.00  0.00     0.074 A 
ATOM     55  C   UNL A   1      42.580  27.737  31.483  1.00  0.00     0.029 A 
ATOM     56  N   UNL A   1      41.543  29.364  32.588  1.00  0.00    -0.354 N 
ATOM     57  N   UNL A   1      41.123  31.204  34.834  1.00  0.00    -0.248 NA
ATOM     58  C   UNL A   1      41.638  31.901  37.003  1.00  0.00     0.031 C 
ATOM     59  C   UNL A   1      43.230  27.926  32.705  1.00  0.00     0.029 A 
ATOM     60  C   UNL A   1      42.595  28.952  33.386  1.00  0.00     0.049 A 
ATOM     61  H   UNL A   1      40.905  30.078  32.818  1.00  0.00     0.167 HD
ATOM     62  C   UNL A   1      42.226  30.491  35.293  1.00  0.00     0.074 A 
ATOM     63  C   UNL A   1      42.525  30.991  36.618  1.00  0.00     0.031 C 
ATOM     64  C   UNL A   1      42.920  29.503  34.677  1.00  0.00     0.034 A 
BRANCH  51  65
ATOM     65  C   UNL A   1      40.637  27.863  29.174  1.00  0.00     0.023 A 
ATOM     66  C   UNL A   1      39.762  26.761  29.079  1.00  0.00     0.012 A 
ATOM     67  C   UNL A   1      41.535  28.124  28.121  1.00  0.00     0.148 A 
ATOM     68  C   UNL A   1      39.805  25.912  27.975  1.00  0.00     0.002 A 
ATOM     69  C   UNL A   1      41.538  27.301  27.001  1.00  0.00     0.091 A 
ATOM     70  F   UNL A   1      42.372  29.165  28.237  1.00  0.00    -0.205 F 
ATOM     71  C   UNL A   1      40.684  26.188  26.932  1.00  0.00     0.022 A 
BRANCH  69  72
ATOM     72  S   UNL A   1      42.574  27.615  25.567  1.00  0.00     0.127 S 
ATOM     73  O   UNL A   1      43.905  27.666  26.171  1.00  0.00    -0.237 OA
ATOM     74  O   UNL A   1      42.323  26.434  24.742  1.00  0.00    -0.237 OA
ATOM     75  O   UNL A   1      42.100  28.868  24.995  1.00  0.00    -0.744 OA
ENDBRANCH  69  72
ENDBRANCH  51  65
BRANCH  52  76
ATOM     76  C   UNL A   1      39.555  33.965  37.020  1.00  0.00     0.023 A 
ATOM     77  C   UNL A   1      39.948  35.316  36.945  1.00  0.00     0.012 A 
ATOM     78  C   UNL A   1      39.000  33.479  38.220  1.00  0.00     0.148 A 
ATOM     79  C   UNL A   1      39.828  36.156  38.053  1.00  0.00     0.002 A 
ATOM     80  C   UNL A   1      38.831  34.335  39.302  1.00  0.00     0.091 A 
ATOM     81  F   UNL A   1      38.641  32.189  38.276  1.00  0.00    -0.205 F 
ATOM     82  C   UNL A   1      39.262  35.669  39.228  1.00  0.00     0.022 A 
BRANCH  80  83
ATOM     83  S   UNL A   1      37.993  33.830  40.808  1.00  0.00     0.127 S 
ATOM     84  O   UNL A   1      36.697  33.391  40.298  1.00  0.00    -0.237 OA
ATOM     85  O   UNL A   1      38.862  32.756  41.292  1.00  0.00    -0.237 OA
ATOM     86  O   UNL A   1      37.971  35.011  41.661  1.00  0.00    -0.744 OA
ENDBRANCH  80  83
ENDBRANCH  52  76
BRANCH  64  87
ATOM     87  C   UNL A   1      44.110  28.925  35.397  1.00  0.00     0.023 A 
ATOM     88  C   UNL A   1      45.378  29.518  35.250  1.00  0.00     0.012 A 
ATOM     89  C   UNL A   1      43.948  27.847  36.289  1.00  0.00     0.148 A 
ATOM     90  C   UNL A   1      46.474  29.029  35.961  1.00  0.00     0.002 A 
ATOM     91  C   UNL A   1      45.032  27.398  37.032  1.00  0.00     0.091 A 
ATOM     92  F   UNL A   1      42.734  27.286  36.401  1.00  0.00    -0.205 F 
ATOM     93  C   UNL A   1      46.298  27.980  36.860  1.00  0.00     0.022 A 
BRANCH  91  94
ATOM     94  S   UNL A   1      44.881  26.120  38.286  1.00  0.00     0.127 S 
ATOM     95  O   UNL A   1      46.170  26.219  38.967  1.00  0.00    -0.237 OA
ATOM     96  O   UNL A   1      43.739  26.591  39.069  1.00  0.00    -0.237 OA
ATOM     97  O   UNL A   1      44.650  24.874  37.567  1.00  0.00    -0.744 OA
ENDBRANCH  91  94
ENDBRANCH  64  87
ENDBRANCH  38  39
ENDBRANCH  30  33
ENDBRANCH  28  29
ENDBRANCH  27  28
ENDBRANCH  26  27
ENDBRANCH   1  26
TORSDOF 20
ENDMDL
MODEL 2
REMARK VINA RESULT:     -11.8      5.605      8.664
REMARK SMILES C[C@H](CC(=O)NCCCCCCNC(=O)c1ccc(-c2c3nc(c(-c4cccc(S(=O)(=O)[O-])c4F)c4ccc([nH]4)c(-c4cccc(S(=O)(=O)[O-])c4F)c4nc(c(-c5cccc(S(=O)(=O)[O-])c5F)c5ccc2[nH]5)C=C4)C=C3)cc1)NC(=O)Cn1nc2ccccn2c1=O
REMARK SMILES IDX 9 1 8 2 7 3 6 4 4 5 5 6 3 8 2 9 1 10 79 11 80 12 81 14 82 15
REMARK SMILES IDX 83 16 84 17 91 18 85 19 90 20 92 21 86 22 89 23 87 24 88 25
REMARK SMILES IDX 10 26 11 27 12 28 13 29 14 30 15 32 16 33 17 34 78 35 18 36
REMARK SMILES IDX 77 37 19 38 20 39 21 40 71 41 22 42 76 43 70 44 72 45 23 46
REMARK SMILES IDX 75 47 69 48 68 49 24 51 56 52 36 53 55 54 37 55 40 56 54 57
REMARK SMILES IDX 73 58 38 59 39 60 53 62 74 63 41 64 25 65 26 66 34 67 27 68
REMARK SMILES IDX 29 69 35 70 28 71 30 72 31 73 32 74 33 75 57 76 58 77 66 78
REMARK SMILES IDX 59 79 61 80 67 81 60 82 62 83 63 84 64 85 65 86 42 87 43 88
REMARK SMILES IDX 51 89 44 90 46 91 52 92 45 93 47 94 48 95 49 96 50 97
REMARK H PARENT 6 7 79 13 13 31 72 50 40 61
REMARK Flexibility Score: inf
ROOT
ATOM      1  C   UNL A   1      36.144  23.855  24.589  1.00  0.00     0.002 C 
ENDROOT
BRANCH   1   2
ATOM      2  C   UNL A   1      34.795  23.962  25.314  1.00  0.00     0.021 C 
BRANCH   2   3
ATOM      3  C   UNL A   1      34.276  25.392  25.478  1.00  0.00     0.116 C 
BRANCH   3   4
ATOM      4  N   UNL A   1      32.914  25.437  25.982  1.00  0.00    -0.356 N 
ATOM      5  C   UNL A   1      32.221  26.457  26.550  1.00  0.00     0.222 C 
ATOM      6  O   UNL A   1      31.071  26.256  26.941  1.00  0.00    -0.275 OA
ATOM      7  H   UNL A   1      32.413  24.593  25.897  1.00  0.00     0.163 HD
BRANCH   5   8
ATOM      8  C   UNL A   1      32.870  27.806  26.710  1.00  0.00     0.124 C 
BRANCH   8   9
ATOM      9  C   UNL A   1      32.347  28.892  25.759  1.00  0.00     0.088 C 
ATOM     10  C   UNL A   1      31.884  30.210  26.373  1.00  0.00     0.031 C 
BRANCH   9  11
ATOM     11  N   UNL A   1      33.319  29.159  24.697  1.00  0.00    -0.352 N 
ATOM     12  C   UNL A   1      33.187  28.937  23.352  1.00  0.00     0.242 C 
ATOM     13  H   UNL A   1      34.177  29.548  24.987  1.00  0.00     0.163 HD
ATOM     14  O   UNL A   1      34.079  29.340  22.602  1.00  0.00    -0.273 OA
BRANCH  12  15
ATOM     15  C   UNL A   1      31.900  28.329  22.805  1.00  0.00     0.249 C 
BRANCH  15  16
ATOM     16  N   UNL A   1      31.911  26.887  22.726  1.00  0.00    -0.203 N 
ATOM     17  N   UNL A   1      31.040  26.076  23.426  1.00  0.00    -0.149 NA
ATOM     18  C   UNL A   1      32.826  26.113  21.998  1.00  0.00     0.350 A 
ATOM     19  C   UNL A   1      31.426  24.880  23.122  1.00  0.00     0.161 A 
ATOM     20  N   UNL A   1      32.496  24.813  22.293  1.00  0.00    -0.250 N 
ATOM     21  O   UNL A   1      33.725  26.517  21.274  1.00  0.00    -0.246 OA
ATOM     22  C   UNL A   1      30.811  23.604  23.583  1.00  0.00     0.050 A 
ATOM     23  C   UNL A   1      33.112  23.652  21.925  1.00  0.00     0.098 A 
ATOM     24  C   UNL A   1      31.627  22.534  23.477  1.00  0.00     0.005 A 
ATOM     25  C   UNL A   1      32.708  22.510  22.500  1.00  0.00     0.019 A 
ENDBRANCH  15  16
ENDBRANCH  12  15
ENDBRANCH   9  11
ENDBRANCH   8   9
ENDBRANCH   5   8
ENDBRANCH   3   4
ENDBRANCH   2   3
ENDBRANCH   1   2
BRANCH   1  26
ATOM     26  C   UNL A   1      36.268  22.653  23.648  1.00  0.00     0.002 C 
BRANCH  26  27
ATOM     27  C   UNL A   1      37.141  21.518  24.180  1.00  0.00     0.021 C 
BRANCH  27  28
ATOM     28  C   UNL A   1      37.657  21.737  25.596  1.00  0.00     0.116 C 
BRANCH  28  29
ATOM     29  N   UNL A   1      38.674  20.761  25.959  1.00  0.00    -0.352 N 
ATOM     30  C   UNL A   1      39.935  20.999  26.451  1.00  0.00     0.251 C 
ATOM     31  H   UNL A   1      38.428  19.816  25.837  1.00  0.00     0.163 HD
ATOM     32  O   UNL A   1      40.763  20.097  26.518  1.00  0.00    -0.269 OA
BRANCH  30  33
ATOM     33  C   UNL A   1      40.279  22.370  26.879  1.00  0.00     0.039 A 
ATOM     34  C   UNL A   1      41.165  22.553  27.942  1.00  0.00     0.014 A 
ATOM     35  C   UNL A   1      39.761  23.468  26.185  1.00  0.00     0.014 A 
ATOM     36  C   UNL A   1      41.578  23.845  28.275  1.00  0.00     0.010 A 
ATOM     37  C   UNL A   1      40.232  24.744  26.471  1.00  0.00     0.010 A 
ATOM     38  C   UNL A   1      41.139  24.948  27.523  1.00  0.00    -0.014 A 
BRANCH  38  39
ATOM     39  C   UNL A   1      41.610  26.326  27.814  1.00  0.00     0.031 A 
ATOM     40  C   UNL A   1      43.023  26.719  27.480  1.00  0.00     0.074 A 
ATOM     41  C   UNL A   1      40.801  27.188  28.463  1.00  0.00     0.049 A 
ATOM     42  N   UNL A   1      43.652  27.836  27.740  1.00  0.00    -0.248 NA
ATOM     43  C   UNL A   1      43.848  25.715  26.788  1.00  0.00     0.031 C 
ATOM     44  C   UNL A   1      39.433  26.903  28.899  1.00  0.00     0.029 A 
ATOM     45  N   UNL A   1      41.025  28.472  28.896  1.00  0.00    -0.354 N 
ATOM     46  C   UNL A   1      44.950  27.657  27.276  1.00  0.00     0.074 A 
ATOM     47  C   UNL A   1      45.030  26.311  26.752  1.00  0.00     0.031 C 
ATOM     48  C   UNL A   1      38.940  27.978  29.535  1.00  0.00     0.029 A 
ATOM     49  C   UNL A   1      39.966  29.015  29.586  1.00  0.00     0.049 A 
ATOM     50  H   UNL A   1      41.866  28.957  28.729  1.00  0.00     0.167 HD
ATOM     51  C   UNL A   1      45.974  28.542  27.258  1.00  0.00     0.034 A 
ATOM     52  C   UNL A   1      39.841  30.208  30.200  1.00  0.00     0.034 A 
ATOM     53  C   UNL A   1      45.878  29.891  27.743  1.00  0.00     0.049 A 
ATOM     54  C   UNL A   1      40.991  31.179  30.151  1.00  0.00     0.074 A 
ATOM     55  C   UNL A   1      46.835  30.890  27.703  1.00  0.00     0.029 A 
ATOM     56  N   UNL A   1      44.763  30.432  28.363  1.00  0.00    -0.354 N 
ATOM     57  N   UNL A   1      42.163  31.042  29.580  1.00  0.00    -0.248 NA
ATOM     58  C   UNL A   1      40.790  32.481  30.804  1.00  0.00     0.031 C 
ATOM     59  C   UNL A   1      46.307  32.026  28.321  1.00  0.00     0.029 A 
ATOM     60  C   UNL A   1      45.008  31.747  28.717  1.00  0.00     0.049 A 
ATOM     61  H   UNL A   1      43.919  29.951  28.527  1.00  0.00     0.167 HD
ATOM     62  C   UNL A   1      42.821  32.254  29.765  1.00  0.00     0.074 A 
ATOM     63  C   UNL A   1      41.912  33.117  30.489  1.00  0.00     0.031 C 
ATOM     64  C   UNL A   1      44.070  32.614  29.381  1.00  0.00     0.034 A 
BRANCH  51  65
ATOM     65  C   UNL A   1      47.276  28.095  26.645  1.00  0.00     0.023 A 
ATOM     66  C   UNL A   1      48.342  27.707  27.483  1.00  0.00     0.012 A 
ATOM     67  C   UNL A   1      47.427  27.999  25.248  1.00  0.00     0.148 A 
ATOM     68  C   UNL A   1      49.548  27.268  26.941  1.00  0.00     0.002 A 
ATOM     69  C   UNL A   1      48.616  27.514  24.716  1.00  0.00     0.091 A 
ATOM     70  F   UNL A   1      46.410  28.390  24.466  1.00  0.00    -0.205 F 
ATOM     71  C   UNL A   1      49.681  27.160  25.561  1.00  0.00     0.022 A 
BRANCH  69  72
ATOM     72  S   UNL A   1      48.860  27.259  22.955  1.00  0.00     0.127 S 
ATOM     73  O   UNL A   1      48.094  28.368  22.388  1.00  0.00    -0.237 OA
ATOM     74  O   UNL A   1      50.312  27.390  22.825  1.00  0.00    -0.237 OA
ATOM     75  O   UNL A   1      48.342  25.930  22.664  1.00  0.00    -0.744 OA
ENDBRANCH  69  72
ENDBRANCH  51  65
BRANCH  52  76
ATOM     76  C   UNL A   1      38.558  30.579  30.865  1.00  0.00     0.023 A 
ATOM     77  C   UNL A   1      38.334  30.190  32.200  1.00  0.00     0.012 A 
ATOM     78  C   UNL A   1      37.567  31.319  30.191  1.00  0.00     0.148 A 
ATOM     79  C   UNL A   1      37.132  30.496  32.839  1.00  0.00     0.002 A 
ATOM     80  C   UNL A   1      36.395  31.670  30.852  1.00  0.00     0.091 A 
ATOM     81  F   UNL A   1      37.793  31.673  28.919  1.00  0.00    -0.205 F 
ATOM     82  C   UNL A   1      36.167  31.243  32.170  1.00  0.00     0.022 A 
BRANCH  80  83
ATOM     83  S   UNL A   1      35.156  32.739  30.114  1.00  0.00     0.127 S 
ATOM     84  O   UNL A   1      35.960  33.880  29.686  1.00  0.00    -0.237 OA
ATOM     85  O   UNL A   1      34.643  31.902  29.027  1.00  0.00    -0.237 OA
ATOM     86  O   UNL A   1      34.187  33.006  31.169  1.00  0.00    -0.744 OA
ENDBRANCH  80  83
ENDBRANCH  52  76
BRANCH  64  87
ATOM     87  C   UNL A   1      44.520  34.020  29.681  1.00  0.00     0.023 A 
ATOM     88  C   UNL A   1      45.299  34.281  30.825  1.00  0.00     0.012 A 
ATOM     89  C   UNL A   1      44.245  35.065  28.776  1.00  0.00     0.148 A 
ATOM     90  C   UNL A   1      45.775  35.568  31.078  1.00  0.00     0.002 A 
ATOM     91  C   UNL A   1      44.764  36.331  29.008  1.00  0.00     0.091 A 
ATOM     92  F   UNL A   1      43.487  34.797  27.702  1.00  0.00    -0.205 F 
ATOM     93  C   UNL A   1      45.519  36.588  30.164  1.00  0.00     0.022 A 
BRANCH  91  94
ATOM     94  S   UNL A   1      44.572  37.683  27.839  1.00  0.00     0.127 S 
ATOM     95  O   UNL A   1      45.043  38.823  28.623  1.00  0.00    -0.237 OA
ATOM     96  O   UNL A   1      45.466  37.278  26.753  1.00  0.00    -0.237 OA
ATOM     97  O   UNL A   1      43.160  37.711  27.483  1.00  0.00    -0.744 OA
ENDBRANCH  91  94
ENDBRANCH  64  87
ENDBRANCH  38  39
ENDBRANCH  30  33
ENDBRANCH  28  29
ENDBRANCH  27  28
ENDBRANCH  26  27
ENDBRANCH   1  26
TORSDOF 20
ENDMDL
MODEL 3
REMARK VINA RESULT:     -11.7      5.798     10.626
REMARK SMILES C[C@H](CC(=O)NCCCCCCNC(=O)c1ccc(-c2c3nc(c(-c4cccc(S(=O)(=O)[O-])c4F)c4ccc([nH]4)c(-c4cccc(S(=O)(=O)[O-])c4F)c4nc(c(-c5cccc(S(=O)(=O)[O-])c5F)c5ccc2[nH]5)C=C4)C=C3)cc1)NC(=O)Cn1nc2ccccn2c1=O
REMARK SMILES IDX 9 1 8 2 7 3 6 4 4 5 5 6 3 8 2 9 1 10 79 11 80 12 81 14 82 15
REMARK SMILES IDX 83 16 84 17 91 18 85 19 90 20 92 21 86 22 89 23 87 24 88 25
REMARK SMILES IDX 10 26 11 27 12 28 13 29 14 30 15 32 16 33 17 34 78 35 18 36
REMARK SMILES IDX 77 37 19 38 20 39 21 40 71 41 22 42 76 43 70 44 72 45 23 46
REMARK SMILES IDX 75 47 69 48 68 49 24 51 56 52 36 53 55 54 37 55 40 56 54 57
REMARK SMILES IDX 73 58 38 59 39 60 53 62 74 63 41 64 25 65 26 66 34 67 27 68
REMARK SMILES IDX 29 69 35 70 28 71 30 72 31 73 32 74 33 75 57 76 58 77 66 78
REMARK SMILES IDX 59 79 61 80 67 81 60 82 62 83 63 84 64 85 65 86 42 87 43 88
REMARK SMILES IDX 51 89 44 90 46 91 52 92 45 93 47 94 48 95 49 96 50 97
REMARK H PARENT 6 7 79 13 13 31 72 50 40 61
REMARK Flexibility Score: inf
ROOT
ATOM      1  C   UNL A   1      35.512  24.422  25.161  1.00  0.00     0.002 C 
ENDROOT
BRANCH   1   2
ATOM      2  C   UNL A   1      34.322  25.372  25.352  1.00  0.00     0.021 C 
BRANCH   2   3
ATOM      3  C   UNL A   1      33.679  25.850  24.049  1.00  0.00     0.116 C 
BRANCH   3   4
ATOM      4  N   UNL A   1      34.063  27.208  23.702  1.00  0.00    -0.356 N 
ATOM      5  C   UNL A   1      33.351  28.195  23.099  1.00  0.00     0.222 C 
ATOM      6  O   UNL A   1      33.899  29.274  22.869  1.00  0.00    -0.275 OA
ATOM      7  H   UNL A   1      34.986  27.451  23.944  1.00  0.00     0.163 HD
BRANCH   5   8
ATOM      8  C   UNL A   1      31.918  27.953  22.706  1.00  0.00     0.124 C 
BRANCH   8   9
ATOM      9  C   UNL A   1      30.891  28.208  23.819  1.00  0.00     0.088 C 
ATOM     10  C   UNL A   1      30.629  29.655  24.225  1.00  0.00     0.031 C 
BRANCH   9  11
ATOM     11  N   UNL A   1      29.622  27.548  23.509  1.00  0.00    -0.352 N 
ATOM     12  C   UNL A   1      29.032  26.497  24.161  1.00  0.00     0.242 C 
ATOM     13  H   UNL A   1      29.129  27.903  22.733  1.00  0.00     0.163 HD
ATOM     14  O   UNL A   1      27.898  26.157  23.817  1.00  0.00    -0.273 OA
BRANCH  12  15
ATOM     15  C   UNL A   1      29.720  25.870  25.368  1.00  0.00     0.249 C 
BRANCH  15  16
ATOM     16  N   UNL A   1      30.502  24.696  25.063  1.00  0.00    -0.203 N 
ATOM     17  N   UNL A   1      30.751  24.254  23.778  1.00  0.00    -0.149 NA
ATOM     18  C   UNL A   1      31.056  23.813  26.001  1.00  0.00     0.350 A 
ATOM     19  C   UNL A   1      31.420  23.162  23.955  1.00  0.00     0.161 A 
ATOM     20  N   UNL A   1      31.629  22.817  25.249  1.00  0.00    -0.250 N 
ATOM     21  O   UNL A   1      31.020  23.911  27.220  1.00  0.00    -0.246 OA
ATOM     22  C   UNL A   1      31.976  22.278  22.892  1.00  0.00     0.050 A 
ATOM     23  C   UNL A   1      32.233  21.660  25.649  1.00  0.00     0.098 A 
ATOM     24  C   UNL A   1      32.252  21.026  23.311  1.00  0.00     0.005 A 
ATOM     25  C   UNL A   1      32.546  20.752  24.712  1.00  0.00     0.019 A 
ENDBRANCH  15  16
ENDBRANCH  12  15
ENDBRANCH   9  11
ENDBRANCH   8   9
ENDBRANCH   5   8
ENDBRANCH   3   4
ENDBRANCH   2   3
ENDBRANCH   1   2
BRANCH   1  26
ATOM     26  C   UNL A   1      35.360  23.434  24.000  1.00  0.00     0.002 C 
BRANCH  26  27
ATOM     27  C   UNL A   1      35.878  22.027  24.291  1.00  0.00     0.021 C 
BRANCH  27  28
ATOM     28  C   UNL A   1      36.579  21.885  25.636  1.00  0.00     0.116 C 
BRANCH  28  29
ATOM     29  N   UNL A   1      37.507  20.764  25.648  1.00  0.00    -0.352 N 
ATOM     30  C   UNL A   1      38.858  20.789  25.900  1.00  0.00     0.251 C 
ATOM     31  H   UNL A   1      37.119  19.880  25.451  1.00  0.00     0.163 HD
ATOM     32  O   UNL A   1      39.556  19.807  25.673  1.00  0.00    -0.269 OA
BRANCH  30  33
ATOM     33  C   UNL A   1      39.453  22.031  26.432  1.00  0.00     0.039 A 
ATOM     34  C   UNL A   1      40.542  21.950  27.302  1.00  0.00     0.014 A 
ATOM     35  C   UNL A   1      38.962  23.273  26.018  1.00  0.00     0.014 A 
ATOM     36  C   UNL A   1      41.177  23.123  27.718  1.00  0.00     0.010 A 
ATOM     37  C   UNL A   1      39.642  24.432  26.374  1.00  0.00     0.010 A 
ATOM     38  C   UNL A   1      40.751  24.371  27.232  1.00  0.00    -0.014 A 
BRANCH  38  39
ATOM     39  C   UNL A   1      41.446  25.629  27.606  1.00  0.00     0.031 A 
ATOM     40  C   UNL A   1      40.705  26.694  28.368  1.00  0.00     0.074 A 
ATOM     41  C   UNL A   1      42.705  25.853  27.180  1.00  0.00     0.049 A 
ATOM     42  N   UNL A   1      41.100  27.894  28.706  1.00  0.00    -0.248 NA
ATOM     43  C   UNL A   1      39.327  26.380  28.782  1.00  0.00     0.031 C 
ATOM     44  C   UNL A   1      43.506  24.925  26.378  1.00  0.00     0.029 A 
ATOM     45  N   UNL A   1      43.523  26.944  27.338  1.00  0.00    -0.354 N 
ATOM     46  C   UNL A   1      40.014  28.488  29.338  1.00  0.00     0.074 A 
ATOM     47  C   UNL A   1      38.930  27.531  29.304  1.00  0.00     0.031 C 
ATOM     48  C   UNL A   1      44.698  25.486  26.116  1.00  0.00     0.029 A 
ATOM     49  C   UNL A   1      44.734  26.825  26.696  1.00  0.00     0.049 A 
ATOM     50  H   UNL A   1      43.265  27.739  27.859  1.00  0.00     0.167 HD
ATOM     51  C   UNL A   1      39.935  29.707  29.921  1.00  0.00     0.034 A 
ATOM     52  C   UNL A   1      45.753  27.699  26.579  1.00  0.00     0.034 A 
ATOM     53  C   UNL A   1      41.027  30.639  29.986  1.00  0.00     0.049 A 
ATOM     54  C   UNL A   1      45.643  29.043  27.250  1.00  0.00     0.074 A 
ATOM     55  C   UNL A   1      41.070  31.869  30.617  1.00  0.00     0.029 A 
ATOM     56  N   UNL A   1      42.265  30.449  29.394  1.00  0.00    -0.354 N 
ATOM     57  N   UNL A   1      44.659  29.529  27.967  1.00  0.00    -0.248 NA
ATOM     58  C   UNL A   1      46.796  29.946  27.125  1.00  0.00     0.031 C 
ATOM     59  C   UNL A   1      42.328  32.434  30.386  1.00  0.00     0.029 A 
ATOM     60  C   UNL A   1      43.079  31.541  29.638  1.00  0.00     0.049 A 
ATOM     61  H   UNL A   1      42.527  29.654  28.875  1.00  0.00     0.167 HD
ATOM     62  C   UNL A   1      45.092  30.774  28.414  1.00  0.00     0.074 A 
ATOM     63  C   UNL A   1      46.432  30.960  27.899  1.00  0.00     0.031 C 
ATOM     64  C   UNL A   1      44.434  31.685  29.172  1.00  0.00     0.034 A 
BRANCH  51  65
ATOM     65  C   UNL A   1      38.635  30.083  30.584  1.00  0.00     0.023 A 
ATOM     66  C   UNL A   1      38.379  29.657  31.904  1.00  0.00     0.012 A 
ATOM     67  C   UNL A   1      37.696  30.905  29.930  1.00  0.00     0.148 A 
ATOM     68  C   UNL A   1      37.195  30.010  32.548  1.00  0.00     0.002 A 
ATOM     69  C   UNL A   1      36.540  31.293  30.597  1.00  0.00     0.091 A 
ATOM     70  F   UNL A   1      37.947  31.285  28.669  1.00  0.00    -0.205 F 
ATOM     71  C   UNL A   1      36.283  30.836  31.901  1.00  0.00     0.022 A 
BRANCH  69  72
ATOM     72  S   UNL A   1      35.339  32.421  29.883  1.00  0.00     0.127 S 
ATOM     73  O   UNL A   1      34.856  31.651  28.738  1.00  0.00    -0.237 OA
ATOM     74  O   UNL A   1      34.372  32.569  30.971  1.00  0.00    -0.237 OA
ATOM     75  O   UNL A   1      36.073  33.635  29.553  1.00  0.00    -0.744 OA
ENDBRANCH  69  72
ENDBRANCH  51  65
BRANCH  52  76
ATOM     76  C   UNL A   1      46.992  27.314  25.845  1.00  0.00     0.023 A 
ATOM     77  C   UNL A   1      47.994  26.586  26.516  1.00  0.00     0.012 A 
ATOM     78  C   UNL A   1      47.183  27.655  24.491  1.00  0.00     0.148 A 
ATOM     79  C   UNL A   1      49.179  26.237  25.865  1.00  0.00     0.002 A 
ATOM     80  C   UNL A   1      48.340  27.256  23.833  1.00  0.00     0.091 A 
ATOM     81  F   UNL A   1      46.223  28.356  23.872  1.00  0.00    -0.205 F 
ATOM     82  C   UNL A   1      49.348  26.564  24.523  1.00  0.00     0.022 A 
BRANCH  80  83
ATOM     83  S   UNL A   1      48.587  27.518  22.074  1.00  0.00     0.127 S 
ATOM     84  O   UNL A   1      47.327  28.146  21.685  1.00  0.00    -0.237 OA
ATOM     85  O   UNL A   1      49.750  28.407  22.060  1.00  0.00    -0.237 OA
ATOM     86  O   UNL A   1      48.837  26.198  21.510  1.00  0.00    -0.744 OA
ENDBRANCH  80  83
ENDBRANCH  52  76
BRANCH  64  87
ATOM     87  C   UNL A   1      45.164  32.949  29.545  1.00  0.00     0.023 A 
ATOM     88  C   UNL A   1      45.988  32.976  30.686  1.00  0.00     0.012 A 
ATOM     89  C   UNL A   1      45.100  34.081  28.709  1.00  0.00     0.148 A 
ATOM     90  C   UNL A   1      46.717  34.121  31.005  1.00  0.00     0.002 A 
ATOM     91  C   UNL A   1      45.867  35.200  29.005  1.00  0.00     0.091 A 
ATOM     92  F   UNL A   1      44.295  34.039  27.636  1.00  0.00    -0.205 F 
ATOM     93  C   UNL A   1      46.667  35.226  30.158  1.00  0.00     0.022 A 
BRANCH  91  94
ATOM     94  S   UNL A   1      45.946  36.631  27.921  1.00  0.00     0.127 S 
ATOM     95  O   UNL A   1      46.930  37.467  28.604  1.00  0.00    -0.237 OA
ATOM     96  O   UNL A   1      46.411  36.041  26.665  1.00  0.00    -0.237 OA
ATOM     97  O   UNL A   1      44.595  37.174  27.871  1.00  0.00    -0.744 OA
ENDBRANCH  91  94
ENDBRANCH  64  87
ENDBRANCH  38  39
ENDBRANCH  30  33
ENDBRANCH  28  29
ENDBRANCH  27  28
ENDBRANCH  26  27
ENDBRANCH   1  26
TORSDOF 20
ENDMDL
