MODEL 1
REMARK VINA RESULT:     -12.5      0.000      0.000
REMARK SMILES CCn1c(N2CCC[C@H](C(=O)NCCCCCCNC(=O)c3ccc(-c4c5nc(c(-c6cccc(S(=O)(=O)[O-])c6F)c6ccc([nH]6)c(-c6cccc(S(=O)(=O)[O-])c6F)c6nc(c(-c7cccc(S(=O)(=O)[O-])c7F)c7ccc4[nH]7)C=C6)C=C5)cc3)C2)nc2cc(C)ccc21
REMARK SMILES IDX 16 1 15 2 14 3 13 4 12 5 10 6 11 7 9 9 5 10 6 11 85 12 7 13
REMARK SMILES IDX 8 14 4 15 3 16 93 17 86 18 87 19 92 20 88 21 91 22 89 23
REMARK SMILES IDX 90 24 2 25 1 26 17 27 18 28 19 29 20 30 21 32 22 33 23 34
REMARK SMILES IDX 84 35 24 36 83 37 25 38 26 39 27 40 77 41 28 42 82 43 76 44
REMARK SMILES IDX 78 45 29 46 81 47 75 48 74 49 30 51 62 52 42 53 61 54 43 55
REMARK SMILES IDX 46 56 60 57 79 58 44 59 45 60 59 62 80 63 47 64 31 65 32 66
REMARK SMILES IDX 40 67 33 68 35 69 41 70 34 71 36 72 37 73 38 74 39 75 63 76
REMARK SMILES IDX 64 77 72 78 65 79 67 80 73 81 66 82 68 83 69 84 70 85 71 86
REMARK SMILES IDX 48 87 49 88 57 89 50 90 52 91 58 92 51 93 53 94 54 95 55 96
REMARK SMILES IDX 56 97
REMARK H PARENT 12 8 19 31 78 50 46 61
REMARK Flexibility Score: inf
ROOT
ATOM      1  C   UNL A   1      31.921  29.798  25.248  1.00  0.00     0.002 C 
ENDROOT
BRANCH   1   2
ATOM      2  C   UNL A   1      33.196  29.211  24.625  1.00  0.00     0.002 C 
BRANCH   2   3
ATOM      3  C   UNL A   1      33.117  28.933  23.124  1.00  0.00     0.021 C 
BRANCH   3   4
ATOM      4  C   UNL A   1      31.868  28.157  22.714  1.00  0.00     0.116 C 
BRANCH   4   5
ATOM      5  N   UNL A   1      32.131  26.764  22.434  1.00  0.00    -0.356 N 
ATOM      6  C   UNL A   1      32.127  25.693  23.263  1.00  0.00     0.224 C 
ATOM      7  O   UNL A   1      32.131  24.579  22.724  1.00  0.00    -0.275 OA
ATOM      8  H   UNL A   1      32.347  26.562  21.495  1.00  0.00     0.163 HD
BRANCH   6   9
ATOM      9  C   UNL A   1      32.158  25.775  24.793  1.00  0.00     0.098 C 
ATOM     10  N   UNL A   1      32.287  23.598  26.033  1.00  0.00    -0.341 N 
ATOM     11  C   UNL A   1      30.996  23.780  26.687  1.00  0.00     0.119 C 
ATOM     12  C   UNL A   1      33.021  24.736  25.492  1.00  0.00     0.133 C 
ATOM     13  C   UNL A   1      30.105  24.847  26.047  1.00  0.00     0.022 C 
ATOM     14  C   UNL A   1      30.830  26.062  25.490  1.00  0.00     0.017 C 
BRANCH  10  15
ATOM     15  C   UNL A   1      32.729  22.346  25.738  1.00  0.00     0.206 A 
ATOM     16  N   UNL A   1      34.046  21.948  25.839  1.00  0.00    -0.310 N 
ATOM     17  C   UNL A   1      34.142  20.681  25.280  1.00  0.00     0.070 A 
ATOM     18  N   UNL A   1      31.991  21.386  25.223  1.00  0.00    -0.213 NA
ATOM     19  C   UNL A   1      32.847  20.367  24.896  1.00  0.00     0.091 A 
ATOM     20  C   UNL A   1      35.219  19.807  25.079  1.00  0.00     0.029 A 
ATOM     21  C   UNL A   1      32.594  19.142  24.253  1.00  0.00     0.034 A 
ATOM     22  C   UNL A   1      34.951  18.589  24.445  1.00  0.00     0.006 A 
ATOM     23  C   UNL A   1      33.660  18.252  24.022  1.00  0.00    -0.049 A 
ATOM     24  C   UNL A   1      33.414  16.951  23.311  1.00  0.00     0.044 C 
BRANCH  16  25
ATOM     25  C   UNL A   1      35.217  22.614  26.371  1.00  0.00     0.122 C 
ATOM     26  C   UNL A   1      36.282  23.159  25.439  1.00  0.00     0.028 C 
ENDBRANCH  16  25
ENDBRANCH  10  15
ENDBRANCH   6   9
ENDBRANCH   4   5
ENDBRANCH   3   4
ENDBRANCH   2   3
ENDBRANCH   1   2
BRANCH   1  27
ATOM     27  C   UNL A   1      32.083  30.480  26.614  1.00  0.00     0.021 C 
BRANCH  27  28
ATOM     28  C   UNL A   1      33.443  30.274  27.284  1.00  0.00     0.116 C 
BRANCH  28  29
ATOM     29  N   UNL A   1      33.876  31.394  28.095  1.00  0.00    -0.352 N 
ATOM     30  C   UNL A   1      35.041  31.778  28.696  1.00  0.00     0.251 C 
ATOM     31  H   UNL A   1      33.149  32.039  28.254  1.00  0.00     0.163 HD
ATOM     32  O   UNL A   1      35.000  32.859  29.292  1.00  0.00    -0.269 OA
BRANCH  30  33
ATOM     33  C   UNL A   1      36.307  30.996  28.715  1.00  0.00     0.039 A 
ATOM     34  C   UNL A   1      36.434  29.659  28.348  1.00  0.00     0.014 A 
ATOM     35  C   UNL A   1      37.454  31.677  29.173  1.00  0.00     0.014 A 
ATOM     36  C   UNL A   1      37.652  29.004  28.502  1.00  0.00     0.010 A 
ATOM     37  C   UNL A   1      38.682  31.031  29.307  1.00  0.00     0.010 A 
ATOM     38  C   UNL A   1      38.772  29.680  29.003  1.00  0.00    -0.014 A 
BRANCH  38  39
ATOM     39  C   UNL A   1      40.021  28.927  29.082  1.00  0.00     0.031 A 
ATOM     40  C   UNL A   1      40.550  28.759  30.461  1.00  0.00     0.074 A 
ATOM     41  C   UNL A   1      40.685  28.394  28.037  1.00  0.00     0.049 A 
ATOM     42  N   UNL A   1      41.533  29.400  31.005  1.00  0.00    -0.248 NA
ATOM     43  C   UNL A   1      39.821  27.876  31.380  1.00  0.00     0.031 C 
ATOM     44  C   UNL A   1      40.196  28.188  26.672  1.00  0.00     0.029 A 
ATOM     45  N   UNL A   1      41.933  27.836  28.008  1.00  0.00    -0.354 N 
ATOM     46  C   UNL A   1      41.703  28.816  32.258  1.00  0.00     0.074 A 
ATOM     47  C   UNL A   1      40.529  28.019  32.503  1.00  0.00     0.031 C 
ATOM     48  C   UNL A   1      41.038  27.354  26.019  1.00  0.00     0.029 A 
ATOM     49  C   UNL A   1      42.204  27.115  26.851  1.00  0.00     0.049 A 
ATOM     50  H   UNL A   1      42.583  27.936  28.742  1.00  0.00     0.167 HD
ATOM     51  C   UNL A   1      42.919  28.808  32.868  1.00  0.00     0.034 A 
ATOM     52  C   UNL A   1      43.301  26.358  26.615  1.00  0.00     0.034 A 
ATOM     53  C   UNL A   1      43.852  29.695  32.233  1.00  0.00     0.049 A 
ATOM     54  C   UNL A   1      44.407  26.907  27.431  1.00  0.00     0.074 A 
ATOM     55  C   UNL A   1      44.126  31.042  32.208  1.00  0.00     0.029 A 
ATOM     56  N   UNL A   1      44.498  29.122  31.173  1.00  0.00    -0.354 N 
ATOM     57  N   UNL A   1      44.920  28.093  27.252  1.00  0.00    -0.248 NA
ATOM     58  C   UNL A   1      44.831  26.212  28.642  1.00  0.00     0.031 C 
ATOM     59  C   UNL A   1      44.839  31.283  30.995  1.00  0.00     0.029 A 
ATOM     60  C   UNL A   1      44.991  30.073  30.323  1.00  0.00     0.049 A 
ATOM     61  H   UNL A   1      44.597  28.152  31.040  1.00  0.00     0.167 HD
ATOM     62  C   UNL A   1      45.371  28.449  28.506  1.00  0.00     0.074 A 
ATOM     63  C   UNL A   1      45.474  27.208  29.256  1.00  0.00     0.031 C 
ATOM     64  C   UNL A   1      45.283  29.735  28.948  1.00  0.00     0.034 A 
BRANCH  51  65
ATOM     65  C   UNL A   1      43.427  27.673  33.727  1.00  0.00     0.023 A 
ATOM     66  C   UNL A   1      43.877  26.502  33.080  1.00  0.00     0.012 A 
ATOM     67  C   UNL A   1      43.201  27.592  35.120  1.00  0.00     0.148 A 
ATOM     68  C   UNL A   1      44.091  25.311  33.787  1.00  0.00     0.002 A 
ATOM     69  C   UNL A   1      43.492  26.433  35.829  1.00  0.00     0.091 A 
ATOM     70  F   UNL A   1      42.563  28.587  35.746  1.00  0.00    -0.205 F 
ATOM     71  C   UNL A   1      43.916  25.280  35.165  1.00  0.00     0.022 A 
BRANCH  69  72
ATOM     72  S   UNL A   1      43.316  26.362  37.614  1.00  0.00     0.127 S 
ATOM     73  O   UNL A   1      44.034  27.561  38.028  1.00  0.00    -0.237 OA
ATOM     74  O   UNL A   1      41.862  26.418  37.775  1.00  0.00    -0.237 OA
ATOM     75  O   UNL A   1      43.906  25.083  38.001  1.00  0.00    -0.744 OA
ENDBRANCH  69  72
ENDBRANCH  51  65
BRANCH  52  76
ATOM     76  C   UNL A   1      43.457  25.082  25.875  1.00  0.00     0.023 A 
ATOM     77  C   UNL A   1      44.622  24.882  25.102  1.00  0.00     0.012 A 
ATOM     78  C   UNL A   1      42.663  23.957  26.184  1.00  0.00     0.148 A 
ATOM     79  C   UNL A   1      45.032  23.599  24.727  1.00  0.00     0.002 A 
ATOM     80  C   UNL A   1      43.070  22.682  25.798  1.00  0.00     0.091 A 
ATOM     81  F   UNL A   1      41.568  24.122  26.937  1.00  0.00    -0.205 F 
ATOM     82  C   UNL A   1      44.266  22.497  25.092  1.00  0.00     0.022 A 
BRANCH  80  83
ATOM     83  S   UNL A   1      42.136  21.208  26.231  1.00  0.00     0.127 S 
ATOM     84  O   UNL A   1      42.802  20.177  25.434  1.00  0.00    -0.237 OA
ATOM     85  O   UNL A   1      42.360  21.114  27.667  1.00  0.00    -0.237 OA
ATOM     86  O   UNL A   1      40.761  21.482  25.814  1.00  0.00    -0.744 OA
ENDBRANCH  80  83
ENDBRANCH  52  76
BRANCH  64  87
ATOM     87  C   UNL A   1      45.257  30.832  27.930  1.00  0.00     0.023 A 
ATOM     88  C   UNL A   1      44.067  31.300  27.343  1.00  0.00     0.012 A 
ATOM     89  C   UNL A   1      46.469  31.485  27.648  1.00  0.00     0.148 A 
ATOM     90  C   UNL A   1      44.090  32.400  26.482  1.00  0.00     0.002 A 
ATOM     91  C   UNL A   1      46.483  32.598  26.822  1.00  0.00     0.091 A 
ATOM     92  F   UNL A   1      47.587  31.014  28.222  1.00  0.00    -0.205 F 
ATOM     93  C   UNL A   1      45.294  33.057  26.230  1.00  0.00     0.022 A 
BRANCH  91  94
ATOM     94  S   UNL A   1      47.977  33.548  26.535  1.00  0.00     0.127 S 
ATOM     95  O   UNL A   1      47.576  34.430  25.441  1.00  0.00    -0.237 OA
ATOM     96  O   UNL A   1      48.167  34.219  27.822  1.00  0.00    -0.237 OA
ATOM     97  O   UNL A   1      49.016  32.583  26.203  1.00  0.00    -0.744 OA
ENDBRANCH  91  94
ENDBRANCH  64  87
ENDBRANCH  38  39
ENDBRANCH  30  33
ENDBRANCH  28  29
ENDBRANCH  27  28
ENDBRANCH   1  27
TORSDOF 18
ENDMDL
MODEL 2
REMARK VINA RESULT:     -12.4      1.466      1.873
REMARK SMILES CCn1c(N2CCC[C@H](C(=O)NCCCCCCNC(=O)c3ccc(-c4c5nc(c(-c6cccc(S(=O)(=O)[O-])c6F)c6ccc([nH]6)c(-c6cccc(S(=O)(=O)[O-])c6F)c6nc(c(-c7cccc(S(=O)(=O)[O-])c7F)c7ccc4[nH]7)C=C6)C=C5)cc3)C2)nc2cc(C)ccc21
REMARK SMILES IDX 16 1 15 2 14 3 13 4 12 5 10 6 11 7 9 9 5 10 6 11 85 12 7 13
REMARK SMILES IDX 8 14 4 15 3 16 93 17 86 18 87 19 92 20 88 21 91 22 89 23
REMARK SMILES IDX 90 24 2 25 1 26 17 27 18 28 19 29 20 30 21 32 22 33 23 34
REMARK SMILES IDX 84 35 24 36 83 37 25 38 26 39 27 40 77 41 28 42 82 43 76 44
REMARK SMILES IDX 78 45 29 46 81 47 75 48 74 49 30 51 62 52 42 53 61 54 43 55
REMARK SMILES IDX 46 56 60 57 79 58 44 59 45 60 59 62 80 63 47 64 31 65 32 66
REMARK SMILES IDX 40 67 33 68 35 69 41 70 34 71 36 72 37 73 38 74 39 75 63 76
REMARK SMILES IDX 64 77 72 78 65 79 67 80 73 81 66 82 68 83 69 84 70 85 71 86
REMARK SMILES IDX 48 87 49 88 57 89 50 90 52 91 58 92 51 93 53 94 54 95 55 96
REMARK SMILES IDX 56 97
REMARK H PARENT 12 8 19 31 78 50 46 61
REMARK Flexibility Score: inf
ROOT
ATOM      1  C   UNL A   1      31.853  29.197  24.648  1.00  0.00     0.002 C 
ENDROOT
BRANCH   1   2
ATOM      2  C   UNL A   1      30.543  29.281  23.851  1.00  0.00     0.002 C 
BRANCH   2   3
ATOM      3  C   UNL A   1      30.275  28.104  22.914  1.00  0.00     0.021 C 
BRANCH   3   4
ATOM      4  C   UNL A   1      31.544  27.501  22.317  1.00  0.00     0.116 C 
BRANCH   4   5
ATOM      5  N   UNL A   1      31.504  26.059  22.234  1.00  0.00    -0.356 N 
ATOM      6  C   UNL A   1      31.568  25.128  23.216  1.00  0.00     0.224 C 
ATOM      7  O   UNL A   1      31.252  23.973  22.901  1.00  0.00    -0.275 OA
ATOM      8  H   UNL A   1      31.416  25.697  21.323  1.00  0.00     0.163 HD
BRANCH   6   9
ATOM      9  C   UNL A   1      32.035  25.403  24.649  1.00  0.00     0.098 C 
ATOM     10  N   UNL A   1      32.725  23.411  26.009  1.00  0.00    -0.341 N 
ATOM     11  C   UNL A   1      31.669  23.596  26.999  1.00  0.00     0.119 C 
ATOM     12  C   UNL A   1      33.159  24.513  25.159  1.00  0.00     0.133 C 
ATOM     13  C   UNL A   1      30.534  24.520  26.550  1.00  0.00     0.022 C 
ATOM     14  C   UNL A   1      30.948  25.696  25.679  1.00  0.00     0.017 C 
BRANCH  10  15
ATOM     15  C   UNL A   1      33.177  22.161  25.724  1.00  0.00     0.206 A 
ATOM     16  N   UNL A   1      34.507  21.795  25.747  1.00  0.00    -0.310 N 
ATOM     17  C   UNL A   1      34.597  20.513  25.224  1.00  0.00     0.070 A 
ATOM     18  N   UNL A   1      32.430  21.167  25.292  1.00  0.00    -0.213 NA
ATOM     19  C   UNL A   1      33.288  20.158  24.940  1.00  0.00     0.091 A 
ATOM     20  C   UNL A   1      35.680  19.658  24.978  1.00  0.00     0.029 A 
ATOM     21  C   UNL A   1      33.023  18.906  24.354  1.00  0.00     0.034 A 
ATOM     22  C   UNL A   1      35.400  18.414  24.403  1.00  0.00     0.006 A 
ATOM     23  C   UNL A   1      34.093  18.034  24.079  1.00  0.00    -0.049 A 
ATOM     24  C   UNL A   1      33.833  16.704  23.429  1.00  0.00     0.044 C 
BRANCH  16  25
ATOM     25  C   UNL A   1      35.695  22.506  26.177  1.00  0.00     0.122 C 
ATOM     26  C   UNL A   1      36.515  23.305  25.183  1.00  0.00     0.028 C 
ENDBRANCH  16  25
ENDBRANCH  10  15
ENDBRANCH   6   9
ENDBRANCH   4   5
ENDBRANCH   3   4
ENDBRANCH   2   3
ENDBRANCH   1   2
BRANCH   1  27
ATOM     27  C   UNL A   1      31.797  29.682  26.104  1.00  0.00     0.021 C 
BRANCH  27  28
ATOM     28  C   UNL A   1      33.144  29.713  26.828  1.00  0.00     0.116 C 
BRANCH  28  29
ATOM     29  N   UNL A   1      33.577  31.042  27.209  1.00  0.00    -0.352 N 
ATOM     30  C   UNL A   1      34.725  31.598  27.701  1.00  0.00     0.251 C 
ATOM     31  H   UNL A   1      32.867  31.713  27.084  1.00  0.00     0.163 HD
ATOM     32  O   UNL A   1      34.694  32.821  27.868  1.00  0.00    -0.269 OA
BRANCH  30  33
ATOM     33  C   UNL A   1      35.959  30.853  28.073  1.00  0.00     0.039 A 
ATOM     34  C   UNL A   1      36.179  29.497  27.854  1.00  0.00     0.014 A 
ATOM     35  C   UNL A   1      36.964  31.599  28.724  1.00  0.00     0.014 A 
ATOM     36  C   UNL A   1      37.334  28.888  28.337  1.00  0.00     0.010 A 
ATOM     37  C   UNL A   1      38.133  30.999  29.188  1.00  0.00     0.010 A 
ATOM     38  C   UNL A   1      38.303  29.632  29.024  1.00  0.00    -0.014 A 
BRANCH  38  39
ATOM     39  C   UNL A   1      39.506  28.921  29.448  1.00  0.00     0.031 A 
ATOM     40  C   UNL A   1      39.856  29.108  30.880  1.00  0.00     0.074 A 
ATOM     41  C   UNL A   1      40.274  28.139  28.663  1.00  0.00     0.049 A 
ATOM     42  N   UNL A   1      40.787  29.863  31.366  1.00  0.00    -0.248 NA
ATOM     43  C   UNL A   1      38.990  28.487  31.892  1.00  0.00     0.031 C 
ATOM     44  C   UNL A   1      39.950  27.594  27.343  1.00  0.00     0.029 A 
ATOM     45  N   UNL A   1      41.497  27.589  28.935  1.00  0.00    -0.354 N 
ATOM     46  C   UNL A   1      40.782  29.616  32.736  1.00  0.00     0.074 A 
ATOM     47  C   UNL A   1      39.560  28.909  33.023  1.00  0.00     0.031 C 
ATOM     48  C   UNL A   1      40.837  26.620  27.034  1.00  0.00     0.029 A 
ATOM     49  C   UNL A   1      41.883  26.598  28.041  1.00  0.00     0.049 A 
ATOM     50  H   UNL A   1      42.055  27.871  29.696  1.00  0.00     0.167 HD
ATOM     51  C   UNL A   1      41.913  29.761  33.479  1.00  0.00     0.034 A 
ATOM     52  C   UNL A   1      42.974  25.804  28.143  1.00  0.00     0.034 A 
ATOM     53  C   UNL A   1      42.946  30.456  32.765  1.00  0.00     0.049 A 
ATOM     54  C   UNL A   1      43.990  26.540  28.929  1.00  0.00     0.074 A 
ATOM     55  C   UNL A   1      43.267  31.752  32.437  1.00  0.00     0.029 A 
ATOM     56  N   UNL A   1      43.698  29.632  31.974  1.00  0.00    -0.354 N 
ATOM     57  N   UNL A   1      44.561  27.640  28.525  1.00  0.00    -0.248 NA
ATOM     58  C   UNL A   1      44.239  26.174  30.320  1.00  0.00     0.031 C 
ATOM     59  C   UNL A   1      44.131  31.676  31.303  1.00  0.00     0.029 A 
ATOM     60  C   UNL A   1      44.323  30.335  30.982  1.00  0.00     0.049 A 
ATOM     61  H   UNL A   1      43.779  28.659  32.103  1.00  0.00     0.167 HD
ATOM     62  C   UNL A   1      44.867  28.303  29.695  1.00  0.00     0.074 A 
ATOM     63  C   UNL A   1      44.835  27.292  30.740  1.00  0.00     0.031 C 
ATOM     64  C   UNL A   1      44.769  29.658  29.784  1.00  0.00     0.034 A 
BRANCH  51  65
ATOM     65  C   UNL A   1      42.274  28.880  34.653  1.00  0.00     0.023 A 
ATOM     66  C   UNL A   1      42.698  29.506  35.845  1.00  0.00     0.012 A 
ATOM     67  C   UNL A   1      42.503  27.491  34.540  1.00  0.00     0.148 A 
ATOM     68  C   UNL A   1      43.318  28.782  36.872  1.00  0.00     0.002 A 
ATOM     69  C   UNL A   1      43.044  26.763  35.593  1.00  0.00     0.091 A 
ATOM     70  F   UNL A   1      42.337  26.886  33.358  1.00  0.00    -0.205 F 
ATOM     71  C   UNL A   1      43.476  27.406  36.754  1.00  0.00     0.022 A 
BRANCH  69  72
ATOM     72  S   UNL A   1      43.230  24.980  35.497  1.00  0.00     0.127 S 
ATOM     73  O   UNL A   1      43.869  24.683  36.772  1.00  0.00    -0.237 OA
ATOM     74  O   UNL A   1      41.840  24.539  35.376  1.00  0.00    -0.237 OA
ATOM     75  O   UNL A   1      44.032  24.749  34.297  1.00  0.00    -0.744 OA
ENDBRANCH  69  72
ENDBRANCH  51  65
BRANCH  52  76
ATOM     76  C   UNL A   1      43.176  24.381  27.775  1.00  0.00     0.023 A 
ATOM     77  C   UNL A   1      42.221  23.428  28.192  1.00  0.00     0.012 A 
ATOM     78  C   UNL A   1      44.085  24.012  26.761  1.00  0.00     0.148 A 
ATOM     79  C   UNL A   1      42.113  22.185  27.560  1.00  0.00     0.002 A 
ATOM     80  C   UNL A   1      43.981  22.767  26.143  1.00  0.00     0.091 A 
ATOM     81  F   UNL A   1      44.982  24.909  26.334  1.00  0.00    -0.205 F 
ATOM     82  C   UNL A   1      42.981  21.862  26.522  1.00  0.00     0.022 A 
BRANCH  80  83
ATOM     83  S   UNL A   1      45.064  22.277  24.794  1.00  0.00     0.127 S 
ATOM     84  O   UNL A   1      46.320  22.003  25.493  1.00  0.00    -0.237 OA
ATOM     85  O   UNL A   1      44.386  21.101  24.269  1.00  0.00    -0.237 OA
ATOM     86  O   UNL A   1      45.123  23.434  23.902  1.00  0.00    -0.744 OA
ENDBRANCH  80  83
ENDBRANCH  52  76
BRANCH  64  87
ATOM     87  C   UNL A   1      44.906  30.461  28.529  1.00  0.00     0.023 A 
ATOM     88  C   UNL A   1      43.819  30.735  27.677  1.00  0.00     0.012 A 
ATOM     89  C   UNL A   1      46.154  31.052  28.268  1.00  0.00     0.148 A 
ATOM     90  C   UNL A   1      43.982  31.581  26.577  1.00  0.00     0.002 A 
ATOM     91  C   UNL A   1      46.301  31.920  27.197  1.00  0.00     0.091 A 
ATOM     92  F   UNL A   1      47.170  30.770  29.098  1.00  0.00    -0.205 F 
ATOM     93  C   UNL A   1      45.218  32.184  26.343  1.00  0.00     0.022 A 
BRANCH  91  94
ATOM     94  S   UNL A   1      47.833  32.804  26.897  1.00  0.00     0.127 S 
ATOM     95  O   UNL A   1      48.745  31.723  26.529  1.00  0.00    -0.237 OA
ATOM     96  O   UNL A   1      47.464  33.694  25.794  1.00  0.00    -0.237 OA
ATOM     97  O   UNL A   1      48.157  33.493  28.139  1.00  0.00    -0.744 OA
ENDBRANCH  91  94
ENDBRANCH  64  87
ENDBRANCH  38  39
ENDBRANCH  30  33
ENDBRANCH  28  29
ENDBRANCH  27  28
ENDBRANCH   1  27
TORSDOF 18
ENDMDL
MODEL 3
REMARK VINA RESULT:     -12.3      1.740      2.244
REMARK SMILES CCn1c(N2CCC[C@H](C(=O)NCCCCCCNC(=O)c3ccc(-c4c5nc(c(-c6cccc(S(=O)(=O)[O-])c6F)c6ccc([nH]6)c(-c6cccc(S(=O)(=O)[O-])c6F)c6nc(c(-c7cccc(S(=O)(=O)[O-])c7F)c7ccc4[nH]7)C=C6)C=C5)cc3)C2)nc2cc(C)ccc21
REMARK SMILES IDX 16 1 15 2 14 3 13 4 12 5 10 6 11 7 9 9 5 10 6 11 85 12 7 13
REMARK SMILES IDX 8 14 4 15 3 16 93 17 86 18 87 19 92 20 88 21 91 22 89 23
REMARK SMILES IDX 90 24 2 25 1 26 17 27 18 28 19 29 20 30 21 32 22 33 23 34
REMARK SMILES IDX 84 35 24 36 83 37 25 38 26 39 27 40 77 41 28 42 82 43 76 44
REMARK SMILES IDX 78 45 29 46 81 47 75 48 74 49 30 51 62 52 42 53 61 54 43 55
REMARK SMILES IDX 46 56 60 57 79 58 44 59 45 60 59 62 80 63 47 64 31 65 32 66
REMARK SMILES IDX 40 67 33 68 35 69 41 70 34 71 36 72 37 73 38 74 39 75 63 76
REMARK SMILES IDX 64 77 72 78 65 79 67 80 73 81 66 82 68 83 69 84 70 85 71 86
REMARK SMILES IDX 48 87 49 88 57 89 50 90 52 91 58 92 51 93 53 94 54 95 55 96
REMARK SMILES IDX 56 97
REMARK H PARENT 12 8 19 31 78 50 46 61
REMARK Flexibility Score: inf
ROOT
ATOM      1  C   UNL A   1      34.499  29.930  27.043  1.00  0.00     0.002 C 
ENDROOT
BRANCH   1   2
ATOM      2  C   UNL A   1      33.828  28.635  26.562  1.00  0.00     0.002 C 
BRANCH   2   3
ATOM      3  C   UNL A   1      32.535  28.265  27.286  1.00  0.00     0.021 C 
BRANCH   3   4
ATOM      4  C   UNL A   1      31.404  27.863  26.343  1.00  0.00     0.116 C 
BRANCH   4   5
ATOM      5  N   UNL A   1      30.807  26.591  26.681  1.00  0.00    -0.356 N 
ATOM      6  C   UNL A   1      30.548  25.516  25.899  1.00  0.00     0.224 C 
ATOM      7  O   UNL A   1      30.271  24.461  26.487  1.00  0.00    -0.275 OA
ATOM      8  H   UNL A   1      30.550  26.490  27.626  1.00  0.00     0.163 HD
BRANCH   6   9
ATOM      9  C   UNL A   1      30.537  25.534  24.367  1.00  0.00     0.098 C 
ATOM     10  N   UNL A   1      31.838  23.727  23.212  1.00  0.00    -0.341 N 
ATOM     11  C   UNL A   1      32.764  24.660  22.579  1.00  0.00     0.119 C 
ATOM     12  C   UNL A   1      30.534  24.171  23.691  1.00  0.00     0.133 C 
ATOM     13  C   UNL A   1      32.773  26.061  23.196  1.00  0.00     0.022 C 
ATOM     14  C   UNL A   1      31.427  26.572  23.689  1.00  0.00     0.017 C 
BRANCH  10  15
ATOM     15  C   UNL A   1      32.255  22.477  23.546  1.00  0.00     0.206 A 
ATOM     16  N   UNL A   1      33.309  22.215  24.398  1.00  0.00    -0.310 N 
ATOM     17  C   UNL A   1      33.556  20.850  24.349  1.00  0.00     0.070 A 
ATOM     18  N   UNL A   1      31.786  21.360  23.031  1.00  0.00    -0.213 NA
ATOM     19  C   UNL A   1      32.598  20.351  23.479  1.00  0.00     0.091 A 
ATOM     20  C   UNL A   1      34.510  20.032  24.969  1.00  0.00     0.029 A 
ATOM     21  C   UNL A   1      32.589  18.978  23.176  1.00  0.00     0.034 A 
ATOM     22  C   UNL A   1      34.483  18.667  24.663  1.00  0.00     0.006 A 
ATOM     23  C   UNL A   1      33.546  18.134  23.770  1.00  0.00    -0.049 A 
ATOM     24  C   UNL A   1      33.570  16.669  23.437  1.00  0.00     0.044 C 
BRANCH  16  25
ATOM     25  C   UNL A   1      34.118  23.086  25.226  1.00  0.00     0.122 C 
ATOM     26  C   UNL A   1      33.718  23.372  26.661  1.00  0.00     0.028 C 
ENDBRANCH  16  25
ENDBRANCH  10  15
ENDBRANCH   6   9
ENDBRANCH   4   5
ENDBRANCH   3   4
ENDBRANCH   2   3
ENDBRANCH   1   2
BRANCH   1  27
ATOM     27  C   UNL A   1      33.562  31.039  27.539  1.00  0.00     0.021 C 
BRANCH  27  28
ATOM     28  C   UNL A   1      34.243  32.376  27.840  1.00  0.00     0.116 C 
BRANCH  28  29
ATOM     29  N   UNL A   1      34.370  32.667  29.254  1.00  0.00    -0.352 N 
ATOM     30  C   UNL A   1      35.247  32.340  30.249  1.00  0.00     0.251 C 
ATOM     31  H   UNL A   1      33.641  33.245  29.579  1.00  0.00     0.163 HD
ATOM     32  O   UNL A   1      35.007  32.838  31.354  1.00  0.00    -0.269 OA
BRANCH  30  33
ATOM     33  C   UNL A   1      36.413  31.425  30.112  1.00  0.00     0.039 A 
ATOM     34  C   UNL A   1      36.354  30.035  30.137  1.00  0.00     0.014 A 
ATOM     35  C   UNL A   1      37.675  32.040  29.976  1.00  0.00     0.014 A 
ATOM     36  C   UNL A   1      37.525  29.284  30.100  1.00  0.00     0.010 A 
ATOM     37  C   UNL A   1      38.849  31.292  29.914  1.00  0.00     0.010 A 
ATOM     38  C   UNL A   1      38.776  29.910  30.011  1.00  0.00    -0.014 A 
BRANCH  38  39
ATOM     39  C   UNL A   1      39.947  29.041  29.926  1.00  0.00     0.031 A 
ATOM     40  C   UNL A   1      40.634  28.809  31.223  1.00  0.00     0.074 A 
ATOM     41  C   UNL A   1      40.413  28.460  28.803  1.00  0.00     0.049 A 
ATOM     42  N   UNL A   1      41.737  29.348  31.631  1.00  0.00    -0.248 NA
ATOM     43  C   UNL A   1      39.952  27.988  32.232  1.00  0.00     0.031 C 
ATOM     44  C   UNL A   1      39.732  28.316  27.514  1.00  0.00     0.029 A 
ATOM     45  N   UNL A   1      41.589  27.787  28.610  1.00  0.00    -0.354 N 
ATOM     46  C   UNL A   1      42.014  28.737  32.851  1.00  0.00     0.074 A 
ATOM     47  C   UNL A   1      40.813  28.051  33.250  1.00  0.00     0.031 C 
ATOM     48  C   UNL A   1      40.398  27.414  26.757  1.00  0.00     0.029 A 
ATOM     49  C   UNL A   1      41.635  27.057  27.428  1.00  0.00     0.049 A 
ATOM     50  H   UNL A   1      42.336  27.817  29.251  1.00  0.00     0.167 HD
ATOM     51  C   UNL A   1      43.294  28.607  33.295  1.00  0.00     0.034 A 
ATOM     52  C   UNL A   1      42.614  26.203  27.050  1.00  0.00     0.034 A 
ATOM     53  C   UNL A   1      44.215  29.409  32.541  1.00  0.00     0.049 A 
ATOM     54  C   UNL A   1      43.865  26.636  27.712  1.00  0.00     0.074 A 
ATOM     55  C   UNL A   1      44.610  30.725  32.478  1.00  0.00     0.029 A 
ATOM     56  N   UNL A   1      44.659  28.790  31.406  1.00  0.00    -0.354 N 
ATOM     57  N   UNL A   1      44.460  27.769  27.465  1.00  0.00    -0.248 NA
ATOM     58  C   UNL A   1      44.378  25.890  28.857  1.00  0.00     0.031 C 
ATOM     59  C   UNL A   1      45.177  30.911  31.181  1.00  0.00     0.029 A 
ATOM     60  C   UNL A   1      45.123  29.700  30.496  1.00  0.00     0.049 A 
ATOM     61  H   UNL A   1      44.647  27.816  31.262  1.00  0.00     0.167 HD
ATOM     62  C   UNL A   1      45.105  28.068  28.647  1.00  0.00     0.074 A 
ATOM     63  C   UNL A   1      45.188  26.814  29.379  1.00  0.00     0.031 C 
ATOM     64  C   UNL A   1      45.198  29.351  29.095  1.00  0.00     0.034 A 
BRANCH  51  65
ATOM     65  C   UNL A   1      43.801  27.420  34.081  1.00  0.00     0.023 A 
ATOM     66  C   UNL A   1      44.437  27.666  35.318  1.00  0.00     0.012 A 
ATOM     67  C   UNL A   1      43.952  26.129  33.527  1.00  0.00     0.148 A 
ATOM     68  C   UNL A   1      45.182  26.675  35.968  1.00  0.00     0.002 A 
ATOM     69  C   UNL A   1      44.625  25.126  34.213  1.00  0.00     0.091 A 
ATOM     70  F   UNL A   1      43.575  25.902  32.264  1.00  0.00    -0.205 F 
ATOM     71  C   UNL A   1      45.263  25.398  35.425  1.00  0.00     0.022 A 
BRANCH  69  72
ATOM     72  S   UNL A   1      44.720  23.454  33.566  1.00  0.00     0.127 S 
ATOM     73  O   UNL A   1      43.329  23.029  33.645  1.00  0.00    -0.237 OA
ATOM     74  O   UNL A   1      45.228  23.684  32.213  1.00  0.00    -0.237 OA
ATOM     75  O   UNL A   1      45.663  22.763  34.443  1.00  0.00    -0.744 OA
ENDBRANCH  69  72
ENDBRANCH  51  65
BRANCH  52  76
ATOM     76  C   UNL A   1      42.550  24.925  26.298  1.00  0.00     0.023 A 
ATOM     77  C   UNL A   1      43.558  24.642  25.350  1.00  0.00     0.012 A 
ATOM     78  C   UNL A   1      41.728  23.863  26.731  1.00  0.00     0.148 A 
ATOM     79  C   UNL A   1      43.801  23.335  24.918  1.00  0.00     0.002 A 
ATOM     80  C   UNL A   1      41.966  22.564  26.288  1.00  0.00     0.091 A 
ATOM     81  F   UNL A   1      40.782  24.107  27.647  1.00  0.00    -0.205 F 
ATOM     82  C   UNL A   1      43.017  22.293  25.402  1.00  0.00     0.022 A 
BRANCH  80  83
ATOM     83  S   UNL A   1      40.998  21.164  26.868  1.00  0.00     0.127 S 
ATOM     84  O   UNL A   1      40.869  21.452  28.297  1.00  0.00    -0.237 OA
ATOM     85  O   UNL A   1      39.769  21.302  26.100  1.00  0.00    -0.237 OA
ATOM     86  O   UNL A   1      41.809  19.983  26.574  1.00  0.00    -0.744 OA
ENDBRANCH  80  83
ENDBRANCH  52  76
BRANCH  64  87
ATOM     87  C   UNL A   1      45.142  30.457  28.088  1.00  0.00     0.023 A 
ATOM     88  C   UNL A   1      43.941  30.889  27.496  1.00  0.00     0.012 A 
ATOM     89  C   UNL A   1      46.333  31.154  27.823  1.00  0.00     0.148 A 
ATOM     90  C   UNL A   1      43.933  31.998  26.646  1.00  0.00     0.002 A 
ATOM     91  C   UNL A   1      46.315  32.276  27.008  1.00  0.00     0.091 A 
ATOM     92  F   UNL A   1      47.462  30.717  28.402  1.00  0.00    -0.205 F 
ATOM     93  C   UNL A   1      45.116  32.699  26.411  1.00  0.00     0.022 A 
BRANCH  91  94
ATOM     94  S   UNL A   1      47.777  33.280  26.744  1.00  0.00     0.127 S 
ATOM     95  O   UNL A   1      48.766  32.283  26.340  1.00  0.00    -0.237 OA
ATOM     96  O   UNL A   1      47.344  34.178  25.672  1.00  0.00    -0.237 OA
ATOM     97  O   UNL A   1      48.050  33.946  28.010  1.00  0.00    -0.744 OA
ENDBRANCH  91  94
ENDBRANCH  64  87
ENDBRANCH  38  39
ENDBRANCH  30  33
ENDBRANCH  28  29
ENDBRANCH  27  28
ENDBRANCH   1  27
TORSDOF 18
ENDMDL
