MODEL 1
REMARK VINA RESULT:     -13.7      0.000      0.000
REMARK SMILES Cc1nn([C@H]2CCS(=O)(=O)C2)c(C)c1/C=C(\CC(=O)NCCCCCCNC(=O)c1ccc(-c2c3nc(c(-c4cccc(S(=O)(=O)[O-])c4F)c4ccc([nH]4)c(-c4cccc(S(=O)(=O)[O-])c4F)c4nc(c(-c5cccc(S(=O)(=O)[O-])c5F)c5ccc2[nH]5)C=C4)C=C3)cc1)c1nc2ccccc2s1
REMARK SMILES IDX 23 1 22 2 21 3 20 4 18 5 19 6 17 8 16 9 15 10 14 11 1 12
REMARK SMILES IDX 2 13 3 14 4 15 12 16 13 17 5 18 6 19 11 20 7 21 8 22 9 23
REMARK SMILES IDX 10 24 93 25 94 26 101 27 95 28 100 29 96 30 99 31 97 32
REMARK SMILES IDX 98 33 24 34 25 35 26 36 27 37 28 38 29 40 30 41 31 42 92 43
REMARK SMILES IDX 32 44 91 45 33 46 34 47 35 48 85 49 36 50 90 51 84 52 86 53
REMARK SMILES IDX 37 54 89 55 83 56 82 57 38 59 70 60 50 61 69 62 51 63 54 64
REMARK SMILES IDX 68 65 87 66 52 67 53 68 67 70 88 71 55 72 39 73 40 74 48 75
REMARK SMILES IDX 41 76 43 77 49 78 42 79 44 80 45 81 46 82 47 83 71 84 72 85
REMARK SMILES IDX 80 86 73 87 75 88 81 89 74 90 76 91 77 92 78 93 79 94 56 95
REMARK SMILES IDX 57 96 65 97 58 98 60 99 66 100 59 101 61 102 62 103 63 104
REMARK SMILES IDX 64 105
REMARK H PARENT 20 7 27 39 86 58 54 69
REMARK Flexibility Score: inf
ROOT
ATOM      1  C   UNL A   1      32.080  29.879  26.748  1.00  0.00     0.002 C 
ENDROOT
BRANCH   1   2
ATOM      2  C   UNL A   1      33.269  29.184  26.075  1.00  0.00     0.021 C 
BRANCH   2   3
ATOM      3  C   UNL A   1      33.001  28.821  24.619  1.00  0.00     0.116 C 
BRANCH   3   4
ATOM      4  N   UNL A   1      33.625  27.559  24.279  1.00  0.00    -0.356 N 
ATOM      5  C   UNL A   1      33.237  26.299  24.626  1.00  0.00     0.224 C 
ATOM      6  O   UNL A   1      33.992  25.358  24.369  1.00  0.00    -0.275 OA
ATOM      7  H   UNL A   1      34.438  27.620  23.726  1.00  0.00     0.163 HD
BRANCH   5   8
ATOM      8  C   UNL A   1      31.803  26.065  25.081  1.00  0.00     0.138 C 
BRANCH   8   9
ATOM      9  C   UNL A   1      30.785  25.559  24.086  1.00  0.00    -0.002 C 
ATOM     10  C   UNL A   1      30.582  24.257  23.758  1.00  0.00     0.019 C 
BRANCH  10  11
ATOM     11  C   UNL A   1      31.310  23.059  24.113  1.00  0.00     0.019 A 
ATOM     12  C   UNL A   1      30.270  22.721  26.520  1.00  0.00     0.069 C 
ATOM     13  C   UNL A   1      31.117  22.368  25.350  1.00  0.00     0.067 A 
ATOM     14  N   UNL A   1      31.812  21.233  25.386  1.00  0.00    -0.177 NA
ATOM     15  N   UNL A   1      32.396  21.147  24.183  1.00  0.00    -0.265 N 
ATOM     16  C   UNL A   1      32.306  22.321  23.467  1.00  0.00     0.043 A 
ATOM     17  C   UNL A   1      33.174  22.607  22.295  1.00  0.00     0.067 C 
BRANCH  15  18
ATOM     18  C   UNL A   1      32.990  19.853  23.912  1.00  0.00     0.123 C 
ATOM     19  C   UNL A   1      34.085  19.512  24.953  1.00  0.00     0.044 C 
ATOM     20  C   UNL A   1      32.138  18.590  23.865  1.00  0.00     0.164 C 
ATOM     21  C   UNL A   1      34.716  18.216  24.471  1.00  0.00     0.139 C 
ATOM     22  S   UNL A   1      33.361  17.288  23.769  1.00  0.00     0.152 S 
ATOM     23  O   UNL A   1      33.647  17.025  22.381  1.00  0.00    -0.229 OA
ATOM     24  O   UNL A   1      32.988  16.228  24.693  1.00  0.00    -0.229 OA
ENDBRANCH  15  18
ENDBRANCH  10  11
BRANCH   9  25
ATOM     25  C   UNL A   1      30.008  26.562  23.403  1.00  0.00     0.121 A 
ATOM     26  N   UNL A   1      30.558  27.491  22.651  1.00  0.00    -0.236 NA
ATOM     27  S   UNL A   1      28.344  26.825  23.775  1.00  0.00    -0.114 S 
ATOM     28  C   UNL A   1      29.716  28.583  22.551  1.00  0.00     0.082 A 
ATOM     29  C   UNL A   1      28.475  28.434  23.168  1.00  0.00     0.055 A 
ATOM     30  C   UNL A   1      30.052  29.827  21.980  1.00  0.00     0.030 A 
ATOM     31  C   UNL A   1      27.564  29.497  23.261  1.00  0.00     0.021 A 
ATOM     32  C   UNL A   1      29.176  30.906  22.115  1.00  0.00     0.002 A 
ATOM     33  C   UNL A   1      27.952  30.744  22.758  1.00  0.00     0.002 A 
ENDBRANCH   9  25
ENDBRANCH   8   9
ENDBRANCH   5   8
ENDBRANCH   3   4
ENDBRANCH   2   3
ENDBRANCH   1   2
BRANCH   1  34
ATOM     34  C   UNL A   1      31.268  30.809  25.837  1.00  0.00     0.002 C 
BRANCH  34  35
ATOM     35  C   UNL A   1      31.140  32.263  26.310  1.00  0.00     0.021 C 
BRANCH  35  36
ATOM     36  C   UNL A   1      32.253  32.695  27.255  1.00  0.00     0.116 C 
BRANCH  36  37
ATOM     37  N   UNL A   1      32.161  34.120  27.581  1.00  0.00    -0.352 N 
ATOM     38  C   UNL A   1      32.913  34.857  28.472  1.00  0.00     0.251 C 
ATOM     39  H   UNL A   1      31.467  34.622  27.097  1.00  0.00     0.163 HD
ATOM     40  O   UNL A   1      32.522  35.945  28.876  1.00  0.00    -0.269 OA
BRANCH  38  41
ATOM     41  C   UNL A   1      34.198  34.308  28.930  1.00  0.00     0.039 A 
ATOM     42  C   UNL A   1      34.357  33.810  30.228  1.00  0.00     0.014 A 
ATOM     43  C   UNL A   1      35.243  34.269  28.015  1.00  0.00     0.014 A 
ATOM     44  C   UNL A   1      35.559  33.195  30.573  1.00  0.00     0.010 A 
ATOM     45  C   UNL A   1      36.357  33.529  28.301  1.00  0.00     0.010 A 
ATOM     46  C   UNL A   1      36.550  33.050  29.597  1.00  0.00    -0.014 A 
BRANCH  46  47
ATOM     47  C   UNL A   1      37.801  32.350  29.866  1.00  0.00     0.031 A 
ATOM     48  C   UNL A   1      37.885  30.940  29.387  1.00  0.00     0.074 A 
ATOM     49  C   UNL A   1      38.905  33.053  30.203  1.00  0.00     0.049 A 
ATOM     50  N   UNL A   1      38.159  29.874  30.067  1.00  0.00    -0.248 NA
ATOM     51  C   UNL A   1      37.540  30.672  27.981  1.00  0.00     0.031 C 
ATOM     52  C   UNL A   1      39.022  34.515  30.340  1.00  0.00     0.029 A 
ATOM     53  N   UNL A   1      40.197  32.640  30.286  1.00  0.00    -0.354 N 
ATOM     54  C   UNL A   1      38.237  28.837  29.133  1.00  0.00     0.074 A 
ATOM     55  C   UNL A   1      37.663  29.346  27.917  1.00  0.00     0.031 C 
ATOM     56  C   UNL A   1      40.314  34.875  30.193  1.00  0.00     0.029 A 
ATOM     57  C   UNL A   1      41.120  33.673  30.152  1.00  0.00     0.049 A 
ATOM     58  H   UNL A   1      40.456  31.700  30.425  1.00  0.00     0.167 HD
ATOM     59  C   UNL A   1      38.989  27.722  29.353  1.00  0.00     0.034 A 
ATOM     60  C   UNL A   1      42.454  33.548  29.965  1.00  0.00     0.034 A 
ATOM     61  C   UNL A   1      39.382  27.611  30.733  1.00  0.00     0.049 A 
ATOM     62  C   UNL A   1      42.826  32.182  30.388  1.00  0.00     0.074 A 
ATOM     63  C   UNL A   1      38.729  27.495  31.943  1.00  0.00     0.029 A 
ATOM     64  N   UNL A   1      40.673  27.970  31.030  1.00  0.00    -0.354 N 
ATOM     65  N   UNL A   1      42.728  31.752  31.614  1.00  0.00    -0.248 NA
ATOM     66  C   UNL A   1      42.948  31.153  29.369  1.00  0.00     0.031 C 
ATOM     67  C   UNL A   1      39.531  28.233  32.864  1.00  0.00     0.029 A 
ATOM     68  C   UNL A   1      40.643  28.721  32.174  1.00  0.00     0.049 A 
ATOM     69  H   UNL A   1      41.476  27.732  30.513  1.00  0.00     0.167 HD
ATOM     70  C   UNL A   1      42.326  30.430  31.486  1.00  0.00     0.074 A 
ATOM     71  C   UNL A   1      42.627  30.081  30.099  1.00  0.00     0.031 C 
ATOM     72  C   UNL A   1      41.522  29.845  32.423  1.00  0.00     0.034 A 
BRANCH  59  73
ATOM     73  C   UNL A   1      39.687  26.905  28.282  1.00  0.00     0.023 A 
ATOM     74  C   UNL A   1      39.435  25.512  28.260  1.00  0.00     0.012 A 
ATOM     75  C   UNL A   1      40.762  27.365  27.488  1.00  0.00     0.148 A 
ATOM     76  C   UNL A   1      40.238  24.626  27.532  1.00  0.00     0.002 A 
ATOM     77  C   UNL A   1      41.502  26.490  26.696  1.00  0.00     0.091 A 
ATOM     78  F   UNL A   1      41.180  28.630  27.590  1.00  0.00    -0.205 F 
ATOM     79  C   UNL A   1      41.266  25.116  26.740  1.00  0.00     0.022 A 
BRANCH  77  80
ATOM     80  S   UNL A   1      42.797  27.092  25.604  1.00  0.00     0.127 S 
ATOM     81  O   UNL A   1      43.773  27.605  26.560  1.00  0.00    -0.237 OA
ATOM     82  O   UNL A   1      43.197  25.871  24.904  1.00  0.00    -0.237 OA
ATOM     83  O   UNL A   1      42.148  28.079  24.749  1.00  0.00    -0.744 OA
ENDBRANCH  77  80
ENDBRANCH  59  73
BRANCH  60  84
ATOM     84  C   UNL A   1      43.393  34.446  29.261  1.00  0.00     0.023 A 
ATOM     85  C   UNL A   1      44.050  35.464  29.974  1.00  0.00     0.012 A 
ATOM     86  C   UNL A   1      43.839  34.144  27.955  1.00  0.00     0.148 A 
ATOM     87  C   UNL A   1      45.139  36.144  29.416  1.00  0.00     0.002 A 
ATOM     88  C   UNL A   1      44.918  34.828  27.402  1.00  0.00     0.091 A 
ATOM     89  F   UNL A   1      43.265  33.127  27.296  1.00  0.00    -0.205 F 
ATOM     90  C   UNL A   1      45.578  35.821  28.135  1.00  0.00     0.022 A 
BRANCH  88  91
ATOM     91  S   UNL A   1      45.535  34.467  25.752  1.00  0.00     0.127 S 
ATOM     92  O   UNL A   1      46.494  35.555  25.546  1.00  0.00    -0.237 OA
ATOM     93  O   UNL A   1      46.137  33.148  25.936  1.00  0.00    -0.237 OA
ATOM     94  O   UNL A   1      44.364  34.519  24.888  1.00  0.00    -0.744 OA
ENDBRANCH  88  91
ENDBRANCH  60  84
BRANCH  72  95
ATOM     95  C   UNL A   1      41.295  30.585  33.721  1.00  0.00     0.023 A 
ATOM     96  C   UNL A   1      42.254  30.582  34.756  1.00  0.00     0.012 A 
ATOM     97  C   UNL A   1      40.195  31.451  33.824  1.00  0.00     0.148 A 
ATOM     98  C   UNL A   1      42.112  31.407  35.876  1.00  0.00     0.002 A 
ATOM     99  C   UNL A   1      40.079  32.304  34.916  1.00  0.00     0.091 A 
ATOM    100  F   UNL A   1      39.297  31.454  32.827  1.00  0.00    -0.205 F 
ATOM    101  C   UNL A   1      41.031  32.279  35.949  1.00  0.00     0.022 A 
BRANCH  99 102
ATOM    102  S   UNL A   1      38.788  33.546  35.013  1.00  0.00     0.127 S 
ATOM    103  O   UNL A   1      39.124  34.241  36.253  1.00  0.00    -0.237 OA
ATOM    104  O   UNL A   1      39.010  34.325  33.794  1.00  0.00    -0.237 OA
ATOM    105  O   UNL A   1      37.528  32.813  35.028  1.00  0.00    -0.744 OA
ENDBRANCH  99 102
ENDBRANCH  72  95
ENDBRANCH  46  47
ENDBRANCH  38  41
ENDBRANCH  36  37
ENDBRANCH  35  36
ENDBRANCH  34  35
ENDBRANCH   1  34
TORSDOF 20
ENDMDL
MODEL 2
REMARK VINA RESULT:     -13.1      4.258      8.879
REMARK SMILES Cc1nn([C@H]2CCS(=O)(=O)C2)c(C)c1/C=C(\CC(=O)NCCCCCCNC(=O)c1ccc(-c2c3nc(c(-c4cccc(S(=O)(=O)[O-])c4F)c4ccc([nH]4)c(-c4cccc(S(=O)(=O)[O-])c4F)c4nc(c(-c5cccc(S(=O)(=O)[O-])c5F)c5ccc2[nH]5)C=C4)C=C3)cc1)c1nc2ccccc2s1
REMARK SMILES IDX 23 1 22 2 21 3 20 4 18 5 19 6 17 8 16 9 15 10 14 11 1 12
REMARK SMILES IDX 2 13 3 14 4 15 12 16 13 17 5 18 6 19 11 20 7 21 8 22 9 23
REMARK SMILES IDX 10 24 93 25 94 26 101 27 95 28 100 29 96 30 99 31 97 32
REMARK SMILES IDX 98 33 24 34 25 35 26 36 27 37 28 38 29 40 30 41 31 42 92 43
REMARK SMILES IDX 32 44 91 45 33 46 34 47 35 48 85 49 36 50 90 51 84 52 86 53
REMARK SMILES IDX 37 54 89 55 83 56 82 57 38 59 70 60 50 61 69 62 51 63 54 64
REMARK SMILES IDX 68 65 87 66 52 67 53 68 67 70 88 71 55 72 39 73 40 74 48 75
REMARK SMILES IDX 41 76 43 77 49 78 42 79 44 80 45 81 46 82 47 83 71 84 72 85
REMARK SMILES IDX 80 86 73 87 75 88 81 89 74 90 76 91 77 92 78 93 79 94 56 95
REMARK SMILES IDX 57 96 65 97 58 98 60 99 66 100 59 101 61 102 62 103 63 104
REMARK SMILES IDX 64 105
REMARK H PARENT 20 7 27 39 86 58 54 69
REMARK Flexibility Score: inf
ROOT
ATOM      1  C   UNL A   1      36.454  23.267  25.233  1.00  0.00     0.002 C 
ENDROOT
BRANCH   1   2
ATOM      2  C   UNL A   1      35.531  24.472  25.025  1.00  0.00     0.021 C 
BRANCH   2   3
ATOM      3  C   UNL A   1      34.194  24.331  25.744  1.00  0.00     0.116 C 
BRANCH   3   4
ATOM      4  N   UNL A   1      33.620  25.630  26.026  1.00  0.00    -0.356 N 
ATOM      5  C   UNL A   1      33.067  26.522  25.155  1.00  0.00     0.224 C 
ATOM      6  O   UNL A   1      32.775  27.647  25.570  1.00  0.00    -0.275 OA
ATOM      7  H   UNL A   1      33.632  25.906  26.971  1.00  0.00     0.163 HD
BRANCH   5   8
ATOM      8  C   UNL A   1      32.604  26.033  23.789  1.00  0.00     0.138 C 
BRANCH   8   9
ATOM      9  C   UNL A   1      31.172  25.586  23.612  1.00  0.00    -0.002 C 
ATOM     10  C   UNL A   1      30.700  24.337  23.858  1.00  0.00     0.019 C 
BRANCH  10  11
ATOM     11  C   UNL A   1      31.382  23.108  24.193  1.00  0.00     0.019 A 
ATOM     12  C   UNL A   1      30.270  22.728  26.561  1.00  0.00     0.069 C 
ATOM     13  C   UNL A   1      31.137  22.386  25.402  1.00  0.00     0.067 A 
ATOM     14  N   UNL A   1      31.797  21.230  25.421  1.00  0.00    -0.177 NA
ATOM     15  N   UNL A   1      32.410  21.162  24.231  1.00  0.00    -0.265 N 
ATOM     16  C   UNL A   1      32.373  22.360  23.550  1.00  0.00     0.043 A 
ATOM     17  C   UNL A   1      33.279  22.656  22.409  1.00  0.00     0.067 C 
BRANCH  15  18
ATOM     18  C   UNL A   1      32.973  19.860  23.934  1.00  0.00     0.123 C 
ATOM     19  C   UNL A   1      34.064  19.476  24.964  1.00  0.00     0.044 C 
ATOM     20  C   UNL A   1      32.091  18.619  23.868  1.00  0.00     0.164 C 
ATOM     21  C   UNL A   1      34.662  18.174  24.457  1.00  0.00     0.139 C 
ATOM     22  S   UNL A   1      33.283  17.290  23.745  1.00  0.00     0.152 S 
ATOM     23  O   UNL A   1      33.558  17.045  22.351  1.00  0.00    -0.229 OA
ATOM     24  O   UNL A   1      32.889  16.223  24.651  1.00  0.00    -0.229 OA
ENDBRANCH  15  18
ENDBRANCH  10  11
BRANCH   9  25
ATOM     25  C   UNL A   1      30.257  26.571  23.093  1.00  0.00     0.121 A 
ATOM     26  N   UNL A   1      30.649  27.564  22.325  1.00  0.00    -0.236 NA
ATOM     27  S   UNL A   1      28.647  26.717  23.697  1.00  0.00    -0.114 S 
ATOM     28  C   UNL A   1      29.744  28.607  22.396  1.00  0.00     0.082 A 
ATOM     29  C   UNL A   1      28.608  28.356  23.164  1.00  0.00     0.055 A 
ATOM     30  C   UNL A   1      29.933  29.893  21.851  1.00  0.00     0.030 A 
ATOM     31  C   UNL A   1      27.663  29.358  23.434  1.00  0.00     0.021 A 
ATOM     32  C   UNL A   1      29.026  30.911  22.159  1.00  0.00     0.002 A 
ATOM     33  C   UNL A   1      27.912  30.647  22.950  1.00  0.00     0.002 A 
ENDBRANCH   9  25
ENDBRANCH   8   9
ENDBRANCH   5   8
ENDBRANCH   3   4
ENDBRANCH   2   3
ENDBRANCH   1   2
BRANCH   1  34
ATOM     34  C   UNL A   1      36.518  22.285  24.056  1.00  0.00     0.002 C 
BRANCH  34  35
ATOM     35  C   UNL A   1      37.309  20.994  24.305  1.00  0.00     0.021 C 
BRANCH  35  36
ATOM     36  C   UNL A   1      38.213  21.062  25.529  1.00  0.00     0.116 C 
BRANCH  36  37
ATOM     37  N   UNL A   1      39.113  19.908  25.600  1.00  0.00    -0.352 N 
ATOM     38  C   UNL A   1      40.465  19.877  25.868  1.00  0.00     0.251 C 
ATOM     39  H   UNL A   1      38.693  19.033  25.434  1.00  0.00     0.163 HD
ATOM     40  O   UNL A   1      41.141  18.896  25.579  1.00  0.00    -0.269 OA
BRANCH  38  41
ATOM     41  C   UNL A   1      41.083  21.048  26.506  1.00  0.00     0.039 A 
ATOM     42  C   UNL A   1      41.837  21.967  25.770  1.00  0.00     0.014 A 
ATOM     43  C   UNL A   1      40.861  21.229  27.866  1.00  0.00     0.014 A 
ATOM     44  C   UNL A   1      42.302  23.119  26.401  1.00  0.00     0.010 A 
ATOM     45  C   UNL A   1      41.177  22.429  28.443  1.00  0.00     0.010 A 
ATOM     46  C   UNL A   1      41.957  23.347  27.737  1.00  0.00    -0.014 A 
BRANCH  46  47
ATOM     47  C   UNL A   1      42.342  24.566  28.438  1.00  0.00     0.031 A 
ATOM     48  C   UNL A   1      41.378  25.701  28.367  1.00  0.00     0.074 A 
ATOM     49  C   UNL A   1      43.328  24.526  29.362  1.00  0.00     0.049 A 
ATOM     50  N   UNL A   1      41.589  26.911  27.960  1.00  0.00    -0.248 NA
ATOM     51  C   UNL A   1      39.975  25.432  28.722  1.00  0.00     0.031 C 
ATOM     52  C   UNL A   1      44.106  23.349  29.784  1.00  0.00     0.029 A 
ATOM     53  N   UNL A   1      43.697  25.469  30.268  1.00  0.00    -0.354 N 
ATOM     54  C   UNL A   1      40.404  27.609  28.215  1.00  0.00     0.074 A 
ATOM     55  C   UNL A   1      39.404  26.615  28.497  1.00  0.00     0.031 C 
ATOM     56  C   UNL A   1      44.614  23.567  31.015  1.00  0.00     0.029 A 
ATOM     57  C   UNL A   1      44.366  24.948  31.372  1.00  0.00     0.049 A 
ATOM     58  H   UNL A   1      43.508  26.429  30.156  1.00  0.00     0.167 HD
ATOM     59  C   UNL A   1      40.389  28.957  28.420  1.00  0.00     0.034 A 
ATOM     60  C   UNL A   1      44.651  25.593  32.525  1.00  0.00     0.034 A 
ATOM     61  C   UNL A   1      41.628  29.568  28.014  1.00  0.00     0.049 A 
ATOM     62  C   UNL A   1      44.556  27.041  32.248  1.00  0.00     0.074 A 
ATOM     63  C   UNL A   1      42.337  29.683  26.838  1.00  0.00     0.029 A 
ATOM     64  N   UNL A   1      42.502  29.897  29.021  1.00  0.00    -0.354 N 
ATOM     65  N   UNL A   1      45.351  27.675  31.432  1.00  0.00    -0.248 NA
ATOM     66  C   UNL A   1      43.322  27.730  32.584  1.00  0.00     0.031 C 
ATOM     67  C   UNL A   1      43.709  29.626  27.229  1.00  0.00     0.029 A 
ATOM     68  C   UNL A   1      43.756  29.520  28.621  1.00  0.00     0.049 A 
ATOM     69  H   UNL A   1      42.269  30.326  29.875  1.00  0.00     0.167 HD
ATOM     70  C   UNL A   1      44.534  28.610  30.811  1.00  0.00     0.074 A 
ATOM     71  C   UNL A   1      43.351  28.697  31.663  1.00  0.00     0.031 C 
ATOM     72  C   UNL A   1      44.764  28.996  29.520  1.00  0.00     0.034 A 
BRANCH  59  73
ATOM     73  C   UNL A   1      39.415  29.702  29.312  1.00  0.00     0.023 A 
ATOM     74  C   UNL A   1      38.862  30.904  28.809  1.00  0.00     0.012 A 
ATOM     75  C   UNL A   1      39.222  29.445  30.689  1.00  0.00     0.148 A 
ATOM     76  C   UNL A   1      38.204  31.820  29.638  1.00  0.00     0.002 A 
ATOM     77  C   UNL A   1      38.489  30.317  31.491  1.00  0.00     0.091 A 
ATOM     78  F   UNL A   1      39.859  28.430  31.279  1.00  0.00    -0.205 F 
ATOM     79  C   UNL A   1      38.007  31.522  30.979  1.00  0.00     0.022 A 
BRANCH  77  80
ATOM     80  S   UNL A   1      38.153  29.934  33.215  1.00  0.00     0.127 S 
ATOM     81  O   UNL A   1      39.500  29.891  33.774  1.00  0.00    -0.237 OA
ATOM     82  O   UNL A   1      37.345  31.083  33.629  1.00  0.00    -0.237 OA
ATOM     83  O   UNL A   1      37.420  28.674  33.191  1.00  0.00    -0.744 OA
ENDBRANCH  77  80
ENDBRANCH  59  73
BRANCH  60  84
ATOM     84  C   UNL A   1      44.796  25.054  33.894  1.00  0.00     0.023 A 
ATOM     85  C   UNL A   1      43.652  24.840  34.683  1.00  0.00     0.012 A 
ATOM     86  C   UNL A   1      46.025  24.511  34.330  1.00  0.00     0.148 A 
ATOM     87  C   UNL A   1      43.720  24.081  35.857  1.00  0.00     0.002 A 
ATOM     88  C   UNL A   1      46.089  23.764  35.503  1.00  0.00     0.091 A 
ATOM     89  F   UNL A   1      47.105  24.651  33.548  1.00  0.00    -0.205 F 
ATOM     90  C   UNL A   1      44.936  23.537  36.263  1.00  0.00     0.022 A 
BRANCH  88  91
ATOM     91  S   UNL A   1      47.625  23.036  36.089  1.00  0.00     0.127 S 
ATOM     92  O   UNL A   1      48.464  24.220  36.283  1.00  0.00    -0.237 OA
ATOM     93  O   UNL A   1      47.198  22.380  37.323  1.00  0.00    -0.237 OA
ATOM     94  O   UNL A   1      48.061  22.154  35.015  1.00  0.00    -0.744 OA
ENDBRANCH  88  91
ENDBRANCH  60  84
BRANCH  72  95
ATOM     95  C   UNL A   1      46.067  28.580  28.878  1.00  0.00     0.023 A 
ATOM     96  C   UNL A   1      47.276  29.260  29.140  1.00  0.00     0.012 A 
ATOM     97  C   UNL A   1      46.115  27.375  28.159  1.00  0.00     0.148 A 
ATOM     98  C   UNL A   1      48.499  28.764  28.682  1.00  0.00     0.002 A 
ATOM     99  C   UNL A   1      47.338  26.860  27.743  1.00  0.00     0.091 A 
ATOM    100  F   UNL A   1      44.961  26.731  27.927  1.00  0.00    -0.205 F 
ATOM    101  C   UNL A   1      48.532  27.556  27.995  1.00  0.00     0.022 A 
BRANCH  99 102
ATOM    102  S   UNL A   1      47.469  25.246  26.971  1.00  0.00     0.127 S 
ATOM    103  O   UNL A   1      48.913  25.103  26.804  1.00  0.00    -0.237 OA
ATOM    104  O   UNL A   1      46.880  24.366  27.982  1.00  0.00    -0.237 OA
ATOM    105  O   UNL A   1      46.701  25.329  25.735  1.00  0.00    -0.744 OA
ENDBRANCH  99 102
ENDBRANCH  72  95
ENDBRANCH  46  47
ENDBRANCH  38  41
ENDBRANCH  36  37
ENDBRANCH  35  36
ENDBRANCH  34  35
ENDBRANCH   1  34
TORSDOF 20
ENDMDL
MODEL 3
REMARK VINA RESULT:     -12.8      4.548     10.194
REMARK SMILES Cc1nn([C@H]2CCS(=O)(=O)C2)c(C)c1/C=C(\CC(=O)NCCCCCCNC(=O)c1ccc(-c2c3nc(c(-c4cccc(S(=O)(=O)[O-])c4F)c4ccc([nH]4)c(-c4cccc(S(=O)(=O)[O-])c4F)c4nc(c(-c5cccc(S(=O)(=O)[O-])c5F)c5ccc2[nH]5)C=C4)C=C3)cc1)c1nc2ccccc2s1
REMARK SMILES IDX 23 1 22 2 21 3 20 4 18 5 19 6 17 8 16 9 15 10 14 11 1 12
REMARK SMILES IDX 2 13 3 14 4 15 12 16 13 17 5 18 6 19 11 20 7 21 8 22 9 23
REMARK SMILES IDX 10 24 93 25 94 26 101 27 95 28 100 29 96 30 99 31 97 32
REMARK SMILES IDX 98 33 24 34 25 35 26 36 27 37 28 38 29 40 30 41 31 42 92 43
REMARK SMILES IDX 32 44 91 45 33 46 34 47 35 48 85 49 36 50 90 51 84 52 86 53
REMARK SMILES IDX 37 54 89 55 83 56 82 57 38 59 70 60 50 61 69 62 51 63 54 64
REMARK SMILES IDX 68 65 87 66 52 67 53 68 67 70 88 71 55 72 39 73 40 74 48 75
REMARK SMILES IDX 41 76 43 77 49 78 42 79 44 80 45 81 46 82 47 83 71 84 72 85
REMARK SMILES IDX 80 86 73 87 75 88 81 89 74 90 76 91 77 92 78 93 79 94 56 95
REMARK SMILES IDX 57 96 65 97 58 98 60 99 66 100 59 101 61 102 62 103 63 104
REMARK SMILES IDX 64 105
REMARK H PARENT 20 7 27 39 86 58 54 69
REMARK Flexibility Score: inf
ROOT
ATOM      1  C   UNL A   1      38.363  22.483  25.880  1.00  0.00     0.002 C 
ENDROOT
BRANCH   1   2
ATOM      2  C   UNL A   1      37.561  23.783  25.997  1.00  0.00     0.021 C 
BRANCH   2   3
ATOM      3  C   UNL A   1      36.384  23.847  25.031  1.00  0.00     0.116 C 
BRANCH   3   4
ATOM      4  N   UNL A   1      35.132  23.967  25.750  1.00  0.00    -0.356 N 
ATOM      5  C   UNL A   1      33.865  24.005  25.248  1.00  0.00     0.224 C 
ATOM      6  O   UNL A   1      32.935  24.270  26.015  1.00  0.00    -0.275 OA
ATOM      7  H   UNL A   1      35.206  24.030  26.730  1.00  0.00     0.163 HD
BRANCH   5   8
ATOM      8  C   UNL A   1      33.610  23.484  23.840  1.00  0.00     0.138 C 
BRANCH   8   9
ATOM      9  C   UNL A   1      32.234  22.976  23.479  1.00  0.00    -0.002 C 
ATOM     10  C   UNL A   1      31.176  23.748  23.123  1.00  0.00     0.019 C 
BRANCH  10  11
ATOM     11  C   UNL A   1      31.001  25.184  23.120  1.00  0.00     0.019 A 
ATOM     12  C   UNL A   1      32.558  25.720  21.053  1.00  0.00     0.069 C 
ATOM     13  C   UNL A   1      31.606  26.041  22.149  1.00  0.00     0.067 A 
ATOM     14  N   UNL A   1      31.196  27.299  22.289  1.00  0.00    -0.177 NA
ATOM     15  N   UNL A   1      30.297  27.262  23.282  1.00  0.00    -0.265 N 
ATOM     16  C   UNL A   1      30.309  26.062  23.959  1.00  0.00     0.043 A 
ATOM     17  C   UNL A   1      29.696  25.900  25.304  1.00  0.00     0.067 C 
BRANCH  15  18
ATOM     18  C   UNL A   1      29.528  28.483  23.423  1.00  0.00     0.123 C 
ATOM     19  C   UNL A   1      30.455  29.707  23.625  1.00  0.00     0.044 C 
ATOM     20  C   UNL A   1      28.568  28.938  22.330  1.00  0.00     0.164 C 
ATOM     21  C   UNL A   1      29.527  30.879  23.901  1.00  0.00     0.139 C 
ATOM     22  S   UNL A   1      28.101  30.578  22.869  1.00  0.00     0.152 S 
ATOM     23  O   UNL A   1      26.934  30.473  23.709  1.00  0.00    -0.229 OA
ATOM     24  O   UNL A   1      28.148  31.477  21.726  1.00  0.00    -0.229 OA
ENDBRANCH  15  18
ENDBRANCH  10  11
BRANCH   9  25
ATOM     25  C   UNL A   1      32.036  21.551  23.572  1.00  0.00     0.121 A 
ATOM     26  N   UNL A   1      32.185  20.890  24.699  1.00  0.00    -0.236 NA
ATOM     27  S   UNL A   1      31.914  20.561  22.165  1.00  0.00    -0.114 S 
ATOM     28  C   UNL A   1      32.454  19.559  24.440  1.00  0.00     0.082 A 
ATOM     29  C   UNL A   1      32.419  19.199  23.093  1.00  0.00     0.055 A 
ATOM     30  C   UNL A   1      32.846  18.601  25.395  1.00  0.00     0.030 A 
ATOM     31  C   UNL A   1      32.794  17.917  22.662  1.00  0.00     0.021 A 
ATOM     32  C   UNL A   1      33.273  17.340  24.971  1.00  0.00     0.002 A 
ATOM     33  C   UNL A   1      33.257  17.008  23.620  1.00  0.00     0.002 A 
ENDBRANCH   9  25
ENDBRANCH   8   9
ENDBRANCH   5   8
ENDBRANCH   3   4
ENDBRANCH   2   3
ENDBRANCH   1   2
BRANCH   1  34
ATOM     34  C   UNL A   1      37.779  21.442  24.916  1.00  0.00     0.002 C 
BRANCH  34  35
ATOM     35  C   UNL A   1      38.393  20.037  24.998  1.00  0.00     0.021 C 
BRANCH  35  36
ATOM     36  C   UNL A   1      39.299  19.839  26.205  1.00  0.00     0.116 C 
BRANCH  36  37
ATOM     37  N   UNL A   1      40.514  19.101  25.852  1.00  0.00    -0.352 N 
ATOM     38  C   UNL A   1      41.807  19.564  25.735  1.00  0.00     0.251 C 
ATOM     39  H   UNL A   1      40.390  18.141  25.675  1.00  0.00     0.163 HD
ATOM     40  O   UNL A   1      42.654  18.919  25.128  1.00  0.00    -0.269 OA
BRANCH  38  41
ATOM     41  C   UNL A   1      42.152  20.853  26.353  1.00  0.00     0.039 A 
ATOM     42  C   UNL A   1      42.539  21.952  25.580  1.00  0.00     0.014 A 
ATOM     43  C   UNL A   1      42.046  20.950  27.736  1.00  0.00     0.014 A 
ATOM     44  C   UNL A   1      42.741  23.181  26.207  1.00  0.00     0.010 A 
ATOM     45  C   UNL A   1      42.088  22.184  28.326  1.00  0.00     0.010 A 
ATOM     46  C   UNL A   1      42.502  23.289  27.581  1.00  0.00    -0.014 A 
BRANCH  46  47
ATOM     47  C   UNL A   1      42.619  24.559  28.288  1.00  0.00     0.031 A 
ATOM     48  C   UNL A   1      41.500  25.526  28.097  1.00  0.00     0.074 A 
ATOM     49  C   UNL A   1      43.501  24.683  29.305  1.00  0.00     0.049 A 
ATOM     50  N   UNL A   1      41.557  26.751  27.685  1.00  0.00    -0.248 NA
ATOM     51  C   UNL A   1      40.128  25.039  28.320  1.00  0.00     0.031 C 
ATOM     52  C   UNL A   1      44.408  23.647  29.827  1.00  0.00     0.029 A 
ATOM     53  N   UNL A   1      43.624  25.679  30.221  1.00  0.00    -0.354 N 
ATOM     54  C   UNL A   1      40.258  27.253  27.808  1.00  0.00     0.074 A 
ATOM     55  C   UNL A   1      39.404  26.115  28.013  1.00  0.00     0.031 C 
ATOM     56  C   UNL A   1      44.750  23.952  31.096  1.00  0.00     0.029 A 
ATOM     57  C   UNL A   1      44.254  25.279  31.396  1.00  0.00     0.049 A 
ATOM     58  H   UNL A   1      43.299  26.596  30.068  1.00  0.00     0.167 HD
ATOM     59  C   UNL A   1      40.010  28.583  27.979  1.00  0.00     0.034 A 
ATOM     60  C   UNL A   1      44.316  25.969  32.556  1.00  0.00     0.034 A 
ATOM     61  C   UNL A   1      41.171  29.380  27.682  1.00  0.00     0.049 A 
ATOM     62  C   UNL A   1      44.023  27.382  32.238  1.00  0.00     0.074 A 
ATOM     63  C   UNL A   1      41.968  29.598  26.578  1.00  0.00     0.029 A 
ATOM     64  N   UNL A   1      41.878  29.852  28.761  1.00  0.00    -0.354 N 
ATOM     65  N   UNL A   1      44.786  28.128  31.489  1.00  0.00    -0.248 NA
ATOM     66  C   UNL A   1      42.669  27.868  32.436  1.00  0.00     0.031 C 
ATOM     67  C   UNL A   1      43.285  29.763  27.103  1.00  0.00     0.029 A 
ATOM     68  C   UNL A   1      43.209  29.676  28.495  1.00  0.00     0.049 A 
ATOM     69  H   UNL A   1      41.497  30.244  29.579  1.00  0.00     0.167 HD
ATOM     70  C   UNL A   1      43.899  28.917  30.770  1.00  0.00     0.074 A 
ATOM     71  C   UNL A   1      42.637  28.821  31.501  1.00  0.00     0.031 C 
ATOM     72  C   UNL A   1      44.192  29.325  29.499  1.00  0.00     0.034 A 
BRANCH  59  73
ATOM     73  C   UNL A   1      38.846  29.170  28.754  1.00  0.00     0.023 A 
ATOM     74  C   UNL A   1      38.680  28.749  30.095  1.00  0.00     0.012 A 
ATOM     75  C   UNL A   1      37.771  29.884  28.178  1.00  0.00     0.148 A 
ATOM     76  C   UNL A   1      37.493  28.978  30.802  1.00  0.00     0.002 A 
ATOM     77  C   UNL A   1      36.628  30.187  28.914  1.00  0.00     0.091 A 
ATOM     78  F   UNL A   1      37.770  30.160  26.871  1.00  0.00    -0.205 F 
ATOM     79  C   UNL A   1      36.470  29.708  30.215  1.00  0.00     0.022 A 
BRANCH  77  80
ATOM     80  S   UNL A   1      35.309  31.188  28.214  1.00  0.00     0.127 S 
ATOM     81  O   UNL A   1      34.597  30.208  27.400  1.00  0.00    -0.237 OA
ATOM     82  O   UNL A   1      34.596  31.633  29.413  1.00  0.00    -0.237 OA
ATOM     83  O   UNL A   1      35.984  32.261  27.495  1.00  0.00    -0.744 OA
ENDBRANCH  77  80
ENDBRANCH  59  73
BRANCH  60  84
ATOM     84  C   UNL A   1      44.407  25.470  33.944  1.00  0.00     0.023 A 
ATOM     85  C   UNL A   1      43.232  25.268  34.690  1.00  0.00     0.012 A 
ATOM     86  C   UNL A   1      45.620  24.949  34.447  1.00  0.00     0.148 A 
ATOM     87  C   UNL A   1      43.256  24.544  35.887  1.00  0.00     0.002 A 
ATOM     88  C   UNL A   1      45.640  24.236  35.642  1.00  0.00     0.091 A 
ATOM     89  F   UNL A   1      46.731  25.075  33.708  1.00  0.00    -0.205 F 
ATOM     90  C   UNL A   1      44.457  24.021  36.359  1.00  0.00     0.022 A 
BRANCH  88  91
ATOM     91  S   UNL A   1      47.155  23.536  36.314  1.00  0.00     0.127 S 
ATOM     92  O   UNL A   1      46.680  22.936  37.562  1.00  0.00    -0.237 OA
ATOM     93  O   UNL A   1      47.530  22.578  35.277  1.00  0.00    -0.237 OA
ATOM     94  O   UNL A   1      48.051  24.671  36.489  1.00  0.00    -0.744 OA
ENDBRANCH  88  91
ENDBRANCH  60  84
BRANCH  72  95
ATOM     95  C   UNL A   1      45.603  29.117  28.997  1.00  0.00     0.023 A 
ATOM     96  C   UNL A   1      46.655  29.985  29.357  1.00  0.00     0.012 A 
ATOM     97  C   UNL A   1      45.912  27.928  28.318  1.00  0.00     0.148 A 
ATOM     98  C   UNL A   1      47.982  29.687  29.032  1.00  0.00     0.002 A 
ATOM     99  C   UNL A   1      47.236  27.612  28.036  1.00  0.00     0.091 A 
ATOM    100  F   UNL A   1      44.904  27.104  27.993  1.00  0.00    -0.205 F 
ATOM    101  C   UNL A   1      48.274  28.492  28.383  1.00  0.00     0.022 A 
BRANCH  99 102
ATOM    102  S   UNL A   1      47.699  26.031  27.324  1.00  0.00     0.127 S 
ATOM    103  O   UNL A   1      46.693  25.860  26.278  1.00  0.00    -0.237 OA
ATOM    104  O   UNL A   1      49.053  26.291  26.834  1.00  0.00    -0.237 OA
ATOM    105  O   UNL A   1      47.637  25.066  28.416  1.00  0.00    -0.744 OA
ENDBRANCH  99 102
ENDBRANCH  72  95
ENDBRANCH  46  47
ENDBRANCH  38  41
ENDBRANCH  36  37
ENDBRANCH  35  36
ENDBRANCH  34  35
ENDBRANCH   1  34
TORSDOF 20
ENDMDL
