MODEL 1
REMARK VINA RESULT:     -12.2      0.000      0.000
REMARK SMILES O=C(NCCCCCCNC(=O)c1ccc(-c2c3nc(c(-c4cccc(S(=O)(=O)[O-])c4F)c4ccc([nH]4)c(-c4cccc(S(=O)(=O)[O-])c4F)c4nc(c(-c5cccc(S(=O)(=O)[O-])c5F)c5ccc2[nH]5)C=C4)C=C3)cc1)C1=Cc2cc(S(F)(F)(F)(F)F)cc(Br)c2O[C@@H]1C(F)(F)F
REMARK SMILES IDX 7 1 6 2 5 3 4 4 3 5 1 6 2 7 76 9 77 10 92 11 78 12 91 13
REMARK SMILES IDX 79 14 90 15 80 16 88 17 87 18 89 19 93 20 94 21 95 22 96 23
REMARK SMILES IDX 81 24 82 25 83 26 84 27 85 28 86 29 8 30 9 31 10 32 11 33
REMARK SMILES IDX 12 35 13 36 14 37 75 38 15 39 74 40 16 41 17 42 18 43 68 44
REMARK SMILES IDX 19 45 73 46 67 47 69 48 20 49 72 50 66 51 65 52 21 54 53 55
REMARK SMILES IDX 33 56 52 57 34 58 37 59 51 60 70 61 35 62 36 63 50 65 71 66
REMARK SMILES IDX 38 67 22 68 23 69 31 70 24 71 26 72 32 73 25 74 27 75 28 76
REMARK SMILES IDX 29 77 30 78 54 79 55 80 63 81 56 82 58 83 64 84 57 85 59 86
REMARK SMILES IDX 60 87 61 88 62 89 39 90 40 91 48 92 41 93 43 94 49 95 42 96
REMARK SMILES IDX 44 97 45 98 46 99 47 100
REMARK H PARENT 3 8 10 34 69 53 37 64
REMARK Flexibility Score: inf
ROOT
ATOM      1  C   UNL A   1      40.213  21.463  26.561  1.00  0.00     0.002 C 
ENDROOT
BRANCH   1   2
ATOM      2  C   UNL A   1      38.869  21.912  26.011  1.00  0.00     0.002 C 
BRANCH   2   3
ATOM      3  C   UNL A   1      38.641  23.373  26.359  1.00  0.00     0.021 C 
BRANCH   3   4
ATOM      4  C   UNL A   1      37.221  23.767  25.990  1.00  0.00     0.116 C 
BRANCH   4   5
ATOM      5  N   UNL A   1      37.058  23.702  24.531  1.00  0.00    -0.352 N 
ATOM      6  O   UNL A   1      35.785  22.910  22.688  1.00  0.00    -0.270 OA
ATOM      7  C   UNL A   1      35.926  22.966  23.950  1.00  0.00     0.251 C 
ATOM      8  H   UNL A   1      37.706  24.151  23.942  1.00  0.00     0.163 HD
BRANCH   7   9
ATOM      9  C   UNL A   1      34.924  22.272  24.858  1.00  0.00     0.067 C 
ATOM     10  C   UNL A   1      33.920  22.986  25.435  1.00  0.00     0.025 C 
ATOM     11  C   UNL A   1      35.044  20.779  25.123  1.00  0.00     0.314 C 
ATOM     12  C   UNL A   1      33.800  24.478  25.170  1.00  0.00     0.020 A 
ATOM     13  O   UNL A   1      34.456  24.149  22.909  1.00  0.00    -0.474 OA
ATOM     14  C   UNL A   1      33.432  25.288  26.232  1.00  0.00     0.036 A 
ATOM     15  C   UNL A   1      33.923  24.966  23.942  1.00  0.00     0.142 A 
ATOM     16  C   UNL A   1      32.931  26.552  25.842  1.00  0.00     0.109 A 
ATOM     17  C   UNL A   1      33.540  26.255  23.660  1.00  0.00     0.062 A 
ATOM     18  C   UNL A   1      33.111  27.093  24.651  1.00  0.00     0.044 A 
ATOM     19  Br  UNL A   1      33.612  26.902  21.811  1.00  0.00    -0.047 Br
BRANCH  11  20
ATOM     20  C   UNL A   1      33.779  20.078  24.655  1.00  0.00     0.429 C 
ATOM     21  F   UNL A   1      33.296  20.703  23.585  1.00  0.00    -0.167 F 
ATOM     22  F   UNL A   1      34.062  18.817  24.343  1.00  0.00    -0.167 F 
ATOM     23  F   UNL A   1      32.874  20.102  25.628  1.00  0.00    -0.167 F 
ENDBRANCH  11  20
BRANCH  16  24
ATOM     24  S   UNL A   1      31.977  27.492  27.060  1.00  0.00     0.310 S 
ATOM     25  F   UNL A   1      31.725  28.677  26.036  1.00  0.00    -0.094 F 
ATOM     26  F   UNL A   1      33.304  28.230  27.481  1.00  0.00    -0.094 F 
ATOM     27  F   UNL A   1      31.160  28.302  28.105  1.00  0.00    -0.094 F 
ATOM     28  F   UNL A   1      30.638  26.845  26.527  1.00  0.00    -0.094 F 
ATOM     29  F   UNL A   1      32.775  26.745  25.917  1.00  0.00    -0.094 F 
ENDBRANCH  16  24
ENDBRANCH   7   9
ENDBRANCH   4   5
ENDBRANCH   3   4
ENDBRANCH   2   3
ENDBRANCH   1   2
BRANCH   1  30
ATOM     30  C   UNL A   1      40.438  20.000  26.216  1.00  0.00     0.021 C 
BRANCH  30  31
ATOM     31  C   UNL A   1      41.787  19.553  26.758  1.00  0.00     0.116 C 
BRANCH  31  32
ATOM     32  N   UNL A   1      42.582  18.965  25.670  1.00  0.00    -0.352 N 
ATOM     33  C   UNL A   1      43.619  19.765  25.004  1.00  0.00     0.251 C 
ATOM     34  H   UNL A   1      42.420  18.036  25.388  1.00  0.00     0.163 HD
ATOM     35  O   UNL A   1      44.307  19.258  24.063  1.00  0.00    -0.269 OA
BRANCH  33  36
ATOM     36  C   UNL A   1      43.869  21.201  25.438  1.00  0.00     0.039 A 
ATOM     37  C   UNL A   1      44.504  21.446  26.644  1.00  0.00     0.014 A 
ATOM     38  C   UNL A   1      43.473  22.195  24.652  1.00  0.00     0.014 A 
ATOM     39  C   UNL A   1      44.419  22.791  27.073  1.00  0.00     0.010 A 
ATOM     40  C   UNL A   1      43.545  23.498  25.084  1.00  0.00     0.010 A 
ATOM     41  C   UNL A   1      44.107  23.809  26.291  1.00  0.00    -0.014 A 
BRANCH  41  42
ATOM     42  C   UNL A   1      44.360  25.247  26.711  1.00  0.00     0.031 A 
ATOM     43  C   UNL A   1      43.279  25.988  27.193  1.00  0.00     0.074 A 
ATOM     44  C   UNL A   1      45.646  25.744  26.592  1.00  0.00     0.049 A 
ATOM     45  N   UNL A   1      43.288  27.245  27.640  1.00  0.00    -0.248 NA
ATOM     46  C   UNL A   1      41.904  25.474  27.287  1.00  0.00     0.031 C 
ATOM     47  C   UNL A   1      46.744  25.001  26.116  1.00  0.00     0.029 A 
ATOM     48  N   UNL A   1      46.096  27.009  26.901  1.00  0.00    -0.354 N 
ATOM     49  C   UNL A   1      42.065  27.603  28.035  1.00  0.00     0.074 A 
ATOM     50  C   UNL A   1      41.156  26.471  27.808  1.00  0.00     0.031 C 
ATOM     51  C   UNL A   1      47.836  25.808  26.125  1.00  0.00     0.029 A 
ATOM     52  C   UNL A   1      47.441  27.070  26.609  1.00  0.00     0.049 A 
ATOM     53  H   UNL A   1      45.551  27.743  27.266  1.00  0.00     0.167 HD
ATOM     54  C   UNL A   1      41.672  28.827  28.577  1.00  0.00     0.034 A 
ATOM     55  C   UNL A   1      48.292  28.156  26.748  1.00  0.00     0.034 A 
ATOM     56  C   UNL A   1      42.532  29.899  28.757  1.00  0.00     0.049 A 
ATOM     57  C   UNL A   1      47.886  29.401  27.236  1.00  0.00     0.074 A 
ATOM     58  C   UNL A   1      42.155  31.139  29.309  1.00  0.00     0.029 A 
ATOM     59  N   UNL A   1      43.871  29.969  28.442  1.00  0.00    -0.354 N 
ATOM     60  N   UNL A   1      46.671  29.745  27.668  1.00  0.00    -0.248 NA
ATOM     61  C   UNL A   1      48.770  30.567  27.358  1.00  0.00     0.031 C 
ATOM     62  C   UNL A   1      43.247  31.947  29.319  1.00  0.00     0.029 A 
ATOM     63  C   UNL A   1      44.327  31.227  28.772  1.00  0.00     0.049 A 
ATOM     64  H   UNL A   1      44.410  29.244  28.050  1.00  0.00     0.167 HD
ATOM     65  C   UNL A   1      46.673  31.016  28.077  1.00  0.00     0.074 A 
ATOM     66  C   UNL A   1      48.021  31.565  27.876  1.00  0.00     0.031 C 
ATOM     67  C   UNL A   1      45.605  31.738  28.613  1.00  0.00     0.034 A 
BRANCH  54  68
ATOM     68  C   UNL A   1      40.220  28.995  28.994  1.00  0.00     0.023 A 
ATOM     69  C   UNL A   1      39.320  29.395  28.020  1.00  0.00     0.012 A 
ATOM     70  C   UNL A   1      39.837  28.812  30.252  1.00  0.00     0.148 A 
ATOM     71  C   UNL A   1      38.087  29.860  28.534  1.00  0.00     0.002 A 
ATOM     72  C   UNL A   1      38.572  29.163  30.656  1.00  0.00     0.091 A 
ATOM     73  F   UNL A   1      40.685  28.283  31.130  1.00  0.00    -0.205 F 
ATOM     74  C   UNL A   1      37.649  29.622  29.757  1.00  0.00     0.022 A 
BRANCH  72  75
ATOM     75  S   UNL A   1      38.119  29.016  32.402  1.00  0.00     0.127 S 
ATOM     76  O   UNL A   1      38.125  27.541  32.808  1.00  0.00    -0.237 OA
ATOM     77  O   UNL A   1      39.128  29.785  33.258  1.00  0.00    -0.237 OA
ATOM     78  O   UNL A   1      36.556  29.667  32.642  1.00  0.00    -0.744 OA
ENDBRANCH  72  75
ENDBRANCH  54  68
BRANCH  55  79
ATOM     79  C   UNL A   1      49.747  27.982  26.346  1.00  0.00     0.023 A 
ATOM     80  C   UNL A   1      50.737  27.742  27.286  1.00  0.00     0.012 A 
ATOM     81  C   UNL A   1      50.027  28.032  25.050  1.00  0.00     0.148 A 
ATOM     82  C   UNL A   1      52.051  27.855  26.776  1.00  0.00     0.002 A 
ATOM     83  C   UNL A   1      51.329  28.001  24.614  1.00  0.00     0.091 A 
ATOM     84  F   UNL A   1      49.036  28.114  24.165  1.00  0.00    -0.205 F 
ATOM     85  C   UNL A   1      52.361  27.826  25.493  1.00  0.00     0.022 A 
BRANCH  83  86
ATOM     86  S   UNL A   1      51.683  28.195  22.849  1.00  0.00     0.127 S 
ATOM     87  O   UNL A   1      51.199  29.569  22.380  1.00  0.00    -0.237 OA
ATOM     88  O   UNL A   1      53.191  28.079  22.615  1.00  0.00    -0.237 OA
ATOM     89  O   UNL A   1      50.873  26.974  21.966  1.00  0.00    -0.744 OA
ENDBRANCH  83  86
ENDBRANCH  55  79
BRANCH  67  90
ATOM     90  C   UNL A   1      45.859  33.171  29.047  1.00  0.00     0.023 A 
ATOM     91  C   UNL A   1      46.284  33.425  30.341  1.00  0.00     0.012 A 
ATOM     92  C   UNL A   1      45.670  34.158  28.179  1.00  0.00     0.148 A 
ATOM     93  C   UNL A   1      46.205  34.787  30.714  1.00  0.00     0.002 A 
ATOM     94  C   UNL A   1      45.741  35.470  28.583  1.00  0.00     0.091 A 
ATOM     95  F   UNL A   1      45.409  33.875  26.905  1.00  0.00    -0.205 F 
ATOM     96  C   UNL A   1      46.098  35.792  29.863  1.00  0.00     0.022 A 
BRANCH  94  97
ATOM     97  S   UNL A   1      45.358  36.789  27.405  1.00  0.00     0.127 S 
ATOM     98  O   UNL A   1      46.351  36.736  26.241  1.00  0.00    -0.237 OA
ATOM     99  O   UNL A   1      43.936  36.601  26.872  1.00  0.00    -0.237 OA
ATOM    100  O   UNL A   1      45.479  38.305  28.188  1.00  0.00    -0.744 OA
ENDBRANCH  94  97
ENDBRANCH  67  90
ENDBRANCH  41  42
ENDBRANCH  33  36
ENDBRANCH  31  32
ENDBRANCH  30  31
ENDBRANCH   1  30
TORSDOF 18
ENDMDL
MODEL 2
REMARK VINA RESULT:     -12.1      5.737     11.451
REMARK SMILES O=C(NCCCCCCNC(=O)c1ccc(-c2c3nc(c(-c4cccc(S(=O)(=O)[O-])c4F)c4ccc([nH]4)c(-c4cccc(S(=O)(=O)[O-])c4F)c4nc(c(-c5cccc(S(=O)(=O)[O-])c5F)c5ccc2[nH]5)C=C4)C=C3)cc1)C1=Cc2cc(S(F)(F)(F)(F)F)cc(Br)c2O[C@@H]1C(F)(F)F
REMARK SMILES IDX 7 1 6 2 5 3 4 4 3 5 1 6 2 7 76 9 77 10 92 11 78 12 91 13
REMARK SMILES IDX 79 14 90 15 80 16 88 17 87 18 89 19 93 20 94 21 95 22 96 23
REMARK SMILES IDX 81 24 82 25 83 26 84 27 85 28 86 29 8 30 9 31 10 32 11 33
REMARK SMILES IDX 12 35 13 36 14 37 75 38 15 39 74 40 16 41 17 42 18 43 68 44
REMARK SMILES IDX 19 45 73 46 67 47 69 48 20 49 72 50 66 51 65 52 21 54 53 55
REMARK SMILES IDX 33 56 52 57 34 58 37 59 51 60 70 61 35 62 36 63 50 65 71 66
REMARK SMILES IDX 38 67 22 68 23 69 31 70 24 71 26 72 32 73 25 74 27 75 28 76
REMARK SMILES IDX 29 77 30 78 54 79 55 80 63 81 56 82 58 83 64 84 57 85 59 86
REMARK SMILES IDX 60 87 61 88 62 89 39 90 40 91 48 92 41 93 43 94 49 95 42 96
REMARK SMILES IDX 44 97 45 98 46 99 47 100
REMARK H PARENT 3 8 10 34 69 53 37 64
REMARK Flexibility Score: inf
ROOT
ATOM      1  C   UNL A   1      31.887  30.191  25.569  1.00  0.00     0.002 C 
ENDROOT
BRANCH   1   2
ATOM      2  C   UNL A   1      32.954  29.472  26.378  1.00  0.00     0.002 C 
BRANCH   2   3
ATOM      3  C   UNL A   1      33.715  28.516  25.476  1.00  0.00     0.021 C 
BRANCH   3   4
ATOM      4  C   UNL A   1      32.987  28.382  24.149  1.00  0.00     0.116 C 
BRANCH   4   5
ATOM      5  N   UNL A   1      33.772  27.531  23.243  1.00  0.00    -0.352 N 
ATOM      6  O   UNL A   1      33.834  25.609  21.847  1.00  0.00    -0.270 OA
ATOM      7  C   UNL A   1      33.155  26.346  22.631  1.00  0.00     0.251 C 
ATOM      8  H   UNL A   1      34.710  27.754  23.046  1.00  0.00     0.163 HD
BRANCH   7   9
ATOM      9  C   UNL A   1      31.706  26.000  22.933  1.00  0.00     0.067 C 
ATOM     10  C   UNL A   1      31.390  24.779  23.442  1.00  0.00     0.025 C 
ATOM     11  C   UNL A   1      30.610  27.020  22.667  1.00  0.00     0.314 C 
ATOM     12  C   UNL A   1      32.486  23.760  23.707  1.00  0.00     0.020 A 
ATOM     13  O   UNL A   1      33.941  25.488  24.444  1.00  0.00    -0.474 OA
ATOM     14  C   UNL A   1      32.209  22.434  23.418  1.00  0.00     0.036 A 
ATOM     15  C   UNL A   1      33.616  24.112  24.307  1.00  0.00     0.142 A 
ATOM     16  C   UNL A   1      33.067  21.514  24.066  1.00  0.00     0.109 A 
ATOM     17  C   UNL A   1      34.475  23.158  24.797  1.00  0.00     0.062 A 
ATOM     18  C   UNL A   1      34.234  21.827  24.599  1.00  0.00     0.044 A 
ATOM     19  Br  UNL A   1      36.069  23.714  25.793  1.00  0.00    -0.047 Br
BRANCH  11  20
ATOM     20  C   UNL A   1      29.889  27.339  23.967  1.00  0.00     0.429 C 
ATOM     21  F   UNL A   1      29.613  28.639  24.014  1.00  0.00    -0.167 F 
ATOM     22  F   UNL A   1      28.757  26.643  24.027  1.00  0.00    -0.167 F 
ATOM     23  F   UNL A   1      30.665  27.012  24.995  1.00  0.00    -0.167 F 
ENDBRANCH  11  20
BRANCH  16  24
ATOM     24  S   UNL A   1      32.527  19.790  24.172  1.00  0.00     0.310 S 
ATOM     25  F   UNL A   1      34.022  19.260  24.185  1.00  0.00    -0.094 F 
ATOM     26  F   UNL A   1      32.585  19.708  22.600  1.00  0.00    -0.094 F 
ATOM     27  F   UNL A   1      32.066  18.308  24.260  1.00  0.00    -0.094 F 
ATOM     28  F   UNL A   1      32.611  19.849  25.749  1.00  0.00    -0.094 F 
ATOM     29  F   UNL A   1      33.104  21.260  24.101  1.00  0.00    -0.094 F 
ENDBRANCH  16  24
ENDBRANCH   7   9
ENDBRANCH   4   5
ENDBRANCH   3   4
ENDBRANCH   2   3
ENDBRANCH   1   2
BRANCH   1  30
ATOM     30  C   UNL A   1      31.424  31.425  26.327  1.00  0.00     0.021 C 
BRANCH  30  31
ATOM     31  C   UNL A   1      32.625  32.111  26.960  1.00  0.00     0.116 C 
BRANCH  31  32
ATOM     32  N   UNL A   1      32.289  33.512  27.254  1.00  0.00    -0.352 N 
ATOM     33  C   UNL A   1      33.090  34.272  28.224  1.00  0.00     0.251 C 
ATOM     34  H   UNL A   1      31.528  33.942  26.801  1.00  0.00     0.163 HD
ATOM     35  O   UNL A   1      32.800  35.483  28.479  1.00  0.00    -0.269 OA
BRANCH  33  36
ATOM     36  C   UNL A   1      34.265  33.609  28.925  1.00  0.00     0.039 A 
ATOM     37  C   UNL A   1      34.027  32.635  29.880  1.00  0.00     0.014 A 
ATOM     38  C   UNL A   1      35.502  33.976  28.609  1.00  0.00     0.014 A 
ATOM     39  C   UNL A   1      35.160  32.307  30.660  1.00  0.00     0.010 A 
ATOM     40  C   UNL A   1      36.575  33.510  29.330  1.00  0.00     0.010 A 
ATOM     41  C   UNL A   1      36.407  32.590  30.327  1.00  0.00    -0.014 A 
BRANCH  41  42
ATOM     42  C   UNL A   1      37.589  31.928  31.014  1.00  0.00     0.031 A 
ATOM     43  C   UNL A   1      38.207  30.856  30.366  1.00  0.00     0.074 A 
ATOM     44  C   UNL A   1      37.988  32.423  32.243  1.00  0.00     0.049 A 
ATOM     45  N   UNL A   1      39.270  30.161  30.775  1.00  0.00    -0.248 NA
ATOM     46  C   UNL A   1      37.763  30.306  29.077  1.00  0.00     0.031 C 
ATOM     47  C   UNL A   1      37.377  33.509  32.899  1.00  0.00     0.029 A 
ATOM     48  N   UNL A   1      39.019  31.975  33.041  1.00  0.00    -0.354 N 
ATOM     49  C   UNL A   1      39.579  29.223  29.878  1.00  0.00     0.074 A 
ATOM     50  C   UNL A   1      38.611  29.299  28.776  1.00  0.00     0.031 C 
ATOM     51  C   UNL A   1      38.020  33.706  34.079  1.00  0.00     0.029 A 
ATOM     52  C   UNL A   1      39.046  32.746  34.181  1.00  0.00     0.049 A 
ATOM     53  H   UNL A   1      39.629  31.231  32.832  1.00  0.00     0.167 HD
ATOM     54  C   UNL A   1      40.632  28.309  29.935  1.00  0.00     0.034 A 
ATOM     55  C   UNL A   1      39.907  32.634  35.262  1.00  0.00     0.034 A 
ATOM     56  C   UNL A   1      41.520  28.225  30.996  1.00  0.00     0.049 A 
ATOM     57  C   UNL A   1      40.925  31.681  35.346  1.00  0.00     0.074 A 
ATOM     58  C   UNL A   1      42.592  27.314  31.066  1.00  0.00     0.029 A 
ATOM     59  N   UNL A   1      41.533  28.980  32.148  1.00  0.00    -0.354 N 
ATOM     60  N   UNL A   1      41.259  30.769  34.431  1.00  0.00    -0.248 NA
ATOM     61  C   UNL A   1      41.822  31.532  36.499  1.00  0.00     0.031 C 
ATOM     62  C   UNL A   1      43.236  27.510  32.247  1.00  0.00     0.029 A 
ATOM     63  C   UNL A   1      42.577  28.547  32.936  1.00  0.00     0.049 A 
ATOM     64  H   UNL A   1      40.904  29.704  32.370  1.00  0.00     0.167 HD
ATOM     65  C   UNL A   1      42.297  30.047  34.860  1.00  0.00     0.074 A 
ATOM     66  C   UNL A   1      42.669  30.522  36.199  1.00  0.00     0.031 C 
ATOM     67  C   UNL A   1      42.950  29.014  34.186  1.00  0.00     0.034 A 
BRANCH  54  68
ATOM     68  C   UNL A   1      40.815  27.351  28.769  1.00  0.00     0.023 A 
ATOM     69  C   UNL A   1      40.113  26.158  28.809  1.00  0.00     0.012 A 
ATOM     70  C   UNL A   1      41.651  27.625  27.774  1.00  0.00     0.148 A 
ATOM     71  C   UNL A   1      40.582  25.185  27.895  1.00  0.00     0.002 A 
ATOM     72  C   UNL A   1      41.961  26.669  26.838  1.00  0.00     0.091 A 
ATOM     73  F   UNL A   1      42.194  28.836  27.684  1.00  0.00    -0.205 F 
ATOM     74  C   UNL A   1      41.349  25.447  26.852  1.00  0.00     0.022 A 
BRANCH  72  75
ATOM     75  S   UNL A   1      43.197  27.032  25.566  1.00  0.00     0.127 S 
ATOM     76  O   UNL A   1      43.504  25.759  24.775  1.00  0.00    -0.237 OA
ATOM     77  O   UNL A   1      42.653  28.103  24.618  1.00  0.00    -0.237 OA
ATOM     78  O   UNL A   1      44.628  27.602  26.308  1.00  0.00    -0.744 OA
ENDBRANCH  72  75
ENDBRANCH  54  68
BRANCH  55  79
ATOM     79  C   UNL A   1      39.734  33.603  36.420  1.00  0.00     0.023 A 
ATOM     80  C   UNL A   1      40.264  34.882  36.383  1.00  0.00     0.012 A 
ATOM     81  C   UNL A   1      39.019  33.184  37.456  1.00  0.00     0.148 A 
ATOM     82  C   UNL A   1      40.227  35.555  37.627  1.00  0.00     0.002 A 
ATOM     83  C   UNL A   1      38.912  33.954  38.590  1.00  0.00     0.091 A 
ATOM     84  F   UNL A   1      38.398  32.008  37.397  1.00  0.00    -0.205 F 
ATOM     85  C   UNL A   1      39.462  35.204  38.645  1.00  0.00     0.022 A 
BRANCH  83  86
ATOM     86  S   UNL A   1      38.032  33.301  40.031  1.00  0.00     0.127 S 
ATOM     87  O   UNL A   1      37.947  34.384  41.110  1.00  0.00    -0.237 OA
ATOM     88  O   UNL A   1      36.619  32.882  39.619  1.00  0.00    -0.237 OA
ATOM     89  O   UNL A   1      38.872  31.946  40.649  1.00  0.00    -0.744 OA
ENDBRANCH  83  86
ENDBRANCH  55  79
BRANCH  67  90
ATOM     90  C   UNL A   1      44.142  28.361  34.865  1.00  0.00     0.023 A 
ATOM     91  C   UNL A   1      45.393  28.946  34.753  1.00  0.00     0.012 A 
ATOM     92  C   UNL A   1      43.966  27.239  35.553  1.00  0.00     0.148 A 
ATOM     93  C   UNL A   1      46.456  28.109  35.168  1.00  0.00     0.002 A 
ATOM     94  C   UNL A   1      45.043  26.543  36.047  1.00  0.00     0.091 A 
ATOM     95  F   UNL A   1      42.734  26.785  35.768  1.00  0.00    -0.205 F 
ATOM     96  C   UNL A   1      46.313  27.034  35.921  1.00  0.00     0.022 A 
BRANCH  94  97
ATOM     97  S   UNL A   1      44.778  24.957  36.876  1.00  0.00     0.127 S 
ATOM     98  O   UNL A   1      44.136  25.198  38.244  1.00  0.00    -0.237 OA
ATOM     99  O   UNL A   1      43.852  24.085  36.024  1.00  0.00    -0.237 OA
ATOM    100  O   UNL A   1      46.279  24.164  37.082  1.00  0.00    -0.744 OA
ENDBRANCH  94  97
ENDBRANCH  67  90
ENDBRANCH  41  42
ENDBRANCH  33  36
ENDBRANCH  31  32
ENDBRANCH  30  31
ENDBRANCH   1  30
TORSDOF 18
ENDMDL
MODEL 3
REMARK VINA RESULT:     -12.1      5.991     11.606
REMARK SMILES O=C(NCCCCCCNC(=O)c1ccc(-c2c3nc(c(-c4cccc(S(=O)(=O)[O-])c4F)c4ccc([nH]4)c(-c4cccc(S(=O)(=O)[O-])c4F)c4nc(c(-c5cccc(S(=O)(=O)[O-])c5F)c5ccc2[nH]5)C=C4)C=C3)cc1)C1=Cc2cc(S(F)(F)(F)(F)F)cc(Br)c2O[C@@H]1C(F)(F)F
REMARK SMILES IDX 7 1 6 2 5 3 4 4 3 5 1 6 2 7 76 9 77 10 92 11 78 12 91 13
REMARK SMILES IDX 79 14 90 15 80 16 88 17 87 18 89 19 93 20 94 21 95 22 96 23
REMARK SMILES IDX 81 24 82 25 83 26 84 27 85 28 86 29 8 30 9 31 10 32 11 33
REMARK SMILES IDX 12 35 13 36 14 37 75 38 15 39 74 40 16 41 17 42 18 43 68 44
REMARK SMILES IDX 19 45 73 46 67 47 69 48 20 49 72 50 66 51 65 52 21 54 53 55
REMARK SMILES IDX 33 56 52 57 34 58 37 59 51 60 70 61 35 62 36 63 50 65 71 66
REMARK SMILES IDX 38 67 22 68 23 69 31 70 24 71 26 72 32 73 25 74 27 75 28 76
REMARK SMILES IDX 29 77 30 78 54 79 55 80 63 81 56 82 58 83 64 84 57 85 59 86
REMARK SMILES IDX 60 87 61 88 62 89 39 90 40 91 48 92 41 93 43 94 49 95 42 96
REMARK SMILES IDX 44 97 45 98 46 99 47 100
REMARK H PARENT 3 8 10 34 69 53 37 64
REMARK Flexibility Score: inf
ROOT
ATOM      1  C   UNL A   1      35.008  32.284  27.747  1.00  0.00     0.002 C 
ENDROOT
BRANCH   1   2
ATOM      2  C   UNL A   1      34.838  30.790  27.969  1.00  0.00     0.002 C 
BRANCH   2   3
ATOM      3  C   UNL A   1      33.773  30.256  27.026  1.00  0.00     0.021 C 
BRANCH   3   4
ATOM      4  C   UNL A   1      33.922  28.750  26.894  1.00  0.00     0.116 C 
BRANCH   4   5
ATOM      5  N   UNL A   1      32.763  28.087  27.510  1.00  0.00    -0.352 N 
ATOM      6  O   UNL A   1      30.642  27.061  27.204  1.00  0.00    -0.270 OA
ATOM      7  C   UNL A   1      31.644  27.634  26.671  1.00  0.00     0.251 C 
ATOM      8  H   UNL A   1      32.736  27.947  28.484  1.00  0.00     0.163 HD
BRANCH   7   9
ATOM      9  C   UNL A   1      31.685  27.849  25.167  1.00  0.00     0.067 C 
ATOM     10  C   UNL A   1      32.368  26.980  24.374  1.00  0.00     0.025 C 
ATOM     11  C   UNL A   1      30.964  29.036  24.549  1.00  0.00     0.314 C 
ATOM     12  C   UNL A   1      33.090  25.794  24.992  1.00  0.00     0.020 A 
ATOM     13  O   UNL A   1      31.320  25.507  26.553  1.00  0.00    -0.474 OA
ATOM     14  C   UNL A   1      34.322  25.450  24.464  1.00  0.00     0.036 A 
ATOM     15  C   UNL A   1      32.503  25.044  25.918  1.00  0.00     0.142 A 
ATOM     16  C   UNL A   1      34.730  24.130  24.771  1.00  0.00     0.109 A 
ATOM     17  C   UNL A   1      33.031  23.825  26.268  1.00  0.00     0.062 A 
ATOM     18  C   UNL A   1      34.217  23.395  25.740  1.00  0.00     0.044 A 
ATOM     19  Br  UNL A   1      32.070  22.686  27.541  1.00  0.00    -0.047 Br
BRANCH  11  20
ATOM     20  C   UNL A   1      29.917  28.537  23.566  1.00  0.00     0.429 C 
ATOM     21  F   UNL A   1      29.410  27.388  24.003  1.00  0.00    -0.167 F 
ATOM     22  F   UNL A   1      28.946  29.438  23.458  1.00  0.00    -0.167 F 
ATOM     23  F   UNL A   1      30.482  28.349  22.377  1.00  0.00    -0.167 F 
ENDBRANCH  11  20
BRANCH  16  24
ATOM     24  S   UNL A   1      36.046  23.399  23.765  1.00  0.00     0.310 S 
ATOM     25  F   UNL A   1      35.886  21.989  24.473  1.00  0.00    -0.094 F 
ATOM     26  F   UNL A   1      37.076  23.774  24.897  1.00  0.00    -0.094 F 
ATOM     27  F   UNL A   1      37.177  22.771  22.905  1.00  0.00    -0.094 F 
ATOM     28  F   UNL A   1      34.980  22.908  22.708  1.00  0.00    -0.094 F 
ATOM     29  F   UNL A   1      34.871  23.933  24.679  1.00  0.00    -0.094 F 
ENDBRANCH  16  24
ENDBRANCH   7   9
ENDBRANCH   4   5
ENDBRANCH   3   4
ENDBRANCH   2   3
ENDBRANCH   1   2
BRANCH   1  30
ATOM     30  C   UNL A   1      33.665  32.976  27.909  1.00  0.00     0.021 C 
BRANCH  30  31
ATOM     31  C   UNL A   1      33.856  34.482  27.821  1.00  0.00     0.116 C 
BRANCH  31  32
ATOM     32  N   UNL A   1      32.971  35.145  28.789  1.00  0.00    -0.352 N 
ATOM     33  C   UNL A   1      33.272  35.079  30.226  1.00  0.00     0.251 C 
ATOM     34  H   UNL A   1      32.176  35.634  28.475  1.00  0.00     0.163 HD
ATOM     35  O   UNL A   1      32.507  35.652  31.064  1.00  0.00    -0.269 OA
BRANCH  33  36
ATOM     36  C   UNL A   1      34.499  34.323  30.712  1.00  0.00     0.039 A 
ATOM     37  C   UNL A   1      35.759  34.765  30.346  1.00  0.00     0.014 A 
ATOM     38  C   UNL A   1      34.340  33.251  31.479  1.00  0.00     0.014 A 
ATOM     39  C   UNL A   1      36.791  33.833  30.605  1.00  0.00     0.010 A 
ATOM     40  C   UNL A   1      35.415  32.460  31.806  1.00  0.00     0.010 A 
ATOM     41  C   UNL A   1      36.683  32.805  31.428  1.00  0.00    -0.014 A 
BRANCH  41  42
ATOM     42  C   UNL A   1      37.902  32.047  31.927  1.00  0.00     0.031 A 
ATOM     43  C   UNL A   1      38.387  30.998  31.143  1.00  0.00     0.074 A 
ATOM     44  C   UNL A   1      38.464  32.437  33.129  1.00  0.00     0.049 A 
ATOM     45  N   UNL A   1      39.454  30.232  31.378  1.00  0.00    -0.248 NA
ATOM     46  C   UNL A   1      37.771  30.559  29.881  1.00  0.00     0.031 C 
ATOM     47  C   UNL A   1      37.987  33.500  33.922  1.00  0.00     0.029 A 
ATOM     48  N   UNL A   1      39.555  31.891  33.770  1.00  0.00    -0.354 N 
ATOM     49  C   UNL A   1      39.611  29.347  30.392  1.00  0.00     0.074 A 
ATOM     50  C   UNL A   1      38.527  29.541  29.419  1.00  0.00     0.031 C 
ATOM     51  C   UNL A   1      38.770  33.586  35.029  1.00  0.00     0.029 A 
ATOM     52  C   UNL A   1      39.751  32.579  34.947  1.00  0.00     0.049 A 
ATOM     53  H   UNL A   1      40.100  31.139  33.443  1.00  0.00     0.167 HD
ATOM     54  C   UNL A   1      40.617  28.388  30.265  1.00  0.00     0.034 A 
ATOM     55  C   UNL A   1      40.724  32.356  35.909  1.00  0.00     0.034 A 
ATOM     56  C   UNL A   1      41.615  28.193  31.206  1.00  0.00     0.049 A 
ATOM     57  C   UNL A   1      41.696  31.357  35.810  1.00  0.00     0.074 A 
ATOM     58  C   UNL A   1      42.641  27.235  31.090  1.00  0.00     0.029 A 
ATOM     59  N   UNL A   1      41.798  28.864  32.395  1.00  0.00    -0.354 N 
ATOM     60  N   UNL A   1      41.877  30.498  34.805  1.00  0.00    -0.248 NA
ATOM     61  C   UNL A   1      42.712  31.090  36.838  1.00  0.00     0.031 C 
ATOM     62  C   UNL A   1      43.426  27.320  32.197  1.00  0.00     0.029 A 
ATOM     63  C   UNL A   1      42.902  28.333  33.025  1.00  0.00     0.049 A 
ATOM     64  H   UNL A   1      41.236  29.597  32.736  1.00  0.00     0.167 HD
ATOM     65  C   UNL A   1      42.920  29.705  35.061  1.00  0.00     0.074 A 
ATOM     66  C   UNL A   1      43.467  30.069  36.375  1.00  0.00     0.031 C 
ATOM     67  C   UNL A   1      43.439  28.695  34.250  1.00  0.00     0.034 A 
BRANCH  54  68
ATOM     68  C   UNL A   1      40.616  27.507  29.026  1.00  0.00     0.023 A 
ATOM     69  C   UNL A   1      39.820  26.374  29.050  1.00  0.00     0.012 A 
ATOM     70  C   UNL A   1      41.386  27.786  27.980  1.00  0.00     0.148 A 
ATOM     71  C   UNL A   1      40.124  25.438  28.035  1.00  0.00     0.002 A 
ATOM     72  C   UNL A   1      41.531  26.880  26.958  1.00  0.00     0.091 A 
ATOM     73  F   UNL A   1      42.021  28.953  27.921  1.00  0.00    -0.205 F 
ATOM     74  C   UNL A   1      40.819  25.713  26.946  1.00  0.00     0.022 A 
BRANCH  72  75
ATOM     75  S   UNL A   1      42.681  27.236  25.606  1.00  0.00     0.127 S 
ATOM     76  O   UNL A   1      42.787  26.015  24.691  1.00  0.00    -0.237 OA
ATOM     77  O   UNL A   1      42.169  28.433  24.802  1.00  0.00    -0.237 OA
ATOM     78  O   UNL A   1      44.222  27.601  26.250  1.00  0.00    -0.744 OA
ENDBRANCH  72  75
ENDBRANCH  54  68
BRANCH  55  79
ATOM     79  C   UNL A   1      40.734  33.248  37.140  1.00  0.00     0.023 A 
ATOM     80  C   UNL A   1      41.568  34.350  37.232  1.00  0.00     0.012 A 
ATOM     81  C   UNL A   1      39.880  32.947  38.110  1.00  0.00     0.148 A 
ATOM     82  C   UNL A   1      41.630  34.915  38.527  1.00  0.00     0.002 A 
ATOM     83  C   UNL A   1      39.906  33.631  39.301  1.00  0.00     0.091 A 
ATOM     84  F   UNL A   1      38.990  31.975  37.927  1.00  0.00    -0.205 F 
ATOM     85  C   UNL A   1      40.746  34.694  39.484  1.00  0.00     0.022 A 
BRANCH  83  86
ATOM     86  S   UNL A   1      38.812  33.117  40.649  1.00  0.00     0.127 S 
ATOM     87  O   UNL A   1      37.355  33.213  40.187  1.00  0.00    -0.237 OA
ATOM     88  O   UNL A   1      39.129  31.672  41.039  1.00  0.00    -0.237 OA
ATOM     89  O   UNL A   1      39.050  34.138  42.000  1.00  0.00    -0.744 OA
ENDBRANCH  83  86
ENDBRANCH  55  79
BRANCH  67  90
ATOM     90  C   UNL A   1      44.667  27.947  34.739  1.00  0.00     0.023 A 
ATOM     91  C   UNL A   1      45.928  28.443  34.449  1.00  0.00     0.012 A 
ATOM     92  C   UNL A   1      44.513  26.828  35.437  1.00  0.00     0.148 A 
ATOM     93  C   UNL A   1      46.976  27.526  34.695  1.00  0.00     0.002 A 
ATOM     94  C   UNL A   1      45.597  26.048  35.761  1.00  0.00     0.091 A 
ATOM     95  F   UNL A   1      43.296  26.458  35.829  1.00  0.00    -0.205 F 
ATOM     96  C   UNL A   1      46.868  26.450  35.453  1.00  0.00     0.022 A 
BRANCH  94  97
ATOM     97  S   UNL A   1      45.341  24.469  36.607  1.00  0.00     0.127 S 
ATOM     98  O   UNL A   1      46.676  23.727  36.715  1.00  0.00    -0.237 OA
ATOM     99  O   UNL A   1      44.785  24.726  38.009  1.00  0.00    -0.237 OA
ATOM    100  O   UNL A   1      44.231  23.520  35.718  1.00  0.00    -0.744 OA
ENDBRANCH  94  97
ENDBRANCH  67  90
ENDBRANCH  41  42
ENDBRANCH  33  36
ENDBRANCH  31  32
ENDBRANCH  30  31
ENDBRANCH   1  30
TORSDOF 18
ENDMDL
