MODEL 1
REMARK VINA RESULT:     -12.5      0.000      0.000
REMARK SMILES C[NH+]1CCC2(CC1)OC[C@H](C(=O)NCCCCCCNC(=O)c1ccc(-c3c4nc(c(-c5cccc(S(=O)(=O)[O-])c5F)c5ccc([nH]5)c(-c5cccc(S(=O)(=O)[O-])c5F)c5nc(c(-c6cccc(S(=O)(=O)[O-])c6F)c6ccc3[nH]6)C=C5)C=C4)cc1)N2C(=O)c1cc(C(F)(F)F)cc(C(F)(F)F)c1
REMARK SMILES IDX 16 1 15 2 14 3 13 4 11 5 12 6 10 8 1 9 2 10 3 11 7 12 4 14
REMARK SMILES IDX 6 15 5 16 8 17 86 18 9 19 87 20 88 21 89 22 90 23 102 24
REMARK SMILES IDX 91 25 97 26 96 27 92 28 93 29 94 30 95 31 98 32 99 33 100 34
REMARK SMILES IDX 101 35 17 36 18 37 19 38 20 39 21 40 22 42 23 43 24 44 85 45
REMARK SMILES IDX 25 46 84 47 26 48 27 49 28 50 78 51 29 52 83 53 77 54 79 55
REMARK SMILES IDX 30 56 82 57 76 58 75 59 31 61 63 62 43 63 62 64 44 65 47 66
REMARK SMILES IDX 61 67 80 68 45 69 46 70 60 72 81 73 48 74 32 75 33 76 41 77
REMARK SMILES IDX 34 78 36 79 42 80 35 81 37 82 38 83 39 84 40 85 64 86 65 87
REMARK SMILES IDX 73 88 66 89 68 90 74 91 67 92 69 93 70 94 71 95 72 96 49 97
REMARK SMILES IDX 50 98 58 99 51 100 53 101 59 102 52 103 54 104 55 105 56 106
REMARK SMILES IDX 57 107
REMARK H PARENT 13 7 2 13 20 41 79 60 47 71
REMARK Flexibility Score: inf
ROOT
ATOM      1  C   UNL A   1      35.066  20.261  25.076  1.00  0.00     0.002 C 
ENDROOT
BRANCH   1   2
ATOM      2  C   UNL A   1      33.652  20.228  25.659  1.00  0.00     0.021 C 
BRANCH   2   3
ATOM      3  C   UNL A   1      32.644  21.116  24.941  1.00  0.00     0.116 C 
BRANCH   3   4
ATOM      4  N   UNL A   1      31.477  21.440  25.751  1.00  0.00    -0.354 N 
ATOM      5  C   UNL A   1      31.048  22.571  26.383  1.00  0.00     0.245 C 
ATOM      6  O   UNL A   1      29.858  22.537  26.731  1.00  0.00    -0.273 OA
ATOM      7  H   UNL A   1      30.866  20.677  25.869  1.00  0.00     0.163 HD
BRANCH   5   8
ATOM      8  C   UNL A   1      31.872  23.874  26.603  1.00  0.00     0.203 C 
ATOM      9  C   UNL A   1      32.715  25.584  20.539  1.00  0.00     0.332 C 
ATOM     10  N   UNL A   1      32.026  25.828  21.802  1.00  0.00    -0.337 N 
ATOM     11  C   UNL A   1      31.387  24.625  22.310  1.00  0.00     0.267 C 
ATOM     12  C   UNL A   1      32.824  26.617  22.738  1.00  0.00     0.267 C 
ATOM     13  H   UNL A   1      31.235  26.451  21.631  1.00  0.00     0.347 HD
ATOM     14  C   UNL A   1      32.155  23.876  23.370  1.00  0.00     0.120 C 
ATOM     15  C   UNL A   1      33.406  25.947  23.978  1.00  0.00     0.120 C 
ATOM     16  C   UNL A   1      32.635  24.752  24.529  1.00  0.00     0.155 C 
ATOM     17  O   UNL A   1      33.696  23.969  25.187  1.00  0.00    -0.352 OA
ATOM     18  N   UNL A   1      31.637  24.919  25.606  1.00  0.00    -0.295 N 
ATOM     19  C   UNL A   1      33.363  23.779  26.570  1.00  0.00     0.198 C 
BRANCH  18  20
ATOM     20  C   UNL A   1      30.685  25.883  25.913  1.00  0.00     0.256 C 
ATOM     21  O   UNL A   1      29.678  25.647  26.580  1.00  0.00    -0.269 OA
BRANCH  20  22
ATOM     22  C   UNL A   1      30.855  27.293  25.540  1.00  0.00     0.041 A 
ATOM     23  C   UNL A   1      31.677  28.122  26.315  1.00  0.00     0.027 A 
ATOM     24  C   UNL A   1      30.121  27.829  24.484  1.00  0.00     0.027 A 
ATOM     25  C   UNL A   1      31.862  29.469  25.955  1.00  0.00     0.057 A 
ATOM     26  C   UNL A   1      30.385  29.129  24.032  1.00  0.00     0.057 A 
ATOM     27  C   UNL A   1      31.240  29.950  24.788  1.00  0.00     0.026 A 
BRANCH  25  28
ATOM     28  C   UNL A   1      32.731  30.370  26.800  1.00  0.00     0.416 C 
ATOM     29  F   UNL A   1      33.006  29.828  28.018  1.00  0.00    -0.166 F 
ATOM     30  F   UNL A   1      33.936  30.628  26.223  1.00  0.00    -0.166 F 
ATOM     31  F   UNL A   1      32.168  31.584  27.054  1.00  0.00    -0.166 F 
ENDBRANCH  25  28
BRANCH  26  32
ATOM     32  C   UNL A   1      29.844  29.608  22.703  1.00  0.00     0.416 C 
ATOM     33  F   UNL A   1      29.106  28.652  22.073  1.00  0.00    -0.166 F 
ATOM     34  F   UNL A   1      29.020  30.683  22.834  1.00  0.00    -0.166 F 
ATOM     35  F   UNL A   1      30.812  29.976  21.818  1.00  0.00    -0.166 F 
ENDBRANCH  26  32
ENDBRANCH  20  22
ENDBRANCH  18  20
ENDBRANCH   5   8
ENDBRANCH   3   4
ENDBRANCH   2   3
ENDBRANCH   1   2
BRANCH   1  36
ATOM     36  C   UNL A   1      35.361  21.405  24.097  1.00  0.00     0.002 C 
BRANCH  36  37
ATOM     37  C   UNL A   1      36.599  22.253  24.402  1.00  0.00     0.021 C 
BRANCH  37  38
ATOM     38  C   UNL A   1      37.074  22.219  25.852  1.00  0.00     0.116 C 
BRANCH  38  39
ATOM     39  N   UNL A   1      38.154  21.268  26.055  1.00  0.00    -0.352 N 
ATOM     40  C   UNL A   1      39.468  21.490  26.390  1.00  0.00     0.251 C 
ATOM     41  H   UNL A   1      37.908  20.323  25.936  1.00  0.00     0.163 HD
ATOM     42  O   UNL A   1      40.275  20.568  26.332  1.00  0.00    -0.269 OA
BRANCH  40  43
ATOM     43  C   UNL A   1      39.912  22.839  26.805  1.00  0.00     0.039 A 
ATOM     44  C   UNL A   1      40.811  22.954  27.868  1.00  0.00     0.014 A 
ATOM     45  C   UNL A   1      39.430  23.985  26.166  1.00  0.00     0.014 A 
ATOM     46  C   UNL A   1      41.272  24.215  28.254  1.00  0.00     0.010 A 
ATOM     47  C   UNL A   1      39.942  25.235  26.507  1.00  0.00     0.010 A 
ATOM     48  C   UNL A   1      40.864  25.364  27.556  1.00  0.00    -0.014 A 
BRANCH  48  49
ATOM     49  C   UNL A   1      41.406  26.705  27.896  1.00  0.00     0.031 A 
ATOM     50  C   UNL A   1      42.826  27.063  27.550  1.00  0.00     0.074 A 
ATOM     51  C   UNL A   1      40.646  27.568  28.599  1.00  0.00     0.049 A 
ATOM     52  N   UNL A   1      43.490  28.157  27.823  1.00  0.00    -0.248 NA
ATOM     53  C   UNL A   1      43.611  26.051  26.824  1.00  0.00     0.031 C 
ATOM     54  C   UNL A   1      39.279  27.309  29.059  1.00  0.00     0.029 A 
ATOM     55  N   UNL A   1      40.921  28.825  29.074  1.00  0.00    -0.354 N 
ATOM     56  C   UNL A   1      44.775  27.953  27.336  1.00  0.00     0.074 A 
ATOM     57  C   UNL A   1      44.808  26.618  26.778  1.00  0.00     0.031 C 
ATOM     58  C   UNL A   1      38.838  28.372  29.749  1.00  0.00     0.029 A 
ATOM     59  C   UNL A   1      39.897  29.373  29.810  1.00  0.00     0.049 A 
ATOM     60  H   UNL A   1      41.772  29.291  28.904  1.00  0.00     0.167 HD
ATOM     61  C   UNL A   1      45.826  28.808  27.330  1.00  0.00     0.034 A 
ATOM     62  C   UNL A   1      39.823  30.545  30.472  1.00  0.00     0.034 A 
ATOM     63  C   UNL A   1      45.779  30.147  27.854  1.00  0.00     0.049 A 
ATOM     64  C   UNL A   1      40.994  31.488  30.424  1.00  0.00     0.074 A 
ATOM     65  C   UNL A   1      46.761  31.121  27.815  1.00  0.00     0.029 A 
ATOM     66  N   UNL A   1      44.696  30.698  28.522  1.00  0.00    -0.354 N 
ATOM     67  N   UNL A   1      42.148  31.340  29.819  1.00  0.00    -0.248 NA
ATOM     68  C   UNL A   1      40.841  32.774  31.119  1.00  0.00     0.031 C 
ATOM     69  C   UNL A   1      46.284  32.251  28.486  1.00  0.00     0.029 A 
ATOM     70  C   UNL A   1      44.991  31.993  28.913  1.00  0.00     0.049 A 
ATOM     71  H   UNL A   1      43.843  30.237  28.692  1.00  0.00     0.167 HD
ATOM     72  C   UNL A   1      42.844  32.524  30.031  1.00  0.00     0.074 A 
ATOM     73  C   UNL A   1      41.972  33.388  30.800  1.00  0.00     0.031 C 
ATOM     74  C   UNL A   1      44.098  32.860  29.637  1.00  0.00     0.034 A 
BRANCH  61  75
ATOM     75  C   UNL A   1      47.110  28.336  26.696  1.00  0.00     0.023 A 
ATOM     76  C   UNL A   1      48.186  27.937  27.517  1.00  0.00     0.012 A 
ATOM     77  C   UNL A   1      47.232  28.227  25.298  1.00  0.00     0.148 A 
ATOM     78  C   UNL A   1      49.375  27.473  26.955  1.00  0.00     0.002 A 
ATOM     79  C   UNL A   1      48.404  27.720  24.746  1.00  0.00     0.091 A 
ATOM     80  F   UNL A   1      46.207  28.629  24.533  1.00  0.00    -0.205 F 
ATOM     81  C   UNL A   1      49.480  27.355  25.572  1.00  0.00     0.022 A 
BRANCH  79  82
ATOM     82  S   UNL A   1      48.609  27.452  22.981  1.00  0.00     0.127 S 
ATOM     83  O   UNL A   1      47.491  28.222  22.436  1.00  0.00    -0.237 OA
ATOM     84  O   UNL A   1      49.928  28.034  22.733  1.00  0.00    -0.237 OA
ATOM     85  O   UNL A   1      48.531  26.012  22.782  1.00  0.00    -0.744 OA
ENDBRANCH  79  82
ENDBRANCH  61  75
BRANCH  62  86
ATOM     86  C   UNL A   1      38.570  30.916  31.191  1.00  0.00     0.023 A 
ATOM     87  C   UNL A   1      38.456  30.646  32.569  1.00  0.00     0.012 A 
ATOM     88  C   UNL A   1      37.507  31.557  30.527  1.00  0.00     0.148 A 
ATOM     89  C   UNL A   1      37.294  30.977  33.264  1.00  0.00     0.002 A 
ATOM     90  C   UNL A   1      36.374  31.936  31.238  1.00  0.00     0.091 A 
ATOM     91  F   UNL A   1      37.630  31.796  29.214  1.00  0.00    -0.205 F 
ATOM     92  C   UNL A   1      36.257  31.632  32.603  1.00  0.00     0.022 A 
BRANCH  90  93
ATOM     93  S   UNL A   1      35.052  32.902  30.498  1.00  0.00     0.127 S 
ATOM     94  O   UNL A   1      34.622  32.032  29.407  1.00  0.00    -0.237 OA
ATOM     95  O   UNL A   1      34.104  33.016  31.607  1.00  0.00    -0.237 OA
ATOM     96  O   UNL A   1      35.660  34.164  30.099  1.00  0.00    -0.744 OA
ENDBRANCH  90  93
ENDBRANCH  62  86
BRANCH  74  97
ATOM     97  C   UNL A   1      44.598  34.235  30.000  1.00  0.00     0.023 A 
ATOM     98  C   UNL A   1      45.414  34.409  31.136  1.00  0.00     0.012 A 
ATOM     99  C   UNL A   1      44.317  35.342  29.174  1.00  0.00     0.148 A 
ATOM    100  C   UNL A   1      45.913  35.669  31.462  1.00  0.00     0.002 A 
ATOM    101  C   UNL A   1      44.859  36.585  29.477  1.00  0.00     0.091 A 
ATOM    102  F   UNL A   1      43.523  35.159  28.108  1.00  0.00    -0.205 F 
ATOM    103  C   UNL A   1      45.647  36.753  30.628  1.00  0.00     0.022 A 
BRANCH 101 104
ATOM    104  S   UNL A   1      44.651  38.015  28.410  1.00  0.00     0.127 S 
ATOM    105  O   UNL A   1      43.332  38.497  28.814  1.00  0.00    -0.237 OA
ATOM    106  O   UNL A   1      45.766  38.870  28.819  1.00  0.00    -0.237 OA
ATOM    107  O   UNL A   1      44.742  37.513  27.045  1.00  0.00    -0.744 OA
ENDBRANCH 101 104
ENDBRANCH  74  97
ENDBRANCH  48  49
ENDBRANCH  40  43
ENDBRANCH  38  39
ENDBRANCH  37  38
ENDBRANCH  36  37
ENDBRANCH   1  36
TORSDOF 20
ENDMDL
MODEL 2
REMARK VINA RESULT:     -12.3      1.224      2.281
REMARK SMILES C[NH+]1CCC2(CC1)OC[C@H](C(=O)NCCCCCCNC(=O)c1ccc(-c3c4nc(c(-c5cccc(S(=O)(=O)[O-])c5F)c5ccc([nH]5)c(-c5cccc(S(=O)(=O)[O-])c5F)c5nc(c(-c6cccc(S(=O)(=O)[O-])c6F)c6ccc3[nH]6)C=C5)C=C4)cc1)N2C(=O)c1cc(C(F)(F)F)cc(C(F)(F)F)c1
REMARK SMILES IDX 16 1 15 2 14 3 13 4 11 5 12 6 10 8 1 9 2 10 3 11 7 12 4 14
REMARK SMILES IDX 6 15 5 16 8 17 86 18 9 19 87 20 88 21 89 22 90 23 102 24
REMARK SMILES IDX 91 25 97 26 96 27 92 28 93 29 94 30 95 31 98 32 99 33 100 34
REMARK SMILES IDX 101 35 17 36 18 37 19 38 20 39 21 40 22 42 23 43 24 44 85 45
REMARK SMILES IDX 25 46 84 47 26 48 27 49 28 50 78 51 29 52 83 53 77 54 79 55
REMARK SMILES IDX 30 56 82 57 76 58 75 59 31 61 63 62 43 63 62 64 44 65 47 66
REMARK SMILES IDX 61 67 80 68 45 69 46 70 60 72 81 73 48 74 32 75 33 76 41 77
REMARK SMILES IDX 34 78 36 79 42 80 35 81 37 82 38 83 39 84 40 85 64 86 65 87
REMARK SMILES IDX 73 88 66 89 68 90 74 91 67 92 69 93 70 94 71 95 72 96 49 97
REMARK SMILES IDX 50 98 58 99 51 100 53 101 59 102 52 103 54 104 55 105 56 106
REMARK SMILES IDX 57 107
REMARK H PARENT 13 7 2 13 20 41 79 60 47 71
REMARK Flexibility Score: inf
ROOT
ATOM      1  C   UNL A   1      35.207  20.341  25.019  1.00  0.00     0.002 C 
ENDROOT
BRANCH   1   2
ATOM      2  C   UNL A   1      33.749  20.152  25.442  1.00  0.00     0.021 C 
BRANCH   2   3
ATOM      3  C   UNL A   1      32.760  21.091  24.764  1.00  0.00     0.116 C 
BRANCH   3   4
ATOM      4  N   UNL A   1      31.588  21.386  25.577  1.00  0.00    -0.354 N 
ATOM      5  C   UNL A   1      31.148  22.498  26.235  1.00  0.00     0.245 C 
ATOM      6  O   UNL A   1      29.958  22.445  26.579  1.00  0.00    -0.273 OA
ATOM      7  H   UNL A   1      30.984  20.615  25.675  1.00  0.00     0.163 HD
BRANCH   5   8
ATOM      8  C   UNL A   1      31.960  23.802  26.489  1.00  0.00     0.203 C 
ATOM      9  C   UNL A   1      32.825  25.654  20.470  1.00  0.00     0.332 C 
ATOM     10  N   UNL A   1      32.126  25.864  21.734  1.00  0.00    -0.337 N 
ATOM     11  C   UNL A   1      31.494  24.645  22.211  1.00  0.00     0.267 C 
ATOM     12  C   UNL A   1      32.912  26.638  22.693  1.00  0.00     0.267 C 
ATOM     13  H   UNL A   1      31.331  26.484  21.572  1.00  0.00     0.347 HD
ATOM     14  C   UNL A   1      32.262  23.878  23.259  1.00  0.00     0.120 C 
ATOM     15  C   UNL A   1      33.492  25.945  23.921  1.00  0.00     0.120 C 
ATOM     16  C   UNL A   1      32.728  24.732  24.440  1.00  0.00     0.155 C 
ATOM     17  O   UNL A   1      33.792  23.943  25.087  1.00  0.00    -0.352 OA
ATOM     18  N   UNL A   1      31.723  24.867  25.515  1.00  0.00    -0.295 N 
ATOM     19  C   UNL A   1      33.452  23.720  26.463  1.00  0.00     0.198 C 
BRANCH  18  20
ATOM     20  C   UNL A   1      30.761  25.816  25.838  1.00  0.00     0.256 C 
ATOM     21  O   UNL A   1      29.782  25.571  26.541  1.00  0.00    -0.269 OA
BRANCH  20  22
ATOM     22  C   UNL A   1      30.890  27.223  25.437  1.00  0.00     0.041 A 
ATOM     23  C   UNL A   1      30.216  27.686  24.299  1.00  0.00     0.027 A 
ATOM     24  C   UNL A   1      31.760  28.067  26.123  1.00  0.00     0.027 A 
ATOM     25  C   UNL A   1      30.316  29.036  23.918  1.00  0.00     0.057 A 
ATOM     26  C   UNL A   1      31.780  29.440  25.840  1.00  0.00     0.057 A 
ATOM     27  C   UNL A   1      31.071  29.911  24.720  1.00  0.00     0.026 A 
BRANCH  25  28
ATOM     28  C   UNL A   1      29.607  29.532  22.681  1.00  0.00     0.416 C 
ATOM     29  F   UNL A   1      29.352  30.869  22.734  1.00  0.00    -0.166 F 
ATOM     30  F   UNL A   1      30.329  29.332  21.546  1.00  0.00    -0.166 F 
ATOM     31  F   UNL A   1      28.401  28.934  22.469  1.00  0.00    -0.166 F 
ENDBRANCH  25  28
BRANCH  26  32
ATOM     32  C   UNL A   1      32.462  30.411  26.777  1.00  0.00     0.416 C 
ATOM     33  F   UNL A   1      32.770  29.841  27.975  1.00  0.00    -0.166 F 
ATOM     34  F   UNL A   1      33.638  30.878  26.277  1.00  0.00    -0.166 F 
ATOM     35  F   UNL A   1      31.711  31.510  27.069  1.00  0.00    -0.166 F 
ENDBRANCH  26  32
ENDBRANCH  20  22
ENDBRANCH  18  20
ENDBRANCH   5   8
ENDBRANCH   3   4
ENDBRANCH   2   3
ENDBRANCH   1   2
BRANCH   1  36
ATOM     36  C   UNL A   1      35.498  21.567  24.144  1.00  0.00     0.002 C 
BRANCH  36  37
ATOM     37  C   UNL A   1      36.858  22.240  24.354  1.00  0.00     0.021 C 
BRANCH  37  38
ATOM     38  C   UNL A   1      37.324  22.334  25.804  1.00  0.00     0.116 C 
BRANCH  38  39
ATOM     39  N   UNL A   1      38.397  21.399  26.100  1.00  0.00    -0.352 N 
ATOM     40  C   UNL A   1      39.687  21.642  26.504  1.00  0.00     0.251 C 
ATOM     41  H   UNL A   1      38.164  20.448  25.994  1.00  0.00     0.163 HD
ATOM     42  O   UNL A   1      40.502  20.726  26.522  1.00  0.00    -0.269 OA
BRANCH  40  43
ATOM     43  C   UNL A   1      40.096  23.006  26.904  1.00  0.00     0.039 A 
ATOM     44  C   UNL A   1      40.924  23.162  28.019  1.00  0.00     0.014 A 
ATOM     45  C   UNL A   1      39.651  24.128  26.199  1.00  0.00     0.014 A 
ATOM     46  C   UNL A   1      41.351  24.437  28.393  1.00  0.00     0.010 A 
ATOM     47  C   UNL A   1      40.133  25.392  26.532  1.00  0.00     0.010 A 
ATOM     48  C   UNL A   1      40.984  25.561  27.634  1.00  0.00    -0.014 A 
BRANCH  48  49
ATOM     49  C   UNL A   1      41.496  26.916  27.965  1.00  0.00     0.031 A 
ATOM     50  C   UNL A   1      42.928  27.279  27.683  1.00  0.00     0.074 A 
ATOM     51  C   UNL A   1      40.692  27.789  28.604  1.00  0.00     0.049 A 
ATOM     52  N   UNL A   1      43.567  28.387  27.959  1.00  0.00    -0.248 NA
ATOM     53  C   UNL A   1      43.759  26.257  27.025  1.00  0.00     0.031 C 
ATOM     54  C   UNL A   1      39.307  27.528  29.001  1.00  0.00     0.029 A 
ATOM     55  N   UNL A   1      40.932  29.062  29.060  1.00  0.00    -0.354 N 
ATOM     56  C   UNL A   1      44.878  28.183  27.545  1.00  0.00     0.074 A 
ATOM     57  C   UNL A   1      44.951  26.835  27.026  1.00  0.00     0.031 C 
ATOM     58  C   UNL A   1      38.821  28.604  29.639  1.00  0.00     0.029 A 
ATOM     59  C   UNL A   1      39.867  29.618  29.728  1.00  0.00     0.049 A 
ATOM     60  H   UNL A   1      41.786  29.531  28.921  1.00  0.00     0.167 HD
ATOM     61  C   UNL A   1      45.920  29.049  27.570  1.00  0.00     0.034 A 
ATOM     62  C   UNL A   1      39.748  30.806  30.353  1.00  0.00     0.034 A 
ATOM     63  C   UNL A   1      45.834  30.400  28.055  1.00  0.00     0.049 A 
ATOM     64  C   UNL A   1      40.912  31.760  30.339  1.00  0.00     0.074 A 
ATOM     65  C   UNL A   1      46.808  31.383  28.040  1.00  0.00     0.029 A 
ATOM     66  N   UNL A   1      44.714  30.958  28.651  1.00  0.00    -0.354 N 
ATOM     67  N   UNL A   1      42.096  31.607  29.799  1.00  0.00    -0.248 NA
ATOM     68  C   UNL A   1      40.711  33.061  30.991  1.00  0.00     0.031 C 
ATOM     69  C   UNL A   1      46.287  32.526  28.655  1.00  0.00     0.029 A 
ATOM     70  C   UNL A   1      44.976  32.266  29.022  1.00  0.00     0.049 A 
ATOM     71  H   UNL A   1      43.857  30.492  28.790  1.00  0.00     0.167 HD
ATOM     72  C   UNL A   1      42.770  32.804  30.015  1.00  0.00     0.074 A 
ATOM     73  C   UNL A   1      41.852  33.679  30.714  1.00  0.00     0.031 C 
ATOM     74  C   UNL A   1      44.039  33.143  29.676  1.00  0.00     0.034 A 
BRANCH  61  75
ATOM     75  C   UNL A   1      47.239  28.574  27.016  1.00  0.00     0.023 A 
ATOM     76  C   UNL A   1      48.336  28.396  27.884  1.00  0.00     0.012 A 
ATOM     77  C   UNL A   1      47.377  28.244  25.654  1.00  0.00     0.148 A 
ATOM     78  C   UNL A   1      49.560  27.934  27.401  1.00  0.00     0.002 A 
ATOM     79  C   UNL A   1      48.587  27.740  25.187  1.00  0.00     0.091 A 
ATOM     80  F   UNL A   1      46.331  28.438  24.839  1.00  0.00    -0.205 F 
ATOM     81  C   UNL A   1      49.681  27.596  26.055  1.00  0.00     0.022 A 
BRANCH  79  82
ATOM     82  S   UNL A   1      48.822  27.200  23.489  1.00  0.00     0.127 S 
ATOM     83  O   UNL A   1      50.259  26.926  23.465  1.00  0.00    -0.237 OA
ATOM     84  O   UNL A   1      47.973  26.010  23.425  1.00  0.00    -0.237 OA
ATOM     85  O   UNL A   1      48.383  28.306  22.651  1.00  0.00    -0.744 OA
ENDBRANCH  79  82
ENDBRANCH  61  75
BRANCH  62  86
ATOM     86  C   UNL A   1      38.457  31.182  30.997  1.00  0.00     0.023 A 
ATOM     87  C   UNL A   1      38.267  30.930  32.369  1.00  0.00     0.012 A 
ATOM     88  C   UNL A   1      37.431  31.813  30.267  1.00  0.00     0.148 A 
ATOM     89  C   UNL A   1      37.067  31.267  32.995  1.00  0.00     0.002 A 
ATOM     90  C   UNL A   1      36.260  32.198  30.909  1.00  0.00     0.091 A 
ATOM     91  F   UNL A   1      37.626  32.035  28.959  1.00  0.00    -0.205 F 
ATOM     92  C   UNL A   1      36.068  31.910  32.269  1.00  0.00     0.022 A 
BRANCH  90  93
ATOM     93  S   UNL A   1      34.979  33.151  30.085  1.00  0.00     0.127 S 
ATOM     94  O   UNL A   1      34.369  32.145  29.219  1.00  0.00    -0.237 OA
ATOM     95  O   UNL A   1      34.149  33.580  31.211  1.00  0.00    -0.237 OA
ATOM     96  O   UNL A   1      35.671  34.237  29.404  1.00  0.00    -0.744 OA
ENDBRANCH  90  93
ENDBRANCH  62  86
BRANCH  74  97
ATOM     97  C   UNL A   1      44.507  34.531  30.028  1.00  0.00     0.023 A 
ATOM     98  C   UNL A   1      44.311  35.590  29.119  1.00  0.00     0.012 A 
ATOM     99  C   UNL A   1      45.078  34.799  31.288  1.00  0.00     0.148 A 
ATOM    100  C   UNL A   1      44.707  36.886  29.446  1.00  0.00     0.002 A 
ATOM    101  C   UNL A   1      45.423  36.102  31.627  1.00  0.00     0.091 A 
ATOM    102  F   UNL A   1      45.274  33.775  32.132  1.00  0.00    -0.205 F 
ATOM    103  C   UNL A   1      45.250  37.145  30.702  1.00  0.00     0.022 A 
BRANCH 101 104
ATOM    104  S   UNL A   1      46.038  36.544  33.256  1.00  0.00     0.127 S 
ATOM    105  O   UNL A   1      46.629  37.857  33.003  1.00  0.00    -0.237 OA
ATOM    106  O   UNL A   1      44.812  36.570  34.053  1.00  0.00    -0.237 OA
ATOM    107  O   UNL A   1      46.979  35.496  33.627  1.00  0.00    -0.744 OA
ENDBRANCH 101 104
ENDBRANCH  74  97
ENDBRANCH  48  49
ENDBRANCH  40  43
ENDBRANCH  38  39
ENDBRANCH  37  38
ENDBRANCH  36  37
ENDBRANCH   1  36
TORSDOF 20
ENDMDL
MODEL 3
REMARK VINA RESULT:     -12.2      1.884      2.937
REMARK SMILES C[NH+]1CCC2(CC1)OC[C@H](C(=O)NCCCCCCNC(=O)c1ccc(-c3c4nc(c(-c5cccc(S(=O)(=O)[O-])c5F)c5ccc([nH]5)c(-c5cccc(S(=O)(=O)[O-])c5F)c5nc(c(-c6cccc(S(=O)(=O)[O-])c6F)c6ccc3[nH]6)C=C5)C=C4)cc1)N2C(=O)c1cc(C(F)(F)F)cc(C(F)(F)F)c1
REMARK SMILES IDX 16 1 15 2 14 3 13 4 11 5 12 6 10 8 1 9 2 10 3 11 7 12 4 14
REMARK SMILES IDX 6 15 5 16 8 17 86 18 9 19 87 20 88 21 89 22 90 23 102 24
REMARK SMILES IDX 91 25 97 26 96 27 92 28 93 29 94 30 95 31 98 32 99 33 100 34
REMARK SMILES IDX 101 35 17 36 18 37 19 38 20 39 21 40 22 42 23 43 24 44 85 45
REMARK SMILES IDX 25 46 84 47 26 48 27 49 28 50 78 51 29 52 83 53 77 54 79 55
REMARK SMILES IDX 30 56 82 57 76 58 75 59 31 61 63 62 43 63 62 64 44 65 47 66
REMARK SMILES IDX 61 67 80 68 45 69 46 70 60 72 81 73 48 74 32 75 33 76 41 77
REMARK SMILES IDX 34 78 36 79 42 80 35 81 37 82 38 83 39 84 40 85 64 86 65 87
REMARK SMILES IDX 73 88 66 89 68 90 74 91 67 92 69 93 70 94 71 95 72 96 49 97
REMARK SMILES IDX 50 98 58 99 51 100 53 101 59 102 52 103 54 104 55 105 56 106
REMARK SMILES IDX 57 107
REMARK H PARENT 13 7 2 13 20 41 79 60 47 71
REMARK Flexibility Score: inf
ROOT
ATOM      1  C   UNL A   1      34.992  21.014  24.648  1.00  0.00     0.002 C 
ENDROOT
BRANCH   1   2
ATOM      2  C   UNL A   1      33.482  21.055  24.887  1.00  0.00     0.021 C 
BRANCH   2   3
ATOM      3  C   UNL A   1      32.705  21.931  23.914  1.00  0.00     0.116 C 
BRANCH   3   4
ATOM      4  N   UNL A   1      31.639  22.697  24.548  1.00  0.00    -0.354 N 
ATOM      5  C   UNL A   1      31.512  23.999  24.937  1.00  0.00     0.245 C 
ATOM      6  O   UNL A   1      30.346  24.345  25.176  1.00  0.00    -0.273 OA
ATOM      7  H   UNL A   1      30.838  22.158  24.737  1.00  0.00     0.163 HD
BRANCH   5   8
ATOM      8  C   UNL A   1      32.652  25.057  25.007  1.00  0.00     0.203 C 
ATOM      9  C   UNL A   1      29.897  29.746  21.718  1.00  0.00     0.332 C 
ATOM     10  N   UNL A   1      30.314  29.237  23.020  1.00  0.00    -0.337 N 
ATOM     11  C   UNL A   1      29.802  27.898  23.266  1.00  0.00     0.267 C 
ATOM     12  C   UNL A   1      31.728  29.482  23.297  1.00  0.00     0.267 C 
ATOM     13  H   UNL A   1      29.863  29.790  23.751  1.00  0.00     0.347 HD
ATOM     14  C   UNL A   1      30.768  26.771  22.997  1.00  0.00     0.120 C 
ATOM     15  C   UNL A   1      32.707  28.313  23.295  1.00  0.00     0.120 C 
ATOM     16  C   UNL A   1      32.134  26.948  23.662  1.00  0.00     0.155 C 
ATOM     17  O   UNL A   1      33.033  26.027  22.944  1.00  0.00    -0.352 OA
ATOM     18  N   UNL A   1      32.194  26.445  25.051  1.00  0.00    -0.295 N 
ATOM     19  C   UNL A   1      33.630  25.115  23.879  1.00  0.00     0.198 C 
BRANCH  18  20
ATOM     20  C   UNL A   1      32.052  27.025  26.305  1.00  0.00     0.256 C 
ATOM     21  O   UNL A   1      31.514  26.455  27.254  1.00  0.00    -0.269 OA
BRANCH  20  22
ATOM     22  C   UNL A   1      32.621  28.340  26.625  1.00  0.00     0.041 A 
ATOM     23  C   UNL A   1      31.820  29.485  26.533  1.00  0.00     0.027 A 
ATOM     24  C   UNL A   1      33.978  28.460  26.916  1.00  0.00     0.027 A 
ATOM     25  C   UNL A   1      32.350  30.747  26.857  1.00  0.00     0.057 A 
ATOM     26  C   UNL A   1      34.498  29.683  27.362  1.00  0.00     0.057 A 
ATOM     27  C   UNL A   1      33.681  30.827  27.307  1.00  0.00     0.026 A 
BRANCH  25  28
ATOM     28  C   UNL A   1      31.494  31.985  26.739  1.00  0.00     0.416 C 
ATOM     29  F   UNL A   1      32.205  33.126  26.956  1.00  0.00    -0.166 F 
ATOM     30  F   UNL A   1      30.932  32.120  25.508  1.00  0.00    -0.166 F 
ATOM     31  F   UNL A   1      30.462  32.018  27.628  1.00  0.00    -0.166 F 
ENDBRANCH  25  28
BRANCH  26  32
ATOM     32  C   UNL A   1      35.873  29.756  27.988  1.00  0.00     0.416 C 
ATOM     33  F   UNL A   1      35.853  29.437  29.312  1.00  0.00    -0.166 F 
ATOM     34  F   UNL A   1      36.752  28.891  27.413  1.00  0.00    -0.166 F 
ATOM     35  F   UNL A   1      36.446  30.988  27.909  1.00  0.00    -0.166 F 
ENDBRANCH  26  32
ENDBRANCH  20  22
ENDBRANCH  18  20
ENDBRANCH   5   8
ENDBRANCH   3   4
ENDBRANCH   2   3
ENDBRANCH   1   2
BRANCH   1  36
ATOM     36  C   UNL A   1      35.610  22.281  24.042  1.00  0.00     0.002 C 
BRANCH  36  37
ATOM     37  C   UNL A   1      37.102  22.501  24.310  1.00  0.00     0.021 C 
BRANCH  37  38
ATOM     38  C   UNL A   1      37.484  22.677  25.777  1.00  0.00     0.116 C 
BRANCH  38  39
ATOM     39  N   UNL A   1      38.415  21.656  26.230  1.00  0.00    -0.352 N 
ATOM     40  C   UNL A   1      39.702  21.785  26.692  1.00  0.00     0.251 C 
ATOM     41  H   UNL A   1      38.071  20.734  26.202  1.00  0.00     0.163 HD
ATOM     42  O   UNL A   1      40.394  20.785  26.851  1.00  0.00    -0.269 OA
BRANCH  40  43
ATOM     43  C   UNL A   1      40.257  23.125  26.984  1.00  0.00     0.039 A 
ATOM     44  C   UNL A   1      41.106  23.277  28.083  1.00  0.00     0.014 A 
ATOM     45  C   UNL A   1      39.927  24.230  26.194  1.00  0.00     0.014 A 
ATOM     46  C   UNL A   1      41.670  24.525  28.357  1.00  0.00     0.010 A 
ATOM     47  C   UNL A   1      40.543  25.457  26.427  1.00  0.00     0.010 A 
ATOM     48  C   UNL A   1      41.417  25.620  27.513  1.00  0.00    -0.014 A 
BRANCH  48  49
ATOM     49  C   UNL A   1      42.072  26.934  27.738  1.00  0.00     0.031 A 
ATOM     50  C   UNL A   1      43.498  27.156  27.313  1.00  0.00     0.074 A 
ATOM     51  C   UNL A   1      41.410  27.898  28.407  1.00  0.00     0.049 A 
ATOM     52  N   UNL A   1      44.253  28.211  27.483  1.00  0.00    -0.248 NA
ATOM     53  C   UNL A   1      44.173  26.040  26.630  1.00  0.00     0.031 C 
ATOM     54  C   UNL A   1      40.049  27.777  28.936  1.00  0.00     0.029 A 
ATOM     55  N   UNL A   1      41.799  29.159  28.783  1.00  0.00    -0.354 N 
ATOM     56  C   UNL A   1      45.497  27.876  26.963  1.00  0.00     0.074 A 
ATOM     57  C   UNL A   1      45.406  26.509  26.499  1.00  0.00     0.031 C 
ATOM     58  C   UNL A   1      39.719  28.915  29.567  1.00  0.00     0.029 A 
ATOM     59  C   UNL A   1      40.852  29.833  29.517  1.00  0.00     0.049 A 
ATOM     60  H   UNL A   1      42.674  29.545  28.548  1.00  0.00     0.167 HD
ATOM     61  C   UNL A   1      46.608  28.645  26.857  1.00  0.00     0.034 A 
ATOM     62  C   UNL A   1      40.894  31.048  30.098  1.00  0.00     0.034 A 
ATOM     63  C   UNL A   1      46.684  30.015  27.288  1.00  0.00     0.049 A 
ATOM     64  C   UNL A   1      42.130  31.892  29.939  1.00  0.00     0.074 A 
ATOM     65  C   UNL A   1      47.734  30.905  27.143  1.00  0.00     0.029 A 
ATOM     66  N   UNL A   1      45.676  30.692  27.956  1.00  0.00    -0.354 N 
ATOM     67  N   UNL A   1      43.242  31.615  29.303  1.00  0.00    -0.248 NA
ATOM     68  C   UNL A   1      42.104  33.229  30.549  1.00  0.00     0.031 C 
ATOM     69  C   UNL A   1      47.372  32.111  27.752  1.00  0.00     0.029 A 
ATOM     70  C   UNL A   1      46.084  31.983  28.245  1.00  0.00     0.049 A 
ATOM     71  H   UNL A   1      44.799  30.311  28.191  1.00  0.00     0.167 HD
ATOM     72  C   UNL A   1      44.033  32.753  29.405  1.00  0.00     0.074 A 
ATOM     73  C   UNL A   1      43.263  33.731  30.144  1.00  0.00     0.031 C 
ATOM     74  C   UNL A   1      45.290  32.964  28.941  1.00  0.00     0.034 A 
BRANCH  61  75
ATOM     75  C   UNL A   1      47.824  28.033  26.209  1.00  0.00     0.023 A 
ATOM     76  C   UNL A   1      48.818  27.439  27.014  1.00  0.00     0.012 A 
ATOM     77  C   UNL A   1      47.956  27.990  24.808  1.00  0.00     0.148 A 
ATOM     78  C   UNL A   1      49.940  26.844  26.438  1.00  0.00     0.002 A 
ATOM     79  C   UNL A   1      49.054  27.355  24.238  1.00  0.00     0.091 A 
ATOM     80  F   UNL A   1      47.012  28.577  24.059  1.00  0.00    -0.205 F 
ATOM     81  C   UNL A   1      50.053  26.793  25.051  1.00  0.00     0.022 A 
BRANCH  79  82
ATOM     82  S   UNL A   1      49.252  27.165  22.463  1.00  0.00     0.127 S 
ATOM     83  O   UNL A   1      48.408  26.000  22.196  1.00  0.00    -0.237 OA
ATOM     84  O   UNL A   1      48.722  28.431  21.957  1.00  0.00    -0.237 OA
ATOM     85  O   UNL A   1      50.677  26.968  22.236  1.00  0.00    -0.744 OA
ENDBRANCH  79  82
ENDBRANCH  61  75
BRANCH  62  86
ATOM     86  C   UNL A   1      39.706  31.562  30.838  1.00  0.00     0.023 A 
ATOM     87  C   UNL A   1      38.631  32.120  30.119  1.00  0.00     0.012 A 
ATOM     88  C   UNL A   1      39.622  31.475  32.241  1.00  0.00     0.148 A 
ATOM     89  C   UNL A   1      37.510  32.613  30.786  1.00  0.00     0.002 A 
ATOM     90  C   UNL A   1      38.478  31.916  32.895  1.00  0.00     0.091 A 
ATOM     91  F   UNL A   1      40.660  30.950  32.908  1.00  0.00    -0.205 F 
ATOM     92  C   UNL A   1      37.428  32.502  32.172  1.00  0.00     0.022 A 
BRANCH  90  93
ATOM     93  S   UNL A   1      38.230  31.689  34.660  1.00  0.00     0.127 S 
ATOM     94  O   UNL A   1      38.269  30.234  34.781  1.00  0.00    -0.237 OA
ATOM     95  O   UNL A   1      39.388  32.386  35.220  1.00  0.00    -0.237 OA
ATOM     96  O   UNL A   1      36.950  32.315  34.963  1.00  0.00    -0.744 OA
ENDBRANCH  90  93
ENDBRANCH  62  86
BRANCH  74  97
ATOM     97  C   UNL A   1      45.907  34.317  29.188  1.00  0.00     0.023 A 
ATOM     98  C   UNL A   1      46.719  34.523  30.321  1.00  0.00     0.012 A 
ATOM     99  C   UNL A   1      45.740  35.362  28.257  1.00  0.00     0.148 A 
ATOM    100  C   UNL A   1      47.325  35.759  30.542  1.00  0.00     0.002 A 
ATOM    101  C   UNL A   1      46.388  36.574  28.458  1.00  0.00     0.091 A 
ATOM    102  F   UNL A   1      44.949  35.151  27.194  1.00  0.00    -0.205 F 
ATOM    103  C   UNL A   1      47.170  36.779  29.606  1.00  0.00     0.022 A 
BRANCH 101 104
ATOM    104  S   UNL A   1      46.327  37.911  27.259  1.00  0.00     0.127 S 
ATOM    105  O   UNL A   1      47.231  37.421  26.221  1.00  0.00    -0.237 OA
ATOM    106  O   UNL A   1      44.913  37.923  26.882  1.00  0.00    -0.237 OA
ATOM    107  O   UNL A   1      46.775  39.104  27.965  1.00  0.00    -0.744 OA
ENDBRANCH 101 104
ENDBRANCH  74  97
ENDBRANCH  48  49
ENDBRANCH  40  43
ENDBRANCH  38  39
ENDBRANCH  37  38
ENDBRANCH  36  37
ENDBRANCH   1  36
TORSDOF 20
ENDMDL
