MODEL 1
REMARK VINA RESULT:     -11.1      0.000      0.000
REMARK SMILES Cc1nc2cc(S(=O)(=O)N3CCC(C(=O)NCCCCCCNC(=O)c4ccc(-c5c6nc(c(-c7cccc(S(=O)(=O)[O-])c7F)c7ccc([nH]7)c(-c7cccc(S(=O)(=O)[O-])c7F)c7nc(c(-c8cccc(S(=O)(=O)[O-])c8F)c8ccc5[nH]8)C=C7)C=C6)cc4)CC3)ccc2n1C1CCCC1
REMARK SMILES IDX 19 1 18 2 17 3 16 4 14 5 15 6 13 8 10 9 11 10 90 11 12 12
REMARK SMILES IDX 89 13 7 14 8 15 9 16 6 17 1 18 2 19 3 20 94 21 4 22 93 23
REMARK SMILES IDX 5 24 92 25 91 26 95 27 96 28 99 29 97 30 98 31 20 32 21 33
REMARK SMILES IDX 22 34 23 35 24 36 25 38 26 39 27 40 88 41 28 42 87 43 29 44
REMARK SMILES IDX 30 45 31 46 81 47 32 48 86 49 80 50 82 51 33 52 85 53 79 54
REMARK SMILES IDX 78 55 34 57 66 58 46 59 65 60 47 61 50 62 64 63 83 64 48 65
REMARK SMILES IDX 49 66 63 68 84 69 51 70 35 71 36 72 44 73 37 74 39 75 45 76
REMARK SMILES IDX 38 77 40 78 41 79 42 80 43 81 67 82 68 83 76 84 69 85 71 86
REMARK SMILES IDX 77 87 70 88 72 89 73 90 74 91 75 92 52 93 53 94 61 95 54 96
REMARK SMILES IDX 56 97 62 98 55 99 57 100 58 101 59 102 60 103
REMARK H PARENT 16 7 23 37 82 56 50 67
REMARK Flexibility Score: inf
ROOT
ATOM      1  C   UNL A   1      32.036  28.772  26.594  1.00  0.00     0.002 C 
ENDROOT
BRANCH   1   2
ATOM      2  C   UNL A   1      31.679  29.772  25.497  1.00  0.00     0.021 C 
BRANCH   2   3
ATOM      3  C   UNL A   1      31.611  29.137  24.115  1.00  0.00     0.116 C 
BRANCH   3   4
ATOM      4  N   UNL A   1      30.300  28.549  23.882  1.00  0.00    -0.356 N 
ATOM      5  C   UNL A   1      29.919  27.244  23.816  1.00  0.00     0.223 C 
ATOM      6  O   UNL A   1      28.753  26.976  23.518  1.00  0.00    -0.275 OA
ATOM      7  H   UNL A   1      29.571  29.199  23.752  1.00  0.00     0.163 HD
BRANCH   5   8
ATOM      8  C   UNL A   1      30.913  26.133  24.115  1.00  0.00     0.081 C 
ATOM      9  N   UNL A   1      31.662  23.324  24.098  1.00  0.00    -0.198 NA
ATOM     10  C   UNL A   1      31.136  23.907  25.354  1.00  0.00     0.103 C 
ATOM     11  C   UNL A   1      32.136  24.194  22.995  1.00  0.00     0.103 C 
ATOM     12  C   UNL A   1      30.369  25.195  25.185  1.00  0.00     0.030 C 
ATOM     13  C   UNL A   1      31.346  25.467  22.814  1.00  0.00     0.030 C 
BRANCH   9  14
ATOM     14  S   UNL A   1      32.639  21.921  24.344  1.00  0.00     0.243 S 
ATOM     15  O   UNL A   1      32.888  21.328  23.041  1.00  0.00    -0.207 OA
ATOM     16  O   UNL A   1      32.062  21.168  25.428  1.00  0.00    -0.207 OA
BRANCH  14  17
ATOM     17  C   UNL A   1      34.213  22.529  24.927  1.00  0.00     0.085 A 
ATOM     18  C   UNL A   1      40.005  21.989  26.291  1.00  0.00     0.088 C 
ATOM     19  C   UNL A   1      38.582  22.300  26.006  1.00  0.00     0.106 A 
ATOM     20  N   UNL A   1      37.716  21.423  25.532  1.00  0.00    -0.233 NA
ATOM     21  N   UNL A   1      37.982  23.525  26.215  1.00  0.00    -0.325 N 
ATOM     22  C   UNL A   1      36.527  22.087  25.412  1.00  0.00     0.090 A 
ATOM     23  C   UNL A   1      36.663  23.405  25.834  1.00  0.00     0.068 A 
ATOM     24  C   UNL A   1      35.284  21.625  24.950  1.00  0.00     0.052 A 
ATOM     25  C   UNL A   1      35.605  24.310  25.821  1.00  0.00     0.030 A 
ATOM     26  C   UNL A   1      34.386  23.849  25.351  1.00  0.00     0.024 A 
BRANCH  21  27
ATOM     27  C   UNL A   1      38.596  24.733  26.736  1.00  0.00     0.089 C 
ATOM     28  C   UNL A   1      38.948  24.670  28.226  1.00  0.00     0.025 C 
ATOM     29  C   UNL A   1      39.909  25.120  26.043  1.00  0.00     0.025 C 
ATOM     30  C   UNL A   1      39.998  25.754  28.415  1.00  0.00     0.002 C 
ATOM     31  C   UNL A   1      40.703  25.917  27.072  1.00  0.00     0.002 C 
ENDBRANCH  21  27
ENDBRANCH  14  17
ENDBRANCH   9  14
ENDBRANCH   5   8
ENDBRANCH   3   4
ENDBRANCH   2   3
ENDBRANCH   1   2
BRANCH   1  32
ATOM     32  C   UNL A   1      33.394  28.089  26.405  1.00  0.00     0.002 C 
BRANCH  32  33
ATOM     33  C   UNL A   1      34.609  28.978  26.703  1.00  0.00     0.021 C 
BRANCH  33  34
ATOM     34  C   UNL A   1      34.431  29.875  27.930  1.00  0.00     0.116 C 
BRANCH  34  35
ATOM     35  N   UNL A   1      34.952  31.211  27.743  1.00  0.00    -0.352 N 
ATOM     36  C   UNL A   1      36.175  31.792  27.907  1.00  0.00     0.251 C 
ATOM     37  H   UNL A   1      34.268  31.844  27.425  1.00  0.00     0.163 HD
ATOM     38  O   UNL A   1      36.258  32.977  27.576  1.00  0.00    -0.269 OA
BRANCH  36  39
ATOM     39  C   UNL A   1      37.352  31.122  28.520  1.00  0.00     0.039 A 
ATOM     40  C   UNL A   1      38.159  31.662  29.523  1.00  0.00     0.014 A 
ATOM     41  C   UNL A   1      37.699  29.877  27.968  1.00  0.00     0.014 A 
ATOM     42  C   UNL A   1      39.361  31.061  29.855  1.00  0.00     0.010 A 
ATOM     43  C   UNL A   1      38.884  29.250  28.323  1.00  0.00     0.010 A 
ATOM     44  C   UNL A   1      39.742  29.887  29.212  1.00  0.00    -0.014 A 
BRANCH  44  45
ATOM     45  C   UNL A   1      41.056  29.350  29.524  1.00  0.00     0.031 A 
ATOM     46  C   UNL A   1      41.248  28.905  30.930  1.00  0.00     0.074 A 
ATOM     47  C   UNL A   1      42.009  29.220  28.582  1.00  0.00     0.049 A 
ATOM     48  N   UNL A   1      42.076  29.377  31.807  1.00  0.00    -0.248 NA
ATOM     49  C   UNL A   1      40.324  27.893  31.459  1.00  0.00     0.031 C 
ATOM     50  C   UNL A   1      41.887  29.402  27.132  1.00  0.00     0.029 A 
ATOM     51  N   UNL A   1      43.276  28.752  28.727  1.00  0.00    -0.354 N 
ATOM     52  C   UNL A   1      41.908  28.593  32.947  1.00  0.00     0.074 A 
ATOM     53  C   UNL A   1      40.733  27.789  32.723  1.00  0.00     0.031 C 
ATOM     54  C   UNL A   1      42.931  28.798  26.524  1.00  0.00     0.029 A 
ATOM     55  C   UNL A   1      43.850  28.316  27.539  1.00  0.00     0.049 A 
ATOM     56  H   UNL A   1      43.744  28.725  29.593  1.00  0.00     0.167 HD
ATOM     57  C   UNL A   1      42.846  28.518  33.930  1.00  0.00     0.034 A 
ATOM     58  C   UNL A   1      44.946  27.527  27.432  1.00  0.00     0.034 A 
ATOM     59  C   UNL A   1      43.830  29.557  33.834  1.00  0.00     0.049 A 
ATOM     60  C   UNL A   1      45.707  27.684  28.696  1.00  0.00     0.074 A 
ATOM     61  C   UNL A   1      43.807  30.933  33.932  1.00  0.00     0.029 A 
ATOM     62  N   UNL A   1      45.021  29.238  33.230  1.00  0.00    -0.354 N 
ATOM     63  N   UNL A   1      46.270  28.802  29.060  1.00  0.00    -0.248 NA
ATOM     64  C   UNL A   1      45.483  26.719  29.761  1.00  0.00     0.031 C 
ATOM     65  C   UNL A   1      44.743  31.382  32.957  1.00  0.00     0.029 A 
ATOM     66  C   UNL A   1      45.308  30.255  32.357  1.00  0.00     0.049 A 
ATOM     67  H   UNL A   1      45.564  28.434  33.392  1.00  0.00     0.167 HD
ATOM     68  C   UNL A   1      46.067  28.864  30.432  1.00  0.00     0.074 A 
ATOM     69  C   UNL A   1      45.679  27.509  30.821  1.00  0.00     0.031 C 
ATOM     70  C   UNL A   1      45.946  30.062  31.074  1.00  0.00     0.034 A 
BRANCH  57  71
ATOM     71  C   UNL A   1      43.055  27.318  34.810  1.00  0.00     0.023 A 
ATOM     72  C   UNL A   1      43.024  27.494  36.209  1.00  0.00     0.012 A 
ATOM     73  C   UNL A   1      43.536  26.085  34.317  1.00  0.00     0.148 A 
ATOM     74  C   UNL A   1      43.464  26.488  37.078  1.00  0.00     0.002 A 
ATOM     75  C   UNL A   1      43.912  25.066  35.183  1.00  0.00     0.091 A 
ATOM     76  F   UNL A   1      43.754  25.941  33.004  1.00  0.00    -0.205 F 
ATOM     77  C   UNL A   1      43.896  25.269  36.566  1.00  0.00     0.022 A 
BRANCH  75  78
ATOM     78  S   UNL A   1      44.458  23.469  34.572  1.00  0.00     0.127 S 
ATOM     79  O   UNL A   1      45.735  23.814  33.954  1.00  0.00    -0.237 OA
ATOM     80  O   UNL A   1      44.556  22.691  35.807  1.00  0.00    -0.237 OA
ATOM     81  O   UNL A   1      43.405  23.023  33.668  1.00  0.00    -0.744 OA
ENDBRANCH  75  78
ENDBRANCH  57  71
BRANCH  58  82
ATOM     82  C   UNL A   1      45.231  26.441  26.461  1.00  0.00     0.023 A 
ATOM     83  C   UNL A   1      46.396  26.518  25.669  1.00  0.00     0.012 A 
ATOM     84  C   UNL A   1      44.541  25.208  26.501  1.00  0.00     0.148 A 
ATOM     85  C   UNL A   1      46.885  25.397  24.987  1.00  0.00     0.002 A 
ATOM     86  C   UNL A   1      45.022  24.100  25.808  1.00  0.00     0.091 A 
ATOM     87  F   UNL A   1      43.470  25.084  27.293  1.00  0.00    -0.205 F 
ATOM     88  C   UNL A   1      46.203  24.185  25.063  1.00  0.00     0.022 A 
BRANCH  86  89
ATOM     89  S   UNL A   1      44.192  22.505  25.875  1.00  0.00     0.127 S 
ATOM     90  O   UNL A   1      45.295  21.573  25.642  1.00  0.00    -0.237 OA
ATOM     91  O   UNL A   1      43.661  22.498  27.235  1.00  0.00    -0.237 OA
ATOM     92  O   UNL A   1      43.201  22.533  24.806  1.00  0.00    -0.744 OA
ENDBRANCH  86  89
ENDBRANCH  58  82
BRANCH  70  93
ATOM     93  C   UNL A   1      46.218  31.316  30.282  1.00  0.00     0.023 A 
ATOM     94  C   UNL A   1      47.527  31.826  30.140  1.00  0.00     0.012 A 
ATOM     95  C   UNL A   1      45.187  31.861  29.503  1.00  0.00     0.148 A 
ATOM     96  C   UNL A   1      47.800  32.864  29.246  1.00  0.00     0.002 A 
ATOM     97  C   UNL A   1      45.468  32.869  28.588  1.00  0.00     0.091 A 
ATOM     98  F   UNL A   1      43.955  31.347  29.637  1.00  0.00    -0.205 F 
ATOM     99  C   UNL A   1      46.772  33.377  28.460  1.00  0.00     0.022 A 
BRANCH  97 100
ATOM    100  S   UNL A   1      44.225  33.501  27.459  1.00  0.00     0.127 S 
ATOM    101  O   UNL A   1      44.973  34.512  26.715  1.00  0.00    -0.237 OA
ATOM    102  O   UNL A   1      43.874  32.307  26.686  1.00  0.00    -0.237 OA
ATOM    103  O   UNL A   1      43.144  34.015  28.291  1.00  0.00    -0.744 OA
ENDBRANCH  97 100
ENDBRANCH  70  93
ENDBRANCH  44  45
ENDBRANCH  36  39
ENDBRANCH  34  35
ENDBRANCH  33  34
ENDBRANCH  32  33
ENDBRANCH   1  32
TORSDOF 19
ENDMDL
MODEL 2
REMARK VINA RESULT:     -10.8      2.752      8.992
REMARK SMILES Cc1nc2cc(S(=O)(=O)N3CCC(C(=O)NCCCCCCNC(=O)c4ccc(-c5c6nc(c(-c7cccc(S(=O)(=O)[O-])c7F)c7ccc([nH]7)c(-c7cccc(S(=O)(=O)[O-])c7F)c7nc(c(-c8cccc(S(=O)(=O)[O-])c8F)c8ccc5[nH]8)C=C7)C=C6)cc4)CC3)ccc2n1C1CCCC1
REMARK SMILES IDX 19 1 18 2 17 3 16 4 14 5 15 6 13 8 10 9 11 10 90 11 12 12
REMARK SMILES IDX 89 13 7 14 8 15 9 16 6 17 1 18 2 19 3 20 94 21 4 22 93 23
REMARK SMILES IDX 5 24 92 25 91 26 95 27 96 28 99 29 97 30 98 31 20 32 21 33
REMARK SMILES IDX 22 34 23 35 24 36 25 38 26 39 27 40 88 41 28 42 87 43 29 44
REMARK SMILES IDX 30 45 31 46 81 47 32 48 86 49 80 50 82 51 33 52 85 53 79 54
REMARK SMILES IDX 78 55 34 57 66 58 46 59 65 60 47 61 50 62 64 63 83 64 48 65
REMARK SMILES IDX 49 66 63 68 84 69 51 70 35 71 36 72 44 73 37 74 39 75 45 76
REMARK SMILES IDX 38 77 40 78 41 79 42 80 43 81 67 82 68 83 76 84 69 85 71 86
REMARK SMILES IDX 77 87 70 88 72 89 73 90 74 91 75 92 52 93 53 94 61 95 54 96
REMARK SMILES IDX 56 97 62 98 55 99 57 100 58 101 59 102 60 103
REMARK H PARENT 16 7 23 37 82 56 50 67
REMARK Flexibility Score: inf
ROOT
ATOM      1  C   UNL A   1      40.774  22.288  27.694  1.00  0.00     0.002 C 
ENDROOT
BRANCH   1   2
ATOM      2  C   UNL A   1      40.262  22.835  26.363  1.00  0.00     0.021 C 
BRANCH   2   3
ATOM      3  C   UNL A   1      38.767  22.625  26.171  1.00  0.00     0.116 C 
BRANCH   3   4
ATOM      4  N   UNL A   1      38.506  21.371  25.480  1.00  0.00    -0.356 N 
ATOM      5  C   UNL A   1      37.333  20.825  25.059  1.00  0.00     0.223 C 
ATOM      6  O   UNL A   1      37.343  19.695  24.566  1.00  0.00    -0.275 OA
ATOM      7  H   UNL A   1      39.307  20.831  25.285  1.00  0.00     0.163 HD
BRANCH   5   8
ATOM      8  C   UNL A   1      36.030  21.599  25.185  1.00  0.00     0.081 C 
ATOM      9  N   UNL A   1      33.274  22.076  24.396  1.00  0.00    -0.198 NA
ATOM     10  C   UNL A   1      34.334  22.928  23.809  1.00  0.00     0.103 C 
ATOM     11  C   UNL A   1      33.537  21.256  25.604  1.00  0.00     0.103 C 
ATOM     12  C   UNL A   1      35.729  22.361  23.901  1.00  0.00     0.030 C 
ATOM     13  C   UNL A   1      34.926  20.671  25.675  1.00  0.00     0.030 C 
BRANCH   9  14
ATOM     14  S   UNL A   1      31.711  22.811  24.384  1.00  0.00     0.243 S 
ATOM     15  O   UNL A   1      30.903  22.139  25.388  1.00  0.00    -0.207 OA
ATOM     16  O   UNL A   1      31.287  22.922  23.012  1.00  0.00    -0.207 OA
BRANCH  14  17
ATOM     17  C   UNL A   1      31.961  24.478  24.976  1.00  0.00     0.085 A 
ATOM     18  C   UNL A   1      31.088  30.387  24.901  1.00  0.00     0.088 C 
ATOM     19  C   UNL A   1      31.417  28.950  25.063  1.00  0.00     0.106 A 
ATOM     20  N   UNL A   1      30.930  27.990  24.299  1.00  0.00    -0.233 NA
ATOM     21  N   UNL A   1      32.279  28.437  26.012  1.00  0.00    -0.325 N 
ATOM     22  C   UNL A   1      31.470  26.822  24.761  1.00  0.00     0.090 A 
ATOM     23  C   UNL A   1      32.320  27.071  25.832  1.00  0.00     0.068 A 
ATOM     24  C   UNL A   1      31.279  25.506  24.310  1.00  0.00     0.052 A 
ATOM     25  C   UNL A   1      33.007  26.059  26.496  1.00  0.00     0.030 A 
ATOM     26  C   UNL A   1      32.802  24.762  26.055  1.00  0.00     0.024 A 
BRANCH  21  27
ATOM     27  C   UNL A   1      33.019  29.171  27.022  1.00  0.00     0.089 C 
ATOM     28  C   UNL A   1      34.530  29.236  26.775  1.00  0.00     0.025 C 
ATOM     29  C   UNL A   1      32.589  30.635  27.177  1.00  0.00     0.025 C 
ATOM     30  C   UNL A   1      35.000  30.426  27.598  1.00  0.00     0.002 C 
ATOM     31  C   UNL A   1      33.811  31.374  27.711  1.00  0.00     0.002 C 
ENDBRANCH  21  27
ENDBRANCH  14  17
ENDBRANCH   9  14
ENDBRANCH   5   8
ENDBRANCH   3   4
ENDBRANCH   2   3
ENDBRANCH   1   2
BRANCH   1  32
ATOM     32  C   UNL A   1      41.926  21.287  27.562  1.00  0.00     0.002 C 
BRANCH  32  33
ATOM     33  C   UNL A   1      41.733  20.224  26.473  1.00  0.00     0.021 C 
BRANCH  33  34
ATOM     34  C   UNL A   1      42.979  19.376  26.212  1.00  0.00     0.116 C 
BRANCH  34  35
ATOM     35  N   UNL A   1      43.551  19.587  24.900  1.00  0.00    -0.352 N 
ATOM     36  C   UNL A   1      44.298  20.577  24.330  1.00  0.00     0.251 C 
ATOM     37  H   UNL A   1      43.358  18.849  24.278  1.00  0.00     0.163 HD
ATOM     38  O   UNL A   1      44.668  20.374  23.172  1.00  0.00    -0.269 OA
BRANCH  36  39
ATOM     39  C   UNL A   1      44.608  21.878  24.978  1.00  0.00     0.039 A 
ATOM     40  C   UNL A   1      45.600  22.089  25.937  1.00  0.00     0.014 A 
ATOM     41  C   UNL A   1      43.763  22.947  24.632  1.00  0.00     0.014 A 
ATOM     42  C   UNL A   1      45.649  23.277  26.645  1.00  0.00     0.010 A 
ATOM     43  C   UNL A   1      43.830  24.153  25.312  1.00  0.00     0.010 A 
ATOM     44  C   UNL A   1      44.727  24.282  26.366  1.00  0.00    -0.014 A 
BRANCH  44  45
ATOM     45  C   UNL A   1      44.757  25.468  27.204  1.00  0.00     0.031 A 
ATOM     46  C   UNL A   1      45.896  26.395  26.960  1.00  0.00     0.074 A 
ATOM     47  C   UNL A   1      43.786  25.728  28.100  1.00  0.00     0.049 A 
ATOM     48  N   UNL A   1      46.842  26.725  27.780  1.00  0.00    -0.248 NA
ATOM     49  C   UNL A   1      46.066  26.925  25.600  1.00  0.00     0.031 C 
ATOM     50  C   UNL A   1      42.510  25.031  28.285  1.00  0.00     0.029 A 
ATOM     51  N   UNL A   1      43.689  26.780  28.954  1.00  0.00    -0.354 N 
ATOM     52  C   UNL A   1      47.626  27.654  27.099  1.00  0.00     0.074 A 
ATOM     53  C   UNL A   1      47.185  27.639  25.728  1.00  0.00     0.031 C 
ATOM     54  C   UNL A   1      41.673  25.826  28.986  1.00  0.00     0.029 A 
ATOM     55  C   UNL A   1      42.396  27.011  29.409  1.00  0.00     0.049 A 
ATOM     56  H   UNL A   1      44.462  27.326  29.225  1.00  0.00     0.167 HD
ATOM     57  C   UNL A   1      48.467  28.513  27.738  1.00  0.00     0.034 A 
ATOM     58  C   UNL A   1      41.957  28.151  29.996  1.00  0.00     0.034 A 
ATOM     59  C   UNL A   1      48.706  28.138  29.102  1.00  0.00     0.049 A 
ATOM     60  C   UNL A   1      43.152  28.830  30.553  1.00  0.00     0.074 A 
ATOM     61  C   UNL A   1      49.297  27.059  29.727  1.00  0.00     0.029 A 
ATOM     62  N   UNL A   1      47.969  28.779  30.067  1.00  0.00    -0.354 N 
ATOM     63  N   UNL A   1      43.868  28.339  31.525  1.00  0.00    -0.248 NA
ATOM     64  C   UNL A   1      43.804  29.851  29.747  1.00  0.00     0.031 C 
ATOM     65  C   UNL A   1      48.506  26.835  30.891  1.00  0.00     0.029 A 
ATOM     66  C   UNL A   1      47.511  27.814  30.924  1.00  0.00     0.049 A 
ATOM     67  H   UNL A   1      47.801  29.748  30.129  1.00  0.00     0.167 HD
ATOM     68  C   UNL A   1      45.177  28.652  31.186  1.00  0.00     0.074 A 
ATOM     69  C   UNL A   1      45.067  29.674  30.147  1.00  0.00     0.031 C 
ATOM     70  C   UNL A   1      46.216  27.852  31.565  1.00  0.00     0.034 A 
BRANCH  57  71
ATOM     71  C   UNL A   1      48.840  29.873  27.221  1.00  0.00     0.023 A 
ATOM     72  C   UNL A   1      50.207  30.182  27.060  1.00  0.00     0.012 A 
ATOM     73  C   UNL A   1      47.916  30.938  27.139  1.00  0.00     0.148 A 
ATOM     74  C   UNL A   1      50.634  31.496  26.837  1.00  0.00     0.002 A 
ATOM     75  C   UNL A   1      48.338  32.230  26.854  1.00  0.00     0.091 A 
ATOM     76  F   UNL A   1      46.636  30.724  27.465  1.00  0.00    -0.205 F 
ATOM     77  C   UNL A   1      49.699  32.520  26.721  1.00  0.00     0.022 A 
BRANCH  75  78
ATOM     78  S   UNL A   1      47.168  33.580  26.676  1.00  0.00     0.127 S 
ATOM     79  O   UNL A   1      46.797  33.831  28.065  1.00  0.00    -0.237 OA
ATOM     80  O   UNL A   1      47.996  34.617  26.058  1.00  0.00    -0.237 OA
ATOM     81  O   UNL A   1      46.114  33.065  25.811  1.00  0.00    -0.744 OA
ENDBRANCH  75  78
ENDBRANCH  57  71
BRANCH  58  82
ATOM     82  C   UNL A   1      40.645  28.832  29.860  1.00  0.00     0.023 A 
ATOM     83  C   UNL A   1      40.101  29.019  28.572  1.00  0.00     0.012 A 
ATOM     84  C   UNL A   1      39.797  29.042  30.971  1.00  0.00     0.148 A 
ATOM     85  C   UNL A   1      38.751  29.350  28.396  1.00  0.00     0.002 A 
ATOM     86  C   UNL A   1      38.459  29.386  30.792  1.00  0.00     0.091 A 
ATOM     87  F   UNL A   1      40.265  28.809  32.203  1.00  0.00    -0.205 F 
ATOM     88  C   UNL A   1      37.928  29.525  29.505  1.00  0.00     0.022 A 
BRANCH  86  89
ATOM     89  S   UNL A   1      37.344  29.614  32.184  1.00  0.00     0.127 S 
ATOM     90  O   UNL A   1      37.947  30.751  32.879  1.00  0.00    -0.237 OA
ATOM     91  O   UNL A   1      36.080  29.907  31.514  1.00  0.00    -0.237 OA
ATOM     92  O   UNL A   1      37.390  28.365  32.934  1.00  0.00    -0.744 OA
ENDBRANCH  86  89
ENDBRANCH  58  82
BRANCH  70  93
ATOM     93  C   UNL A   1      45.920  26.716  32.513  1.00  0.00     0.023 A 
ATOM     94  C   UNL A   1      45.430  25.478  32.045  1.00  0.00     0.012 A 
ATOM     95  C   UNL A   1      46.338  26.823  33.848  1.00  0.00     0.148 A 
ATOM     96  C   UNL A   1      45.349  24.371  32.893  1.00  0.00     0.002 A 
ATOM     97  C   UNL A   1      46.290  25.710  34.680  1.00  0.00     0.091 A 
ATOM     98  F   UNL A   1      46.821  28.002  34.266  1.00  0.00    -0.205 F 
ATOM     99  C   UNL A   1      45.792  24.484  34.208  1.00  0.00     0.022 A 
BRANCH  97 100
ATOM    100  S   UNL A   1      46.948  25.743  36.348  1.00  0.00     0.127 S 
ATOM    101  O   UNL A   1      46.833  24.343  36.750  1.00  0.00    -0.237 OA
ATOM    102  O   UNL A   1      48.320  26.206  36.131  1.00  0.00    -0.237 OA
ATOM    103  O   UNL A   1      46.113  26.675  37.096  1.00  0.00    -0.744 OA
ENDBRANCH  97 100
ENDBRANCH  70  93
ENDBRANCH  44  45
ENDBRANCH  36  39
ENDBRANCH  34  35
ENDBRANCH  33  34
ENDBRANCH  32  33
ENDBRANCH   1  32
TORSDOF 19
ENDMDL
MODEL 3
REMARK VINA RESULT:     -10.7      2.282      3.806
REMARK SMILES Cc1nc2cc(S(=O)(=O)N3CCC(C(=O)NCCCCCCNC(=O)c4ccc(-c5c6nc(c(-c7cccc(S(=O)(=O)[O-])c7F)c7ccc([nH]7)c(-c7cccc(S(=O)(=O)[O-])c7F)c7nc(c(-c8cccc(S(=O)(=O)[O-])c8F)c8ccc5[nH]8)C=C7)C=C6)cc4)CC3)ccc2n1C1CCCC1
REMARK SMILES IDX 19 1 18 2 17 3 16 4 14 5 15 6 13 8 10 9 11 10 90 11 12 12
REMARK SMILES IDX 89 13 7 14 8 15 9 16 6 17 1 18 2 19 3 20 94 21 4 22 93 23
REMARK SMILES IDX 5 24 92 25 91 26 95 27 96 28 99 29 97 30 98 31 20 32 21 33
REMARK SMILES IDX 22 34 23 35 24 36 25 38 26 39 27 40 88 41 28 42 87 43 29 44
REMARK SMILES IDX 30 45 31 46 81 47 32 48 86 49 80 50 82 51 33 52 85 53 79 54
REMARK SMILES IDX 78 55 34 57 66 58 46 59 65 60 47 61 50 62 64 63 83 64 48 65
REMARK SMILES IDX 49 66 63 68 84 69 51 70 35 71 36 72 44 73 37 74 39 75 45 76
REMARK SMILES IDX 38 77 40 78 41 79 42 80 43 81 67 82 68 83 76 84 69 85 71 86
REMARK SMILES IDX 77 87 70 88 72 89 73 90 74 91 75 92 52 93 53 94 61 95 54 96
REMARK SMILES IDX 56 97 62 98 55 99 57 100 58 101 59 102 60 103
REMARK H PARENT 16 7 23 37 82 56 50 67
REMARK Flexibility Score: inf
ROOT
ATOM      1  C   UNL A   1      37.588  30.212  28.314  1.00  0.00     0.002 C 
ENDROOT
BRANCH   1   2
ATOM      2  C   UNL A   1      36.259  30.244  27.562  1.00  0.00     0.021 C 
BRANCH   2   3
ATOM      3  C   UNL A   1      35.291  29.164  28.023  1.00  0.00     0.116 C 
BRANCH   3   4
ATOM      4  N   UNL A   1      33.916  29.635  27.943  1.00  0.00    -0.356 N 
ATOM      5  C   UNL A   1      32.925  29.313  27.067  1.00  0.00     0.223 C 
ATOM      6  O   UNL A   1      31.849  29.911  27.139  1.00  0.00    -0.275 OA
ATOM      7  H   UNL A   1      33.662  30.291  28.633  1.00  0.00     0.163 HD
BRANCH   5   8
ATOM      8  C   UNL A   1      33.137  28.228  26.024  1.00  0.00     0.081 C 
ATOM      9  N   UNL A   1      32.501  27.010  23.462  1.00  0.00    -0.198 NA
ATOM     10  C   UNL A   1      31.883  26.446  24.685  1.00  0.00     0.103 C 
ATOM     11  C   UNL A   1      33.671  27.916  23.548  1.00  0.00     0.103 C 
ATOM     12  C   UNL A   1      31.890  27.364  25.883  1.00  0.00     0.030 C 
ATOM     13  C   UNL A   1      33.657  28.850  24.734  1.00  0.00     0.030 C 
BRANCH   9  14
ATOM     14  S   UNL A   1      32.587  25.889  22.152  1.00  0.00     0.243 S 
ATOM     15  O   UNL A   1      33.650  26.332  21.266  1.00  0.00    -0.207 OA
ATOM     16  O   UNL A   1      31.245  25.659  21.680  1.00  0.00    -0.207 OA
BRANCH  14  17
ATOM     17  C   UNL A   1      33.143  24.351  22.872  1.00  0.00     0.085 A 
ATOM     18  C   UNL A   1      37.265  20.659  25.122  1.00  0.00     0.088 C 
ATOM     19  C   UNL A   1      36.120  21.440  24.595  1.00  0.00     0.106 A 
ATOM     20  N   UNL A   1      36.220  22.668  24.121  1.00  0.00    -0.233 NA
ATOM     21  N   UNL A   1      34.819  20.983  24.515  1.00  0.00    -0.325 N 
ATOM     22  C   UNL A   1      34.960  23.033  23.736  1.00  0.00     0.090 A 
ATOM     23  C   UNL A   1      34.062  21.997  23.969  1.00  0.00     0.068 A 
ATOM     24  C   UNL A   1      34.507  24.238  23.174  1.00  0.00     0.052 A 
ATOM     25  C   UNL A   1      32.707  22.097  23.667  1.00  0.00     0.030 A 
ATOM     26  C   UNL A   1      32.267  23.294  23.127  1.00  0.00     0.024 A 
BRANCH  21  27
ATOM     27  C   UNL A   1      34.312  19.686  24.921  1.00  0.00     0.089 C 
ATOM     28  C   UNL A   1      33.197  19.743  25.970  1.00  0.00     0.025 C 
ATOM     29  C   UNL A   1      33.722  18.855  23.774  1.00  0.00     0.025 C 
ATOM     30  C   UNL A   1      32.492  18.401  25.852  1.00  0.00     0.002 C 
ATOM     31  C   UNL A   1      32.698  17.926  24.417  1.00  0.00     0.002 C 
ENDBRANCH  21  27
ENDBRANCH  14  17
ENDBRANCH   9  14
ENDBRANCH   5   8
ENDBRANCH   3   4
ENDBRANCH   2   3
ENDBRANCH   1   2
BRANCH   1  32
ATOM     32  C   UNL A   1      38.063  31.581  28.812  1.00  0.00     0.002 C 
BRANCH  32  33
ATOM     33  C   UNL A   1      36.989  32.677  28.800  1.00  0.00     0.021 C 
BRANCH  33  34
ATOM     34  C   UNL A   1      37.043  33.606  30.015  1.00  0.00     0.116 C 
BRANCH  34  35
ATOM     35  N   UNL A   1      36.261  33.130  31.134  1.00  0.00    -0.352 N 
ATOM     36  C   UNL A   1      36.490  32.258  32.159  1.00  0.00     0.251 C 
ATOM     37  H   UNL A   1      35.359  33.524  31.163  1.00  0.00     0.163 HD
ATOM     38  O   UNL A   1      35.582  32.149  32.986  1.00  0.00    -0.269 OA
BRANCH  36  39
ATOM     39  C   UNL A   1      37.697  31.400  32.282  1.00  0.00     0.039 A 
ATOM     40  C   UNL A   1      38.989  31.856  32.552  1.00  0.00     0.014 A 
ATOM     41  C   UNL A   1      37.501  30.033  32.023  1.00  0.00     0.014 A 
ATOM     42  C   UNL A   1      40.074  31.008  32.412  1.00  0.00     0.010 A 
ATOM     43  C   UNL A   1      38.581  29.170  31.918  1.00  0.00     0.010 A 
ATOM     44  C   UNL A   1      39.867  29.683  32.041  1.00  0.00    -0.014 A 
BRANCH  44  45
ATOM     45  C   UNL A   1      41.043  28.862  31.811  1.00  0.00     0.031 A 
ATOM     46  C   UNL A   1      41.647  28.252  33.027  1.00  0.00     0.074 A 
ATOM     47  C   UNL A   1      41.514  28.631  30.570  1.00  0.00     0.049 A 
ATOM     48  N   UNL A   1      42.827  28.458  33.517  1.00  0.00    -0.248 NA
ATOM     49  C   UNL A   1      40.788  27.403  33.863  1.00  0.00     0.031 C 
ATOM     50  C   UNL A   1      40.900  28.975  29.285  1.00  0.00     0.029 A 
ATOM     51  N   UNL A   1      42.602  27.903  30.206  1.00  0.00    -0.354 N 
ATOM     52  C   UNL A   1      42.930  27.617  34.623  1.00  0.00     0.074 A 
ATOM     53  C   UNL A   1      41.609  27.095  34.867  1.00  0.00     0.031 C 
ATOM     54  C   UNL A   1      41.471  28.233  28.312  1.00  0.00     0.029 A 
ATOM     55  C   UNL A   1      42.570  27.477  28.884  1.00  0.00     0.049 A 
ATOM     56  H   UNL A   1      43.343  27.698  30.820  1.00  0.00     0.167 HD
ATOM     57  C   UNL A   1      44.126  27.257  35.163  1.00  0.00     0.034 A 
ATOM     58  C   UNL A   1      43.336  26.495  28.350  1.00  0.00     0.034 A 
ATOM     59  C   UNL A   1      45.208  28.077  34.702  1.00  0.00     0.049 A 
ATOM     60  C   UNL A   1      44.532  26.370  29.219  1.00  0.00     0.074 A 
ATOM     61  C   UNL A   1      45.536  29.413  34.814  1.00  0.00     0.029 A 
ATOM     62  N   UNL A   1      45.978  27.583  33.678  1.00  0.00    -0.354 N 
ATOM     63  N   UNL A   1      45.427  27.308  29.347  1.00  0.00    -0.248 NA
ATOM     64  C   UNL A   1      44.515  25.371  30.277  1.00  0.00     0.031 C 
ATOM     65  C   UNL A   1      46.110  29.755  33.557  1.00  0.00     0.029 A 
ATOM     66  C   UNL A   1      46.136  28.599  32.772  1.00  0.00     0.049 A 
ATOM     67  H   UNL A   1      46.346  26.672  33.607  1.00  0.00     0.167 HD
ATOM     68  C   UNL A   1      45.776  27.277  30.690  1.00  0.00     0.074 A 
ATOM     69  C   UNL A   1      45.269  25.998  31.185  1.00  0.00     0.031 C 
ATOM     70  C   UNL A   1      46.182  28.406  31.341  1.00  0.00     0.034 A 
BRANCH  57  71
ATOM     71  C   UNL A   1      44.375  25.960  35.879  1.00  0.00     0.023 A 
ATOM     72  C   UNL A   1      44.609  25.991  37.269  1.00  0.00     0.012 A 
ATOM     73  C   UNL A   1      44.644  24.752  35.199  1.00  0.00     0.148 A 
ATOM     74  C   UNL A   1      45.100  24.870  37.950  1.00  0.00     0.002 A 
ATOM     75  C   UNL A   1      45.071  23.623  35.887  1.00  0.00     0.091 A 
ATOM     76  F   UNL A   1      44.612  24.729  33.861  1.00  0.00    -0.205 F 
ATOM     77  C   UNL A   1      45.320  23.682  37.261  1.00  0.00     0.022 A 
BRANCH  75  78
ATOM     78  S   UNL A   1      45.349  22.062  35.047  1.00  0.00     0.127 S 
ATOM     79  O   UNL A   1      46.542  22.361  34.260  1.00  0.00    -0.237 OA
ATOM     80  O   UNL A   1      45.559  21.148  36.170  1.00  0.00    -0.237 OA
ATOM     81  O   UNL A   1      44.128  21.808  34.292  1.00  0.00    -0.744 OA
ENDBRANCH  75  78
ENDBRANCH  57  71
BRANCH  58  82
ATOM     82  C   UNL A   1      42.980  25.473  27.334  1.00  0.00     0.023 A 
ATOM     83  C   UNL A   1      43.868  25.233  26.264  1.00  0.00     0.012 A 
ATOM     84  C   UNL A   1      41.939  24.542  27.548  1.00  0.00     0.148 A 
ATOM     85  C   UNL A   1      43.755  24.083  25.472  1.00  0.00     0.002 A 
ATOM     86  C   UNL A   1      41.821  23.408  26.748  1.00  0.00     0.091 A 
ATOM     87  F   UNL A   1      41.120  24.707  28.594  1.00  0.00    -0.205 F 
ATOM     88  C   UNL A   1      42.737  23.166  25.719  1.00  0.00     0.022 A 
BRANCH  86  89
ATOM     89  S   UNL A   1      40.534  22.182  27.025  1.00  0.00     0.127 S 
ATOM     90  O   UNL A   1      40.802  21.209  25.966  1.00  0.00    -0.237 OA
ATOM     91  O   UNL A   1      40.843  21.719  28.374  1.00  0.00    -0.237 OA
ATOM     92  O   UNL A   1      39.272  22.895  26.871  1.00  0.00    -0.744 OA
ENDBRANCH  86  89
ENDBRANCH  58  82
BRANCH  70  93
ATOM     93  C   UNL A   1      46.410  29.649  30.518  1.00  0.00     0.023 A 
ATOM     94  C   UNL A   1      47.622  29.859  29.825  1.00  0.00     0.012 A 
ATOM     95  C   UNL A   1      45.326  30.504  30.269  1.00  0.00     0.148 A 
ATOM     96  C   UNL A   1      47.753  30.905  28.908  1.00  0.00     0.002 A 
ATOM     97  C   UNL A   1      45.447  31.522  29.330  1.00  0.00     0.091 A 
ATOM     98  F   UNL A   1      44.177  30.273  30.922  1.00  0.00    -0.205 F 
ATOM     99  C   UNL A   1      46.661  31.729  28.651  1.00  0.00     0.022 A 
BRANCH  97 100
ATOM    100  S   UNL A   1      44.056  32.550  28.858  1.00  0.00     0.127 S 
ATOM    101  O   UNL A   1      44.638  33.396  27.818  1.00  0.00    -0.237 OA
ATOM    102  O   UNL A   1      43.091  31.561  28.373  1.00  0.00    -0.237 OA
ATOM    103  O   UNL A   1      43.640  33.250  30.068  1.00  0.00    -0.744 OA
ENDBRANCH  97 100
ENDBRANCH  70  93
ENDBRANCH  44  45
ENDBRANCH  36  39
ENDBRANCH  34  35
ENDBRANCH  33  34
ENDBRANCH  32  33
ENDBRANCH   1  32
TORSDOF 19
ENDMDL
