MODEL 1
REMARK VINA RESULT:     -11.7      0.000      0.000
REMARK SMILES CCC[C@H](Cc1ccn(-c2ccccc2)n1)C(=O)NCCCCCCNC(=O)c1ccc(-c2c3nc(c(-c4cccc(S(=O)(=O)[O-])c4F)c4ccc([nH]4)c(-c4cccc(S(=O)(=O)[O-])c4F)c4nc(c(-c5cccc(S(=O)(=O)[O-])c5F)c5ccc2[nH]5)C=C4)C=C3)cc1
REMARK SMILES IDX 22 1 21 2 20 3 19 4 17 5 18 6 4 8 3 9 2 10 1 11 5 12 6 13
REMARK SMILES IDX 7 14 16 15 8 16 9 17 10 18 11 19 15 20 12 21 14 22 13 23
REMARK SMILES IDX 23 24 24 25 25 26 26 27 27 28 28 30 29 31 30 32 91 33 31 34
REMARK SMILES IDX 90 35 32 36 33 37 34 38 84 39 35 40 89 41 83 42 85 43 36 44
REMARK SMILES IDX 88 45 82 46 81 47 37 49 69 50 49 51 68 52 50 53 53 54 67 55
REMARK SMILES IDX 86 56 51 57 52 58 66 60 87 61 54 62 38 63 39 64 47 65 40 66
REMARK SMILES IDX 42 67 48 68 41 69 43 70 44 71 45 72 46 73 70 74 71 75 79 76
REMARK SMILES IDX 72 77 74 78 80 79 73 80 75 81 76 82 77 83 78 84 55 85 56 86
REMARK SMILES IDX 64 87 57 88 59 89 65 90 58 91 60 92 61 93 62 94 63 95
REMARK H PARENT 19 7 26 29 85 48 53 59
REMARK Flexibility Score: inf
ROOT
ATOM      1  C   UNL A   1      31.734  27.030  26.667  1.00  0.00     0.002 C 
ENDROOT
BRANCH   1   2
ATOM      2  C   UNL A   1      32.025  27.260  25.183  1.00  0.00     0.021 C 
BRANCH   2   3
ATOM      3  C   UNL A   1      33.448  26.920  24.772  1.00  0.00     0.116 C 
BRANCH   3   4
ATOM      4  N   UNL A   1      33.604  26.654  23.358  1.00  0.00    -0.356 N 
ATOM      5  C   UNL A   1      33.638  25.481  22.671  1.00  0.00     0.223 C 
ATOM      6  O   UNL A   1      33.450  25.542  21.450  1.00  0.00    -0.275 OA
ATOM      7  H   UNL A   1      33.703  27.458  22.798  1.00  0.00     0.163 HD
BRANCH   5   8
ATOM      8  C   UNL A   1      33.852  24.129  23.343  1.00  0.00     0.084 C 
BRANCH   8   9
ATOM      9  C   UNL A   1      35.325  23.643  23.344  1.00  0.00     0.013 C 
BRANCH   9  10
ATOM     10  C   UNL A   1      35.870  22.852  24.534  1.00  0.00    -0.003 C 
ATOM     11  C   UNL A   1      35.625  23.533  25.878  1.00  0.00     0.004 C 
ENDBRANCH   9  10
ENDBRANCH   8   9
BRANCH   8  12
ATOM     12  C   UNL A   1      32.728  23.124  23.019  1.00  0.00     0.071 C 
BRANCH  12  13
ATOM     13  C   UNL A   1      32.640  21.987  23.973  1.00  0.00     0.064 A 
ATOM     14  C   UNL A   1      32.134  22.018  25.290  1.00  0.00     0.046 A 
ATOM     15  N   UNL A   1      33.064  20.768  23.627  1.00  0.00    -0.173 NA
ATOM     16  C   UNL A   1      32.172  20.711  25.705  1.00  0.00     0.115 A 
ATOM     17  N   UNL A   1      32.751  19.990  24.688  1.00  0.00    -0.241 N 
BRANCH  17  18
ATOM     18  C   UNL A   1      32.964  18.596  24.646  1.00  0.00     0.065 A 
ATOM     19  C   UNL A   1      32.610  17.800  25.742  1.00  0.00     0.028 A 
ATOM     20  C   UNL A   1      33.518  18.021  23.497  1.00  0.00     0.028 A 
ATOM     21  C   UNL A   1      32.804  16.422  25.678  1.00  0.00     0.002 A 
ATOM     22  C   UNL A   1      33.760  16.650  23.464  1.00  0.00     0.002 A 
ATOM     23  C   UNL A   1      33.394  15.850  24.549  1.00  0.00     0.000 A 
ENDBRANCH  17  18
ENDBRANCH  12  13
ENDBRANCH   8  12
ENDBRANCH   5   8
ENDBRANCH   3   4
ENDBRANCH   2   3
ENDBRANCH   1   2
BRANCH   1  24
ATOM     24  C   UNL A   1      31.967  28.226  27.606  1.00  0.00     0.002 C 
BRANCH  24  25
ATOM     25  C   UNL A   1      32.594  29.491  27.001  1.00  0.00     0.021 C 
BRANCH  25  26
ATOM     26  C   UNL A   1      33.995  29.798  27.498  1.00  0.00     0.116 C 
BRANCH  26  27
ATOM     27  N   UNL A   1      34.382  31.192  27.257  1.00  0.00    -0.352 N 
ATOM     28  C   UNL A   1      35.510  31.853  27.687  1.00  0.00     0.251 C 
ATOM     29  H   UNL A   1      33.753  31.724  26.717  1.00  0.00     0.163 HD
ATOM     30  O   UNL A   1      35.548  33.087  27.717  1.00  0.00    -0.269 OA
BRANCH  28  31
ATOM     31  C   UNL A   1      36.680  31.066  28.096  1.00  0.00     0.039 A 
ATOM     32  C   UNL A   1      37.010  29.847  27.492  1.00  0.00     0.014 A 
ATOM     33  C   UNL A   1      37.476  31.603  29.101  1.00  0.00     0.014 A 
ATOM     34  C   UNL A   1      38.189  29.210  27.866  1.00  0.00     0.010 A 
ATOM     35  C   UNL A   1      38.719  31.088  29.321  1.00  0.00     0.010 A 
ATOM     36  C   UNL A   1      39.039  29.848  28.778  1.00  0.00    -0.014 A 
BRANCH  36  37
ATOM     37  C   UNL A   1      40.333  29.301  29.152  1.00  0.00     0.031 A 
ATOM     38  C   UNL A   1      40.455  28.951  30.595  1.00  0.00     0.074 A 
ATOM     39  C   UNL A   1      41.170  28.845  28.192  1.00  0.00     0.049 A 
ATOM     40  N   UNL A   1      41.262  29.447  31.474  1.00  0.00    -0.248 NA
ATOM     41  C   UNL A   1      39.443  28.046  31.169  1.00  0.00     0.031 C 
ATOM     42  C   UNL A   1      40.922  28.795  26.741  1.00  0.00     0.029 A 
ATOM     43  N   UNL A   1      42.318  28.131  28.317  1.00  0.00    -0.354 N 
ATOM     44  C   UNL A   1      41.026  28.722  32.643  1.00  0.00     0.074 A 
ATOM     45  C   UNL A   1      39.746  28.093  32.467  1.00  0.00     0.031 C 
ATOM     46  C   UNL A   1      41.709  27.849  26.186  1.00  0.00     0.029 A 
ATOM     47  C   UNL A   1      42.620  27.353  27.200  1.00  0.00     0.049 A 
ATOM     48  H   UNL A   1      42.886  28.160  29.121  1.00  0.00     0.167 HD
ATOM     49  C   UNL A   1      42.031  28.444  33.521  1.00  0.00     0.034 A 
ATOM     50  C   UNL A   1      43.486  26.310  27.147  1.00  0.00     0.034 A 
ATOM     51  C   UNL A   1      43.191  29.259  33.253  1.00  0.00     0.049 A 
ATOM     52  C   UNL A   1      44.355  26.407  28.345  1.00  0.00     0.074 A 
ATOM     53  C   UNL A   1      43.431  30.615  33.146  1.00  0.00     0.029 A 
ATOM     54  N   UNL A   1      44.253  28.641  32.635  1.00  0.00    -0.354 N 
ATOM     55  N   UNL A   1      45.191  27.388  28.552  1.00  0.00    -0.248 NA
ATOM     56  C   UNL A   1      43.946  25.668  29.528  1.00  0.00     0.031 C 
ATOM     57  C   UNL A   1      44.331  30.736  32.046  1.00  0.00     0.029 A 
ATOM     58  C   UNL A   1      44.653  29.451  31.608  1.00  0.00     0.049 A 
ATOM     59  H   UNL A   1      44.653  27.777  32.886  1.00  0.00     0.167 HD
ATOM     60  C   UNL A   1      45.042  27.682  29.901  1.00  0.00     0.074 A 
ATOM     61  C   UNL A   1      44.341  26.530  30.469  1.00  0.00     0.031 C 
ATOM     62  C   UNL A   1      45.214  28.954  30.371  1.00  0.00     0.034 A 
BRANCH  49  63
ATOM     63  C   UNL A   1      42.151  27.176  34.354  1.00  0.00     0.023 A 
ATOM     64  C   UNL A   1      41.625  27.229  35.667  1.00  0.00     0.012 A 
ATOM     65  C   UNL A   1      42.976  26.069  34.049  1.00  0.00     0.148 A 
ATOM     66  C   UNL A   1      41.976  26.288  36.643  1.00  0.00     0.002 A 
ATOM     67  C   UNL A   1      43.257  25.092  34.999  1.00  0.00     0.091 A 
ATOM     68  F   UNL A   1      43.613  25.999  32.880  1.00  0.00    -0.205 F 
ATOM     69  C   UNL A   1      42.792  25.217  36.307  1.00  0.00     0.022 A 
BRANCH  67  70
ATOM     70  S   UNL A   1      44.270  23.658  34.603  1.00  0.00     0.127 S 
ATOM     71  O   UNL A   1      43.480  23.024  33.553  1.00  0.00    -0.237 OA
ATOM     72  O   UNL A   1      45.513  24.287  34.154  1.00  0.00    -0.237 OA
ATOM     73  O   UNL A   1      44.398  22.910  35.848  1.00  0.00    -0.744 OA
ENDBRANCH  67  70
ENDBRANCH  49  63
BRANCH  50  74
ATOM     74  C   UNL A   1      43.423  25.081  26.316  1.00  0.00     0.023 A 
ATOM     75  C   UNL A   1      44.399  24.854  25.325  1.00  0.00     0.012 A 
ATOM     76  C   UNL A   1      42.570  24.009  26.664  1.00  0.00     0.148 A 
ATOM     77  C   UNL A   1      44.533  23.599  24.716  1.00  0.00     0.002 A 
ATOM     78  C   UNL A   1      42.696  22.767  26.047  1.00  0.00     0.091 A 
ATOM     79  F   UNL A   1      41.697  24.177  27.667  1.00  0.00    -0.205 F 
ATOM     80  C   UNL A   1      43.684  22.555  25.078  1.00  0.00     0.022 A 
BRANCH  78  81
ATOM     81  S   UNL A   1      41.644  21.375  26.482  1.00  0.00     0.127 S 
ATOM     82  O   UNL A   1      41.996  21.157  27.886  1.00  0.00    -0.237 OA
ATOM     83  O   UNL A   1      40.310  21.924  26.260  1.00  0.00    -0.237 OA
ATOM     84  O   UNL A   1      42.036  20.288  25.592  1.00  0.00    -0.744 OA
ENDBRANCH  78  81
ENDBRANCH  50  74
BRANCH  62  85
ATOM     85  C   UNL A   1      45.801  29.994  29.452  1.00  0.00     0.023 A 
ATOM     86  C   UNL A   1      47.191  30.139  29.254  1.00  0.00     0.012 A 
ATOM     87  C   UNL A   1      44.920  30.698  28.617  1.00  0.00     0.148 A 
ATOM     88  C   UNL A   1      47.687  30.977  28.250  1.00  0.00     0.002 A 
ATOM     89  C   UNL A   1      45.416  31.491  27.591  1.00  0.00     0.091 A 
ATOM     90  F   UNL A   1      43.602  30.546  28.816  1.00  0.00    -0.205 F 
ATOM     91  C   UNL A   1      46.799  31.640  27.408  1.00  0.00     0.022 A 
BRANCH  89  92
ATOM     92  S   UNL A   1      44.320  32.259  26.396  1.00  0.00     0.127 S 
ATOM     93  O   UNL A   1      45.249  32.644  25.335  1.00  0.00    -0.237 OA
ATOM     94  O   UNL A   1      43.413  31.163  26.049  1.00  0.00    -0.237 OA
ATOM     95  O   UNL A   1      43.675  33.363  27.096  1.00  0.00    -0.744 OA
ENDBRANCH  89  92
ENDBRANCH  62  85
ENDBRANCH  36  37
ENDBRANCH  28  31
ENDBRANCH  26  27
ENDBRANCH  25  26
ENDBRANCH  24  25
ENDBRANCH   1  24
TORSDOF 21
ENDMDL
MODEL 2
REMARK VINA RESULT:     -11.2      1.516      2.143
REMARK SMILES CCC[C@H](Cc1ccn(-c2ccccc2)n1)C(=O)NCCCCCCNC(=O)c1ccc(-c2c3nc(c(-c4cccc(S(=O)(=O)[O-])c4F)c4ccc([nH]4)c(-c4cccc(S(=O)(=O)[O-])c4F)c4nc(c(-c5cccc(S(=O)(=O)[O-])c5F)c5ccc2[nH]5)C=C4)C=C3)cc1
REMARK SMILES IDX 22 1 21 2 20 3 19 4 17 5 18 6 4 8 3 9 2 10 1 11 5 12 6 13
REMARK SMILES IDX 7 14 16 15 8 16 9 17 10 18 11 19 15 20 12 21 14 22 13 23
REMARK SMILES IDX 23 24 24 25 25 26 26 27 27 28 28 30 29 31 30 32 91 33 31 34
REMARK SMILES IDX 90 35 32 36 33 37 34 38 84 39 35 40 89 41 83 42 85 43 36 44
REMARK SMILES IDX 88 45 82 46 81 47 37 49 69 50 49 51 68 52 50 53 53 54 67 55
REMARK SMILES IDX 86 56 51 57 52 58 66 60 87 61 54 62 38 63 39 64 47 65 40 66
REMARK SMILES IDX 42 67 48 68 41 69 43 70 44 71 45 72 46 73 70 74 71 75 79 76
REMARK SMILES IDX 72 77 74 78 80 79 73 80 75 81 76 82 77 83 78 84 55 85 56 86
REMARK SMILES IDX 64 87 57 88 59 89 65 90 58 91 60 92 61 93 62 94 63 95
REMARK H PARENT 19 7 26 29 85 48 53 59
REMARK Flexibility Score: inf
ROOT
ATOM      1  C   UNL A   1      31.878  29.361  27.251  1.00  0.00     0.002 C 
ENDROOT
BRANCH   1   2
ATOM      2  C   UNL A   1      31.837  28.452  26.022  1.00  0.00     0.021 C 
BRANCH   2   3
ATOM      3  C   UNL A   1      32.157  26.997  26.318  1.00  0.00     0.116 C 
BRANCH   3   4
ATOM      4  N   UNL A   1      30.987  26.165  26.506  1.00  0.00    -0.356 N 
ATOM      5  C   UNL A   1      30.818  24.822  26.372  1.00  0.00     0.223 C 
ATOM      6  O   UNL A   1      29.819  24.328  26.906  1.00  0.00    -0.275 OA
ATOM      7  H   UNL A   1      30.175  26.654  26.775  1.00  0.00     0.163 HD
BRANCH   5   8
ATOM      8  C   UNL A   1      31.814  23.927  25.642  1.00  0.00     0.084 C 
BRANCH   8   9
ATOM      9  C   UNL A   1      31.305  23.381  24.282  1.00  0.00     0.013 C 
BRANCH   9  10
ATOM     10  C   UNL A   1      32.017  23.768  22.986  1.00  0.00    -0.003 C 
ATOM     11  C   UNL A   1      32.752  22.604  22.327  1.00  0.00     0.004 C 
ENDBRANCH   9  10
ENDBRANCH   8   9
BRANCH   8  12
ATOM     12  C   UNL A   1      32.569  22.982  26.598  1.00  0.00     0.071 C 
BRANCH  12  13
ATOM     13  C   UNL A   1      33.315  21.895  25.910  1.00  0.00     0.064 A 
ATOM     14  C   UNL A   1      34.605  21.975  25.343  1.00  0.00     0.046 A 
ATOM     15  N   UNL A   1      32.780  20.679  25.770  1.00  0.00    -0.173 NA
ATOM     16  C   UNL A   1      34.882  20.696  24.933  1.00  0.00     0.115 A 
ATOM     17  N   UNL A   1      33.758  19.947  25.190  1.00  0.00    -0.241 N 
BRANCH  17  18
ATOM     18  C   UNL A   1      33.588  18.563  24.972  1.00  0.00     0.065 A 
ATOM     19  C   UNL A   1      34.297  17.923  23.948  1.00  0.00     0.028 A 
ATOM     20  C   UNL A   1      32.719  17.841  25.796  1.00  0.00     0.028 A 
ATOM     21  C   UNL A   1      34.137  16.552  23.759  1.00  0.00     0.002 A 
ATOM     22  C   UNL A   1      32.523  16.481  25.564  1.00  0.00     0.002 A 
ATOM     23  C   UNL A   1      33.240  15.836  24.554  1.00  0.00     0.000 A 
ENDBRANCH  17  18
ENDBRANCH  12  13
ENDBRANCH   8  12
ENDBRANCH   5   8
ENDBRANCH   3   4
ENDBRANCH   2   3
ENDBRANCH   1   2
BRANCH   1  24
ATOM     24  C   UNL A   1      32.584  30.717  27.080  1.00  0.00     0.002 C 
BRANCH  24  25
ATOM     25  C   UNL A   1      34.102  30.701  26.840  1.00  0.00     0.021 C 
BRANCH  25  26
ATOM     26  C   UNL A   1      34.925  30.298  28.050  1.00  0.00     0.116 C 
BRANCH  26  27
ATOM     27  N   UNL A   1      34.855  31.288  29.130  1.00  0.00    -0.352 N 
ATOM     28  C   UNL A   1      35.757  31.513  30.145  1.00  0.00     0.251 C 
ATOM     29  H   UNL A   1      34.058  31.867  29.129  1.00  0.00     0.163 HD
ATOM     30  O   UNL A   1      35.421  32.118  31.168  1.00  0.00    -0.269 OA
BRANCH  28  31
ATOM     31  C   UNL A   1      37.136  31.033  29.986  1.00  0.00     0.039 A 
ATOM     32  C   UNL A   1      38.229  31.906  29.931  1.00  0.00     0.014 A 
ATOM     33  C   UNL A   1      37.317  29.657  29.923  1.00  0.00     0.014 A 
ATOM     34  C   UNL A   1      39.513  31.370  29.882  1.00  0.00     0.010 A 
ATOM     35  C   UNL A   1      38.567  29.135  30.076  1.00  0.00     0.010 A 
ATOM     36  C   UNL A   1      39.666  29.980  29.962  1.00  0.00    -0.014 A 
BRANCH  36  37
ATOM     37  C   UNL A   1      40.972  29.342  30.012  1.00  0.00     0.031 A 
ATOM     38  C   UNL A   1      41.416  28.966  31.383  1.00  0.00     0.074 A 
ATOM     39  C   UNL A   1      41.517  28.843  28.879  1.00  0.00     0.049 A 
ATOM     40  N   UNL A   1      42.444  29.395  32.038  1.00  0.00    -0.248 NA
ATOM     41  C   UNL A   1      40.514  28.124  32.190  1.00  0.00     0.031 C 
ATOM     42  C   UNL A   1      40.921  28.828  27.533  1.00  0.00     0.029 A 
ATOM     43  N   UNL A   1      42.610  28.051  28.724  1.00  0.00    -0.354 N 
ATOM     44  C   UNL A   1      42.450  28.674  33.232  1.00  0.00     0.074 A 
ATOM     45  C   UNL A   1      41.126  28.135  33.375  1.00  0.00     0.031 C 
ATOM     46  C   UNL A   1      41.483  27.838  26.807  1.00  0.00     0.029 A 
ATOM     47  C   UNL A   1      42.577  27.269  27.570  1.00  0.00     0.049 A 
ATOM     48  H   UNL A   1      43.356  28.032  29.366  1.00  0.00     0.167 HD
ATOM     49  C   UNL A   1      43.617  28.317  33.841  1.00  0.00     0.034 A 
ATOM     50  C   UNL A   1      43.330  26.170  27.313  1.00  0.00     0.034 A 
ATOM     51  C   UNL A   1      44.730  29.055  33.295  1.00  0.00     0.049 A 
ATOM     52  C   UNL A   1      44.469  26.193  28.263  1.00  0.00     0.074 A 
ATOM     53  C   UNL A   1      45.029  30.393  33.128  1.00  0.00     0.029 A 
ATOM     54  N   UNL A   1      45.566  28.375  32.440  1.00  0.00    -0.354 N 
ATOM     55  N   UNL A   1      45.395  27.113  28.256  1.00  0.00    -0.248 NA
ATOM     56  C   UNL A   1      44.310  25.469  29.513  1.00  0.00     0.031 C 
ATOM     57  C   UNL A   1      45.641  30.467  31.842  1.00  0.00     0.029 A 
ATOM     58  C   UNL A   1      45.759  29.169  31.343  1.00  0.00     0.049 A 
ATOM     59  H   UNL A   1      45.954  27.483  32.590  1.00  0.00     0.167 HD
ATOM     60  C   UNL A   1      45.599  27.400  29.600  1.00  0.00     0.074 A 
ATOM     61  C   UNL A   1      44.979  26.290  30.326  1.00  0.00     0.031 C 
ATOM     62  C   UNL A   1      45.967  28.650  30.009  1.00  0.00     0.034 A 
BRANCH  49  63
ATOM     63  C   UNL A   1      43.848  27.033  34.625  1.00  0.00     0.023 A 
ATOM     64  C   UNL A   1      44.280  27.179  35.965  1.00  0.00     0.012 A 
ATOM     65  C   UNL A   1      43.949  25.738  34.067  1.00  0.00     0.148 A 
ATOM     66  C   UNL A   1      44.863  26.121  36.673  1.00  0.00     0.002 A 
ATOM     67  C   UNL A   1      44.454  24.670  34.802  1.00  0.00     0.091 A 
ATOM     68  F   UNL A   1      43.681  25.532  32.777  1.00  0.00    -0.205 F 
ATOM     69  C   UNL A   1      44.949  24.864  36.091  1.00  0.00     0.022 A 
BRANCH  67  70
ATOM     70  S   UNL A   1      44.542  23.010  34.112  1.00  0.00     0.127 S 
ATOM     71  O   UNL A   1      43.997  22.212  35.205  1.00  0.00    -0.237 OA
ATOM     72  O   UNL A   1      43.678  23.130  32.937  1.00  0.00    -0.237 OA
ATOM     73  O   UNL A   1      45.948  22.789  33.796  1.00  0.00    -0.744 OA
ENDBRANCH  67  70
ENDBRANCH  49  63
BRANCH  50  74
ATOM     74  C   UNL A   1      42.983  24.960  26.527  1.00  0.00     0.023 A 
ATOM     75  C   UNL A   1      43.843  24.520  25.501  1.00  0.00     0.012 A 
ATOM     76  C   UNL A   1      41.954  24.087  26.949  1.00  0.00     0.148 A 
ATOM     77  C   UNL A   1      43.694  23.248  24.929  1.00  0.00     0.002 A 
ATOM     78  C   UNL A   1      41.801  22.831  26.369  1.00  0.00     0.091 A 
ATOM     79  F   UNL A   1      41.184  24.449  27.985  1.00  0.00    -0.205 F 
ATOM     80  C   UNL A   1      42.677  22.403  25.364  1.00  0.00     0.022 A 
BRANCH  78  81
ATOM     81  S   UNL A   1      40.518  21.686  26.898  1.00  0.00     0.127 S 
ATOM     82  O   UNL A   1      40.825  20.498  26.102  1.00  0.00    -0.237 OA
ATOM     83  O   UNL A   1      40.797  21.560  28.326  1.00  0.00    -0.237 OA
ATOM     84  O   UNL A   1      39.251  22.324  26.558  1.00  0.00    -0.744 OA
ENDBRANCH  78  81
ENDBRANCH  50  74
BRANCH  62  85
ATOM     85  C   UNL A   1      46.383  29.660  28.971  1.00  0.00     0.023 A 
ATOM     86  C   UNL A   1      47.679  29.691  28.414  1.00  0.00     0.012 A 
ATOM     87  C   UNL A   1      45.380  30.459  28.398  1.00  0.00     0.148 A 
ATOM     88  C   UNL A   1      47.968  30.509  27.317  1.00  0.00     0.002 A 
ATOM     89  C   UNL A   1      45.659  31.233  27.280  1.00  0.00     0.091 A 
ATOM     90  F   UNL A   1      44.153  30.415  28.938  1.00  0.00    -0.205 F 
ATOM     91  C   UNL A   1      46.954  31.268  26.740  1.00  0.00     0.022 A 
BRANCH  89  92
ATOM     92  S   UNL A   1      44.361  32.123  26.418  1.00  0.00     0.127 S 
ATOM     93  O   UNL A   1      43.383  31.066  26.168  1.00  0.00    -0.237 OA
ATOM     94  O   UNL A   1      43.949  33.118  27.409  1.00  0.00    -0.237 OA
ATOM     95  O   UNL A   1      44.987  32.692  25.231  1.00  0.00    -0.744 OA
ENDBRANCH  89  92
ENDBRANCH  62  85
ENDBRANCH  36  37
ENDBRANCH  28  31
ENDBRANCH  26  27
ENDBRANCH  25  26
ENDBRANCH  24  25
ENDBRANCH   1  24
TORSDOF 21
ENDMDL
MODEL 3
REMARK VINA RESULT:     -11.1      2.360      4.561
REMARK SMILES CCC[C@H](Cc1ccn(-c2ccccc2)n1)C(=O)NCCCCCCNC(=O)c1ccc(-c2c3nc(c(-c4cccc(S(=O)(=O)[O-])c4F)c4ccc([nH]4)c(-c4cccc(S(=O)(=O)[O-])c4F)c4nc(c(-c5cccc(S(=O)(=O)[O-])c5F)c5ccc2[nH]5)C=C4)C=C3)cc1
REMARK SMILES IDX 22 1 21 2 20 3 19 4 17 5 18 6 4 8 3 9 2 10 1 11 5 12 6 13
REMARK SMILES IDX 7 14 16 15 8 16 9 17 10 18 11 19 15 20 12 21 14 22 13 23
REMARK SMILES IDX 23 24 24 25 25 26 26 27 27 28 28 30 29 31 30 32 91 33 31 34
REMARK SMILES IDX 90 35 32 36 33 37 34 38 84 39 35 40 89 41 83 42 85 43 36 44
REMARK SMILES IDX 88 45 82 46 81 47 37 49 69 50 49 51 68 52 50 53 53 54 67 55
REMARK SMILES IDX 86 56 51 57 52 58 66 60 87 61 54 62 38 63 39 64 47 65 40 66
REMARK SMILES IDX 42 67 48 68 41 69 43 70 44 71 45 72 46 73 70 74 71 75 79 76
REMARK SMILES IDX 72 77 74 78 80 79 73 80 75 81 76 82 77 83 78 84 55 85 56 86
REMARK SMILES IDX 64 87 57 88 59 89 65 90 58 91 60 92 61 93 62 94 63 95
REMARK H PARENT 19 7 26 29 85 48 53 59
REMARK Flexibility Score: inf
ROOT
ATOM      1  C   UNL A   1      33.288  28.561  26.531  1.00  0.00     0.002 C 
ENDROOT
BRANCH   1   2
ATOM      2  C   UNL A   1      34.215  27.494  25.949  1.00  0.00     0.021 C 
BRANCH   2   3
ATOM      3  C   UNL A   1      33.491  26.273  25.409  1.00  0.00     0.116 C 
BRANCH   3   4
ATOM      4  N   UNL A   1      34.366  25.283  24.817  1.00  0.00    -0.356 N 
ATOM      5  C   UNL A   1      34.229  24.533  23.690  1.00  0.00     0.223 C 
ATOM      6  O   UNL A   1      35.256  24.015  23.235  1.00  0.00    -0.275 OA
ATOM      7  H   UNL A   1      35.202  25.126  25.313  1.00  0.00     0.163 HD
BRANCH   5   8
ATOM      8  C   UNL A   1      32.899  24.352  22.968  1.00  0.00     0.084 C 
BRANCH   8   9
ATOM      9  C   UNL A   1      32.476  22.873  22.770  1.00  0.00     0.013 C 
BRANCH   9  10
ATOM     10  C   UNL A   1      31.405  22.255  23.669  1.00  0.00    -0.003 C 
ATOM     11  C   UNL A   1      31.935  21.821  25.034  1.00  0.00     0.004 C 
ENDBRANCH   9  10
ENDBRANCH   8   9
BRANCH   8  12
ATOM     12  C   UNL A   1      32.717  25.349  21.806  1.00  0.00     0.071 C 
BRANCH  12  13
ATOM     13  C   UNL A   1      32.278  26.704  22.234  1.00  0.00     0.064 A 
ATOM     14  C   UNL A   1      33.094  27.834  22.450  1.00  0.00     0.046 A 
ATOM     15  N   UNL A   1      30.988  26.966  22.460  1.00  0.00    -0.173 NA
ATOM     16  C   UNL A   1      32.214  28.849  22.723  1.00  0.00     0.115 A 
ATOM     17  N   UNL A   1      30.958  28.290  22.738  1.00  0.00    -0.241 N 
BRANCH  17  18
ATOM     18  C   UNL A   1      29.730  28.956  22.937  1.00  0.00     0.065 A 
ATOM     19  C   UNL A   1      29.707  30.345  23.111  1.00  0.00     0.028 A 
ATOM     20  C   UNL A   1      28.543  28.216  22.947  1.00  0.00     0.028 A 
ATOM     21  C   UNL A   1      28.486  30.992  23.283  1.00  0.00     0.002 A 
ATOM     22  C   UNL A   1      27.331  28.866  23.176  1.00  0.00     0.002 A 
ATOM     23  C   UNL A   1      27.302  30.253  23.333  1.00  0.00     0.000 A 
ENDBRANCH  17  18
ENDBRANCH  12  13
ENDBRANCH   8  12
ENDBRANCH   5   8
ENDBRANCH   3   4
ENDBRANCH   2   3
ENDBRANCH   1   2
BRANCH   1  24
ATOM     24  C   UNL A   1      33.906  29.518  27.564  1.00  0.00     0.002 C 
BRANCH  24  25
ATOM     25  C   UNL A   1      33.636  31.021  27.390  1.00  0.00     0.021 C 
BRANCH  25  26
ATOM     26  C   UNL A   1      34.744  31.922  27.904  1.00  0.00     0.116 C 
BRANCH  26  27
ATOM     27  N   UNL A   1      34.370  32.622  29.137  1.00  0.00    -0.352 N 
ATOM     28  C   UNL A   1      34.831  32.407  30.416  1.00  0.00     0.251 C 
ATOM     29  H   UNL A   1      33.703  33.339  29.037  1.00  0.00     0.163 HD
ATOM     30  O   UNL A   1      34.194  32.812  31.394  1.00  0.00    -0.269 OA
BRANCH  28  31
ATOM     31  C   UNL A   1      36.104  31.700  30.601  1.00  0.00     0.039 A 
ATOM     32  C   UNL A   1      36.179  30.305  30.691  1.00  0.00     0.014 A 
ATOM     33  C   UNL A   1      37.253  32.481  30.653  1.00  0.00     0.014 A 
ATOM     34  C   UNL A   1      37.432  29.704  30.764  1.00  0.00     0.010 A 
ATOM     35  C   UNL A   1      38.475  31.890  30.523  1.00  0.00     0.010 A 
ATOM     36  C   UNL A   1      38.573  30.511  30.672  1.00  0.00    -0.014 A 
BRANCH  36  37
ATOM     37  C   UNL A   1      39.918  29.959  30.644  1.00  0.00     0.031 A 
ATOM     38  C   UNL A   1      40.585  29.908  31.975  1.00  0.00     0.074 A 
ATOM     39  C   UNL A   1      40.330  29.253  29.567  1.00  0.00     0.049 A 
ATOM     40  N   UNL A   1      41.660  30.515  32.355  1.00  0.00    -0.248 NA
ATOM     41  C   UNL A   1      39.878  29.220  33.071  1.00  0.00     0.031 C 
ATOM     42  C   UNL A   1      39.548  28.921  28.364  1.00  0.00     0.029 A 
ATOM     43  N   UNL A   1      41.447  28.497  29.406  1.00  0.00    -0.354 N 
ATOM     44  C   UNL A   1      41.896  30.068  33.656  1.00  0.00     0.074 A 
ATOM     45  C   UNL A   1      40.654  29.513  34.116  1.00  0.00     0.031 C 
ATOM     46  C   UNL A   1      40.074  27.825  27.777  1.00  0.00     0.029 A 
ATOM     47  C   UNL A   1      41.308  27.484  28.458  1.00  0.00     0.049 A 
ATOM     48  H   UNL A   1      42.278  28.651  29.911  1.00  0.00     0.167 HD
ATOM     49  C   UNL A   1      43.163  29.905  34.133  1.00  0.00     0.034 A 
ATOM     50  C   UNL A   1      42.100  26.392  28.316  1.00  0.00     0.034 A 
ATOM     51  C   UNL A   1      44.125  30.558  33.277  1.00  0.00     0.049 A 
ATOM     52  C   UNL A   1      43.360  26.670  29.048  1.00  0.00     0.074 A 
ATOM     53  C   UNL A   1      44.290  31.841  32.792  1.00  0.00     0.029 A 
ATOM     54  N   UNL A   1      44.877  29.749  32.458  1.00  0.00    -0.354 N 
ATOM     55  N   UNL A   1      44.200  27.609  28.706  1.00  0.00    -0.248 NA
ATOM     56  C   UNL A   1      43.441  26.227  30.430  1.00  0.00     0.031 C 
ATOM     57  C   UNL A   1      44.701  31.665  31.438  1.00  0.00     0.029 A 
ATOM     58  C   UNL A   1      44.846  30.296  31.205  1.00  0.00     0.049 A 
ATOM     59  H   UNL A   1      45.352  28.929  32.725  1.00  0.00     0.167 HD
ATOM     60  C   UNL A   1      44.574  28.187  29.911  1.00  0.00     0.074 A 
ATOM     61  C   UNL A   1      44.155  27.233  30.939  1.00  0.00     0.031 C 
ATOM     62  C   UNL A   1      44.898  29.512  29.990  1.00  0.00     0.034 A 
BRANCH  49  63
ATOM     63  C   UNL A   1      43.606  28.833  35.117  1.00  0.00     0.023 A 
ATOM     64  C   UNL A   1      44.506  29.238  36.132  1.00  0.00     0.012 A 
ATOM     65  C   UNL A   1      43.436  27.440  34.945  1.00  0.00     0.148 A 
ATOM     66  C   UNL A   1      45.258  28.312  36.865  1.00  0.00     0.002 A 
ATOM     67  C   UNL A   1      44.125  26.523  35.732  1.00  0.00     0.091 A 
ATOM     68  F   UNL A   1      42.704  26.965  33.935  1.00  0.00    -0.205 F 
ATOM     69  C   UNL A   1      45.066  26.953  36.666  1.00  0.00     0.022 A 
BRANCH  67  70
ATOM     70  S   UNL A   1      43.878  24.750  35.547  1.00  0.00     0.127 S 
ATOM     71  O   UNL A   1      44.419  24.518  34.212  1.00  0.00    -0.237 OA
ATOM     72  O   UNL A   1      44.686  24.221  36.647  1.00  0.00    -0.237 OA
ATOM     73  O   UNL A   1      42.445  24.533  35.705  1.00  0.00    -0.744 OA
ENDBRANCH  67  70
ENDBRANCH  49  63
BRANCH  50  74
ATOM     74  C   UNL A   1      41.739  25.025  27.862  1.00  0.00     0.023 A 
ATOM     75  C   UNL A   1      40.401  24.589  27.946  1.00  0.00     0.012 A 
ATOM     76  C   UNL A   1      42.645  24.245  27.107  1.00  0.00     0.148 A 
ATOM     77  C   UNL A   1      39.977  23.428  27.285  1.00  0.00     0.002 A 
ATOM     78  C   UNL A   1      42.223  23.084  26.464  1.00  0.00     0.091 A 
ATOM     79  F   UNL A   1      43.897  24.690  26.940  1.00  0.00    -0.205 F 
ATOM     80  C   UNL A   1      40.886  22.678  26.542  1.00  0.00     0.022 A 
BRANCH  78  81
ATOM     81  S   UNL A   1      43.342  22.081  25.476  1.00  0.00     0.127 S 
ATOM     82  O   UNL A   1      42.616  20.815  25.387  1.00  0.00    -0.237 OA
ATOM     83  O   UNL A   1      43.409  22.842  24.231  1.00  0.00    -0.237 OA
ATOM     84  O   UNL A   1      44.585  22.006  26.237  1.00  0.00    -0.744 OA
ENDBRANCH  78  81
ENDBRANCH  50  74
BRANCH  62  85
ATOM     85  C   UNL A   1      45.078  30.293  28.714  1.00  0.00     0.023 A 
ATOM     86  C   UNL A   1      43.992  30.805  27.974  1.00  0.00     0.012 A 
ATOM     87  C   UNL A   1      46.380  30.692  28.372  1.00  0.00     0.148 A 
ATOM     88  C   UNL A   1      44.203  31.687  26.910  1.00  0.00     0.002 A 
ATOM     89  C   UNL A   1      46.582  31.605  27.346  1.00  0.00     0.091 A 
ATOM     90  F   UNL A   1      47.401  30.198  29.088  1.00  0.00    -0.205 F 
ATOM     91  C   UNL A   1      45.497  32.100  26.606  1.00  0.00     0.022 A 
BRANCH  89  92
ATOM     92  S   UNL A   1      48.212  32.272  27.002  1.00  0.00     0.127 S 
ATOM     93  O   UNL A   1      48.946  31.079  26.587  1.00  0.00    -0.237 OA
ATOM     94  O   UNL A   1      47.941  33.230  25.928  1.00  0.00    -0.237 OA
ATOM     95  O   UNL A   1      48.663  32.887  28.245  1.00  0.00    -0.744 OA
ENDBRANCH  89  92
ENDBRANCH  62  85
ENDBRANCH  36  37
ENDBRANCH  28  31
ENDBRANCH  26  27
ENDBRANCH  25  26
ENDBRANCH  24  25
ENDBRANCH   1  24
TORSDOF 21
ENDMDL
