MODEL 1
REMARK VINA RESULT:     -12.8      0.000      0.000
REMARK SMILES CC(C)(O)C#Cc1ccc(C(=O)N[C@@H](CC2=c3ccccc3=NC2)C(=O)NCCCCCCNC(=O)c2ccc(-c3c4nc(c(-c5cccc(S(=O)(=O)[O-])c5F)c5ccc([nH]5)c(-c5cccc(S(=O)(=O)[O-])c5F)c5nc(c(-c6cccc(S(=O)(=O)[O-])c6F)c6ccc3[nH]6)C=C5)C=C4)cc2)s1
REMARK SMILES IDX 29 1 28 2 27 3 25 4 26 5 14 7 13 8 11 9 12 10 10 12 7 13
REMARK SMILES IDX 8 14 100 15 9 16 6 17 5 18 2 19 1 20 3 21 4 22 15 24 16 25
REMARK SMILES IDX 17 26 24 27 18 28 22 29 23 30 19 31 21 32 20 33 30 34 31 35
REMARK SMILES IDX 32 36 33 37 34 38 35 39 36 41 37 42 38 43 99 44 39 45 98 46
REMARK SMILES IDX 40 47 41 48 42 49 92 50 43 51 97 52 91 53 93 54 44 55 96 56
REMARK SMILES IDX 90 57 89 58 45 60 77 61 57 62 76 63 58 64 61 65 75 66 94 67
REMARK SMILES IDX 59 68 60 69 74 71 95 72 62 73 46 74 47 75 55 76 48 77 50 78
REMARK SMILES IDX 56 79 49 80 51 81 52 82 53 83 54 84 78 85 79 86 87 87 80 88
REMARK SMILES IDX 82 89 88 90 81 91 83 92 84 93 85 94 86 95 63 96 64 97 72 98
REMARK SMILES IDX 65 99 67 100 73 101 66 102 68 103 69 104 70 105 71 106
REMARK H PARENT 27 6 13 11 4 23 34 40 93 59 61 70
REMARK Flexibility Score: inf
ROOT
ATOM      1  C   UNL A   1      34.071  25.132  25.747  1.00  0.00     0.021 C 
ENDROOT
BRANCH   1   2
ATOM      2  C   UNL A   1      33.557  26.345  25.001  1.00  0.00     0.116 C 
BRANCH   2   3
ATOM      3  N   UNL A   1      32.649  27.163  25.759  1.00  0.00    -0.354 N 
ATOM      4  C   UNL A   1      31.362  26.901  26.111  1.00  0.00     0.242 C 
ATOM      5  O   UNL A   1      30.867  27.610  26.995  1.00  0.00    -0.273 OA
ATOM      6  H   UNL A   1      33.007  28.028  26.062  1.00  0.00     0.163 HD
BRANCH   4   7
ATOM      7  C   UNL A   1      30.534  25.753  25.483  1.00  0.00     0.175 C 
BRANCH   7   8
ATOM      8  N   UNL A   1      30.135  24.713  26.452  1.00  0.00    -0.339 N 
ATOM      9  C   UNL A   1      30.478  23.395  26.603  1.00  0.00     0.262 C 
ATOM     10  O   UNL A   1      29.963  22.810  27.569  1.00  0.00    -0.268 OA
ATOM     11  H   UNL A   1      29.494  25.032  27.127  1.00  0.00     0.164 HD
BRANCH   9  12
ATOM     12  C   UNL A   1      31.457  22.748  25.766  1.00  0.00     0.093 A 
ATOM     13  C   UNL A   1      32.815  20.949  24.935  1.00  0.00     0.078 A 
ATOM     14  C   UNL A   1      32.325  21.696  23.887  1.00  0.00     0.030 A 
ATOM     15  S   UNL A   1      32.801  21.874  26.357  1.00  0.00    -0.121 S 
ATOM     16  C   UNL A   1      31.542  22.786  24.381  1.00  0.00     0.027 A 
BRANCH  13  17
ATOM     17  C   UNL A   1      33.379  19.657  24.885  1.00  0.00    -0.053 C 
ATOM     18  C   UNL A   1      33.694  18.397  24.770  1.00  0.00    -0.063 C 
BRANCH  18  19
ATOM     19  C   UNL A   1      34.059  16.928  24.636  1.00  0.00     0.120 C 
ATOM     20  C   UNL A   1      34.138  16.549  23.159  1.00  0.00     0.056 C 
ATOM     21  C   UNL A   1      33.032  16.072  25.374  1.00  0.00     0.056 C 
BRANCH  19  22
ATOM     22  O   UNL A   1      35.343  16.734  25.225  1.00  0.00    -0.378 OA
ATOM     23  H   UNL A   1      35.347  17.107  26.121  1.00  0.00     0.212 HD
ENDBRANCH  19  22
ENDBRANCH  18  19
ENDBRANCH  13  17
ENDBRANCH   9  12
ENDBRANCH   7   8
BRANCH   7  24
ATOM     24  C   UNL A   1      29.391  26.182  24.511  1.00  0.00     0.068 C 
BRANCH  24  25
ATOM     25  C   UNL A   1      29.683  27.188  23.433  1.00  0.00    -0.037 C 
ATOM     26  C   UNL A   1      28.945  28.212  23.001  1.00  0.00     0.001 A 
ATOM     27  C   UNL A   1      31.022  27.189  22.747  1.00  0.00     0.174 C 
ATOM     28  C   UNL A   1      27.647  28.725  23.302  1.00  0.00     0.010 A 
ATOM     29  C   UNL A   1      29.922  29.005  22.236  1.00  0.00     0.065 A 
ATOM     30  N   UNL A   1      31.096  28.492  22.046  1.00  0.00    -0.280 NA
ATOM     31  C   UNL A   1      27.362  29.999  22.985  1.00  0.00     0.001 A 
ATOM     32  C   UNL A   1      29.517  30.381  21.873  1.00  0.00     0.028 A 
ATOM     33  C   UNL A   1      28.323  30.837  22.288  1.00  0.00     0.002 A 
ENDBRANCH  24  25
ENDBRANCH   7  24
ENDBRANCH   4   7
ENDBRANCH   2   3
ENDBRANCH   1   2
BRANCH   1  34
ATOM     34  C   UNL A   1      35.474  24.695  25.338  1.00  0.00     0.002 C 
BRANCH  34  35
ATOM     35  C   UNL A   1      35.540  23.597  24.270  1.00  0.00     0.002 C 
BRANCH  35  36
ATOM     36  C   UNL A   1      36.552  22.473  24.514  1.00  0.00     0.021 C 
BRANCH  36  37
ATOM     37  C   UNL A   1      37.034  22.333  25.957  1.00  0.00     0.116 C 
BRANCH  37  38
ATOM     38  N   UNL A   1      38.285  21.621  26.090  1.00  0.00    -0.352 N 
ATOM     39  C   UNL A   1      39.527  21.930  26.568  1.00  0.00     0.251 C 
ATOM     40  H   UNL A   1      38.229  20.696  25.756  1.00  0.00     0.163 HD
ATOM     41  O   UNL A   1      40.331  20.994  26.604  1.00  0.00    -0.269 OA
BRANCH  39  42
ATOM     42  C   UNL A   1      39.980  23.288  26.974  1.00  0.00     0.039 A 
ATOM     43  C   UNL A   1      41.019  23.565  27.858  1.00  0.00     0.014 A 
ATOM     44  C   UNL A   1      39.243  24.370  26.447  1.00  0.00     0.014 A 
ATOM     45  C   UNL A   1      41.245  24.867  28.288  1.00  0.00     0.010 A 
ATOM     46  C   UNL A   1      39.482  25.680  26.854  1.00  0.00     0.010 A 
ATOM     47  C   UNL A   1      40.458  25.922  27.810  1.00  0.00    -0.014 A 
BRANCH  47  48
ATOM     48  C   UNL A   1      40.801  27.267  28.264  1.00  0.00     0.031 A 
ATOM     49  C   UNL A   1      42.132  27.737  27.794  1.00  0.00     0.074 A 
ATOM     50  C   UNL A   1      40.018  28.059  29.023  1.00  0.00     0.049 A 
ATOM     51  N   UNL A   1      43.216  27.840  28.492  1.00  0.00    -0.248 NA
ATOM     52  C   UNL A   1      42.318  27.959  26.354  1.00  0.00     0.031 C 
ATOM     53  C   UNL A   1      38.608  27.886  29.372  1.00  0.00     0.029 A 
ATOM     54  N   UNL A   1      40.326  29.265  29.585  1.00  0.00    -0.354 N 
ATOM     55  C   UNL A   1      44.170  28.362  27.625  1.00  0.00     0.074 A 
ATOM     56  C   UNL A   1      43.617  28.261  26.299  1.00  0.00     0.031 C 
ATOM     57  C   UNL A   1      38.129  29.043  29.890  1.00  0.00     0.029 A 
ATOM     58  C   UNL A   1      39.227  29.978  30.052  1.00  0.00     0.049 A 
ATOM     59  H   UNL A   1      41.249  29.601  29.653  1.00  0.00     0.167 HD
ATOM     60  C   UNL A   1      45.250  29.049  28.085  1.00  0.00     0.034 A 
ATOM     61  C   UNL A   1      39.234  31.261  30.497  1.00  0.00     0.034 A 
ATOM     62  C   UNL A   1      45.470  28.837  29.490  1.00  0.00     0.049 A 
ATOM     63  C   UNL A   1      40.617  31.539  30.944  1.00  0.00     0.074 A 
ATOM     64  C   UNL A   1      45.752  27.749  30.290  1.00  0.00     0.029 A 
ATOM     65  N   UNL A   1      45.036  29.830  30.330  1.00  0.00    -0.354 N 
ATOM     66  N   UNL A   1      41.180  30.963  31.968  1.00  0.00    -0.248 NA
ATOM     67  C   UNL A   1      41.519  32.219  30.029  1.00  0.00     0.031 C 
ATOM     68  C   UNL A   1      45.048  27.994  31.506  1.00  0.00     0.029 A 
ATOM     69  C   UNL A   1      44.413  29.234  31.391  1.00  0.00     0.049 A 
ATOM     70  H   UNL A   1      45.154  30.798  30.194  1.00  0.00     0.167 HD
ATOM     71  C   UNL A   1      42.509  30.826  31.597  1.00  0.00     0.074 A 
ATOM     72  C   UNL A   1      42.681  31.725  30.460  1.00  0.00     0.031 C 
ATOM     73  C   UNL A   1      43.263  29.792  32.066  1.00  0.00     0.034 A 
BRANCH  60  74
ATOM     74  C   UNL A   1      45.880  30.214  27.363  1.00  0.00     0.023 A 
ATOM     75  C   UNL A   1      47.286  30.341  27.411  1.00  0.00     0.012 A 
ATOM     76  C   UNL A   1      45.147  31.328  26.897  1.00  0.00     0.148 A 
ATOM     77  C   UNL A   1      47.925  31.528  27.037  1.00  0.00     0.002 A 
ATOM     78  C   UNL A   1      45.790  32.479  26.457  1.00  0.00     0.091 A 
ATOM     79  F   UNL A   1      43.814  31.339  27.006  1.00  0.00    -0.205 F 
ATOM     80  C   UNL A   1      47.179  32.594  26.548  1.00  0.00     0.022 A 
BRANCH  78  81
ATOM     81  S   UNL A   1      44.873  33.872  25.793  1.00  0.00     0.127 S 
ATOM     82  O   UNL A   1      45.899  34.911  25.769  1.00  0.00    -0.237 OA
ATOM     83  O   UNL A   1      44.469  33.365  24.482  1.00  0.00    -0.237 OA
ATOM     84  O   UNL A   1      43.766  34.084  26.717  1.00  0.00    -0.744 OA
ENDBRANCH  78  81
ENDBRANCH  60  74
BRANCH  61  85
ATOM     85  C   UNL A   1      38.240  32.356  30.351  1.00  0.00     0.023 A 
ATOM     86  C   UNL A   1      37.742  32.658  29.062  1.00  0.00     0.012 A 
ATOM     87  C   UNL A   1      37.540  32.872  31.462  1.00  0.00     0.148 A 
ATOM     88  C   UNL A   1      36.551  33.373  28.888  1.00  0.00     0.002 A 
ATOM     89  C   UNL A   1      36.361  33.594  31.284  1.00  0.00     0.091 A 
ATOM     90  F   UNL A   1      37.972  32.577  32.695  1.00  0.00    -0.205 F 
ATOM     91  C   UNL A   1      35.851  33.826  30.000  1.00  0.00     0.022 A 
BRANCH  89  92
ATOM     92  S   UNL A   1      35.398  34.206  32.675  1.00  0.00     0.127 S 
ATOM     93  O   UNL A   1      34.311  34.921  32.003  1.00  0.00    -0.237 OA
ATOM     94  O   UNL A   1      34.998  32.969  33.337  1.00  0.00    -0.237 OA
ATOM     95  O   UNL A   1      36.300  35.069  33.427  1.00  0.00    -0.744 OA
ENDBRANCH  89  92
ENDBRANCH  61  85
BRANCH  73  96
ATOM     96  C   UNL A   1      42.725  28.987  33.220  1.00  0.00     0.023 A 
ATOM     97  C   UNL A   1      41.738  27.994  33.046  1.00  0.00     0.012 A 
ATOM     98  C   UNL A   1      43.388  29.089  34.453  1.00  0.00     0.148 A 
ATOM     99  C   UNL A   1      41.425  27.115  34.086  1.00  0.00     0.002 A 
ATOM    100  C   UNL A   1      43.104  28.187  35.470  1.00  0.00     0.091 A 
ATOM    101  F   UNL A   1      44.331  30.033  34.585  1.00  0.00    -0.205 F 
ATOM    102  C   UNL A   1      42.120  27.200  35.292  1.00  0.00     0.022 A 
BRANCH 100 103
ATOM    103  S   UNL A   1      44.035  28.162  37.003  1.00  0.00     0.127 S 
ATOM    104  O   UNL A   1      43.377  27.087  37.744  1.00  0.00    -0.237 OA
ATOM    105  O   UNL A   1      45.385  27.845  36.538  1.00  0.00    -0.237 OA
ATOM    106  O   UNL A   1      43.894  29.489  37.588  1.00  0.00    -0.744 OA
ENDBRANCH 100 103
ENDBRANCH  73  96
ENDBRANCH  47  48
ENDBRANCH  39  42
ENDBRANCH  37  38
ENDBRANCH  36  37
ENDBRANCH  35  36
ENDBRANCH  34  35
ENDBRANCH   1  34
TORSDOF 23
ENDMDL
MODEL 2
REMARK VINA RESULT:     -12.7      3.115      8.484
REMARK SMILES CC(C)(O)C#Cc1ccc(C(=O)N[C@@H](CC2=c3ccccc3=NC2)C(=O)NCCCCCCNC(=O)c2ccc(-c3c4nc(c(-c5cccc(S(=O)(=O)[O-])c5F)c5ccc([nH]5)c(-c5cccc(S(=O)(=O)[O-])c5F)c5nc(c(-c6cccc(S(=O)(=O)[O-])c6F)c6ccc3[nH]6)C=C5)C=C4)cc2)s1
REMARK SMILES IDX 29 1 28 2 27 3 25 4 26 5 14 7 13 8 11 9 12 10 10 12 7 13
REMARK SMILES IDX 8 14 100 15 9 16 6 17 5 18 2 19 1 20 3 21 4 22 15 24 16 25
REMARK SMILES IDX 17 26 24 27 18 28 22 29 23 30 19 31 21 32 20 33 30 34 31 35
REMARK SMILES IDX 32 36 33 37 34 38 35 39 36 41 37 42 38 43 99 44 39 45 98 46
REMARK SMILES IDX 40 47 41 48 42 49 92 50 43 51 97 52 91 53 93 54 44 55 96 56
REMARK SMILES IDX 90 57 89 58 45 60 77 61 57 62 76 63 58 64 61 65 75 66 94 67
REMARK SMILES IDX 59 68 60 69 74 71 95 72 62 73 46 74 47 75 55 76 48 77 50 78
REMARK SMILES IDX 56 79 49 80 51 81 52 82 53 83 54 84 78 85 79 86 87 87 80 88
REMARK SMILES IDX 82 89 88 90 81 91 83 92 84 93 85 94 86 95 63 96 64 97 72 98
REMARK SMILES IDX 65 99 67 100 73 101 66 102 68 103 69 104 70 105 71 106
REMARK H PARENT 27 6 13 11 4 23 34 40 93 59 61 70
REMARK Flexibility Score: inf
ROOT
ATOM      1  C   UNL A   1      34.820  29.392  27.311  1.00  0.00     0.021 C 
ENDROOT
BRANCH   1   2
ATOM      2  C   UNL A   1      33.946  29.035  26.128  1.00  0.00     0.116 C 
BRANCH   2   3
ATOM      3  N   UNL A   1      32.643  28.539  26.485  1.00  0.00    -0.354 N 
ATOM      4  C   UNL A   1      32.153  27.277  26.365  1.00  0.00     0.242 C 
ATOM      5  O   UNL A   1      31.119  27.015  26.990  1.00  0.00    -0.273 OA
ATOM      6  H   UNL A   1      32.025  29.203  26.866  1.00  0.00     0.163 HD
BRANCH   4   7
ATOM      7  C   UNL A   1      32.849  26.180  25.522  1.00  0.00     0.175 C 
BRANCH   7   8
ATOM      8  N   UNL A   1      33.096  26.577  24.122  1.00  0.00    -0.339 N 
ATOM      9  C   UNL A   1      32.895  25.947  22.921  1.00  0.00     0.262 C 
ATOM     10  O   UNL A   1      33.196  26.601  21.911  1.00  0.00    -0.268 OA
ATOM     11  H   UNL A   1      33.482  27.478  24.033  1.00  0.00     0.164 HD
BRANCH   9  12
ATOM     12  C   UNL A   1      32.273  24.650  22.822  1.00  0.00     0.093 A 
ATOM     13  C   UNL A   1      32.097  22.262  23.007  1.00  0.00     0.078 A 
ATOM     14  C   UNL A   1      30.925  22.856  23.419  1.00  0.00     0.030 A 
ATOM     15  S   UNL A   1      32.954  23.319  21.995  1.00  0.00    -0.121 S 
ATOM     16  C   UNL A   1      31.017  24.277  23.279  1.00  0.00     0.027 A 
BRANCH  13  17
ATOM     17  C   UNL A   1      32.522  20.938  23.243  1.00  0.00    -0.053 C 
ATOM     18  C   UNL A   1      32.717  19.691  23.572  1.00  0.00    -0.063 C 
BRANCH  18  19
ATOM     19  C   UNL A   1      32.944  18.239  23.956  1.00  0.00     0.120 C 
ATOM     20  C   UNL A   1      34.185  18.126  24.838  1.00  0.00     0.056 C 
ATOM     21  C   UNL A   1      33.081  17.387  22.696  1.00  0.00     0.056 C 
BRANCH  19  22
ATOM     22  O   UNL A   1      31.813  17.795  24.702  1.00  0.00    -0.378 OA
ATOM     23  H   UNL A   1      31.733  16.831  24.624  1.00  0.00     0.212 HD
ENDBRANCH  19  22
ENDBRANCH  18  19
ENDBRANCH  13  17
ENDBRANCH   9  12
ENDBRANCH   7   8
BRANCH   7  24
ATOM     24  C   UNL A   1      34.057  25.458  26.197  1.00  0.00     0.068 C 
BRANCH  24  25
ATOM     25  C   UNL A   1      34.223  23.976  26.014  1.00  0.00    -0.037 C 
ATOM     26  C   UNL A   1      34.979  23.305  25.144  1.00  0.00     0.001 A 
ATOM     27  C   UNL A   1      33.559  23.020  26.968  1.00  0.00     0.174 C 
ATOM     28  C   UNL A   1      35.842  23.661  24.064  1.00  0.00     0.010 A 
ATOM     29  C   UNL A   1      34.994  21.948  25.718  1.00  0.00     0.065 A 
ATOM     30  N   UNL A   1      34.218  21.716  26.730  1.00  0.00    -0.280 NA
ATOM     31  C   UNL A   1      36.765  22.778  23.651  1.00  0.00     0.001 A 
ATOM     32  C   UNL A   1      36.001  21.011  25.174  1.00  0.00     0.028 A 
ATOM     33  C   UNL A   1      36.856  21.451  24.236  1.00  0.00     0.002 A 
ENDBRANCH  24  25
ENDBRANCH   7  24
ENDBRANCH   4   7
ENDBRANCH   2   3
ENDBRANCH   1   2
BRANCH   1  34
ATOM     34  C   UNL A   1      35.008  30.891  27.518  1.00  0.00     0.002 C 
BRANCH  34  35
ATOM     35  C   UNL A   1      33.743  31.671  27.895  1.00  0.00     0.002 C 
BRANCH  35  36
ATOM     36  C   UNL A   1      33.860  33.200  27.886  1.00  0.00     0.021 C 
BRANCH  36  37
ATOM     37  C   UNL A   1      34.733  33.792  28.991  1.00  0.00     0.116 C 
BRANCH  37  38
ATOM     38  N   UNL A   1      34.406  33.311  30.316  1.00  0.00    -0.352 N 
ATOM     39  C   UNL A   1      34.986  32.447  31.200  1.00  0.00     0.251 C 
ATOM     40  H   UNL A   1      33.569  33.697  30.660  1.00  0.00     0.163 HD
ATOM     41  O   UNL A   1      34.441  32.370  32.305  1.00  0.00    -0.269 OA
BRANCH  39  42
ATOM     42  C   UNL A   1      36.156  31.573  30.909  1.00  0.00     0.039 A 
ATOM     43  C   UNL A   1      36.129  30.184  30.825  1.00  0.00     0.014 A 
ATOM     44  C   UNL A   1      37.397  32.229  30.764  1.00  0.00     0.014 A 
ATOM     45  C   UNL A   1      37.313  29.466  30.710  1.00  0.00     0.010 A 
ATOM     46  C   UNL A   1      38.584  31.515  30.622  1.00  0.00     0.010 A 
ATOM     47  C   UNL A   1      38.544  30.129  30.639  1.00  0.00    -0.014 A 
BRANCH  47  48
ATOM     48  C   UNL A   1      39.735  29.303  30.457  1.00  0.00     0.031 A 
ATOM     49  C   UNL A   1      40.452  28.998  31.726  1.00  0.00     0.074 A 
ATOM     50  C   UNL A   1      40.180  28.819  29.280  1.00  0.00     0.049 A 
ATOM     51  N   UNL A   1      41.565  29.511  32.137  1.00  0.00    -0.248 NA
ATOM     52  C   UNL A   1      39.772  28.154  32.717  1.00  0.00     0.031 C 
ATOM     53  C   UNL A   1      39.498  28.797  27.986  1.00  0.00     0.029 A 
ATOM     54  N   UNL A   1      41.344  28.154  29.024  1.00  0.00    -0.354 N 
ATOM     55  C   UNL A   1      41.844  28.879  33.344  1.00  0.00     0.074 A 
ATOM     56  C   UNL A   1      40.642  28.185  33.730  1.00  0.00     0.031 C 
ATOM     57  C   UNL A   1      40.158  27.964  27.146  1.00  0.00     0.029 A 
ATOM     58  C   UNL A   1      41.383  27.520  27.787  1.00  0.00     0.049 A 
ATOM     59  H   UNL A   1      42.094  28.127  29.662  1.00  0.00     0.167 HD
ATOM     60  C   UNL A   1      43.114  28.785  33.822  1.00  0.00     0.034 A 
ATOM     61  C   UNL A   1      42.342  26.662  27.356  1.00  0.00     0.034 A 
ATOM     62  C   UNL A   1      44.009  29.700  33.167  1.00  0.00     0.049 A 
ATOM     63  C   UNL A   1      43.563  26.977  28.132  1.00  0.00     0.074 A 
ATOM     64  C   UNL A   1      44.099  31.071  33.042  1.00  0.00     0.029 A 
ATOM     65  N   UNL A   1      44.811  29.171  32.189  1.00  0.00    -0.354 N 
ATOM     66  N   UNL A   1      44.224  28.094  28.025  1.00  0.00    -0.248 NA
ATOM     67  C   UNL A   1      43.864  26.176  29.307  1.00  0.00     0.031 C 
ATOM     68  C   UNL A   1      44.586  31.289  31.720  1.00  0.00     0.029 A 
ATOM     69  C   UNL A   1      44.804  30.040  31.132  1.00  0.00     0.049 A 
ATOM     70  H   UNL A   1      45.304  28.321  32.238  1.00  0.00     0.167 HD
ATOM     71  C   UNL A   1      44.681  28.347  29.309  1.00  0.00     0.074 A 
ATOM     72  C   UNL A   1      44.541  27.079  30.019  1.00  0.00     0.031 C 
ATOM     73  C   UNL A   1      44.862  29.625  29.749  1.00  0.00     0.034 A 
BRANCH  60  74
ATOM     74  C   UNL A   1      43.637  27.605  34.603  1.00  0.00     0.023 A 
ATOM     75  C   UNL A   1      44.323  27.863  35.811  1.00  0.00     0.012 A 
ATOM     76  C   UNL A   1      43.739  26.301  34.068  1.00  0.00     0.148 A 
ATOM     77  C   UNL A   1      45.092  26.876  36.438  1.00  0.00     0.002 A 
ATOM     78  C   UNL A   1      44.442  25.305  34.734  1.00  0.00     0.091 A 
ATOM     79  F   UNL A   1      43.273  26.049  32.841  1.00  0.00    -0.205 F 
ATOM     80  C   UNL A   1      45.143  25.594  35.906  1.00  0.00     0.022 A 
BRANCH  78  81
ATOM     81  S   UNL A   1      44.517  23.626  34.102  1.00  0.00     0.127 S 
ATOM     82  O   UNL A   1      45.421  22.995  35.058  1.00  0.00    -0.237 OA
ATOM     83  O   UNL A   1      43.118  23.209  34.200  1.00  0.00    -0.237 OA
ATOM     84  O   UNL A   1      45.008  23.746  32.735  1.00  0.00    -0.744 OA
ENDBRANCH  78  81
ENDBRANCH  60  74
BRANCH  61  85
ATOM     85  C   UNL A   1      42.259  25.433  26.525  1.00  0.00     0.023 A 
ATOM     86  C   UNL A   1      43.242  25.213  25.533  1.00  0.00     0.012 A 
ATOM     87  C   UNL A   1      41.449  24.339  26.899  1.00  0.00     0.148 A 
ATOM     88  C   UNL A   1      43.468  23.939  24.997  1.00  0.00     0.002 A 
ATOM     89  C   UNL A   1      41.668  23.076  26.355  1.00  0.00     0.091 A 
ATOM     90  F   UNL A   1      40.530  24.512  27.858  1.00  0.00    -0.205 F 
ATOM     91  C   UNL A   1      42.692  22.867  25.421  1.00  0.00     0.022 A 
BRANCH  89  92
ATOM     92  S   UNL A   1      40.709  21.639  26.859  1.00  0.00     0.127 S 
ATOM     93  O   UNL A   1      39.366  21.989  26.393  1.00  0.00    -0.237 OA
ATOM     94  O   UNL A   1      41.355  20.564  26.112  1.00  0.00    -0.237 OA
ATOM     95  O   UNL A   1      40.836  21.572  28.309  1.00  0.00    -0.744 OA
ENDBRANCH  89  92
ENDBRANCH  61  85
BRANCH  73  96
ATOM     96  C   UNL A   1      44.852  30.734  28.731  1.00  0.00     0.023 A 
ATOM     97  C   UNL A   1      43.697  31.500  28.467  1.00  0.00     0.012 A 
ATOM     98  C   UNL A   1      46.085  31.144  28.199  1.00  0.00     0.148 A 
ATOM     99  C   UNL A   1      43.777  32.659  27.690  1.00  0.00     0.002 A 
ATOM    100  C   UNL A   1      46.167  32.318  27.462  1.00  0.00     0.091 A 
ATOM    101  F   UNL A   1      47.168  30.403  28.476  1.00  0.00    -0.205 F 
ATOM    102  C   UNL A   1      45.014  33.078  27.203  1.00  0.00     0.022 A 
BRANCH 100 103
ATOM    103  S   UNL A   1      47.738  32.978  26.902  1.00  0.00     0.127 S 
ATOM    104  O   UNL A   1      47.325  33.893  25.839  1.00  0.00    -0.237 OA
ATOM    105  O   UNL A   1      48.245  33.632  28.108  1.00  0.00    -0.237 OA
ATOM    106  O   UNL A   1      48.527  31.836  26.458  1.00  0.00    -0.744 OA
ENDBRANCH 100 103
ENDBRANCH  73  96
ENDBRANCH  47  48
ENDBRANCH  39  42
ENDBRANCH  37  38
ENDBRANCH  36  37
ENDBRANCH  35  36
ENDBRANCH  34  35
ENDBRANCH   1  34
TORSDOF 23
ENDMDL
MODEL 3
REMARK VINA RESULT:     -12.2      3.259      6.691
REMARK SMILES CC(C)(O)C#Cc1ccc(C(=O)N[C@@H](CC2=c3ccccc3=NC2)C(=O)NCCCCCCNC(=O)c2ccc(-c3c4nc(c(-c5cccc(S(=O)(=O)[O-])c5F)c5ccc([nH]5)c(-c5cccc(S(=O)(=O)[O-])c5F)c5nc(c(-c6cccc(S(=O)(=O)[O-])c6F)c6ccc3[nH]6)C=C5)C=C4)cc2)s1
REMARK SMILES IDX 29 1 28 2 27 3 25 4 26 5 14 7 13 8 11 9 12 10 10 12 7 13
REMARK SMILES IDX 8 14 100 15 9 16 6 17 5 18 2 19 1 20 3 21 4 22 15 24 16 25
REMARK SMILES IDX 17 26 24 27 18 28 22 29 23 30 19 31 21 32 20 33 30 34 31 35
REMARK SMILES IDX 32 36 33 37 34 38 35 39 36 41 37 42 38 43 99 44 39 45 98 46
REMARK SMILES IDX 40 47 41 48 42 49 92 50 43 51 97 52 91 53 93 54 44 55 96 56
REMARK SMILES IDX 90 57 89 58 45 60 77 61 57 62 76 63 58 64 61 65 75 66 94 67
REMARK SMILES IDX 59 68 60 69 74 71 95 72 62 73 46 74 47 75 55 76 48 77 50 78
REMARK SMILES IDX 56 79 49 80 51 81 52 82 53 83 54 84 78 85 79 86 87 87 80 88
REMARK SMILES IDX 82 89 88 90 81 91 83 92 84 93 85 94 86 95 63 96 64 97 72 98
REMARK SMILES IDX 65 99 67 100 73 101 66 102 68 103 69 104 70 105 71 106
REMARK H PARENT 27 6 13 11 4 23 34 40 93 59 61 70
REMARK Flexibility Score: inf
ROOT
ATOM      1  C   UNL A   1      33.947  25.449  25.536  1.00  0.00     0.021 C 
ENDROOT
BRANCH   1   2
ATOM      2  C   UNL A   1      33.611  24.325  26.492  1.00  0.00     0.116 C 
BRANCH   2   3
ATOM      3  N   UNL A   1      32.205  24.045  26.603  1.00  0.00    -0.354 N 
ATOM      4  C   UNL A   1      31.505  22.994  26.099  1.00  0.00     0.242 C 
ATOM      5  O   UNL A   1      30.370  22.807  26.551  1.00  0.00    -0.273 OA
ATOM      6  H   UNL A   1      31.678  24.703  27.112  1.00  0.00     0.163 HD
BRANCH   4   7
ATOM      7  C   UNL A   1      32.084  22.031  25.032  1.00  0.00     0.175 C 
BRANCH   7   8
ATOM      8  N   UNL A   1      32.053  20.612  25.438  1.00  0.00    -0.339 N 
ATOM      9  C   UNL A   1      32.991  19.613  25.419  1.00  0.00     0.262 C 
ATOM     10  O   UNL A   1      32.624  18.519  25.874  1.00  0.00    -0.268 OA
ATOM     11  H   UNL A   1      31.181  20.327  25.796  1.00  0.00     0.164 HD
BRANCH   9  12
ATOM     12  C   UNL A   1      34.352  19.837  25.001  1.00  0.00     0.093 A 
ATOM     13  C   UNL A   1      36.584  20.718  25.113  1.00  0.00     0.078 A 
ATOM     14  C   UNL A   1      36.614  19.403  24.706  1.00  0.00     0.030 A 
ATOM     15  S   UNL A   1      35.054  21.382  24.803  1.00  0.00    -0.121 S 
ATOM     16  C   UNL A   1      35.284  18.886  24.608  1.00  0.00     0.027 A 
BRANCH  13  17
ATOM     17  C   UNL A   1      37.656  21.495  25.600  1.00  0.00    -0.053 C 
ATOM     18  C   UNL A   1      38.486  22.330  26.161  1.00  0.00    -0.063 C 
BRANCH  18  19
ATOM     19  C   UNL A   1      39.452  23.303  26.816  1.00  0.00     0.120 C 
ATOM     20  C   UNL A   1      40.495  22.532  27.622  1.00  0.00     0.056 C 
ATOM     21  C   UNL A   1      38.680  24.280  27.699  1.00  0.00     0.056 C 
BRANCH  19  22
ATOM     22  O   UNL A   1      40.119  24.028  25.785  1.00  0.00    -0.378 OA
ATOM     23  H   UNL A   1      40.366  24.906  26.116  1.00  0.00     0.212 HD
ENDBRANCH  19  22
ENDBRANCH  18  19
ENDBRANCH  13  17
ENDBRANCH   9  12
ENDBRANCH   7   8
BRANCH   7  24
ATOM     24  C   UNL A   1      31.624  22.279  23.562  1.00  0.00     0.068 C 
BRANCH  24  25
ATOM     25  C   UNL A   1      32.039  23.544  22.866  1.00  0.00    -0.037 C 
ATOM     26  C   UNL A   1      31.444  24.738  22.843  1.00  0.00     0.001 A 
ATOM     27  C   UNL A   1      33.356  23.609  22.142  1.00  0.00     0.174 C 
ATOM     28  C   UNL A   1      30.233  25.279  23.372  1.00  0.00     0.010 A 
ATOM     29  C   UNL A   1      32.512  25.614  22.330  1.00  0.00     0.065 A 
ATOM     30  N   UNL A   1      33.602  25.051  21.912  1.00  0.00    -0.280 NA
ATOM     31  C   UNL A   1      30.123  26.609  23.515  1.00  0.00     0.001 A 
ATOM     32  C   UNL A   1      32.297  27.071  22.471  1.00  0.00     0.028 A 
ATOM     33  C   UNL A   1      31.182  27.506  23.082  1.00  0.00     0.002 A 
ENDBRANCH  24  25
ENDBRANCH   7  24
ENDBRANCH   4   7
ENDBRANCH   2   3
ENDBRANCH   1   2
BRANCH   1  34
ATOM     34  C   UNL A   1      33.617  26.840  26.068  1.00  0.00     0.002 C 
BRANCH  34  35
ATOM     35  C   UNL A   1      32.174  27.041  26.545  1.00  0.00     0.002 C 
BRANCH  35  36
ATOM     36  C   UNL A   1      31.816  28.443  27.053  1.00  0.00     0.021 C 
BRANCH  36  37
ATOM     37  C   UNL A   1      31.768  29.531  25.981  1.00  0.00     0.116 C 
BRANCH  37  38
ATOM     38  N   UNL A   1      31.485  30.850  26.501  1.00  0.00    -0.352 N 
ATOM     39  C   UNL A   1      32.232  31.852  27.052  1.00  0.00     0.251 C 
ATOM     40  H   UNL A   1      30.529  31.081  26.444  1.00  0.00     0.163 HD
ATOM     41  O   UNL A   1      31.625  32.901  27.287  1.00  0.00    -0.269 OA
BRANCH  39  42
ATOM     42  C   UNL A   1      33.667  31.746  27.435  1.00  0.00     0.039 A 
ATOM     43  C   UNL A   1      34.379  30.560  27.588  1.00  0.00     0.014 A 
ATOM     44  C   UNL A   1      34.324  32.963  27.713  1.00  0.00     0.014 A 
ATOM     45  C   UNL A   1      35.668  30.579  28.106  1.00  0.00     0.010 A 
ATOM     46  C   UNL A   1      35.625  32.990  28.207  1.00  0.00     0.010 A 
ATOM     47  C   UNL A   1      36.282  31.791  28.445  1.00  0.00    -0.014 A 
BRANCH  47  48
ATOM     48  C   UNL A   1      37.659  31.728  28.926  1.00  0.00     0.031 A 
ATOM     49  C   UNL A   1      38.324  30.421  28.669  1.00  0.00     0.074 A 
ATOM     50  C   UNL A   1      38.323  32.731  29.534  1.00  0.00     0.049 A 
ATOM     51  N   UNL A   1      38.581  29.492  29.532  1.00  0.00    -0.248 NA
ATOM     52  C   UNL A   1      38.581  30.039  27.274  1.00  0.00     0.031 C 
ATOM     53  C   UNL A   1      37.940  34.139  29.652  1.00  0.00     0.029 A 
ATOM     54  N   UNL A   1      39.557  32.699  30.117  1.00  0.00    -0.354 N 
ATOM     55  C   UNL A   1      39.244  28.497  28.821  1.00  0.00     0.074 A 
ATOM     56  C   UNL A   1      39.071  28.806  27.425  1.00  0.00     0.031 C 
ATOM     57  C   UNL A   1      39.011  34.860  30.066  1.00  0.00     0.029 A 
ATOM     58  C   UNL A   1      40.097  33.953  30.387  1.00  0.00     0.049 A 
ATOM     59  H   UNL A   1      40.024  31.859  30.328  1.00  0.00     0.167 HD
ATOM     60  C   UNL A   1      40.080  27.619  29.438  1.00  0.00     0.034 A 
ATOM     61  C   UNL A   1      41.363  34.206  30.805  1.00  0.00     0.034 A 
ATOM     62  C   UNL A   1      39.893  27.602  30.863  1.00  0.00     0.049 A 
ATOM     63  C   UNL A   1      41.840  32.970  31.465  1.00  0.00     0.074 A 
ATOM     64  C   UNL A   1      38.854  27.298  31.718  1.00  0.00     0.029 A 
ATOM     65  N   UNL A   1      40.806  28.307  31.605  1.00  0.00    -0.354 N 
ATOM     66  N   UNL A   1      41.346  32.502  32.577  1.00  0.00    -0.248 NA
ATOM     67  C   UNL A   1      42.651  32.041  30.697  1.00  0.00     0.031 C 
ATOM     68  C   UNL A   1      38.983  28.218  32.799  1.00  0.00     0.029 A 
ATOM     69  C   UNL A   1      40.117  29.001  32.561  1.00  0.00     0.049 A 
ATOM     70  H   UNL A   1      41.781  28.312  31.473  1.00  0.00     0.167 HD
ATOM     71  C   UNL A   1      41.410  31.126  32.429  1.00  0.00     0.074 A 
ATOM     72  C   UNL A   1      42.332  30.905  31.319  1.00  0.00     0.031 C 
ATOM     73  C   UNL A   1      40.494  30.314  33.031  1.00  0.00     0.034 A 
BRANCH  60  74
ATOM     74  C   UNL A   1      41.330  27.058  28.807  1.00  0.00     0.023 A 
ATOM     75  C   UNL A   1      41.597  25.681  28.978  1.00  0.00     0.012 A 
ATOM     76  C   UNL A   1      42.381  27.863  28.314  1.00  0.00     0.148 A 
ATOM     77  C   UNL A   1      42.857  25.142  28.695  1.00  0.00     0.002 A 
ATOM     78  C   UNL A   1      43.607  27.310  27.965  1.00  0.00     0.091 A 
ATOM     79  F   UNL A   1      42.252  29.194  28.310  1.00  0.00    -0.205 F 
ATOM     80  C   UNL A   1      43.859  25.953  28.177  1.00  0.00     0.022 A 
BRANCH  78  81
ATOM     81  S   UNL A   1      44.925  28.311  27.268  1.00  0.00     0.127 S 
ATOM     82  O   UNL A   1      45.278  29.158  28.404  1.00  0.00    -0.237 OA
ATOM     83  O   UNL A   1      45.916  27.295  26.917  1.00  0.00    -0.237 OA
ATOM     84  O   UNL A   1      44.333  28.989  26.121  1.00  0.00    -0.744 OA
ENDBRANCH  78  81
ENDBRANCH  60  74
BRANCH  61  85
ATOM     85  C   UNL A   1      42.301  35.312  30.482  1.00  0.00     0.023 A 
ATOM     86  C   UNL A   1      43.241  35.718  31.458  1.00  0.00     0.012 A 
ATOM     87  C   UNL A   1      42.509  35.741  29.153  1.00  0.00     0.148 A 
ATOM     88  C   UNL A   1      44.384  36.447  31.113  1.00  0.00     0.002 A 
ATOM     89  C   UNL A   1      43.643  36.478  28.816  1.00  0.00     0.091 A 
ATOM     90  F   UNL A   1      41.652  35.347  28.203  1.00  0.00    -0.205 F 
ATOM     91  C   UNL A   1      44.594  36.813  29.789  1.00  0.00     0.022 A 
BRANCH  89  92
ATOM     92  S   UNL A   1      43.986  36.981  27.123  1.00  0.00     0.127 S 
ATOM     93  O   UNL A   1      45.335  37.538  27.236  1.00  0.00    -0.237 OA
ATOM     94  O   UNL A   1      43.907  35.712  26.406  1.00  0.00    -0.237 OA
ATOM     95  O   UNL A   1      42.963  37.965  26.792  1.00  0.00    -0.744 OA
ENDBRANCH  89  92
ENDBRANCH  61  85
BRANCH  73  96
ATOM     96  C   UNL A   1      39.611  30.908  34.096  1.00  0.00     0.023 A 
ATOM     97  C   UNL A   1      40.025  31.013  35.441  1.00  0.00     0.012 A 
ATOM     98  C   UNL A   1      38.442  31.565  33.685  1.00  0.00     0.148 A 
ATOM     99  C   UNL A   1      39.285  31.768  36.354  1.00  0.00     0.002 A 
ATOM    100  C   UNL A   1      37.731  32.348  34.585  1.00  0.00     0.091 A 
ATOM    101  F   UNL A   1      38.080  31.458  32.397  1.00  0.00    -0.205 F 
ATOM    102  C   UNL A   1      38.148  32.449  35.923  1.00  0.00     0.022 A 
BRANCH 100 103
ATOM    103  S   UNL A   1      36.328  33.343  34.076  1.00  0.00     0.127 S 
ATOM    104  O   UNL A   1      36.961  34.366  33.246  1.00  0.00    -0.237 OA
ATOM    105  O   UNL A   1      35.515  32.375  33.339  1.00  0.00    -0.237 OA
ATOM    106  O   UNL A   1      35.713  33.838  35.301  1.00  0.00    -0.744 OA
ENDBRANCH 100 103
ENDBRANCH  73  96
ENDBRANCH  47  48
ENDBRANCH  39  42
ENDBRANCH  37  38
ENDBRANCH  36  37
ENDBRANCH  35  36
ENDBRANCH  34  35
ENDBRANCH   1  34
TORSDOF 23
ENDMDL
