MODEL 1
REMARK VINA RESULT:     -11.2      0.000      0.000
REMARK SMILES Cc1onc(-c2cccc(Br)c2)c1C(=O)NCCCCCCNC(=O)c1ccc(-c2c3nc(c(-c4cccc(S(=O)(=O)[O-])c4F)c4ccc([nH]4)c(-c4cccc(S(=O)(=O)[O-])c4F)c4nc(c(-c5cccc(S(=O)(=O)[O-])c5F)c5ccc2[nH]5)C=C4)C=C3)cc1
REMARK SMILES IDX 20 1 19 2 18 3 17 4 16 5 14 6 15 7 13 9 1 10 2 11 3 12 4 13
REMARK SMILES IDX 5 14 6 15 7 16 12 17 8 18 10 19 9 20 11 21 21 22 22 23 23 24
REMARK SMILES IDX 24 25 25 27 26 28 27 29 88 30 28 31 87 32 29 33 30 34 31 35
REMARK SMILES IDX 81 36 32 37 86 38 80 39 82 40 33 41 85 42 79 43 78 44 34 46
REMARK SMILES IDX 66 47 46 48 65 49 47 50 50 51 64 52 83 53 48 54 49 55 63 57
REMARK SMILES IDX 84 58 51 59 35 60 36 61 44 62 37 63 39 64 45 65 38 66 40 67
REMARK SMILES IDX 41 68 42 69 43 70 67 71 68 72 76 73 69 74 71 75 77 76 70 77
REMARK SMILES IDX 72 78 73 79 74 80 75 81 52 82 53 83 61 84 54 85 56 86 62 87
REMARK SMILES IDX 55 88 57 89 58 90 59 91 60 92
REMARK H PARENT 16 8 23 26 82 45 50 56
REMARK Flexibility Score: inf
ROOT
ATOM      1  C   UNL A   1      33.628  28.579  24.353  1.00  0.00     0.002 C 
ENDROOT
BRANCH   1   2
ATOM      2  C   UNL A   1      32.802  27.987  23.205  1.00  0.00     0.002 C 
BRANCH   2   3
ATOM      3  C   UNL A   1      33.269  26.602  22.727  1.00  0.00     0.021 C 
BRANCH   3   4
ATOM      4  C   UNL A   1      32.324  25.969  21.705  1.00  0.00     0.116 C 
BRANCH   4   5
ATOM      5  N   UNL A   1      32.004  24.625  22.096  1.00  0.00    -0.352 N 
ATOM      6  C   UNL A   1      31.564  24.025  23.236  1.00  0.00     0.257 C 
ATOM      7  O   UNL A   1      31.417  22.807  23.090  1.00  0.00    -0.269 OA
ATOM      8  H   UNL A   1      32.135  23.981  21.362  1.00  0.00     0.163 HD
BRANCH   6   9
ATOM      9  C   UNL A   1      31.252  24.674  24.510  1.00  0.00     0.110 A 
ATOM     10  C   UNL A   1      29.291  26.529  24.416  1.00  0.00     0.092 C 
ATOM     11  C   UNL A   1      30.344  25.635  24.944  1.00  0.00     0.147 A 
ATOM     12  O   UNL A   1      30.473  25.803  26.290  1.00  0.00    -0.360 OA
ATOM     13  N   UNL A   1      31.478  25.026  26.780  1.00  0.00    -0.079 NA
ATOM     14  C   UNL A   1      31.980  24.371  25.729  1.00  0.00     0.126 A 
BRANCH  14  15
ATOM     15  C   UNL A   1      33.122  23.489  25.937  1.00  0.00     0.006 A 
ATOM     16  C   UNL A   1      32.926  22.124  26.192  1.00  0.00     0.010 A 
ATOM     17  C   UNL A   1      34.422  24.001  25.868  1.00  0.00     0.026 A 
ATOM     18  C   UNL A   1      34.018  21.284  26.410  1.00  0.00     0.002 A 
ATOM     19  C   UNL A   1      35.508  23.153  26.080  1.00  0.00     0.018 A 
ATOM     20  C   UNL A   1      35.312  21.800  26.357  1.00  0.00     0.016 A 
ATOM     21  Br  UNL A   1      37.266  23.844  25.998  1.00  0.00    -0.051 Br
ENDBRANCH  14  15
ENDBRANCH   6   9
ENDBRANCH   4   5
ENDBRANCH   3   4
ENDBRANCH   2   3
ENDBRANCH   1   2
BRANCH   1  22
ATOM     22  C   UNL A   1      33.980  27.586  25.464  1.00  0.00     0.021 C 
BRANCH  22  23
ATOM     23  C   UNL A   1      33.666  28.091  26.868  1.00  0.00     0.116 C 
BRANCH  23  24
ATOM     24  N   UNL A   1      33.529  29.539  26.892  1.00  0.00    -0.352 N 
ATOM     25  C   UNL A   1      34.307  30.470  27.527  1.00  0.00     0.251 C 
ATOM     26  H   UNL A   1      32.770  29.901  26.380  1.00  0.00     0.163 HD
ATOM     27  O   UNL A   1      33.898  31.625  27.663  1.00  0.00    -0.269 OA
BRANCH  25  28
ATOM     28  C   UNL A   1      35.633  30.085  28.048  1.00  0.00     0.039 A 
ATOM     29  C   UNL A   1      35.751  29.670  29.376  1.00  0.00     0.014 A 
ATOM     30  C   UNL A   1      36.761  30.148  27.224  1.00  0.00     0.014 A 
ATOM     31  C   UNL A   1      36.996  29.274  29.864  1.00  0.00     0.010 A 
ATOM     32  C   UNL A   1      37.984  29.679  27.690  1.00  0.00     0.010 A 
ATOM     33  C   UNL A   1      38.117  29.249  29.018  1.00  0.00    -0.014 A 
BRANCH  33  34
ATOM     34  C   UNL A   1      39.437  28.773  29.502  1.00  0.00     0.031 A 
ATOM     35  C   UNL A   1      40.145  29.500  30.613  1.00  0.00     0.074 A 
ATOM     36  C   UNL A   1      40.034  27.735  28.884  1.00  0.00     0.049 A 
ATOM     37  N   UNL A   1      41.320  29.263  31.134  1.00  0.00    -0.248 NA
ATOM     38  C   UNL A   1      39.456  30.664  31.194  1.00  0.00     0.031 C 
ATOM     39  C   UNL A   1      39.481  26.999  27.744  1.00  0.00     0.029 A 
ATOM     40  N   UNL A   1      41.247  27.136  29.110  1.00  0.00    -0.354 N 
ATOM     41  C   UNL A   1      41.527  30.262  32.076  1.00  0.00     0.074 A 
ATOM     42  C   UNL A   1      40.372  31.132  32.029  1.00  0.00     0.031 C 
ATOM     43  C   UNL A   1      40.350  26.044  27.376  1.00  0.00     0.029 A 
ATOM     44  C   UNL A   1      41.531  26.120  28.228  1.00  0.00     0.049 A 
ATOM     45  H   UNL A   1      41.855  27.407  29.835  1.00  0.00     0.167 HD
ATOM     46  C   UNL A   1      42.569  30.427  32.925  1.00  0.00     0.034 A 
ATOM     47  C   UNL A   1      42.626  25.343  28.113  1.00  0.00     0.034 A 
ATOM     48  C   UNL A   1      43.698  29.538  32.991  1.00  0.00     0.049 A 
ATOM     49  C   UNL A   1      43.756  25.525  29.088  1.00  0.00     0.074 A 
ATOM     50  C   UNL A   1      44.762  29.564  33.876  1.00  0.00     0.029 A 
ATOM     51  N   UNL A   1      43.917  28.471  32.133  1.00  0.00    -0.354 N 
ATOM     52  N   UNL A   1      43.862  26.377  30.079  1.00  0.00    -0.248 NA
ATOM     53  C   UNL A   1      44.903  24.617  28.952  1.00  0.00     0.031 C 
ATOM     54  C   UNL A   1      45.641  28.533  33.531  1.00  0.00     0.029 A 
ATOM     55  C   UNL A   1      45.107  27.841  32.455  1.00  0.00     0.049 A 
ATOM     56  H   UNL A   1      43.316  28.202  31.402  1.00  0.00     0.167 HD
ATOM     57  C   UNL A   1      45.068  26.085  30.706  1.00  0.00     0.074 A 
ATOM     58  C   UNL A   1      45.645  24.962  29.995  1.00  0.00     0.031 C 
ATOM     59  C   UNL A   1      45.649  26.697  31.767  1.00  0.00     0.034 A 
BRANCH  46  60
ATOM     60  C   UNL A   1      42.517  31.591  33.881  1.00  0.00     0.023 A 
ATOM     61  C   UNL A   1      42.979  32.858  33.463  1.00  0.00     0.012 A 
ATOM     62  C   UNL A   1      41.969  31.448  35.170  1.00  0.00     0.148 A 
ATOM     63  C   UNL A   1      42.933  33.951  34.327  1.00  0.00     0.002 A 
ATOM     64  C   UNL A   1      41.882  32.554  36.008  1.00  0.00     0.091 A 
ATOM     65  F   UNL A   1      41.555  30.233  35.558  1.00  0.00    -0.205 F 
ATOM     66  C   UNL A   1      42.376  33.802  35.594  1.00  0.00     0.022 A 
BRANCH  64  67
ATOM     67  S   UNL A   1      41.108  32.484  37.626  1.00  0.00     0.127 S 
ATOM     68  O   UNL A   1      41.132  33.891  38.025  1.00  0.00    -0.237 OA
ATOM     69  O   UNL A   1      39.777  31.963  37.309  1.00  0.00    -0.237 OA
ATOM     70  O   UNL A   1      41.933  31.593  38.429  1.00  0.00    -0.744 OA
ENDBRANCH  64  67
ENDBRANCH  46  60
BRANCH  47  71
ATOM     71  C   UNL A   1      42.676  24.280  27.069  1.00  0.00     0.023 A 
ATOM     72  C   UNL A   1      43.389  24.514  25.877  1.00  0.00     0.012 A 
ATOM     73  C   UNL A   1      42.052  23.033  27.263  1.00  0.00     0.148 A 
ATOM     74  C   UNL A   1      43.451  23.537  24.883  1.00  0.00     0.002 A 
ATOM     75  C   UNL A   1      42.167  22.044  26.295  1.00  0.00     0.091 A 
ATOM     76  F   UNL A   1      41.373  22.835  28.401  1.00  0.00    -0.205 F 
ATOM     77  C   UNL A   1      42.849  22.299  25.095  1.00  0.00     0.022 A 
BRANCH  75  78
ATOM     78  S   UNL A   1      41.539  20.378  26.539  1.00  0.00     0.127 S 
ATOM     79  O   UNL A   1      42.119  19.669  25.402  1.00  0.00    -0.237 OA
ATOM     80  O   UNL A   1      42.111  20.031  27.841  1.00  0.00    -0.237 OA
ATOM     81  O   UNL A   1      40.087  20.500  26.535  1.00  0.00    -0.744 OA
ENDBRANCH  75  78
ENDBRANCH  47  71
BRANCH  59  82
ATOM     82  C   UNL A   1      46.965  26.149  32.255  1.00  0.00     0.023 A 
ATOM     83  C   UNL A   1      48.175  26.671  31.755  1.00  0.00     0.012 A 
ATOM     84  C   UNL A   1      47.001  25.164  33.262  1.00  0.00     0.148 A 
ATOM     85  C   UNL A   1      49.399  26.197  32.225  1.00  0.00     0.002 A 
ATOM     86  C   UNL A   1      48.224  24.735  33.764  1.00  0.00     0.091 A 
ATOM     87  F   UNL A   1      45.840  24.667  33.712  1.00  0.00    -0.205 F 
ATOM     88  C   UNL A   1      49.423  25.240  33.236  1.00  0.00     0.022 A 
BRANCH  86  89
ATOM     89  S   UNL A   1      48.352  23.580  35.133  1.00  0.00     0.127 S 
ATOM     90  O   UNL A   1      49.796  23.548  35.361  1.00  0.00    -0.237 OA
ATOM     91  O   UNL A   1      47.583  24.253  36.179  1.00  0.00    -0.237 OA
ATOM     92  O   UNL A   1      47.768  22.331  34.662  1.00  0.00    -0.744 OA
ENDBRANCH  86  89
ENDBRANCH  59  82
ENDBRANCH  33  34
ENDBRANCH  25  28
ENDBRANCH  23  24
ENDBRANCH  22  23
ENDBRANCH   1  22
TORSDOF 17
ENDMDL
MODEL 2
REMARK VINA RESULT:     -11.2      4.550      9.437
REMARK SMILES Cc1onc(-c2cccc(Br)c2)c1C(=O)NCCCCCCNC(=O)c1ccc(-c2c3nc(c(-c4cccc(S(=O)(=O)[O-])c4F)c4ccc([nH]4)c(-c4cccc(S(=O)(=O)[O-])c4F)c4nc(c(-c5cccc(S(=O)(=O)[O-])c5F)c5ccc2[nH]5)C=C4)C=C3)cc1
REMARK SMILES IDX 20 1 19 2 18 3 17 4 16 5 14 6 15 7 13 9 1 10 2 11 3 12 4 13
REMARK SMILES IDX 5 14 6 15 7 16 12 17 8 18 10 19 9 20 11 21 21 22 22 23 23 24
REMARK SMILES IDX 24 25 25 27 26 28 27 29 88 30 28 31 87 32 29 33 30 34 31 35
REMARK SMILES IDX 81 36 32 37 86 38 80 39 82 40 33 41 85 42 79 43 78 44 34 46
REMARK SMILES IDX 66 47 46 48 65 49 47 50 50 51 64 52 83 53 48 54 49 55 63 57
REMARK SMILES IDX 84 58 51 59 35 60 36 61 44 62 37 63 39 64 45 65 38 66 40 67
REMARK SMILES IDX 41 68 42 69 43 70 67 71 68 72 76 73 69 74 71 75 77 76 70 77
REMARK SMILES IDX 72 78 73 79 74 80 75 81 52 82 53 83 61 84 54 85 56 86 62 87
REMARK SMILES IDX 55 88 57 89 58 90 59 91 60 92
REMARK H PARENT 16 8 23 26 82 45 50 56
REMARK Flexibility Score: inf
ROOT
ATOM      1  C   UNL A   1      34.441  23.329  26.574  1.00  0.00     0.002 C 
ENDROOT
BRANCH   1   2
ATOM      2  C   UNL A   1      33.133  22.532  26.484  1.00  0.00     0.002 C 
BRANCH   2   3
ATOM      3  C   UNL A   1      31.873  23.323  26.871  1.00  0.00     0.021 C 
BRANCH   3   4
ATOM      4  C   UNL A   1      30.632  22.900  26.083  1.00  0.00     0.116 C 
BRANCH   4   5
ATOM      5  N   UNL A   1      30.279  23.919  25.134  1.00  0.00    -0.352 N 
ATOM      6  C   UNL A   1      30.827  24.408  23.989  1.00  0.00     0.257 C 
ATOM      7  O   UNL A   1      30.139  25.308  23.494  1.00  0.00    -0.269 OA
ATOM      8  H   UNL A   1      29.438  24.373  25.369  1.00  0.00     0.163 HD
BRANCH   6   9
ATOM      9  C   UNL A   1      32.060  23.961  23.339  1.00  0.00     0.110 A 
ATOM     10  C   UNL A   1      32.173  21.327  22.755  1.00  0.00     0.092 C 
ATOM     11  C   UNL A   1      32.549  22.753  22.851  1.00  0.00     0.147 A 
ATOM     12  O   UNL A   1      33.768  22.958  22.278  1.00  0.00    -0.360 OA
ATOM     13  N   UNL A   1      34.152  24.259  22.408  1.00  0.00    -0.079 NA
ATOM     14  C   UNL A   1      33.163  24.866  23.071  1.00  0.00     0.126 A 
BRANCH  14  15
ATOM     15  C   UNL A   1      33.315  26.276  23.410  1.00  0.00     0.006 A 
ATOM     16  C   UNL A   1      33.261  27.256  22.409  1.00  0.00     0.010 A 
ATOM     17  C   UNL A   1      33.500  26.658  24.743  1.00  0.00     0.026 A 
ATOM     18  C   UNL A   1      33.426  28.603  22.731  1.00  0.00     0.002 A 
ATOM     19  C   UNL A   1      33.655  28.007  25.058  1.00  0.00     0.018 A 
ATOM     20  C   UNL A   1      33.626  28.979  24.059  1.00  0.00     0.016 A 
ATOM     21  Br  UNL A   1      33.916  28.524  26.858  1.00  0.00    -0.051 Br
ENDBRANCH  14  15
ENDBRANCH   6   9
ENDBRANCH   4   5
ENDBRANCH   3   4
ENDBRANCH   2   3
ENDBRANCH   1   2
BRANCH   1  22
ATOM     22  C   UNL A   1      35.472  22.984  25.496  1.00  0.00     0.021 C 
BRANCH  22  23
ATOM     23  C   UNL A   1      36.852  23.583  25.745  1.00  0.00     0.116 C 
BRANCH  23  24
ATOM     24  N   UNL A   1      37.813  22.559  26.127  1.00  0.00    -0.352 N 
ATOM     25  C   UNL A   1      39.108  22.704  26.546  1.00  0.00     0.251 C 
ATOM     26  H   UNL A   1      37.487  21.632  26.077  1.00  0.00     0.163 HD
ATOM     27  O   UNL A   1      39.860  21.728  26.572  1.00  0.00    -0.269 OA
BRANCH  25  28
ATOM     28  C   UNL A   1      39.600  24.032  26.964  1.00  0.00     0.039 A 
ATOM     29  C   UNL A   1      40.148  24.889  26.008  1.00  0.00     0.014 A 
ATOM     30  C   UNL A   1      39.529  24.421  28.305  1.00  0.00     0.014 A 
ATOM     31  C   UNL A   1      40.584  26.157  26.391  1.00  0.00     0.010 A 
ATOM     32  C   UNL A   1      39.891  25.713  28.669  1.00  0.00     0.010 A 
ATOM     33  C   UNL A   1      40.434  26.590  27.719  1.00  0.00    -0.014 A 
BRANCH  33  34
ATOM     34  C   UNL A   1      40.835  27.958  28.133  1.00  0.00     0.031 A 
ATOM     35  C   UNL A   1      42.287  28.349  28.151  1.00  0.00     0.074 A 
ATOM     36  C   UNL A   1      39.896  28.819  28.572  1.00  0.00     0.049 A 
ATOM     37  N   UNL A   1      42.831  29.477  28.528  1.00  0.00    -0.248 NA
ATOM     38  C   UNL A   1      43.259  27.331  27.718  1.00  0.00     0.031 C 
ATOM     39  C   UNL A   1      38.464  28.527  28.675  1.00  0.00     0.029 A 
ATOM     40  N   UNL A   1      40.008  30.104  29.037  1.00  0.00    -0.354 N 
ATOM     41  C   UNL A   1      44.203  29.295  28.411  1.00  0.00     0.074 A 
ATOM     42  C   UNL A   1      44.413  27.935  27.964  1.00  0.00     0.031 C 
ATOM     43  C   UNL A   1      37.831  29.604  29.166  1.00  0.00     0.029 A 
ATOM     44  C   UNL A   1      38.812  30.648  29.442  1.00  0.00     0.049 A 
ATOM     45  H   UNL A   1      40.863  30.591  29.077  1.00  0.00     0.167 HD
ATOM     46  C   UNL A   1      45.200  30.186  28.626  1.00  0.00     0.034 A 
ATOM     47  C   UNL A   1      38.537  31.850  29.985  1.00  0.00     0.034 A 
ATOM     48  C   UNL A   1      44.984  31.548  29.036  1.00  0.00     0.049 A 
ATOM     49  C   UNL A   1      39.657  32.834  30.186  1.00  0.00     0.074 A 
ATOM     50  C   UNL A   1      45.918  32.557  29.195  1.00  0.00     0.029 A 
ATOM     51  N   UNL A   1      43.750  32.090  29.364  1.00  0.00    -0.354 N 
ATOM     52  N   UNL A   1      40.934  32.697  29.917  1.00  0.00    -0.248 NA
ATOM     53  C   UNL A   1      39.296  34.149  30.732  1.00  0.00     0.031 C 
ATOM     54  C   UNL A   1      45.252  33.699  29.651  1.00  0.00     0.029 A 
ATOM     55  C   UNL A   1      43.899  33.413  29.741  1.00  0.00     0.049 A 
ATOM     56  H   UNL A   1      42.895  31.604  29.334  1.00  0.00     0.167 HD
ATOM     57  C   UNL A   1      41.522  33.918  30.226  1.00  0.00     0.074 A 
ATOM     58  C   UNL A   1      40.457  34.789  30.682  1.00  0.00     0.031 C 
ATOM     59  C   UNL A   1      42.825  34.282  30.150  1.00  0.00     0.034 A 
BRANCH  46  60
ATOM     60  C   UNL A   1      46.615  29.728  28.383  1.00  0.00     0.023 A 
ATOM     61  C   UNL A   1      47.213  29.946  27.124  1.00  0.00     0.012 A 
ATOM     62  C   UNL A   1      47.370  29.128  29.410  1.00  0.00     0.148 A 
ATOM     63  C   UNL A   1      48.524  29.538  26.880  1.00  0.00     0.002 A 
ATOM     64  C   UNL A   1      48.691  28.769  29.173  1.00  0.00     0.091 A 
ATOM     65  F   UNL A   1      46.779  28.908  30.594  1.00  0.00    -0.205 F 
ATOM     66  C   UNL A   1      49.265  28.959  27.905  1.00  0.00     0.022 A 
BRANCH  64  67
ATOM     67  S   UNL A   1      49.755  28.092  30.452  1.00  0.00     0.127 S 
ATOM     68  O   UNL A   1      50.968  27.787  29.694  1.00  0.00    -0.237 OA
ATOM     69  O   UNL A   1      49.881  29.219  31.376  1.00  0.00    -0.237 OA
ATOM     70  O   UNL A   1      49.051  26.938  30.992  1.00  0.00    -0.744 OA
ENDBRANCH  64  67
ENDBRANCH  46  60
BRANCH  47  71
ATOM     71  C   UNL A   1      37.130  32.210  30.320  1.00  0.00     0.023 A 
ATOM     72  C   UNL A   1      36.655  32.002  31.630  1.00  0.00     0.012 A 
ATOM     73  C   UNL A   1      36.274  32.785  29.362  1.00  0.00     0.148 A 
ATOM     74  C   UNL A   1      35.342  32.330  31.970  1.00  0.00     0.002 A 
ATOM     75  C   UNL A   1      34.986  33.163  29.722  1.00  0.00     0.091 A 
ATOM     76  F   UNL A   1      36.744  32.968  28.120  1.00  0.00    -0.205 F 
ATOM     77  C   UNL A   1      34.511  32.919  31.020  1.00  0.00     0.022 A 
BRANCH  75  78
ATOM     78  S   UNL A   1      33.893  34.048  28.605  1.00  0.00     0.127 S 
ATOM     79  O   UNL A   1      32.878  34.559  29.521  1.00  0.00    -0.237 OA
ATOM     80  O   UNL A   1      34.791  35.061  28.048  1.00  0.00    -0.237 OA
ATOM     81  O   UNL A   1      33.433  33.059  27.639  1.00  0.00    -0.744 OA
ENDBRANCH  75  78
ENDBRANCH  47  71
BRANCH  59  82
ATOM     82  C   UNL A   1      43.179  35.696  30.534  1.00  0.00     0.023 A 
ATOM     83  C   UNL A   1      43.545  35.994  31.862  1.00  0.00     0.012 A 
ATOM     84  C   UNL A   1      43.218  36.713  29.561  1.00  0.00     0.148 A 
ATOM     85  C   UNL A   1      43.909  37.291  32.222  1.00  0.00     0.002 A 
ATOM     86  C   UNL A   1      43.633  37.991  29.915  1.00  0.00     0.091 A 
ATOM     87  F   UNL A   1      42.850  36.414  28.307  1.00  0.00    -0.205 F 
ATOM     88  C   UNL A   1      43.965  38.285  31.247  1.00  0.00     0.022 A 
BRANCH  86  89
ATOM     89  S   UNL A   1      43.832  39.309  28.711  1.00  0.00     0.127 S 
ATOM     90  O   UNL A   1      44.328  40.402  29.545  1.00  0.00    -0.237 OA
ATOM     91  O   UNL A   1      44.822  38.743  27.794  1.00  0.00    -0.237 OA
ATOM     92  O   UNL A   1      42.516  39.519  28.124  1.00  0.00    -0.744 OA
ENDBRANCH  86  89
ENDBRANCH  59  82
ENDBRANCH  33  34
ENDBRANCH  25  28
ENDBRANCH  23  24
ENDBRANCH  22  23
ENDBRANCH   1  22
TORSDOF 17
ENDMDL
MODEL 3
REMARK VINA RESULT:     -11.2      3.491      8.808
REMARK SMILES Cc1onc(-c2cccc(Br)c2)c1C(=O)NCCCCCCNC(=O)c1ccc(-c2c3nc(c(-c4cccc(S(=O)(=O)[O-])c4F)c4ccc([nH]4)c(-c4cccc(S(=O)(=O)[O-])c4F)c4nc(c(-c5cccc(S(=O)(=O)[O-])c5F)c5ccc2[nH]5)C=C4)C=C3)cc1
REMARK SMILES IDX 20 1 19 2 18 3 17 4 16 5 14 6 15 7 13 9 1 10 2 11 3 12 4 13
REMARK SMILES IDX 5 14 6 15 7 16 12 17 8 18 10 19 9 20 11 21 21 22 22 23 23 24
REMARK SMILES IDX 24 25 25 27 26 28 27 29 88 30 28 31 87 32 29 33 30 34 31 35
REMARK SMILES IDX 81 36 32 37 86 38 80 39 82 40 33 41 85 42 79 43 78 44 34 46
REMARK SMILES IDX 66 47 46 48 65 49 47 50 50 51 64 52 83 53 48 54 49 55 63 57
REMARK SMILES IDX 84 58 51 59 35 60 36 61 44 62 37 63 39 64 45 65 38 66 40 67
REMARK SMILES IDX 41 68 42 69 43 70 67 71 68 72 76 73 69 74 71 75 77 76 70 77
REMARK SMILES IDX 72 78 73 79 74 80 75 81 52 82 53 83 61 84 54 85 56 86 62 87
REMARK SMILES IDX 55 88 57 89 58 90 59 91 60 92
REMARK H PARENT 16 8 23 26 82 45 50 56
REMARK Flexibility Score: inf
ROOT
ATOM      1  C   UNL A   1      31.249  31.267  25.774  1.00  0.00     0.002 C 
ENDROOT
BRANCH   1   2
ATOM      2  C   UNL A   1      31.940  29.899  25.707  1.00  0.00     0.002 C 
BRANCH   2   3
ATOM      3  C   UNL A   1      31.910  29.102  27.022  1.00  0.00     0.021 C 
BRANCH   3   4
ATOM      4  C   UNL A   1      32.359  27.649  26.854  1.00  0.00     0.116 C 
BRANCH   4   5
ATOM      5  N   UNL A   1      31.214  26.791  26.733  1.00  0.00    -0.352 N 
ATOM      6  C   UNL A   1      30.440  26.346  25.705  1.00  0.00     0.257 C 
ATOM      7  O   UNL A   1      29.543  25.591  26.096  1.00  0.00    -0.269 OA
ATOM      8  H   UNL A   1      30.916  26.439  27.603  1.00  0.00     0.163 HD
BRANCH   6   9
ATOM      9  C   UNL A   1      30.600  26.652  24.284  1.00  0.00     0.110 A 
ATOM     10  C   UNL A   1      28.795  28.382  23.262  1.00  0.00     0.092 C 
ATOM     11  C   UNL A   1      29.952  27.467  23.360  1.00  0.00     0.147 A 
ATOM     12  O   UNL A   1      30.598  27.395  22.163  1.00  0.00    -0.360 OA
ATOM     13  N   UNL A   1      31.634  26.513  22.224  1.00  0.00    -0.079 NA
ATOM     14  C   UNL A   1      31.630  26.032  23.471  1.00  0.00     0.126 A 
BRANCH  14  15
ATOM     15  C   UNL A   1      32.608  25.010  23.827  1.00  0.00     0.006 A 
ATOM     16  C   UNL A   1      33.894  25.376  24.251  1.00  0.00     0.010 A 
ATOM     17  C   UNL A   1      32.259  23.657  23.761  1.00  0.00     0.026 A 
ATOM     18  C   UNL A   1      34.835  24.398  24.572  1.00  0.00     0.002 A 
ATOM     19  C   UNL A   1      33.204  22.686  24.092  1.00  0.00     0.018 A 
ATOM     20  C   UNL A   1      34.490  23.050  24.491  1.00  0.00     0.016 A 
ATOM     21  Br  UNL A   1      32.739  20.856  23.995  1.00  0.00    -0.051 Br
ENDBRANCH  14  15
ENDBRANCH   6   9
ENDBRANCH   4   5
ENDBRANCH   3   4
ENDBRANCH   2   3
ENDBRANCH   1   2
BRANCH   1  22
ATOM     22  C   UNL A   1      31.435  32.011  27.099  1.00  0.00     0.021 C 
BRANCH  22  23
ATOM     23  C   UNL A   1      32.763  32.754  27.211  1.00  0.00     0.116 C 
BRANCH  23  24
ATOM     24  N   UNL A   1      32.560  34.149  27.570  1.00  0.00    -0.352 N 
ATOM     25  C   UNL A   1      33.097  34.860  28.609  1.00  0.00     0.251 C 
ATOM     26  H   UNL A   1      31.952  34.654  26.983  1.00  0.00     0.163 HD
ATOM     27  O   UNL A   1      32.616  35.950  28.923  1.00  0.00    -0.269 OA
BRANCH  25  28
ATOM     28  C   UNL A   1      34.250  34.315  29.352  1.00  0.00     0.039 A 
ATOM     29  C   UNL A   1      34.029  33.613  30.539  1.00  0.00     0.014 A 
ATOM     30  C   UNL A   1      35.551  34.511  28.880  1.00  0.00     0.014 A 
ATOM     31  C   UNL A   1      35.111  33.067  31.228  1.00  0.00     0.010 A 
ATOM     32  C   UNL A   1      36.620  33.900  29.525  1.00  0.00     0.010 A 
ATOM     33  C   UNL A   1      36.414  33.183  30.713  1.00  0.00    -0.014 A 
BRANCH  33  34
ATOM     34  C   UNL A   1      37.571  32.557  31.399  1.00  0.00     0.031 A 
ATOM     35  C   UNL A   1      38.294  31.401  30.764  1.00  0.00     0.074 A 
ATOM     36  C   UNL A   1      37.916  32.977  32.632  1.00  0.00     0.049 A 
ATOM     37  N   UNL A   1      39.291  30.697  31.232  1.00  0.00    -0.248 NA
ATOM     38  C   UNL A   1      37.817  30.958  29.444  1.00  0.00     0.031 C 
ATOM     39  C   UNL A   1      37.239  34.037  33.383  1.00  0.00     0.029 A 
ATOM     40  N   UNL A   1      38.904  32.546  33.480  1.00  0.00    -0.354 N 
ATOM     41  C   UNL A   1      39.539  29.711  30.285  1.00  0.00     0.074 A 
ATOM     42  C   UNL A   1      38.562  29.883  29.232  1.00  0.00     0.031 C 
ATOM     43  C   UNL A   1      37.837  34.178  34.577  1.00  0.00     0.029 A 
ATOM     44  C   UNL A   1      38.914  33.200  34.690  1.00  0.00     0.049 A 
ATOM     45  H   UNL A   1      39.546  31.838  33.245  1.00  0.00     0.167 HD
ATOM     46  C   UNL A   1      40.508  28.765  30.276  1.00  0.00     0.034 A 
ATOM     47  C   UNL A   1      39.696  33.025  35.772  1.00  0.00     0.034 A 
ATOM     48  C   UNL A   1      41.498  28.622  31.309  1.00  0.00     0.049 A 
ATOM     49  C   UNL A   1      40.786  31.989  35.726  1.00  0.00     0.074 A 
ATOM     50  C   UNL A   1      42.577  27.755  31.352  1.00  0.00     0.029 A 
ATOM     51  N   UNL A   1      41.525  29.353  32.487  1.00  0.00    -0.354 N 
ATOM     52  N   UNL A   1      41.106  31.171  34.752  1.00  0.00    -0.248 NA
ATOM     53  C   UNL A   1      41.645  31.874  36.912  1.00  0.00     0.031 C 
ATOM     54  C   UNL A   1      43.236  27.940  32.572  1.00  0.00     0.029 A 
ATOM     55  C   UNL A   1      42.591  28.948  33.272  1.00  0.00     0.049 A 
ATOM     56  H   UNL A   1      40.881  30.056  32.730  1.00  0.00     0.167 HD
ATOM     57  C   UNL A   1      42.223  30.471  35.192  1.00  0.00     0.074 A 
ATOM     58  C   UNL A   1      42.537  30.977  36.513  1.00  0.00     0.031 C 
ATOM     59  C   UNL A   1      42.919  29.491  34.565  1.00  0.00     0.034 A 
BRANCH  46  60
ATOM     60  C   UNL A   1      40.570  27.836  29.091  1.00  0.00     0.023 A 
ATOM     61  C   UNL A   1      39.672  26.750  29.008  1.00  0.00     0.012 A 
ATOM     62  C   UNL A   1      41.477  28.062  28.038  1.00  0.00     0.148 A 
ATOM     63  C   UNL A   1      39.705  25.883  27.917  1.00  0.00     0.002 A 
ATOM     64  C   UNL A   1      41.470  27.222  26.931  1.00  0.00     0.091 A 
ATOM     65  F   UNL A   1      42.337  29.086  28.144  1.00  0.00    -0.205 F 
ATOM     66  C   UNL A   1      40.596  26.124  26.875  1.00  0.00     0.022 A 
BRANCH  64  67
ATOM     67  S   UNL A   1      42.522  27.495  25.501  1.00  0.00     0.127 S 
ATOM     68  O   UNL A   1      42.300  26.270  24.734  1.00  0.00    -0.237 OA
ATOM     69  O   UNL A   1      41.933  28.698  24.912  1.00  0.00    -0.237 OA
ATOM     70  O   UNL A   1      43.871  27.670  26.021  1.00  0.00    -0.744 OA
ENDBRANCH  64  67
ENDBRANCH  46  60
BRANCH  47  71
ATOM     71  C   UNL A   1      39.514  33.894  36.969  1.00  0.00     0.023 A 
ATOM     72  C   UNL A   1      39.903  35.246  36.909  1.00  0.00     0.012 A 
ATOM     73  C   UNL A   1      38.930  33.398  38.151  1.00  0.00     0.148 A 
ATOM     74  C   UNL A   1      39.744  36.081  38.016  1.00  0.00     0.002 A 
ATOM     75  C   UNL A   1      38.722  34.249  39.229  1.00  0.00     0.091 A 
ATOM     76  F   UNL A   1      38.575  32.107  38.189  1.00  0.00    -0.205 F 
ATOM     77  C   UNL A   1      39.145  35.586  39.172  1.00  0.00     0.022 A 
BRANCH  75  78
ATOM     78  S   UNL A   1      37.838  33.735  40.706  1.00  0.00     0.127 S 
ATOM     79  O   UNL A   1      38.777  32.789  41.303  1.00  0.00    -0.237 OA
ATOM     80  O   UNL A   1      37.695  35.001  41.426  1.00  0.00    -0.237 OA
ATOM     81  O   UNL A   1      36.582  33.167  40.236  1.00  0.00    -0.744 OA
ENDBRANCH  75  78
ENDBRANCH  47  71
BRANCH  59  82
ATOM     82  C   UNL A   1      44.116  28.918  35.280  1.00  0.00     0.023 A 
ATOM     83  C   UNL A   1      45.383  29.513  35.118  1.00  0.00     0.012 A 
ATOM     84  C   UNL A   1      43.969  27.833  36.166  1.00  0.00     0.148 A 
ATOM     85  C   UNL A   1      46.492  29.015  35.802  1.00  0.00     0.002 A 
ATOM     86  C   UNL A   1      45.067  27.376  36.885  1.00  0.00     0.091 A 
ATOM     87  F   UNL A   1      42.759  27.270  36.293  1.00  0.00    -0.205 F 
ATOM     88  C   UNL A   1      46.332  27.956  36.693  1.00  0.00     0.022 A 
BRANCH  86  89
ATOM     89  S   UNL A   1      44.938  26.084  38.126  1.00  0.00     0.127 S 
ATOM     90  O   UNL A   1      46.313  26.001  38.613  1.00  0.00    -0.237 OA
ATOM     91  O   UNL A   1      43.987  26.663  39.076  1.00  0.00    -0.237 OA
ATOM     92  O   UNL A   1      44.450  24.903  37.428  1.00  0.00    -0.744 OA
ENDBRANCH  86  89
ENDBRANCH  59  82
ENDBRANCH  33  34
ENDBRANCH  25  28
ENDBRANCH  23  24
ENDBRANCH  22  23
ENDBRANCH   1  22
TORSDOF 17
ENDMDL
