MODEL 1
REMARK VINA RESULT:     -11.3      0.000      0.000
REMARK SMILES COc1ccc(C(=O)NCCCCCCNC(=O)c2ccc(-c3c4nc(c(-c5cccc(S(=O)(=O)[O-])c5F)c5ccc([nH]5)c(-c5cccc(S(=O)(=O)[O-])c5F)c5nc(c(-c6cccc(S(=O)(=O)[O-])c6F)c6ccc3[nH]6)C=C5)C=C4)cc2)cc1NCc1cc(C#N)cs1
REMARK SMILES IDX 12 1 11 2 10 3 9 4 7 5 8 6 6 8 3 9 4 10 83 11 5 12 82 13
REMARK SMILES IDX 2 14 1 15 84 16 85 18 86 19 87 20 92 21 88 22 91 23 89 24
REMARK SMILES IDX 90 25 13 26 14 27 15 28 16 29 17 30 18 32 19 33 20 34 81 35
REMARK SMILES IDX 21 36 80 37 22 38 23 39 24 40 74 41 25 42 79 43 73 44 75 45
REMARK SMILES IDX 26 46 78 47 72 48 71 49 27 51 59 52 39 53 58 54 40 55 43 56
REMARK SMILES IDX 57 57 76 58 41 59 42 60 56 62 77 63 44 64 28 65 29 66 37 67
REMARK SMILES IDX 30 68 32 69 38 70 31 71 33 72 34 73 35 74 36 75 60 76 61 77
REMARK SMILES IDX 69 78 62 79 64 80 70 81 63 82 65 83 66 84 67 85 68 86 45 87
REMARK SMILES IDX 46 88 54 89 47 90 49 91 55 92 48 93 50 94 51 95 52 96 53 97
REMARK H PARENT 9 7 84 17 16 31 75 50 43 61
REMARK Flexibility Score: inf
ROOT
ATOM      1  C   UNL A   1      31.482  28.227  26.003  1.00  0.00     0.002 C 
ENDROOT
BRANCH   1   2
ATOM      2  C   UNL A   1      31.360  26.806  26.566  1.00  0.00     0.021 C 
BRANCH   2   3
ATOM      3  C   UNL A   1      30.470  25.912  25.698  1.00  0.00     0.116 C 
BRANCH   3   4
ATOM      4  N   UNL A   1      29.831  24.908  26.528  1.00  0.00    -0.352 N 
ATOM      5  C   UNL A   1      30.205  23.643  26.900  1.00  0.00     0.251 C 
ATOM      6  O   UNL A   1      29.429  23.002  27.610  1.00  0.00    -0.269 OA
ATOM      7  H   UNL A   1      28.961  25.190  26.894  1.00  0.00     0.163 HD
BRANCH   5   8
ATOM      8  C   UNL A   1      31.525  23.050  26.540  1.00  0.00     0.042 A 
ATOM      9  C   UNL A   1      34.071  22.035  25.945  1.00  0.00     0.142 A 
ATOM     10  C   UNL A   1      33.700  22.311  27.272  1.00  0.00     0.049 A 
ATOM     11  C   UNL A   1      33.177  22.269  24.881  1.00  0.00     0.078 A 
ATOM     12  C   UNL A   1      32.451  22.856  27.564  1.00  0.00     0.018 A 
ATOM     13  C   UNL A   1      31.879  22.665  25.242  1.00  0.00     0.043 A 
BRANCH   9  14
ATOM     14  O   UNL A   1      35.278  21.389  25.836  1.00  0.00    -0.495 OA
ATOM     15  C   UNL A   1      36.197  21.938  24.903  1.00  0.00     0.278 C 
ENDBRANCH   9  14
BRANCH  11  16
ATOM     16  N   UNL A   1      33.508  22.077  23.549  1.00  0.00    -0.377 N 
ATOM     17  H   UNL A   1      34.161  21.367  23.353  1.00  0.00     0.161 HD
BRANCH  16  18
ATOM     18  C   UNL A   1      32.983  22.826  22.406  1.00  0.00     0.160 C 
BRANCH  18  19
ATOM     19  C   UNL A   1      32.815  24.318  22.569  1.00  0.00     0.025 A 
ATOM     20  C   UNL A   1      31.719  25.085  22.216  1.00  0.00     0.036 A 
ATOM     21  S   UNL A   1      34.084  25.312  23.160  1.00  0.00    -0.146 S 
ATOM     22  C   UNL A   1      31.899  26.480  22.477  1.00  0.00     0.063 A 
ATOM     23  C   UNL A   1      33.157  26.745  22.968  1.00  0.00     0.084 A 
BRANCH  22  24
ATOM     24  C   UNL A   1      30.863  27.460  22.298  1.00  0.00     0.100 C 
ATOM     25  N   UNL A   1      30.184  28.392  22.176  1.00  0.00    -0.192 NA
ENDBRANCH  22  24
ENDBRANCH  18  19
ENDBRANCH  16  18
ENDBRANCH  11  16
ENDBRANCH   5   8
ENDBRANCH   3   4
ENDBRANCH   2   3
ENDBRANCH   1   2
BRANCH   1  26
ATOM     26  C   UNL A   1      31.775  29.294  27.065  1.00  0.00     0.002 C 
BRANCH  26  27
ATOM     27  C   UNL A   1      32.007  30.699  26.503  1.00  0.00     0.021 C 
BRANCH  27  28
ATOM     28  C   UNL A   1      33.096  31.476  27.235  1.00  0.00     0.116 C 
BRANCH  28  29
ATOM     29  N   UNL A   1      32.754  32.888  27.347  1.00  0.00    -0.352 N 
ATOM     30  C   UNL A   1      33.192  33.816  28.258  1.00  0.00     0.251 C 
ATOM     31  H   UNL A   1      32.119  33.224  26.674  1.00  0.00     0.163 HD
ATOM     32  O   UNL A   1      32.605  34.886  28.381  1.00  0.00    -0.269 OA
BRANCH  30  33
ATOM     33  C   UNL A   1      34.366  33.507  29.096  1.00  0.00     0.039 A 
ATOM     34  C   UNL A   1      34.200  32.713  30.232  1.00  0.00     0.014 A 
ATOM     35  C   UNL A   1      35.632  33.983  28.742  1.00  0.00     0.014 A 
ATOM     36  C   UNL A   1      35.321  32.329  30.970  1.00  0.00     0.010 A 
ATOM     37  C   UNL A   1      36.754  33.538  29.434  1.00  0.00     0.010 A 
ATOM     38  C   UNL A   1      36.610  32.696  30.547  1.00  0.00    -0.014 A 
BRANCH  38  39
ATOM     39  C   UNL A   1      37.819  32.151  31.214  1.00  0.00     0.031 A 
ATOM     40  C   UNL A   1      38.587  31.015  30.600  1.00  0.00     0.074 A 
ATOM     41  C   UNL A   1      38.162  32.622  32.431  1.00  0.00     0.049 A 
ATOM     42  N   UNL A   1      39.618  30.369  31.079  1.00  0.00    -0.248 NA
ATOM     43  C   UNL A   1      38.129  30.528  29.289  1.00  0.00     0.031 C 
ATOM     44  C   UNL A   1      37.452  33.674  33.162  1.00  0.00     0.029 A 
ATOM     45  N   UNL A   1      39.174  32.255  33.282  1.00  0.00    -0.354 N 
ATOM     46  C   UNL A   1      39.910  29.377  30.151  1.00  0.00     0.074 A 
ATOM     47  C   UNL A   1      38.936  29.494  29.087  1.00  0.00     0.031 C 
ATOM     48  C   UNL A   1      38.045  33.865  34.350  1.00  0.00     0.029 A 
ATOM     49  C   UNL A   1      39.146  32.918  34.487  1.00  0.00     0.049 A 
ATOM     50  H   UNL A   1      39.854  31.581  33.052  1.00  0.00     0.167 HD
ATOM     51  C   UNL A   1      40.906  28.460  30.179  1.00  0.00     0.034 A 
ATOM     52  C   UNL A   1      39.899  32.761  35.593  1.00  0.00     0.034 A 
ATOM     53  C   UNL A   1      41.881  28.360  31.231  1.00  0.00     0.049 A 
ATOM     54  C   UNL A   1      40.996  31.733  35.594  1.00  0.00     0.074 A 
ATOM     55  C   UNL A   1      42.985  27.528  31.298  1.00  0.00     0.029 A 
ATOM     56  N   UNL A   1      41.856  29.086  32.411  1.00  0.00    -0.354 N 
ATOM     57  N   UNL A   1      41.363  30.919  34.635  1.00  0.00    -0.248 NA
ATOM     58  C   UNL A   1      41.797  31.615  36.822  1.00  0.00     0.031 C 
ATOM     59  C   UNL A   1      43.590  27.706  32.546  1.00  0.00     0.029 A 
ATOM     60  C   UNL A   1      42.898  28.690  33.231  1.00  0.00     0.049 A 
ATOM     61  H   UNL A   1      41.195  29.780  32.633  1.00  0.00     0.167 HD
ATOM     62  C   UNL A   1      42.447  30.207  35.134  1.00  0.00     0.074 A 
ATOM     63  C   UNL A   1      42.699  30.708  36.469  1.00  0.00     0.031 C 
ATOM     64  C   UNL A   1      43.160  29.216  34.547  1.00  0.00     0.034 A 
BRANCH  51  65
ATOM     65  C   UNL A   1      41.006  27.486  29.034  1.00  0.00     0.023 A 
ATOM     66  C   UNL A   1      40.161  26.359  28.988  1.00  0.00     0.012 A 
ATOM     67  C   UNL A   1      41.880  27.739  27.958  1.00  0.00     0.148 A 
ATOM     68  C   UNL A   1      40.205  25.484  27.904  1.00  0.00     0.002 A 
ATOM     69  C   UNL A   1      41.883  26.891  26.860  1.00  0.00     0.091 A 
ATOM     70  F   UNL A   1      42.687  28.808  28.030  1.00  0.00    -0.205 F 
ATOM     71  C   UNL A   1      41.056  25.756  26.835  1.00  0.00     0.022 A 
BRANCH  69  72
ATOM     72  S   UNL A   1      42.881  27.199  25.399  1.00  0.00     0.127 S 
ATOM     73  O   UNL A   1      44.202  27.419  25.986  1.00  0.00    -0.237 OA
ATOM     74  O   UNL A   1      42.741  25.943  24.663  1.00  0.00    -0.237 OA
ATOM     75  O   UNL A   1      42.293  28.360  24.745  1.00  0.00    -0.744 OA
ENDBRANCH  69  72
ENDBRANCH  51  65
BRANCH  52  76
ATOM     76  C   UNL A   1      39.638  33.593  36.801  1.00  0.00     0.023 A 
ATOM     77  C   UNL A   1      40.144  34.905  36.868  1.00  0.00     0.012 A 
ATOM     78  C   UNL A   1      38.903  33.079  37.889  1.00  0.00     0.148 A 
ATOM     79  C   UNL A   1      39.958  35.678  38.015  1.00  0.00     0.002 A 
ATOM     80  C   UNL A   1      38.686  33.868  39.012  1.00  0.00     0.091 A 
ATOM     81  F   UNL A   1      38.431  31.828  37.804  1.00  0.00    -0.205 F 
ATOM     82  C   UNL A   1      39.224  35.163  39.081  1.00  0.00     0.022 A 
BRANCH  80  83
ATOM     83  S   UNL A   1      37.702  33.310  40.407  1.00  0.00     0.127 S 
ATOM     84  O   UNL A   1      37.695  34.494  41.261  1.00  0.00    -0.237 OA
ATOM     85  O   UNL A   1      36.420  33.006  39.774  1.00  0.00    -0.237 OA
ATOM     86  O   UNL A   1      38.397  32.151  40.958  1.00  0.00    -0.744 OA
ENDBRANCH  80  83
ENDBRANCH  52  76
BRANCH  64  87
ATOM     87  C   UNL A   1      44.297  28.609  35.327  1.00  0.00     0.023 A 
ATOM     88  C   UNL A   1      45.599  29.129  35.192  1.00  0.00     0.012 A 
ATOM     89  C   UNL A   1      44.056  27.581  36.261  1.00  0.00     0.148 A 
ATOM     90  C   UNL A   1      46.649  28.617  35.953  1.00  0.00     0.002 A 
ATOM     91  C   UNL A   1      45.096  27.113  37.053  1.00  0.00     0.091 A 
ATOM     92  F   UNL A   1      42.811  27.093  36.366  1.00  0.00    -0.205 F 
ATOM     93  C   UNL A   1      46.396  27.619  36.891  1.00  0.00     0.022 A 
BRANCH  91  94
ATOM     94  S   UNL A   1      44.852  25.898  38.353  1.00  0.00     0.127 S 
ATOM     95  O   UNL A   1      43.852  26.557  39.194  1.00  0.00    -0.237 OA
ATOM     96  O   UNL A   1      44.355  24.744  37.604  1.00  0.00    -0.237 OA
ATOM     97  O   UNL A   1      46.153  25.705  38.979  1.00  0.00    -0.744 OA
ENDBRANCH  91  94
ENDBRANCH  64  87
ENDBRANCH  38  39
ENDBRANCH  30  33
ENDBRANCH  28  29
ENDBRANCH  27  28
ENDBRANCH  26  27
ENDBRANCH   1  26
TORSDOF 21
ENDMDL
MODEL 2
REMARK VINA RESULT:     -11.0      4.180      8.834
REMARK SMILES COc1ccc(C(=O)NCCCCCCNC(=O)c2ccc(-c3c4nc(c(-c5cccc(S(=O)(=O)[O-])c5F)c5ccc([nH]5)c(-c5cccc(S(=O)(=O)[O-])c5F)c5nc(c(-c6cccc(S(=O)(=O)[O-])c6F)c6ccc3[nH]6)C=C5)C=C4)cc2)cc1NCc1cc(C#N)cs1
REMARK SMILES IDX 12 1 11 2 10 3 9 4 7 5 8 6 6 8 3 9 4 10 83 11 5 12 82 13
REMARK SMILES IDX 2 14 1 15 84 16 85 18 86 19 87 20 92 21 88 22 91 23 89 24
REMARK SMILES IDX 90 25 13 26 14 27 15 28 16 29 17 30 18 32 19 33 20 34 81 35
REMARK SMILES IDX 21 36 80 37 22 38 23 39 24 40 74 41 25 42 79 43 73 44 75 45
REMARK SMILES IDX 26 46 78 47 72 48 71 49 27 51 59 52 39 53 58 54 40 55 43 56
REMARK SMILES IDX 57 57 76 58 41 59 42 60 56 62 77 63 44 64 28 65 29 66 37 67
REMARK SMILES IDX 30 68 32 69 38 70 31 71 33 72 34 73 35 74 36 75 60 76 61 77
REMARK SMILES IDX 69 78 62 79 64 80 70 81 63 82 65 83 66 84 67 85 68 86 45 87
REMARK SMILES IDX 46 88 54 89 47 90 49 91 55 92 48 93 50 94 51 95 52 96 53 97
REMARK H PARENT 9 7 84 17 16 31 75 50 43 61
REMARK Flexibility Score: inf
ROOT
ATOM      1  C   UNL A   1      31.643  27.872  23.906  1.00  0.00     0.002 C 
ENDROOT
BRANCH   1   2
ATOM      2  C   UNL A   1      30.262  27.266  24.176  1.00  0.00     0.021 C 
BRANCH   2   3
ATOM      3  C   UNL A   1      30.249  25.746  23.991  1.00  0.00     0.116 C 
BRANCH   3   4
ATOM      4  N   UNL A   1      30.063  25.100  25.278  1.00  0.00    -0.352 N 
ATOM      5  C   UNL A   1      30.901  24.359  26.069  1.00  0.00     0.251 C 
ATOM      6  O   UNL A   1      30.446  23.910  27.123  1.00  0.00    -0.269 OA
ATOM      7  H   UNL A   1      29.160  25.217  25.653  1.00  0.00     0.163 HD
BRANCH   5   8
ATOM      8  C   UNL A   1      32.338  24.137  25.742  1.00  0.00     0.042 A 
ATOM      9  C   UNL A   1      35.043  23.848  25.057  1.00  0.00     0.142 A 
ATOM     10  C   UNL A   1      34.572  25.038  25.638  1.00  0.00     0.049 A 
ATOM     11  C   UNL A   1      34.168  22.775  24.797  1.00  0.00     0.078 A 
ATOM     12  C   UNL A   1      33.221  25.199  25.938  1.00  0.00     0.018 A 
ATOM     13  C   UNL A   1      32.852  22.926  25.264  1.00  0.00     0.043 A 
BRANCH   9  14
ATOM     14  O   UNL A   1      36.411  23.800  24.939  1.00  0.00    -0.495 OA
ATOM     15  C   UNL A   1      37.147  24.048  26.128  1.00  0.00     0.278 C 
ENDBRANCH   9  14
BRANCH  11  16
ATOM     16  N   UNL A   1      34.560  21.604  24.169  1.00  0.00    -0.377 N 
ATOM     17  H   UNL A   1      34.574  21.611  23.186  1.00  0.00     0.161 HD
BRANCH  16  18
ATOM     18  C   UNL A   1      34.958  20.357  24.825  1.00  0.00     0.160 C 
BRANCH  18  19
ATOM     19  C   UNL A   1      34.044  19.164  24.664  1.00  0.00     0.025 A 
ATOM     20  C   UNL A   1      34.310  17.849  25.002  1.00  0.00     0.036 A 
ATOM     21  S   UNL A   1      32.509  19.296  23.907  1.00  0.00    -0.146 S 
ATOM     22  C   UNL A   1      33.237  16.957  24.687  1.00  0.00     0.063 A 
ATOM     23  C   UNL A   1      32.202  17.612  24.060  1.00  0.00     0.084 A 
BRANCH  22  24
ATOM     24  C   UNL A   1      33.233  15.564  25.042  1.00  0.00     0.100 C 
ATOM     25  N   UNL A   1      33.442  14.464  25.343  1.00  0.00    -0.192 NA
ENDBRANCH  22  24
ENDBRANCH  18  19
ENDBRANCH  16  18
ENDBRANCH  11  16
ENDBRANCH   5   8
ENDBRANCH   3   4
ENDBRANCH   2   3
ENDBRANCH   1   2
BRANCH   1  26
ATOM     26  C   UNL A   1      32.036  28.987  24.884  1.00  0.00     0.002 C 
BRANCH  26  27
ATOM     27  C   UNL A   1      33.411  28.806  25.530  1.00  0.00     0.021 C 
BRANCH  27  28
ATOM     28  C   UNL A   1      33.458  29.233  26.994  1.00  0.00     0.116 C 
BRANCH  28  29
ATOM     29  N   UNL A   1      33.758  30.654  27.121  1.00  0.00    -0.352 N 
ATOM     30  C   UNL A   1      34.790  31.266  27.787  1.00  0.00     0.251 C 
ATOM     31  H   UNL A   1      33.131  31.260  26.665  1.00  0.00     0.163 HD
ATOM     32  O   UNL A   1      34.746  32.468  28.023  1.00  0.00    -0.269 OA
BRANCH  30  33
ATOM     33  C   UNL A   1      35.945  30.459  28.226  1.00  0.00     0.039 A 
ATOM     34  C   UNL A   1      37.085  30.412  27.423  1.00  0.00     0.014 A 
ATOM     35  C   UNL A   1      35.905  29.771  29.443  1.00  0.00     0.014 A 
ATOM     36  C   UNL A   1      38.219  29.739  27.881  1.00  0.00     0.010 A 
ATOM     37  C   UNL A   1      37.059  29.166  29.930  1.00  0.00     0.010 A 
ATOM     38  C   UNL A   1      38.230  29.155  29.159  1.00  0.00    -0.014 A 
BRANCH  38  39
ATOM     39  C   UNL A   1      39.479  28.592  29.732  1.00  0.00     0.031 A 
ATOM     40  C   UNL A   1      40.157  29.257  30.896  1.00  0.00     0.074 A 
ATOM     41  C   UNL A   1      40.053  27.530  29.131  1.00  0.00     0.049 A 
ATOM     42  N   UNL A   1      41.287  28.948  31.473  1.00  0.00    -0.248 NA
ATOM     43  C   UNL A   1      39.491  30.436  31.475  1.00  0.00     0.031 C 
ATOM     44  C   UNL A   1      39.527  26.840  27.949  1.00  0.00     0.029 A 
ATOM     45  N   UNL A   1      41.221  26.865  29.408  1.00  0.00    -0.354 N 
ATOM     46  C   UNL A   1      41.490  29.909  32.455  1.00  0.00     0.074 A 
ATOM     47  C   UNL A   1      40.373  30.825  32.386  1.00  0.00     0.031 C 
ATOM     48  C   UNL A   1      40.369  25.855  27.602  1.00  0.00     0.029 A 
ATOM     49  C   UNL A   1      41.516  25.872  28.503  1.00  0.00     0.049 A 
ATOM     50  H   UNL A   1      41.793  27.079  30.180  1.00  0.00     0.167 HD
ATOM     51  C   UNL A   1      42.509  30.010  33.342  1.00  0.00     0.034 A 
ATOM     52  C   UNL A   1      42.603  25.085  28.386  1.00  0.00     0.034 A 
ATOM     53  C   UNL A   1      43.608  29.086  33.417  1.00  0.00     0.049 A 
ATOM     54  C   UNL A   1      43.719  25.223  29.385  1.00  0.00     0.074 A 
ATOM     55  C   UNL A   1      44.634  29.051  34.344  1.00  0.00     0.029 A 
ATOM     56  N   UNL A   1      43.845  28.058  32.519  1.00  0.00    -0.354 N 
ATOM     57  N   UNL A   1      43.810  26.031  30.413  1.00  0.00    -0.248 NA
ATOM     58  C   UNL A   1      44.874  24.328  29.221  1.00  0.00     0.031 C 
ATOM     59  C   UNL A   1      45.527  28.042  33.971  1.00  0.00     0.029 A 
ATOM     60  C   UNL A   1      45.025  27.411  32.844  1.00  0.00     0.049 A 
ATOM     61  H   UNL A   1      43.262  27.822  31.763  1.00  0.00     0.167 HD
ATOM     62  C   UNL A   1      45.018  25.728  31.029  1.00  0.00     0.074 A 
ATOM     63  C   UNL A   1      45.612  24.642  30.277  1.00  0.00     0.031 C 
ATOM     64  C   UNL A   1      45.594  26.309  32.109  1.00  0.00     0.034 A 
BRANCH  51  65
ATOM     65  C   UNL A   1      42.490  31.158  34.316  1.00  0.00     0.023 A 
ATOM     66  C   UNL A   1      41.899  30.999  35.586  1.00  0.00     0.012 A 
ATOM     67  C   UNL A   1      43.137  32.370  34.002  1.00  0.00     0.148 A 
ATOM     68  C   UNL A   1      41.928  32.036  36.517  1.00  0.00     0.002 A 
ATOM     69  C   UNL A   1      43.204  33.381  34.952  1.00  0.00     0.091 A 
ATOM     70  F   UNL A   1      43.676  32.508  32.782  1.00  0.00    -0.205 F 
ATOM     71  C   UNL A   1      42.591  33.221  36.206  1.00  0.00     0.022 A 
BRANCH  69  72
ATOM     72  S   UNL A   1      44.103  34.911  34.678  1.00  0.00     0.127 S 
ATOM     73  O   UNL A   1      45.443  34.413  34.370  1.00  0.00    -0.237 OA
ATOM     74  O   UNL A   1      43.388  35.486  33.539  1.00  0.00    -0.237 OA
ATOM     75  O   UNL A   1      43.995  35.671  35.916  1.00  0.00    -0.744 OA
ENDBRANCH  69  72
ENDBRANCH  51  65
BRANCH  52  76
ATOM     76  C   UNL A   1      42.698  24.097  27.275  1.00  0.00     0.023 A 
ATOM     77  C   UNL A   1      43.342  24.455  26.076  1.00  0.00     0.012 A 
ATOM     78  C   UNL A   1      42.137  22.810  27.400  1.00  0.00     0.148 A 
ATOM     79  C   UNL A   1      43.391  23.563  25.005  1.00  0.00     0.002 A 
ATOM     80  C   UNL A   1      42.224  21.911  26.345  1.00  0.00     0.091 A 
ATOM     81  F   UNL A   1      41.527  22.491  28.551  1.00  0.00    -0.205 F 
ATOM     82  C   UNL A   1      42.840  22.290  25.141  1.00  0.00     0.022 A 
BRANCH  80  83
ATOM     83  S   UNL A   1      41.595  20.232  26.453  1.00  0.00     0.127 S 
ATOM     84  O   UNL A   1      42.095  19.809  27.758  1.00  0.00    -0.237 OA
ATOM     85  O   UNL A   1      40.150  20.443  26.391  1.00  0.00    -0.237 OA
ATOM     86  O   UNL A   1      42.153  19.513  25.312  1.00  0.00    -0.744 OA
ENDBRANCH  80  83
ENDBRANCH  52  76
BRANCH  64  87
ATOM     87  C   UNL A   1      46.928  25.779  32.567  1.00  0.00     0.023 A 
ATOM     88  C   UNL A   1      46.994  24.885  33.652  1.00  0.00     0.012 A 
ATOM     89  C   UNL A   1      48.105  26.101  31.862  1.00  0.00     0.148 A 
ATOM     90  C   UNL A   1      48.214  24.339  34.047  1.00  0.00     0.002 A 
ATOM     91  C   UNL A   1      49.309  25.512  32.228  1.00  0.00     0.091 A 
ATOM     92  F   UNL A   1      48.022  26.963  30.838  1.00  0.00    -0.205 F 
ATOM     93  C   UNL A   1      49.368  24.642  33.329  1.00  0.00     0.022 A 
BRANCH  91  94
ATOM     94  S   UNL A   1      50.831  25.767  31.308  1.00  0.00     0.127 S 
ATOM     95  O   UNL A   1      51.770  24.924  32.047  1.00  0.00    -0.237 OA
ATOM     96  O   UNL A   1      50.474  25.265  29.981  1.00  0.00    -0.237 OA
ATOM     97  O   UNL A   1      51.107  27.196  31.366  1.00  0.00    -0.744 OA
ENDBRANCH  91  94
ENDBRANCH  64  87
ENDBRANCH  38  39
ENDBRANCH  30  33
ENDBRANCH  28  29
ENDBRANCH  27  28
ENDBRANCH  26  27
ENDBRANCH   1  26
TORSDOF 21
ENDMDL
MODEL 3
REMARK VINA RESULT:     -10.7      2.413      8.056
REMARK SMILES COc1ccc(C(=O)NCCCCCCNC(=O)c2ccc(-c3c4nc(c(-c5cccc(S(=O)(=O)[O-])c5F)c5ccc([nH]5)c(-c5cccc(S(=O)(=O)[O-])c5F)c5nc(c(-c6cccc(S(=O)(=O)[O-])c6F)c6ccc3[nH]6)C=C5)C=C4)cc2)cc1NCc1cc(C#N)cs1
REMARK SMILES IDX 12 1 11 2 10 3 9 4 7 5 8 6 6 8 3 9 4 10 83 11 5 12 82 13
REMARK SMILES IDX 2 14 1 15 84 16 85 18 86 19 87 20 92 21 88 22 91 23 89 24
REMARK SMILES IDX 90 25 13 26 14 27 15 28 16 29 17 30 18 32 19 33 20 34 81 35
REMARK SMILES IDX 21 36 80 37 22 38 23 39 24 40 74 41 25 42 79 43 73 44 75 45
REMARK SMILES IDX 26 46 78 47 72 48 71 49 27 51 59 52 39 53 58 54 40 55 43 56
REMARK SMILES IDX 57 57 76 58 41 59 42 60 56 62 77 63 44 64 28 65 29 66 37 67
REMARK SMILES IDX 30 68 32 69 38 70 31 71 33 72 34 73 35 74 36 75 60 76 61 77
REMARK SMILES IDX 69 78 62 79 64 80 70 81 63 82 65 83 66 84 67 85 68 86 45 87
REMARK SMILES IDX 46 88 54 89 47 90 49 91 55 92 48 93 50 94 51 95 52 96 53 97
REMARK H PARENT 9 7 84 17 16 31 75 50 43 61
REMARK Flexibility Score: inf
ROOT
ATOM      1  C   UNL A   1      31.676  28.128  22.715  1.00  0.00     0.002 C 
ENDROOT
BRANCH   1   2
ATOM      2  C   UNL A   1      30.180  27.797  22.775  1.00  0.00     0.021 C 
BRANCH   2   3
ATOM      3  C   UNL A   1      29.890  26.583  23.661  1.00  0.00     0.116 C 
BRANCH   3   4
ATOM      4  N   UNL A   1      30.453  26.797  24.981  1.00  0.00    -0.352 N 
ATOM      5  C   UNL A   1      31.030  25.946  25.888  1.00  0.00     0.251 C 
ATOM      6  O   UNL A   1      31.404  26.421  26.962  1.00  0.00    -0.269 OA
ATOM      7  H   UNL A   1      30.413  27.733  25.283  1.00  0.00     0.163 HD
BRANCH   5   8
ATOM      8  C   UNL A   1      31.279  24.504  25.602  1.00  0.00     0.042 A 
ATOM      9  C   UNL A   1      31.771  21.771  25.204  1.00  0.00     0.142 A 
ATOM     10  C   UNL A   1      30.885  22.204  26.207  1.00  0.00     0.049 A 
ATOM     11  C   UNL A   1      32.438  22.700  24.380  1.00  0.00     0.078 A 
ATOM     12  C   UNL A   1      30.674  23.563  26.433  1.00  0.00     0.018 A 
ATOM     13  C   UNL A   1      32.069  24.045  24.543  1.00  0.00     0.043 A 
BRANCH   9  14
ATOM     14  O   UNL A   1      31.773  20.410  25.025  1.00  0.00    -0.495 OA
ATOM     15  C   UNL A   1      32.974  19.738  25.377  1.00  0.00     0.278 C 
ENDBRANCH   9  14
BRANCH  11  16
ATOM     16  N   UNL A   1      33.369  22.337  23.420  1.00  0.00    -0.377 N 
ATOM     17  H   UNL A   1      33.137  21.572  22.845  1.00  0.00     0.161 HD
BRANCH  16  18
ATOM     18  C   UNL A   1      34.661  22.978  23.175  1.00  0.00     0.160 C 
BRANCH  18  19
ATOM     19  C   UNL A   1      35.755  22.749  24.192  1.00  0.00     0.025 A 
ATOM     20  C   UNL A   1      36.528  23.706  24.827  1.00  0.00     0.036 A 
ATOM     21  S   UNL A   1      36.264  21.170  24.633  1.00  0.00    -0.146 S 
ATOM     22  C   UNL A   1      37.503  23.147  25.712  1.00  0.00     0.063 A 
ATOM     23  C   UNL A   1      37.485  21.772  25.682  1.00  0.00     0.084 A 
BRANCH  22  24
ATOM     24  C   UNL A   1      38.346  23.941  26.564  1.00  0.00     0.100 C 
ATOM     25  N   UNL A   1      38.843  24.666  27.320  1.00  0.00    -0.192 NA
ENDBRANCH  22  24
ENDBRANCH  18  19
ENDBRANCH  16  18
ENDBRANCH  11  16
ENDBRANCH   5   8
ENDBRANCH   3   4
ENDBRANCH   2   3
ENDBRANCH   1   2
BRANCH   1  26
ATOM     26  C   UNL A   1      32.063  29.402  23.476  1.00  0.00     0.002 C 
BRANCH  26  27
ATOM     27  C   UNL A   1      33.162  29.204  24.523  1.00  0.00     0.021 C 
BRANCH  27  28
ATOM     28  C   UNL A   1      32.684  29.416  25.956  1.00  0.00     0.116 C 
BRANCH  28  29
ATOM     29  N   UNL A   1      32.535  30.834  26.260  1.00  0.00    -0.352 N 
ATOM     30  C   UNL A   1      33.251  31.612  27.134  1.00  0.00     0.251 C 
ATOM     31  H   UNL A   1      31.819  31.298  25.770  1.00  0.00     0.163 HD
ATOM     32  O   UNL A   1      32.828  32.713  27.472  1.00  0.00    -0.269 OA
BRANCH  30  33
ATOM     33  C   UNL A   1      34.529  31.106  27.672  1.00  0.00     0.039 A 
ATOM     34  C   UNL A   1      35.551  32.011  27.962  1.00  0.00     0.014 A 
ATOM     35  C   UNL A   1      34.703  29.739  27.911  1.00  0.00     0.014 A 
ATOM     36  C   UNL A   1      36.721  31.553  28.569  1.00  0.00     0.010 A 
ATOM     37  C   UNL A   1      35.837  29.297  28.584  1.00  0.00     0.010 A 
ATOM     38  C   UNL A   1      36.851  30.202  28.931  1.00  0.00    -0.014 A 
BRANCH  38  39
ATOM     39  C   UNL A   1      38.008  29.732  29.734  1.00  0.00     0.031 A 
ATOM     40  C   UNL A   1      38.206  30.208  31.145  1.00  0.00     0.074 A 
ATOM     41  C   UNL A   1      38.937  28.951  29.146  1.00  0.00     0.049 A 
ATOM     42  N   UNL A   1      39.195  29.961  31.963  1.00  0.00    -0.248 NA
ATOM     43  C   UNL A   1      37.170  31.091  31.706  1.00  0.00     0.031 C 
ATOM     44  C   UNL A   1      38.893  28.481  27.759  1.00  0.00     0.029 A 
ATOM     45  N   UNL A   1      40.116  28.440  29.629  1.00  0.00    -0.354 N 
ATOM     46  C   UNL A   1      38.924  30.683  33.118  1.00  0.00     0.074 A 
ATOM     47  C   UNL A   1      37.685  31.394  32.891  1.00  0.00     0.031 C 
ATOM     48  C   UNL A   1      39.993  27.757  27.502  1.00  0.00     0.029 A 
ATOM     49  C   UNL A   1      40.843  27.751  28.687  1.00  0.00     0.049 A 
ATOM     50  H   UNL A   1      40.413  28.557  30.561  1.00  0.00     0.167 HD
ATOM     51  C   UNL A   1      39.639  30.739  34.268  1.00  0.00     0.034 A 
ATOM     52  C   UNL A   1      42.071  27.202  28.755  1.00  0.00     0.034 A 
ATOM     53  C   UNL A   1      40.860  30.016  34.494  1.00  0.00     0.049 A 
ATOM     54  C   UNL A   1      42.841  27.282  30.044  1.00  0.00     0.074 A 
ATOM     55  C   UNL A   1      41.602  29.933  35.660  1.00  0.00     0.029 A 
ATOM     56  N   UNL A   1      41.539  29.281  33.536  1.00  0.00    -0.354 N 
ATOM     57  N   UNL A   1      42.487  27.829  31.182  1.00  0.00    -0.248 NA
ATOM     58  C   UNL A   1      44.170  26.652  30.068  1.00  0.00     0.031 C 
ATOM     59  C   UNL A   1      42.761  29.200  35.388  1.00  0.00     0.029 A 
ATOM     60  C   UNL A   1      42.713  28.778  34.070  1.00  0.00     0.049 A 
ATOM     61  H   UNL A   1      41.233  29.138  32.612  1.00  0.00     0.167 HD
ATOM     62  C   UNL A   1      43.538  27.592  32.060  1.00  0.00     0.074 A 
ATOM     63  C   UNL A   1      44.528  26.826  31.333  1.00  0.00     0.031 C 
ATOM     64  C   UNL A   1      43.679  27.989  33.348  1.00  0.00     0.034 A 
BRANCH  51  65
ATOM     65  C   UNL A   1      39.119  31.607  35.384  1.00  0.00     0.023 A 
ATOM     66  C   UNL A   1      38.219  31.078  36.331  1.00  0.00     0.012 A 
ATOM     67  C   UNL A   1      39.594  32.924  35.543  1.00  0.00     0.148 A 
ATOM     68  C   UNL A   1      37.779  31.855  37.402  1.00  0.00     0.002 A 
ATOM     69  C   UNL A   1      39.189  33.675  36.638  1.00  0.00     0.091 A 
ATOM     70  F   UNL A   1      40.436  33.413  34.621  1.00  0.00    -0.205 F 
ATOM     71  C   UNL A   1      38.272  33.147  37.562  1.00  0.00     0.022 A 
BRANCH  69  72
ATOM     72  S   UNL A   1      39.830  35.317  36.979  1.00  0.00     0.127 S 
ATOM     73  O   UNL A   1      39.344  36.068  35.822  1.00  0.00    -0.237 OA
ATOM     74  O   UNL A   1      39.170  35.646  38.242  1.00  0.00    -0.237 OA
ATOM     75  O   UNL A   1      41.277  35.178  37.062  1.00  0.00    -0.744 OA
ENDBRANCH  69  72
ENDBRANCH  51  65
BRANCH  52  76
ATOM     76  C   UNL A   1      42.660  26.532  27.561  1.00  0.00     0.023 A 
ATOM     77  C   UNL A   1      43.366  27.294  26.611  1.00  0.00     0.012 A 
ATOM     78  C   UNL A   1      42.508  25.146  27.360  1.00  0.00     0.148 A 
ATOM     79  C   UNL A   1      43.876  26.693  25.460  1.00  0.00     0.002 A 
ATOM     80  C   UNL A   1      43.052  24.546  26.231  1.00  0.00     0.091 A 
ATOM     81  F   UNL A   1      41.831  24.440  28.277  1.00  0.00    -0.205 F 
ATOM     82  C   UNL A   1      43.726  25.321  25.273  1.00  0.00     0.022 A 
BRANCH  80  83
ATOM     83  S   UNL A   1      42.960  22.775  25.939  1.00  0.00     0.127 S 
ATOM     84  O   UNL A   1      43.986  22.269  26.846  1.00  0.00    -0.237 OA
ATOM     85  O   UNL A   1      41.587  22.472  26.339  1.00  0.00    -0.237 OA
ATOM     86  O   UNL A   1      43.236  22.582  24.519  1.00  0.00    -0.744 OA
ENDBRANCH  80  83
ENDBRANCH  52  76
BRANCH  64  87
ATOM     87  C   UNL A   1      44.938  27.593  34.073  1.00  0.00     0.023 A 
ATOM     88  C   UNL A   1      46.052  28.454  34.070  1.00  0.00     0.012 A 
ATOM     89  C   UNL A   1      44.984  26.405  34.832  1.00  0.00     0.148 A 
ATOM     90  C   UNL A   1      47.203  28.128  34.787  1.00  0.00     0.002 A 
ATOM     91  C   UNL A   1      46.112  26.113  35.585  1.00  0.00     0.091 A 
ATOM     92  F   UNL A   1      43.916  25.594  34.812  1.00  0.00    -0.205 F 
ATOM     93  C   UNL A   1      47.229  26.965  35.553  1.00  0.00     0.022 A 
BRANCH  91  94
ATOM     94  S   UNL A   1      46.207  24.689  36.677  1.00  0.00     0.127 S 
ATOM     95  O   UNL A   1      46.223  23.582  35.721  1.00  0.00    -0.237 OA
ATOM     96  O   UNL A   1      47.475  24.918  37.369  1.00  0.00    -0.237 OA
ATOM     97  O   UNL A   1      45.027  24.751  37.529  1.00  0.00    -0.744 OA
ENDBRANCH  91  94
ENDBRANCH  64  87
ENDBRANCH  38  39
ENDBRANCH  30  33
ENDBRANCH  28  29
ENDBRANCH  27  28
ENDBRANCH  26  27
ENDBRANCH   1  26
TORSDOF 21
ENDMDL
