MODEL 1
REMARK VINA RESULT:     -10.1      0.000      0.000
REMARK SMILES COc1cc(/C=C2/SC(=O)N(c3ccc(O)cc3C)C2=O)ccc1OCC(=O)NCCCCCCNC(=O)c1ccc(-c2c3nc(c(-c4cccc(S(=O)(=O)[O-])c4F)c4ccc([nH]4)c(-c4cccc(S(=O)(=O)[O-])c4F)c4nc(c(-c5cccc(S(=O)(=O)[O-])c5F)c5ccc2[nH]5)C=C4)C=C3)cc1
REMARK SMILES IDX 31 1 30 2 29 3 27 4 28 5 26 7 25 8 24 9 3 10 4 11 5 12 23 13
REMARK SMILES IDX 22 14 2 15 1 16 6 17 7 18 8 19 20 20 9 21 11 22 21 23 10 24
REMARK SMILES IDX 12 25 13 26 18 27 14 28 17 29 19 30 15 31 16 32 32 34 33 35
REMARK SMILES IDX 34 36 35 37 36 38 37 39 38 41 39 42 40 43 101 44 41 45
REMARK SMILES IDX 100 46 42 47 43 48 44 49 94 50 45 51 99 52 93 53 95 54 46 55
REMARK SMILES IDX 98 56 92 57 91 58 47 60 79 61 59 62 78 63 60 64 63 65 77 66
REMARK SMILES IDX 96 67 61 68 62 69 76 71 97 72 64 73 48 74 49 75 57 76 50 77
REMARK SMILES IDX 52 78 58 79 51 80 53 81 54 82 55 83 56 84 80 85 81 86 89 87
REMARK SMILES IDX 82 88 84 89 90 90 83 91 85 92 86 93 87 94 88 95 65 96 66 97
REMARK SMILES IDX 74 98 67 99 69 100 75 101 68 102 70 103 71 104 72 105 73 106
REMARK H PARENT 29 6 16 33 36 40 95 59 63 70
REMARK Flexibility Score: inf
ROOT
ATOM      1  C   UNL A   1      40.324  25.197  27.965  1.00  0.00     0.021 C 
ENDROOT
BRANCH   1   2
ATOM      2  C   UNL A   1      39.397  24.146  27.354  1.00  0.00     0.116 C 
BRANCH   2   3
ATOM      3  N   UNL A   1      39.858  22.794  27.594  1.00  0.00    -0.353 N 
ATOM      4  C   UNL A   1      39.756  21.699  26.785  1.00  0.00     0.257 C 
ATOM      5  O   UNL A   1      40.362  20.677  27.118  1.00  0.00    -0.271 OA
ATOM      6  H   UNL A   1      40.304  22.644  28.458  1.00  0.00     0.163 HD
BRANCH   4   7
ATOM      7  C   UNL A   1      38.970  21.790  25.474  1.00  0.00     0.329 C 
BRANCH   7   8
ATOM      8  O   UNL A   1      37.717  21.135  25.431  1.00  0.00    -0.480 OA
BRANCH   8   9
ATOM      9  C   UNL A   1      36.631  21.737  24.865  1.00  0.00     0.161 A 
ATOM     10  C   UNL A   1      35.288  21.351  24.913  1.00  0.00     0.161 A 
ATOM     11  C   UNL A   1      34.336  22.035  24.139  1.00  0.00     0.058 A 
ATOM     12  C   UNL A   1      34.712  23.121  23.344  1.00  0.00    -0.020 A 
ATOM     13  C   UNL A   1      36.985  22.862  24.106  1.00  0.00     0.051 A 
ATOM     14  C   UNL A   1      36.036  23.564  23.365  1.00  0.00     0.012 A 
BRANCH  10  15
ATOM     15  O   UNL A   1      34.907  20.218  25.581  1.00  0.00    -0.493 OA
ATOM     16  C   UNL A   1      34.058  19.384  24.793  1.00  0.00     0.278 C 
ENDBRANCH  10  15
BRANCH  12  17
ATOM     17  C   UNL A   1      33.785  23.661  22.346  1.00  0.00     0.029 C 
ATOM     18  C   UNL A   1      33.162  24.841  22.510  1.00  0.00     0.083 C 
ATOM     19  S   UNL A   1      32.017  25.480  21.396  1.00  0.00    -0.022 SA
ATOM     20  C   UNL A   1      33.310  25.771  23.672  1.00  0.00     0.272 C 
ATOM     21  C   UNL A   1      31.674  26.877  22.414  1.00  0.00     0.298 C 
ATOM     22  N   UNL A   1      32.394  26.806  23.581  1.00  0.00    -0.236 N 
ATOM     23  O   UNL A   1      34.121  25.600  24.571  1.00  0.00    -0.268 OA
ATOM     24  O   UNL A   1      30.932  27.771  22.023  1.00  0.00    -0.260 OA
BRANCH  22  25
ATOM     25  C   UNL A   1      32.284  27.770  24.626  1.00  0.00     0.056 A 
ATOM     26  C   UNL A   1      33.016  28.970  24.515  1.00  0.00     0.031 A 
ATOM     27  C   UNL A   1      31.540  27.538  25.803  1.00  0.00    -0.023 A 
ATOM     28  C   UNL A   1      33.011  29.926  25.530  1.00  0.00     0.048 A 
ATOM     29  C   UNL A   1      31.535  28.521  26.816  1.00  0.00     0.051 A 
ATOM     30  C   UNL A   1      30.790  26.267  26.102  1.00  0.00     0.047 C 
ATOM     31  C   UNL A   1      32.276  29.691  26.677  1.00  0.00     0.115 A 
BRANCH  31  32
ATOM     32  O   UNL A   1      32.321  30.629  27.664  1.00  0.00    -0.508 OA
ATOM     33  H   UNL A   1      31.557  31.132  27.867  1.00  0.00     0.293 HD
ENDBRANCH  31  32
ENDBRANCH  22  25
ENDBRANCH  12  17
ENDBRANCH   8   9
ENDBRANCH   7   8
ENDBRANCH   4   7
ENDBRANCH   2   3
ENDBRANCH   1   2
BRANCH   1  34
ATOM     34  C   UNL A   1      39.651  26.507  28.390  1.00  0.00     0.002 C 
BRANCH  34  35
ATOM     35  C   UNL A   1      39.686  26.831  29.886  1.00  0.00     0.002 C 
BRANCH  35  36
ATOM     36  C   UNL A   1      38.491  27.614  30.429  1.00  0.00     0.021 C 
BRANCH  36  37
ATOM     37  C   UNL A   1      38.395  27.687  31.947  1.00  0.00     0.116 C 
BRANCH  37  38
ATOM     38  N   UNL A   1      37.466  28.710  32.400  1.00  0.00    -0.352 N 
ATOM     39  C   UNL A   1      37.637  30.073  32.441  1.00  0.00     0.251 C 
ATOM     40  H   UNL A   1      36.596  28.380  32.720  1.00  0.00     0.163 HD
ATOM     41  O   UNL A   1      36.802  30.779  32.998  1.00  0.00    -0.269 OA
BRANCH  39  42
ATOM     42  C   UNL A   1      38.843  30.683  31.835  1.00  0.00     0.039 A 
ATOM     43  C   UNL A   1      39.950  30.940  32.648  1.00  0.00     0.014 A 
ATOM     44  C   UNL A   1      38.885  30.994  30.473  1.00  0.00     0.014 A 
ATOM     45  C   UNL A   1      41.120  31.455  32.084  1.00  0.00     0.010 A 
ATOM     46  C   UNL A   1      40.074  31.440  29.901  1.00  0.00     0.010 A 
ATOM     47  C   UNL A   1      41.202  31.682  30.699  1.00  0.00    -0.014 A 
BRANCH  47  48
ATOM     48  C   UNL A   1      42.458  32.162  30.067  1.00  0.00     0.031 A 
ATOM     49  C   UNL A   1      42.631  33.619  29.735  1.00  0.00     0.074 A 
ATOM     50  C   UNL A   1      43.406  31.273  29.708  1.00  0.00     0.049 A 
ATOM     51  N   UNL A   1      43.627  34.215  29.131  1.00  0.00    -0.248 NA
ATOM     52  C   UNL A   1      41.529  34.523  30.104  1.00  0.00     0.031 C 
ATOM     53  C   UNL A   1      43.322  29.824  29.899  1.00  0.00     0.029 A 
ATOM     54  N   UNL A   1      44.614  31.455  29.082  1.00  0.00    -0.354 N 
ATOM     55  C   UNL A   1      43.258  35.549  29.014  1.00  0.00     0.074 A 
ATOM     56  C   UNL A   1      41.933  35.672  29.581  1.00  0.00     0.031 C 
ATOM     57  C   UNL A   1      44.430  29.250  29.402  1.00  0.00     0.029 A 
ATOM     58  C   UNL A   1      45.291  30.284  28.836  1.00  0.00     0.049 A 
ATOM     59  H   UNL A   1      44.963  32.341  28.833  1.00  0.00     0.167 HD
ATOM     60  C   UNL A   1      43.969  36.586  28.511  1.00  0.00     0.034 A 
ATOM     61  C   UNL A   1      46.470  30.065  28.221  1.00  0.00     0.034 A 
ATOM     62  C   UNL A   1      45.308  36.472  27.998  1.00  0.00     0.049 A 
ATOM     63  C   UNL A   1      47.264  31.241  27.720  1.00  0.00     0.074 A 
ATOM     64  C   UNL A   1      46.148  37.479  27.555  1.00  0.00     0.029 A 
ATOM     65  N   UNL A   1      46.002  35.282  27.856  1.00  0.00    -0.354 N 
ATOM     66  N   UNL A   1      46.969  32.517  27.772  1.00  0.00    -0.248 NA
ATOM     67  C   UNL A   1      48.570  30.952  27.110  1.00  0.00     0.031 C 
ATOM     68  C   UNL A   1      47.346  36.894  27.132  1.00  0.00     0.029 A 
ATOM     69  C   UNL A   1      47.258  35.525  27.327  1.00  0.00     0.049 A 
ATOM     70  H   UNL A   1      45.653  34.393  28.095  1.00  0.00     0.167 HD
ATOM     71  C   UNL A   1      48.065  33.184  27.236  1.00  0.00     0.074 A 
ATOM     72  C   UNL A   1      49.039  32.171  26.884  1.00  0.00     0.031 C 
ATOM     73  C   UNL A   1      48.240  34.514  27.036  1.00  0.00     0.034 A 
BRANCH  60  74
ATOM     74  C   UNL A   1      43.336  37.953  28.549  1.00  0.00     0.023 A 
ATOM     75  C   UNL A   1      42.499  38.357  27.488  1.00  0.00     0.012 A 
ATOM     76  C   UNL A   1      43.519  38.811  29.650  1.00  0.00     0.148 A 
ATOM     77  C   UNL A   1      41.881  39.606  27.507  1.00  0.00     0.002 A 
ATOM     78  C   UNL A   1      42.865  40.038  29.681  1.00  0.00     0.091 A 
ATOM     79  F   UNL A   1      44.336  38.421  30.639  1.00  0.00    -0.205 F 
ATOM     80  C   UNL A   1      42.056  40.441  28.606  1.00  0.00     0.022 A 
BRANCH  78  81
ATOM     81  S   UNL A   1      42.966  41.154  31.086  1.00  0.00     0.127 S 
ATOM     82  O   UNL A   1      44.349  41.620  30.994  1.00  0.00    -0.237 OA
ATOM     83  O   UNL A   1      41.960  42.163  30.752  1.00  0.00    -0.237 OA
ATOM     84  O   UNL A   1      42.652  40.350  32.258  1.00  0.00    -0.744 OA
ENDBRANCH  78  81
ENDBRANCH  60  74
BRANCH  61  85
ATOM     85  C   UNL A   1      47.008  28.678  28.117  1.00  0.00     0.023 A 
ATOM     86  C   UNL A   1      47.841  28.184  29.139  1.00  0.00     0.012 A 
ATOM     87  C   UNL A   1      46.675  27.839  27.036  1.00  0.00     0.148 A 
ATOM     88  C   UNL A   1      48.357  26.890  29.073  1.00  0.00     0.002 A 
ATOM     89  C   UNL A   1      47.148  26.532  27.005  1.00  0.00     0.091 A 
ATOM     90  F   UNL A   1      45.892  28.331  26.066  1.00  0.00    -0.205 F 
ATOM     91  C   UNL A   1      48.003  26.061  28.013  1.00  0.00     0.022 A 
BRANCH  89  92
ATOM     92  S   UNL A   1      46.635  25.356  25.747  1.00  0.00     0.127 S 
ATOM     93  O   UNL A   1      47.320  24.139  26.178  1.00  0.00    -0.237 OA
ATOM     94  O   UNL A   1      45.182  25.341  25.920  1.00  0.00    -0.237 OA
ATOM     95  O   UNL A   1      47.079  25.921  24.480  1.00  0.00    -0.744 OA
ENDBRANCH  89  92
ENDBRANCH  61  85
BRANCH  73  96
ATOM     96  C   UNL A   1      49.547  34.964  26.437  1.00  0.00     0.023 A 
ATOM     97  C   UNL A   1      49.644  35.169  25.047  1.00  0.00     0.012 A 
ATOM     98  C   UNL A   1      50.652  35.261  27.260  1.00  0.00     0.148 A 
ATOM     99  C   UNL A   1      50.830  35.635  24.480  1.00  0.00     0.002 A 
ATOM    100  C   UNL A   1      51.815  35.769  26.693  1.00  0.00     0.091 A 
ATOM    101  F   UNL A   1      50.547  35.041  28.578  1.00  0.00    -0.205 F 
ATOM    102  C   UNL A   1      51.909  35.947  25.303  1.00  0.00     0.022 A 
BRANCH 100 103
ATOM    103  S   UNL A   1      53.220  36.288  27.686  1.00  0.00     0.127 S 
ATOM    104  O   UNL A   1      54.146  36.770  26.663  1.00  0.00    -0.237 OA
ATOM    105  O   UNL A   1      52.640  37.336  28.525  1.00  0.00    -0.237 OA
ATOM    106  O   UNL A   1      53.652  35.103  28.415  1.00  0.00    -0.744 OA
ENDBRANCH 100 103
ENDBRANCH  73  96
ENDBRANCH  47  48
ENDBRANCH  39  42
ENDBRANCH  37  38
ENDBRANCH  36  37
ENDBRANCH  35  36
ENDBRANCH  34  35
ENDBRANCH   1  34
TORSDOF 22
ENDMDL
MODEL 2
REMARK VINA RESULT:     -10.1      3.781      9.615
REMARK SMILES COc1cc(/C=C2/SC(=O)N(c3ccc(O)cc3C)C2=O)ccc1OCC(=O)NCCCCCCNC(=O)c1ccc(-c2c3nc(c(-c4cccc(S(=O)(=O)[O-])c4F)c4ccc([nH]4)c(-c4cccc(S(=O)(=O)[O-])c4F)c4nc(c(-c5cccc(S(=O)(=O)[O-])c5F)c5ccc2[nH]5)C=C4)C=C3)cc1
REMARK SMILES IDX 31 1 30 2 29 3 27 4 28 5 26 7 25 8 24 9 3 10 4 11 5 12 23 13
REMARK SMILES IDX 22 14 2 15 1 16 6 17 7 18 8 19 20 20 9 21 11 22 21 23 10 24
REMARK SMILES IDX 12 25 13 26 18 27 14 28 17 29 19 30 15 31 16 32 32 34 33 35
REMARK SMILES IDX 34 36 35 37 36 38 37 39 38 41 39 42 40 43 101 44 41 45
REMARK SMILES IDX 100 46 42 47 43 48 44 49 94 50 45 51 99 52 93 53 95 54 46 55
REMARK SMILES IDX 98 56 92 57 91 58 47 60 79 61 59 62 78 63 60 64 63 65 77 66
REMARK SMILES IDX 96 67 61 68 62 69 76 71 97 72 64 73 48 74 49 75 57 76 50 77
REMARK SMILES IDX 52 78 58 79 51 80 53 81 54 82 55 83 56 84 80 85 81 86 89 87
REMARK SMILES IDX 82 88 84 89 90 90 83 91 85 92 86 93 87 94 88 95 65 96 66 97
REMARK SMILES IDX 74 98 67 99 69 100 75 101 68 102 70 103 71 104 72 105 73 106
REMARK H PARENT 29 6 16 33 36 40 95 59 63 70
REMARK Flexibility Score: inf
ROOT
ATOM      1  C   UNL A   1      33.572  25.260  22.796  1.00  0.00     0.021 C 
ENDROOT
BRANCH   1   2
ATOM      2  C   UNL A   1      32.186  25.611  22.254  1.00  0.00     0.116 C 
BRANCH   2   3
ATOM      3  N   UNL A   1      31.137  25.384  23.227  1.00  0.00    -0.353 N 
ATOM      4  C   UNL A   1      30.634  26.244  24.160  1.00  0.00     0.257 C 
ATOM      5  O   UNL A   1      29.627  25.896  24.784  1.00  0.00    -0.271 OA
ATOM      6  H   UNL A   1      30.732  24.487  23.214  1.00  0.00     0.163 HD
BRANCH   4   7
ATOM      7  C   UNL A   1      31.275  27.621  24.352  1.00  0.00     0.329 C 
BRANCH   7   8
ATOM      8  O   UNL A   1      31.074  28.253  25.601  1.00  0.00    -0.480 OA
BRANCH   8   9
ATOM      9  C   UNL A   1      32.080  28.950  26.204  1.00  0.00     0.161 A 
ATOM     10  C   UNL A   1      32.231  30.335  26.339  1.00  0.00     0.161 A 
ATOM     11  C   UNL A   1      33.419  30.859  26.874  1.00  0.00     0.058 A 
ATOM     12  C   UNL A   1      34.443  30.008  27.304  1.00  0.00    -0.020 A 
ATOM     13  C   UNL A   1      33.091  28.108  26.689  1.00  0.00     0.051 A 
ATOM     14  C   UNL A   1      34.256  28.626  27.253  1.00  0.00     0.012 A 
BRANCH  10  15
ATOM     15  O   UNL A   1      31.305  31.197  25.816  1.00  0.00    -0.493 OA
ATOM     16  C   UNL A   1      31.301  32.459  26.483  1.00  0.00     0.278 C 
ENDBRANCH  10  15
BRANCH  12  17
ATOM     17  C   UNL A   1      35.770  30.548  27.611  1.00  0.00     0.029 C 
ATOM     18  C   UNL A   1      35.947  31.582  28.451  1.00  0.00     0.083 C 
ATOM     19  S   UNL A   1      37.479  32.288  28.789  1.00  0.00    -0.022 SA
ATOM     20  C   UNL A   1      34.877  32.315  29.196  1.00  0.00     0.272 C 
ATOM     21  C   UNL A   1      36.776  33.542  29.808  1.00  0.00     0.298 C 
ATOM     22  N   UNL A   1      35.408  33.425  29.833  1.00  0.00    -0.236 N 
ATOM     23  O   UNL A   1      33.704  31.971  29.201  1.00  0.00    -0.268 OA
ATOM     24  O   UNL A   1      37.491  34.326  30.421  1.00  0.00    -0.260 OA
BRANCH  22  25
ATOM     25  C   UNL A   1      34.560  34.333  30.533  1.00  0.00     0.056 A 
ATOM     26  C   UNL A   1      34.409  34.177  31.927  1.00  0.00     0.031 A 
ATOM     27  C   UNL A   1      33.802  35.329  29.879  1.00  0.00    -0.023 A 
ATOM     28  C   UNL A   1      33.543  34.983  32.663  1.00  0.00     0.048 A 
ATOM     29  C   UNL A   1      32.939  36.145  30.641  1.00  0.00     0.051 A 
ATOM     30  C   UNL A   1      33.788  35.548  28.389  1.00  0.00     0.047 C 
ATOM     31  C   UNL A   1      32.808  35.957  32.014  1.00  0.00     0.115 A 
BRANCH  31  32
ATOM     32  O   UNL A   1      31.946  36.705  32.757  1.00  0.00    -0.508 OA
ATOM     33  H   UNL A   1      31.109  36.940  32.407  1.00  0.00     0.293 HD
ENDBRANCH  31  32
ENDBRANCH  22  25
ENDBRANCH  12  17
ENDBRANCH   8   9
ENDBRANCH   7   8
ENDBRANCH   4   7
ENDBRANCH   2   3
ENDBRANCH   1   2
BRANCH   1  34
ATOM     34  C   UNL A   1      33.589  24.396  24.062  1.00  0.00     0.002 C 
BRANCH  34  35
ATOM     35  C   UNL A   1      34.695  24.702  25.075  1.00  0.00     0.002 C 
BRANCH  35  36
ATOM     36  C   UNL A   1      35.316  23.494  25.774  1.00  0.00     0.021 C 
BRANCH  36  37
ATOM     37  C   UNL A   1      36.779  23.648  26.168  1.00  0.00     0.116 C 
BRANCH  37  38
ATOM     38  N   UNL A   1      37.488  22.379  26.193  1.00  0.00    -0.352 N 
ATOM     39  C   UNL A   1      38.835  22.147  26.335  1.00  0.00     0.251 C 
ATOM     40  H   UNL A   1      36.926  21.577  26.095  1.00  0.00     0.163 HD
ATOM     41  O   UNL A   1      39.282  21.013  26.179  1.00  0.00    -0.269 OA
BRANCH  39  42
ATOM     42  C   UNL A   1      39.748  23.269  26.648  1.00  0.00     0.039 A 
ATOM     43  C   UNL A   1      39.581  24.484  25.977  1.00  0.00     0.014 A 
ATOM     44  C   UNL A   1      40.759  23.130  27.604  1.00  0.00     0.014 A 
ATOM     45  C   UNL A   1      40.390  25.575  26.305  1.00  0.00     0.010 A 
ATOM     46  C   UNL A   1      41.516  24.237  27.978  1.00  0.00     0.010 A 
ATOM     47  C   UNL A   1      41.345  25.469  27.330  1.00  0.00    -0.014 A 
BRANCH  47  48
ATOM     48  C   UNL A   1      42.167  26.636  27.744  1.00  0.00     0.031 A 
ATOM     49  C   UNL A   1      43.543  26.836  27.170  1.00  0.00     0.074 A 
ATOM     50  C   UNL A   1      41.712  27.465  28.705  1.00  0.00     0.049 A 
ATOM     51  N   UNL A   1      44.429  27.757  27.452  1.00  0.00    -0.248 NA
ATOM     52  C   UNL A   1      43.996  25.858  26.168  1.00  0.00     0.031 C 
ATOM     53  C   UNL A   1      40.430  27.331  29.400  1.00  0.00     0.029 A 
ATOM     54  N   UNL A   1      42.289  28.568  29.284  1.00  0.00    -0.354 N 
ATOM     55  C   UNL A   1      45.552  27.449  26.694  1.00  0.00     0.074 A 
ATOM     56  C   UNL A   1      45.250  26.238  25.963  1.00  0.00     0.031 C 
ATOM     57  C   UNL A   1      40.318  28.313  30.310  1.00  0.00     0.029 A 
ATOM     58  C   UNL A   1      41.527  29.131  30.280  1.00  0.00     0.049 A 
ATOM     59  H   UNL A   1      43.165  28.923  29.011  1.00  0.00     0.167 HD
ATOM     60  C   UNL A   1      46.718  28.129  26.590  1.00  0.00     0.034 A 
ATOM     61  C   UNL A   1      41.774  30.186  31.083  1.00  0.00     0.034 A 
ATOM     62  C   UNL A   1      46.997  29.362  27.276  1.00  0.00     0.049 A 
ATOM     63  C   UNL A   1      43.055  30.956  30.907  1.00  0.00     0.074 A 
ATOM     64  C   UNL A   1      48.109  30.177  27.161  1.00  0.00     0.029 A 
ATOM     65  N   UNL A   1      46.159  29.958  28.204  1.00  0.00    -0.354 N 
ATOM     66  N   UNL A   1      44.035  30.744  30.063  1.00  0.00    -0.248 NA
ATOM     67  C   UNL A   1      43.248  32.132  31.767  1.00  0.00     0.031 C 
ATOM     68  C   UNL A   1      47.949  31.260  28.033  1.00  0.00     0.029 A 
ATOM     69  C   UNL A   1      46.729  31.128  28.677  1.00  0.00     0.049 A 
ATOM     70  H   UNL A   1      45.285  29.602  28.486  1.00  0.00     0.167 HD
ATOM     71  C   UNL A   1      44.942  31.778  30.265  1.00  0.00     0.074 A 
ATOM     72  C   UNL A   1      44.385  32.627  31.298  1.00  0.00     0.031 C 
ATOM     73  C   UNL A   1      46.137  31.994  29.662  1.00  0.00     0.034 A 
BRANCH  60  74
ATOM     74  C   UNL A   1      47.763  27.587  25.649  1.00  0.00     0.023 A 
ATOM     75  C   UNL A   1      48.783  26.754  26.154  1.00  0.00     0.012 A 
ATOM     76  C   UNL A   1      47.708  27.851  24.267  1.00  0.00     0.148 A 
ATOM     77  C   UNL A   1      49.749  26.218  25.304  1.00  0.00     0.002 A 
ATOM     78  C   UNL A   1      48.651  27.279  23.420  1.00  0.00     0.091 A 
ATOM     79  F   UNL A   1      46.746  28.664  23.808  1.00  0.00    -0.205 F 
ATOM     80  C   UNL A   1      49.677  26.472  23.938  1.00  0.00     0.022 A 
BRANCH  78  81
ATOM     81  S   UNL A   1      48.600  27.485  21.636  1.00  0.00     0.127 S 
ATOM     82  O   UNL A   1      48.636  26.097  21.177  1.00  0.00    -0.237 OA
ATOM     83  O   UNL A   1      47.316  28.158  21.438  1.00  0.00    -0.237 OA
ATOM     84  O   UNL A   1      49.764  28.289  21.293  1.00  0.00    -0.744 OA
ENDBRANCH  78  81
ENDBRANCH  60  74
BRANCH  61  85
ATOM     85  C   UNL A   1      40.747  30.622  32.072  1.00  0.00     0.023 A 
ATOM     86  C   UNL A   1      39.593  31.289  31.619  1.00  0.00     0.012 A 
ATOM     87  C   UNL A   1      40.890  30.353  33.447  1.00  0.00     0.148 A 
ATOM     88  C   UNL A   1      38.613  31.707  32.518  1.00  0.00     0.002 A 
ATOM     89  C   UNL A   1      39.883  30.724  34.332  1.00  0.00     0.091 A 
ATOM     90  F   UNL A   1      42.002  29.731  33.862  1.00  0.00    -0.205 F 
ATOM     91  C   UNL A   1      38.752  31.416  33.872  1.00  0.00     0.022 A 
BRANCH  89  92
ATOM     92  S   UNL A   1      39.919  30.272  36.070  1.00  0.00     0.127 S 
ATOM     93  O   UNL A   1      38.502  30.316  36.421  1.00  0.00    -0.237 OA
ATOM     94  O   UNL A   1      40.501  28.930  36.023  1.00  0.00    -0.237 OA
ATOM     95  O   UNL A   1      40.766  31.267  36.715  1.00  0.00    -0.744 OA
ENDBRANCH  89  92
ENDBRANCH  61  85
BRANCH  73  96
ATOM     96  C   UNL A   1      46.918  33.214  30.075  1.00  0.00     0.023 A 
ATOM     97  C   UNL A   1      47.855  33.121  31.124  1.00  0.00     0.012 A 
ATOM     98  C   UNL A   1      46.782  34.428  29.374  1.00  0.00     0.148 A 
ATOM     99  C   UNL A   1      48.625  34.226  31.486  1.00  0.00     0.002 A 
ATOM    100  C   UNL A   1      47.586  35.512  29.711  1.00  0.00     0.091 A 
ATOM    101  F   UNL A   1      45.872  34.503  28.393  1.00  0.00    -0.205 F 
ATOM    102  C   UNL A   1      48.499  35.416  30.773  1.00  0.00     0.022 A 
BRANCH 100 103
ATOM    103  S   UNL A   1      47.559  37.051  28.785  1.00  0.00     0.127 S 
ATOM    104  O   UNL A   1      46.146  37.421  28.863  1.00  0.00    -0.237 OA
ATOM    105  O   UNL A   1      48.455  37.903  29.567  1.00  0.00    -0.237 OA
ATOM    106  O   UNL A   1      48.049  36.724  27.453  1.00  0.00    -0.744 OA
ENDBRANCH 100 103
ENDBRANCH  73  96
ENDBRANCH  47  48
ENDBRANCH  39  42
ENDBRANCH  37  38
ENDBRANCH  36  37
ENDBRANCH  35  36
ENDBRANCH  34  35
ENDBRANCH   1  34
TORSDOF 22
ENDMDL
MODEL 3
REMARK VINA RESULT:     -10.0      3.876      7.160
REMARK SMILES COc1cc(/C=C2/SC(=O)N(c3ccc(O)cc3C)C2=O)ccc1OCC(=O)NCCCCCCNC(=O)c1ccc(-c2c3nc(c(-c4cccc(S(=O)(=O)[O-])c4F)c4ccc([nH]4)c(-c4cccc(S(=O)(=O)[O-])c4F)c4nc(c(-c5cccc(S(=O)(=O)[O-])c5F)c5ccc2[nH]5)C=C4)C=C3)cc1
REMARK SMILES IDX 31 1 30 2 29 3 27 4 28 5 26 7 25 8 24 9 3 10 4 11 5 12 23 13
REMARK SMILES IDX 22 14 2 15 1 16 6 17 7 18 8 19 20 20 9 21 11 22 21 23 10 24
REMARK SMILES IDX 12 25 13 26 18 27 14 28 17 29 19 30 15 31 16 32 32 34 33 35
REMARK SMILES IDX 34 36 35 37 36 38 37 39 38 41 39 42 40 43 101 44 41 45
REMARK SMILES IDX 100 46 42 47 43 48 44 49 94 50 45 51 99 52 93 53 95 54 46 55
REMARK SMILES IDX 98 56 92 57 91 58 47 60 79 61 59 62 78 63 60 64 63 65 77 66
REMARK SMILES IDX 96 67 61 68 62 69 76 71 97 72 64 73 48 74 49 75 57 76 50 77
REMARK SMILES IDX 52 78 58 79 51 80 53 81 54 82 55 83 56 84 80 85 81 86 89 87
REMARK SMILES IDX 82 88 84 89 90 90 83 91 85 92 86 93 87 94 88 95 65 96 66 97
REMARK SMILES IDX 74 98 67 99 69 100 75 101 68 102 70 103 71 104 72 105 73 106
REMARK H PARENT 29 6 16 33 36 40 95 59 63 70
REMARK Flexibility Score: inf
ROOT
ATOM      1  C   UNL A   1      33.717  24.663  22.759  1.00  0.00     0.021 C 
ENDROOT
BRANCH   1   2
ATOM      2  C   UNL A   1      32.226  24.393  22.561  1.00  0.00     0.116 C 
BRANCH   2   3
ATOM      3  N   UNL A   1      31.549  24.081  23.803  1.00  0.00    -0.353 N 
ATOM      4  C   UNL A   1      30.637  24.827  24.492  1.00  0.00     0.257 C 
ATOM      5  O   UNL A   1      30.063  24.299  25.449  1.00  0.00    -0.271 OA
ATOM      6  H   UNL A   1      31.779  23.212  24.205  1.00  0.00     0.163 HD
BRANCH   4   7
ATOM      7  C   UNL A   1      30.302  26.246  24.024  1.00  0.00     0.329 C 
BRANCH   7   8
ATOM      8  O   UNL A   1      30.310  27.264  25.005  1.00  0.00    -0.480 OA
BRANCH   8   9
ATOM      9  C   UNL A   1      31.476  27.863  25.383  1.00  0.00     0.161 A 
ATOM     10  C   UNL A   1      32.404  28.555  24.597  1.00  0.00     0.161 A 
ATOM     11  C   UNL A   1      33.619  28.977  25.159  1.00  0.00     0.058 A 
ATOM     12  C   UNL A   1      33.900  28.741  26.509  1.00  0.00    -0.020 A 
ATOM     13  C   UNL A   1      31.747  27.681  26.747  1.00  0.00     0.051 A 
ATOM     14  C   UNL A   1      32.938  28.131  27.315  1.00  0.00     0.012 A 
BRANCH  10  15
ATOM     15  O   UNL A   1      32.216  28.692  23.248  1.00  0.00    -0.493 OA
ATOM     16  C   UNL A   1      33.419  28.481  22.509  1.00  0.00     0.278 C 
ENDBRANCH  10  15
BRANCH  12  17
ATOM     17  C   UNL A   1      35.257  28.940  27.026  1.00  0.00     0.029 C 
ATOM     18  C   UNL A   1      35.609  30.042  27.710  1.00  0.00     0.083 C 
ATOM     19  S   UNL A   1      37.204  30.346  28.277  1.00  0.00    -0.022 SA
ATOM     20  C   UNL A   1      34.719  31.192  28.062  1.00  0.00     0.272 C 
ATOM     21  C   UNL A   1      36.777  31.940  28.896  1.00  0.00     0.298 C 
ATOM     22  N   UNL A   1      35.460  32.220  28.623  1.00  0.00    -0.236 N 
ATOM     23  O   UNL A   1      33.516  31.201  27.850  1.00  0.00    -0.268 OA
ATOM     24  O   UNL A   1      37.588  32.607  29.526  1.00  0.00    -0.260 OA
BRANCH  22  25
ATOM     25  C   UNL A   1      34.841  33.461  28.955  1.00  0.00     0.056 A 
ATOM     26  C   UNL A   1      34.763  34.461  27.964  1.00  0.00     0.031 A 
ATOM     27  C   UNL A   1      34.379  33.760  30.255  1.00  0.00    -0.023 A 
ATOM     28  C   UNL A   1      34.235  35.722  28.238  1.00  0.00     0.048 A 
ATOM     29  C   UNL A   1      33.836  35.038  30.513  1.00  0.00     0.051 A 
ATOM     30  C   UNL A   1      34.487  32.829  31.434  1.00  0.00     0.047 C 
ATOM     31  C   UNL A   1      33.782  36.004  29.513  1.00  0.00     0.115 A 
BRANCH  31  32
ATOM     32  O   UNL A   1      33.305  37.256  29.757  1.00  0.00    -0.508 OA
ATOM     33  H   UNL A   1      33.549  37.967  29.199  1.00  0.00     0.293 HD
ENDBRANCH  31  32
ENDBRANCH  22  25
ENDBRANCH  12  17
ENDBRANCH   8   9
ENDBRANCH   7   8
ENDBRANCH   4   7
ENDBRANCH   2   3
ENDBRANCH   1   2
BRANCH   1  34
ATOM     34  C   UNL A   1      34.423  23.763  23.779  1.00  0.00     0.002 C 
BRANCH  34  35
ATOM     35  C   UNL A   1      34.900  24.442  25.066  1.00  0.00     0.002 C 
BRANCH  35  36
ATOM     36  C   UNL A   1      35.652  23.552  26.054  1.00  0.00     0.021 C 
BRANCH  36  37
ATOM     37  C   UNL A   1      37.160  23.763  26.105  1.00  0.00     0.116 C 
BRANCH  37  38
ATOM     38  N   UNL A   1      37.898  22.511  26.131  1.00  0.00    -0.352 N 
ATOM     39  C   UNL A   1      39.220  22.295  26.440  1.00  0.00     0.251 C 
ATOM     40  H   UNL A   1      37.380  21.708  25.894  1.00  0.00     0.163 HD
ATOM     41  O   UNL A   1      39.719  21.188  26.261  1.00  0.00    -0.269 OA
BRANCH  39  42
ATOM     42  C   UNL A   1      40.046  23.408  26.962  1.00  0.00     0.039 A 
ATOM     43  C   UNL A   1      40.954  23.148  27.992  1.00  0.00     0.014 A 
ATOM     44  C   UNL A   1      39.931  24.698  26.437  1.00  0.00     0.014 A 
ATOM     45  C   UNL A   1      41.788  24.169  28.455  1.00  0.00     0.010 A 
ATOM     46  C   UNL A   1      40.810  25.695  26.850  1.00  0.00     0.010 A 
ATOM     47  C   UNL A   1      41.744  25.445  27.866  1.00  0.00    -0.014 A 
BRANCH  47  48
ATOM     48  C   UNL A   1      42.671  26.526  28.294  1.00  0.00     0.031 A 
ATOM     49  C   UNL A   1      42.219  27.563  29.286  1.00  0.00     0.074 A 
ATOM     50  C   UNL A   1      43.886  26.628  27.721  1.00  0.00     0.049 A 
ATOM     51  N   UNL A   1      42.861  28.611  29.733  1.00  0.00    -0.248 NA
ATOM     52  C   UNL A   1      40.857  27.421  29.826  1.00  0.00     0.031 C 
ATOM     53  C   UNL A   1      44.411  25.734  26.685  1.00  0.00     0.029 A 
ATOM     54  N   UNL A   1      44.891  27.544  27.906  1.00  0.00    -0.354 N 
ATOM     55  C   UNL A   1      41.974  29.272  30.573  1.00  0.00     0.074 A 
ATOM     56  C   UNL A   1      40.735  28.524  30.551  1.00  0.00     0.031 C 
ATOM     57  C   UNL A   1      45.638  26.147  26.329  1.00  0.00     0.029 A 
ATOM     58  C   UNL A   1      45.979  27.344  27.090  1.00  0.00     0.049 A 
ATOM     59  H   UNL A   1      44.837  28.276  28.562  1.00  0.00     0.167 HD
ATOM     60  C   UNL A   1      42.179  30.381  31.322  1.00  0.00     0.034 A 
ATOM     61  C   UNL A   1      47.123  28.048  26.965  1.00  0.00     0.034 A 
ATOM     62  C   UNL A   1      43.428  31.092  31.385  1.00  0.00     0.049 A 
ATOM     63  C   UNL A   1      47.346  29.245  27.849  1.00  0.00     0.074 A 
ATOM     64  C   UNL A   1      43.765  32.168  32.187  1.00  0.00     0.029 A 
ATOM     65  N   UNL A   1      44.544  30.800  30.618  1.00  0.00    -0.354 N 
ATOM     66  N   UNL A   1      46.556  29.755  28.762  1.00  0.00    -0.248 NA
ATOM     67  C   UNL A   1      48.634  29.941  27.714  1.00  0.00     0.031 C 
ATOM     68  C   UNL A   1      45.082  32.537  31.892  1.00  0.00     0.029 A 
ATOM     69  C   UNL A   1      45.571  31.678  30.920  1.00  0.00     0.049 A 
ATOM     70  H   UNL A   1      44.599  30.075  29.954  1.00  0.00     0.167 HD
ATOM     71  C   UNL A   1      47.262  30.807  29.333  1.00  0.00     0.074 A 
ATOM     72  C   UNL A   1      48.554  30.849  28.678  1.00  0.00     0.031 C 
ATOM     73  C   UNL A   1      46.870  31.672  30.301  1.00  0.00     0.034 A 
BRANCH  60  74
ATOM     74  C   UNL A   1      41.043  30.862  32.187  1.00  0.00     0.023 A 
ATOM     75  C   UNL A   1      40.578  30.042  33.236  1.00  0.00     0.012 A 
ATOM     76  C   UNL A   1      40.477  32.138  32.005  1.00  0.00     0.148 A 
ATOM     77  C   UNL A   1      39.545  30.470  34.068  1.00  0.00     0.002 A 
ATOM     78  C   UNL A   1      39.475  32.575  32.865  1.00  0.00     0.091 A 
ATOM     79  F   UNL A   1      40.915  32.895  30.989  1.00  0.00    -0.205 F 
ATOM     80  C   UNL A   1      39.001  31.738  33.890  1.00  0.00     0.022 A 
BRANCH  78  81
ATOM     81  S   UNL A   1      38.763  34.221  32.765  1.00  0.00     0.127 S 
ATOM     82  O   UNL A   1      37.376  33.967  33.152  1.00  0.00    -0.237 OA
ATOM     83  O   UNL A   1      39.546  34.959  33.756  1.00  0.00    -0.237 OA
ATOM     84  O   UNL A   1      38.960  34.659  31.390  1.00  0.00    -0.744 OA
ENDBRANCH  78  81
ENDBRANCH  60  74
BRANCH  61  85
ATOM     85  C   UNL A   1      48.177  27.588  26.017  1.00  0.00     0.023 A 
ATOM     86  C   UNL A   1      49.296  26.894  26.515  1.00  0.00     0.012 A 
ATOM     87  C   UNL A   1      48.065  27.804  24.630  1.00  0.00     0.148 A 
ATOM     88  C   UNL A   1      50.299  26.447  25.655  1.00  0.00     0.002 A 
ATOM     89  C   UNL A   1      49.040  27.309  23.772  1.00  0.00     0.091 A 
ATOM     90  F   UNL A   1      47.000  28.480  24.175  1.00  0.00    -0.205 F 
ATOM     91  C   UNL A   1      50.166  26.645  24.283  1.00  0.00     0.022 A 
BRANCH  89  92
ATOM     92  S   UNL A   1      48.883  27.402  21.985  1.00  0.00     0.127 S 
ATOM     93  O   UNL A   1      47.746  28.307  21.831  1.00  0.00    -0.237 OA
ATOM     94  O   UNL A   1      50.176  27.966  21.595  1.00  0.00    -0.237 OA
ATOM     95  O   UNL A   1      48.671  26.032  21.539  1.00  0.00    -0.744 OA
ENDBRANCH  89  92
ENDBRANCH  61  85
BRANCH  73  96
ATOM     96  C   UNL A   1      47.855  32.723  30.740  1.00  0.00     0.023 A 
ATOM     97  C   UNL A   1      48.753  32.443  31.789  1.00  0.00     0.012 A 
ATOM     98  C   UNL A   1      47.946  33.955  30.062  1.00  0.00     0.148 A 
ATOM     99  C   UNL A   1      49.707  33.384  32.176  1.00  0.00     0.002 A 
ATOM    100  C   UNL A   1      48.929  34.869  30.422  1.00  0.00     0.091 A 
ATOM    101  F   UNL A   1      47.070  34.211  29.080  1.00  0.00    -0.205 F 
ATOM    102  C   UNL A   1      49.803  34.590  31.486  1.00  0.00     0.022 A 
BRANCH 100 103
ATOM    103  S   UNL A   1      49.187  36.405  29.526  1.00  0.00     0.127 S 
ATOM    104  O   UNL A   1      47.992  37.166  29.891  1.00  0.00    -0.237 OA
ATOM    105  O   UNL A   1      50.430  36.905  30.114  1.00  0.00    -0.237 OA
ATOM    106  O   UNL A   1      49.290  36.035  28.122  1.00  0.00    -0.744 OA
ENDBRANCH 100 103
ENDBRANCH  73  96
ENDBRANCH  47  48
ENDBRANCH  39  42
ENDBRANCH  37  38
ENDBRANCH  36  37
ENDBRANCH  35  36
ENDBRANCH  34  35
ENDBRANCH   1  34
TORSDOF 22
ENDMDL
