MODEL 1
REMARK VINA RESULT:     -11.0      0.000      0.000
REMARK SMILES O=C(NCCCCCCNC(=O)c1ccc(C[NH2+]C[C@H]2C[C@H](O)C2)nc1)c1ccc(-c2c3nc(c(-c4cccc(S(=O)(=O)[O-])c4F)c4ccc([nH]4)c(-c4cccc(S(=O)(=O)[O-])c4F)c4nc(c(-c5cccc(S(=O)(=O)[O-])c5F)c5ccc2[nH]5)C=C4)C=C3)cc1
REMARK SMILES IDX 7 1 6 2 5 3 4 4 3 5 1 6 2 7 27 9 28 10 89 11 29 12 88 13
REMARK SMILES IDX 30 14 31 15 32 16 82 17 33 18 87 19 81 20 83 21 34 22 86 23
REMARK SMILES IDX 80 24 79 25 35 27 67 28 47 29 66 30 48 31 51 32 65 33 84 34
REMARK SMILES IDX 49 35 50 36 64 38 85 39 52 40 36 41 37 42 45 43 38 44 40 45
REMARK SMILES IDX 46 46 39 47 41 48 42 49 43 50 44 51 68 52 69 53 77 54 70 55
REMARK SMILES IDX 72 56 78 57 71 58 73 59 74 60 75 61 76 62 53 63 54 64 62 65
REMARK SMILES IDX 55 66 57 67 63 68 56 69 58 70 59 71 60 72 61 73 8 74 9 75
REMARK SMILES IDX 10 76 11 77 12 79 13 80 14 81 26 82 15 83 25 84 16 85 17 86
REMARK SMILES IDX 18 87 19 90 20 91 24 92 21 93 22 94 23 95
REMARK H PARENT 3 8 83 26 51 37 10 78 18 88 18 89 23 96
REMARK Flexibility Score: inf
ROOT
ATOM      1  C   UNL A   1      36.670  21.550  25.391  1.00  0.00     0.002 C 
ENDROOT
BRANCH   1   2
ATOM      2  C   UNL A   1      36.661  20.086  24.945  1.00  0.00     0.002 C 
BRANCH   2   3
ATOM      3  C   UNL A   1      38.022  19.392  24.976  1.00  0.00     0.021 C 
BRANCH   3   4
ATOM      4  C   UNL A   1      39.033  20.033  25.916  1.00  0.00     0.116 C 
BRANCH   4   5
ATOM      5  N   UNL A   1      40.205  19.196  26.112  1.00  0.00    -0.352 N 
ATOM      6  O   UNL A   1      42.410  18.761  26.274  1.00  0.00    -0.269 OA
ATOM      7  C   UNL A   1      41.502  19.584  26.336  1.00  0.00     0.251 C 
ATOM      8  H   UNL A   1      40.046  18.225  26.080  1.00  0.00     0.163 HD
BRANCH   7   9
ATOM      9  C   UNL A   1      41.787  21.004  26.633  1.00  0.00     0.039 A 
ATOM     10  C   UNL A   1      41.872  21.439  27.959  1.00  0.00     0.014 A 
ATOM     11  C   UNL A   1      41.975  21.905  25.583  1.00  0.00     0.014 A 
ATOM     12  C   UNL A   1      42.032  22.790  28.235  1.00  0.00     0.010 A 
ATOM     13  C   UNL A   1      42.227  23.250  25.863  1.00  0.00     0.010 A 
ATOM     14  C   UNL A   1      42.249  23.704  27.191  1.00  0.00    -0.014 A 
BRANCH  14  15
ATOM     15  C   UNL A   1      42.654  25.091  27.526  1.00  0.00     0.031 A 
ATOM     16  C   UNL A   1      41.703  26.063  28.161  1.00  0.00     0.074 A 
ATOM     17  C   UNL A   1      43.909  25.470  27.209  1.00  0.00     0.049 A 
ATOM     18  N   UNL A   1      41.917  27.308  28.503  1.00  0.00    -0.248 NA
ATOM     19  C   UNL A   1      40.339  25.589  28.447  1.00  0.00     0.031 C 
ATOM     20  C   UNL A   1      44.899  24.620  26.538  1.00  0.00     0.029 A 
ATOM     21  N   UNL A   1      44.567  26.659  27.390  1.00  0.00    -0.354 N 
ATOM     22  C   UNL A   1      40.710  27.782  29.002  1.00  0.00     0.074 A 
ATOM     23  C   UNL A   1      39.766  26.687  28.931  1.00  0.00     0.031 C 
ATOM     24  C   UNL A   1      46.035  25.310  26.369  1.00  0.00     0.029 A 
ATOM     25  C   UNL A   1      45.836  26.666  26.861  1.00  0.00     0.049 A 
ATOM     26  H   UNL A   1      44.169  27.432  27.852  1.00  0.00     0.167 HD
ATOM     27  C   UNL A   1      40.425  29.018  29.479  1.00  0.00     0.034 A 
ATOM     28  C   UNL A   1      46.731  27.664  26.743  1.00  0.00     0.034 A 
ATOM     29  C   UNL A   1      41.384  30.089  29.573  1.00  0.00     0.049 A 
ATOM     30  C   UNL A   1      46.379  29.017  27.290  1.00  0.00     0.074 A 
ATOM     31  C   UNL A   1      41.215  31.342  30.135  1.00  0.00     0.029 A 
ATOM     32  N   UNL A   1      42.674  30.048  29.071  1.00  0.00    -0.354 N 
ATOM     33  N   UNL A   1      45.292  29.393  27.917  1.00  0.00    -0.248 NA
ATOM     34  C   UNL A   1      47.385  30.075  27.135  1.00  0.00     0.031 C 
ATOM     35  C   UNL A   1      42.390  32.074  29.936  1.00  0.00     0.029 A 
ATOM     36  C   UNL A   1      43.302  31.265  29.279  1.00  0.00     0.049 A 
ATOM     37  H   UNL A   1      43.085  29.270  28.629  1.00  0.00     0.167 HD
ATOM     38  C   UNL A   1      45.488  30.728  28.245  1.00  0.00     0.074 A 
ATOM     39  C   UNL A   1      46.816  31.081  27.785  1.00  0.00     0.031 C 
ATOM     40  C   UNL A   1      44.638  31.591  28.850  1.00  0.00     0.034 A 
BRANCH  27  41
ATOM     41  C   UNL A   1      39.028  29.298  29.967  1.00  0.00     0.023 A 
ATOM     42  C   UNL A   1      38.679  29.001  31.299  1.00  0.00     0.012 A 
ATOM     43  C   UNL A   1      38.108  29.978  29.143  1.00  0.00     0.148 A 
ATOM     44  C   UNL A   1      37.432  29.370  31.803  1.00  0.00     0.002 A 
ATOM     45  C   UNL A   1      36.883  30.377  29.664  1.00  0.00     0.091 A 
ATOM     46  F   UNL A   1      38.456  30.237  27.875  1.00  0.00    -0.205 F 
ATOM     47  C   UNL A   1      36.540  30.068  30.992  1.00  0.00     0.022 A 
BRANCH  45  48
ATOM     48  S   UNL A   1      35.697  31.351  28.729  1.00  0.00     0.127 S 
ATOM     49  O   UNL A   1      34.753  31.747  29.774  1.00  0.00    -0.237 OA
ATOM     50  O   UNL A   1      36.531  32.438  28.217  1.00  0.00    -0.237 OA
ATOM     51  O   UNL A   1      35.156  30.461  27.711  1.00  0.00    -0.744 OA
ENDBRANCH  45  48
ENDBRANCH  27  41
BRANCH  28  52
ATOM     52  C   UNL A   1      48.040  27.419  26.074  1.00  0.00     0.023 A 
ATOM     53  C   UNL A   1      49.149  27.013  26.836  1.00  0.00     0.012 A 
ATOM     54  C   UNL A   1      48.181  27.574  24.680  1.00  0.00     0.148 A 
ATOM     55  C   UNL A   1      50.388  26.804  26.229  1.00  0.00     0.002 A 
ATOM     56  C   UNL A   1      49.400  27.301  24.074  1.00  0.00     0.091 A 
ATOM     57  F   UNL A   1      47.118  27.978  23.972  1.00  0.00    -0.205 F 
ATOM     58  C   UNL A   1      50.512  26.938  24.848  1.00  0.00     0.022 A 
BRANCH  56  59
ATOM     59  S   UNL A   1      49.597  27.307  22.289  1.00  0.00     0.127 S 
ATOM     60  O   UNL A   1      51.028  27.056  22.144  1.00  0.00    -0.237 OA
ATOM     61  O   UNL A   1      48.731  26.199  21.882  1.00  0.00    -0.237 OA
ATOM     62  O   UNL A   1      49.129  28.617  21.855  1.00  0.00    -0.744 OA
ENDBRANCH  56  59
ENDBRANCH  28  52
BRANCH  40  63
ATOM     63  C   UNL A   1      45.120  33.000  29.062  1.00  0.00     0.023 A 
ATOM     64  C   UNL A   1      45.750  33.346  30.274  1.00  0.00     0.012 A 
ATOM     65  C   UNL A   1      44.999  33.965  28.044  1.00  0.00     0.148 A 
ATOM     66  C   UNL A   1      46.221  34.642  30.483  1.00  0.00     0.002 A 
ATOM     67  C   UNL A   1      45.517  35.239  28.239  1.00  0.00     0.091 A 
ATOM     68  F   UNL A   1      44.382  33.619  26.905  1.00  0.00    -0.205 F 
ATOM     69  C   UNL A   1      46.115  35.583  29.463  1.00  0.00     0.022 A 
BRANCH  67  70
ATOM     70  S   UNL A   1      45.513  36.491  26.951  1.00  0.00     0.127 S 
ATOM     71  O   UNL A   1      44.081  36.743  26.788  1.00  0.00    -0.237 OA
ATOM     72  O   UNL A   1      46.257  37.583  27.578  1.00  0.00    -0.237 OA
ATOM     73  O   UNL A   1      46.173  35.889  25.801  1.00  0.00    -0.744 OA
ENDBRANCH  67  70
ENDBRANCH  40  63
ENDBRANCH  14  15
ENDBRANCH   7   9
ENDBRANCH   4   5
ENDBRANCH   3   4
ENDBRANCH   2   3
ENDBRANCH   1   2
BRANCH   1  74
ATOM     74  C   UNL A   1      37.083  22.557  24.314  1.00  0.00     0.021 C 
BRANCH  74  75
ATOM     75  C   UNL A   1      35.965  22.958  23.354  1.00  0.00     0.116 C 
BRANCH  75  76
ATOM     76  N   UNL A   1      34.661  22.520  23.831  1.00  0.00    -0.352 N 
ATOM     77  C   UNL A   1      33.592  23.281  24.226  1.00  0.00     0.252 C 
ATOM     78  H   UNL A   1      34.530  21.545  23.875  1.00  0.00     0.163 HD
ATOM     79  O   UNL A   1      32.632  22.774  24.798  1.00  0.00    -0.269 OA
BRANCH  77  80
ATOM     80  C   UNL A   1      33.610  24.724  23.966  1.00  0.00     0.058 A 
ATOM     81  C   UNL A   1      33.836  25.645  24.987  1.00  0.00     0.017 A 
ATOM     82  C   UNL A   1      33.376  25.187  22.683  1.00  0.00     0.125 A 
ATOM     83  C   UNL A   1      33.739  27.000  24.697  1.00  0.00     0.030 A 
ATOM     84  N   UNL A   1      33.269  26.502  22.379  1.00  0.00    -0.255 NA
ATOM     85  C   UNL A   1      33.425  27.392  23.393  1.00  0.00     0.094 A 
BRANCH  85  86
ATOM     86  C   UNL A   1      33.228  28.865  23.088  1.00  0.00     0.317 C 
BRANCH  86  87
ATOM     87  N   UNL A   1      31.926  29.361  23.515  1.00  0.00    -0.341 N 
ATOM     88  H   UNL A   1      32.038  30.330  23.817  1.00  0.00     0.346 HD
ATOM     89  H   UNL A   1      31.613  28.740  24.262  1.00  0.00     0.346 HD
BRANCH  87  90
ATOM     90  C   UNL A   1      30.889  29.324  22.492  1.00  0.00     0.264 C 
BRANCH  90  91
ATOM     91  C   UNL A   1      29.918  28.141  22.557  1.00  0.00     0.049 C 
ATOM     92  C   UNL A   1      28.423  28.359  22.889  1.00  0.00     0.041 C 
ATOM     93  C   UNL A   1      30.009  27.114  23.708  1.00  0.00     0.041 C 
ATOM     94  C   UNL A   1      28.492  27.234  23.935  1.00  0.00     0.115 C 
BRANCH  94  95
ATOM     95  O   UNL A   1      27.708  26.060  23.654  1.00  0.00    -0.393 OA
ATOM     96  H   UNL A   1      26.899  26.317  23.186  1.00  0.00     0.210 HD
ENDBRANCH  94  95
ENDBRANCH  90  91
ENDBRANCH  87  90
ENDBRANCH  86  87
ENDBRANCH  85  86
ENDBRANCH  77  80
ENDBRANCH  75  76
ENDBRANCH  74  75
ENDBRANCH   1  74
TORSDOF 21
ENDMDL
MODEL 2
REMARK VINA RESULT:     -10.7      4.698      8.491
REMARK SMILES O=C(NCCCCCCNC(=O)c1ccc(C[NH2+]C[C@H]2C[C@H](O)C2)nc1)c1ccc(-c2c3nc(c(-c4cccc(S(=O)(=O)[O-])c4F)c4ccc([nH]4)c(-c4cccc(S(=O)(=O)[O-])c4F)c4nc(c(-c5cccc(S(=O)(=O)[O-])c5F)c5ccc2[nH]5)C=C4)C=C3)cc1
REMARK SMILES IDX 7 1 6 2 5 3 4 4 3 5 1 6 2 7 27 9 28 10 89 11 29 12 88 13
REMARK SMILES IDX 30 14 31 15 32 16 82 17 33 18 87 19 81 20 83 21 34 22 86 23
REMARK SMILES IDX 80 24 79 25 35 27 67 28 47 29 66 30 48 31 51 32 65 33 84 34
REMARK SMILES IDX 49 35 50 36 64 38 85 39 52 40 36 41 37 42 45 43 38 44 40 45
REMARK SMILES IDX 46 46 39 47 41 48 42 49 43 50 44 51 68 52 69 53 77 54 70 55
REMARK SMILES IDX 72 56 78 57 71 58 73 59 74 60 75 61 76 62 53 63 54 64 62 65
REMARK SMILES IDX 55 66 57 67 63 68 56 69 58 70 59 71 60 72 61 73 8 74 9 75
REMARK SMILES IDX 10 76 11 77 12 79 13 80 14 81 26 82 15 83 25 84 16 85 17 86
REMARK SMILES IDX 18 87 19 90 20 91 24 92 21 93 22 94 23 95
REMARK H PARENT 3 8 83 26 51 37 10 78 18 88 18 89 23 96
REMARK Flexibility Score: inf
ROOT
ATOM      1  C   UNL A   1      33.863  27.335  23.195  1.00  0.00     0.002 C 
ENDROOT
BRANCH   1   2
ATOM      2  C   UNL A   1      33.484  28.670  23.840  1.00  0.00     0.002 C 
BRANCH   2   3
ATOM      3  C   UNL A   1      33.035  28.580  25.298  1.00  0.00     0.021 C 
BRANCH   3   4
ATOM      4  C   UNL A   1      34.101  28.977  26.309  1.00  0.00     0.116 C 
BRANCH   4   5
ATOM      5  N   UNL A   1      33.944  30.350  26.757  1.00  0.00    -0.352 N 
ATOM      6  O   UNL A   1      34.300  32.120  28.107  1.00  0.00    -0.269 OA
ATOM      7  C   UNL A   1      34.686  31.033  27.689  1.00  0.00     0.251 C 
ATOM      8  H   UNL A   1      33.212  30.856  26.337  1.00  0.00     0.163 HD
BRANCH   7   9
ATOM      9  C   UNL A   1      35.941  30.433  28.190  1.00  0.00     0.039 A 
ATOM     10  C   UNL A   1      37.128  30.583  27.465  1.00  0.00     0.014 A 
ATOM     11  C   UNL A   1      35.934  29.721  29.391  1.00  0.00     0.014 A 
ATOM     12  C   UNL A   1      38.279  29.929  27.881  1.00  0.00     0.010 A 
ATOM     13  C   UNL A   1      37.116  29.139  29.856  1.00  0.00     0.010 A 
ATOM     14  C   UNL A   1      38.295  29.231  29.100  1.00  0.00    -0.014 A 
BRANCH  14  15
ATOM     15  C   UNL A   1      39.593  28.749  29.633  1.00  0.00     0.031 A 
ATOM     16  C   UNL A   1      40.302  29.454  30.752  1.00  0.00     0.074 A 
ATOM     17  C   UNL A   1      40.140  27.660  29.055  1.00  0.00     0.049 A 
ATOM     18  N   UNL A   1      41.443  29.149  31.314  1.00  0.00    -0.248 NA
ATOM     19  C   UNL A   1      39.660  30.655  31.312  1.00  0.00     0.031 C 
ATOM     20  C   UNL A   1      39.560  26.930  27.922  1.00  0.00     0.029 A 
ATOM     21  N   UNL A   1      41.303  26.985  29.320  1.00  0.00    -0.354 N 
ATOM     22  C   UNL A   1      41.682  30.138  32.260  1.00  0.00     0.074 A 
ATOM     23  C   UNL A   1      40.560  31.051  32.207  1.00  0.00     0.031 C 
ATOM     24  C   UNL A   1      40.363  25.909  27.594  1.00  0.00     0.029 A 
ATOM     25  C   UNL A   1      41.543  25.949  28.448  1.00  0.00     0.049 A 
ATOM     26  H   UNL A   1      41.908  27.220  30.060  1.00  0.00     0.167 HD
ATOM     27  C   UNL A   1      42.740  30.264  33.096  1.00  0.00     0.034 A 
ATOM     28  C   UNL A   1      42.612  25.142  28.317  1.00  0.00     0.034 A 
ATOM     29  C   UNL A   1      43.836  29.330  33.159  1.00  0.00     0.049 A 
ATOM     30  C   UNL A   1      43.761  25.309  29.268  1.00  0.00     0.074 A 
ATOM     31  C   UNL A   1      44.901  29.318  34.043  1.00  0.00     0.029 A 
ATOM     32  N   UNL A   1      44.024  28.265  32.294  1.00  0.00    -0.354 N 
ATOM     33  N   UNL A   1      43.885  26.144  30.271  1.00  0.00    -0.248 NA
ATOM     34  C   UNL A   1      44.908  24.409  29.085  1.00  0.00     0.031 C 
ATOM     35  C   UNL A   1      45.755  28.270  33.686  1.00  0.00     0.029 A 
ATOM     36  C   UNL A   1      45.206  27.609  32.601  1.00  0.00     0.049 A 
ATOM     37  H   UNL A   1      43.410  28.011  31.568  1.00  0.00     0.167 HD
ATOM     38  C   UNL A   1      45.115  25.860  30.848  1.00  0.00     0.074 A 
ATOM     39  C   UNL A   1      45.678  24.749  30.109  1.00  0.00     0.031 C 
ATOM     40  C   UNL A   1      45.735  26.480  31.881  1.00  0.00     0.034 A 
BRANCH  27  41
ATOM     41  C   UNL A   1      42.778  31.436  34.041  1.00  0.00     0.023 A 
ATOM     42  C   UNL A   1      43.337  32.658  33.618  1.00  0.00     0.012 A 
ATOM     43  C   UNL A   1      42.137  31.363  35.295  1.00  0.00     0.148 A 
ATOM     44  C   UNL A   1      43.266  33.788  34.432  1.00  0.00     0.002 A 
ATOM     45  C   UNL A   1      42.036  32.504  36.083  1.00  0.00     0.091 A 
ATOM     46  F   UNL A   1      41.625  30.187  35.682  1.00  0.00    -0.205 F 
ATOM     47  C   UNL A   1      42.606  33.715  35.656  1.00  0.00     0.022 A 
BRANCH  45  48
ATOM     48  S   UNL A   1      41.136  32.536  37.638  1.00  0.00     0.127 S 
ATOM     49  O   UNL A   1      41.963  31.667  38.474  1.00  0.00    -0.237 OA
ATOM     50  O   UNL A   1      41.192  33.955  37.993  1.00  0.00    -0.237 OA
ATOM     51  O   UNL A   1      39.803  32.030  37.344  1.00  0.00    -0.744 OA
ENDBRANCH  45  48
ENDBRANCH  27  41
BRANCH  28  52
ATOM     52  C   UNL A   1      42.644  24.111  27.242  1.00  0.00     0.023 A 
ATOM     53  C   UNL A   1      43.288  24.391  26.024  1.00  0.00     0.012 A 
ATOM     54  C   UNL A   1      42.048  22.848  27.432  1.00  0.00     0.148 A 
ATOM     55  C   UNL A   1      43.303  23.447  24.997  1.00  0.00     0.002 A 
ATOM     56  C   UNL A   1      42.125  21.890  26.430  1.00  0.00     0.091 A 
ATOM     57  F   UNL A   1      41.424  22.605  28.593  1.00  0.00    -0.205 F 
ATOM     58  C   UNL A   1      42.732  22.193  25.203  1.00  0.00     0.022 A 
BRANCH  56  59
ATOM     59  S   UNL A   1      41.543  20.208  26.677  1.00  0.00     0.127 S 
ATOM     60  O   UNL A   1      42.299  19.801  27.859  1.00  0.00    -0.237 OA
ATOM     61  O   UNL A   1      40.111  20.410  26.900  1.00  0.00    -0.237 OA
ATOM     62  O   UNL A   1      41.860  19.506  25.441  1.00  0.00    -0.744 OA
ENDBRANCH  56  59
ENDBRANCH  28  52
BRANCH  40  63
ATOM     63  C   UNL A   1      47.090  25.962  32.283  1.00  0.00     0.023 A 
ATOM     64  C   UNL A   1      47.206  25.107  33.397  1.00  0.00     0.012 A 
ATOM     65  C   UNL A   1      48.235  26.277  31.529  1.00  0.00     0.148 A 
ATOM     66  C   UNL A   1      48.449  24.601  33.776  1.00  0.00     0.002 A 
ATOM     67  C   UNL A   1      49.463  25.728  31.880  1.00  0.00     0.091 A 
ATOM     68  F   UNL A   1      48.105  27.106  30.482  1.00  0.00    -0.205 F 
ATOM     69  C   UNL A   1      49.573  24.902  33.011  1.00  0.00     0.022 A 
BRANCH  67  70
ATOM     70  S   UNL A   1      50.948  25.981  30.904  1.00  0.00     0.127 S 
ATOM     71  O   UNL A   1      51.945  25.248  31.684  1.00  0.00    -0.237 OA
ATOM     72  O   UNL A   1      50.592  25.357  29.630  1.00  0.00    -0.237 OA
ATOM     73  O   UNL A   1      51.147  27.423  30.837  1.00  0.00    -0.744 OA
ENDBRANCH  67  70
ENDBRANCH  40  63
ENDBRANCH  14  15
ENDBRANCH   7   9
ENDBRANCH   4   5
ENDBRANCH   3   4
ENDBRANCH   2   3
ENDBRANCH   1   2
BRANCH   1  74
ATOM     74  C   UNL A   1      32.965  26.892  22.036  1.00  0.00     0.021 C 
BRANCH  74  75
ATOM     75  C   UNL A   1      31.957  25.802  22.391  1.00  0.00     0.116 C 
BRANCH  75  76
ATOM     76  N   UNL A   1      30.877  26.315  23.222  1.00  0.00    -0.352 N 
ATOM     77  C   UNL A   1      30.388  25.813  24.399  1.00  0.00     0.252 C 
ATOM     78  H   UNL A   1      30.439  27.133  22.893  1.00  0.00     0.163 HD
ATOM     79  O   UNL A   1      29.341  26.234  24.881  1.00  0.00    -0.269 OA
BRANCH  77  80
ATOM     80  C   UNL A   1      31.131  24.749  25.083  1.00  0.00     0.058 A 
ATOM     81  C   UNL A   1      30.720  23.419  25.022  1.00  0.00     0.017 A 
ATOM     82  C   UNL A   1      32.253  25.072  25.825  1.00  0.00     0.125 A 
ATOM     83  C   UNL A   1      31.405  22.474  25.774  1.00  0.00     0.030 A 
ATOM     84  N   UNL A   1      32.931  24.170  26.572  1.00  0.00    -0.255 NA
ATOM     85  C   UNL A   1      32.485  22.887  26.559  1.00  0.00     0.094 A 
BRANCH  85  86
ATOM     86  C   UNL A   1      33.181  21.878  27.453  1.00  0.00     0.317 C 
BRANCH  86  87
ATOM     87  N   UNL A   1      33.579  20.671  26.740  1.00  0.00    -0.341 N 
ATOM     88  H   UNL A   1      32.732  20.186  26.440  1.00  0.00     0.346 HD
ATOM     89  H   UNL A   1      34.145  20.126  27.391  1.00  0.00     0.346 HD
BRANCH  87  90
ATOM     90  C   UNL A   1      34.411  20.898  25.566  1.00  0.00     0.264 C 
BRANCH  90  91
ATOM     91  C   UNL A   1      35.854  21.335  25.836  1.00  0.00     0.049 C 
ATOM     92  C   UNL A   1      36.342  22.749  25.440  1.00  0.00     0.041 C 
ATOM     93  C   UNL A   1      37.023  20.722  25.032  1.00  0.00     0.041 C 
ATOM     94  C   UNL A   1      37.578  22.132  24.765  1.00  0.00     0.115 C 
BRANCH  94  95
ATOM     95  O   UNL A   1      38.849  22.443  25.365  1.00  0.00    -0.393 OA
ATOM     96  H   UNL A   1      39.335  23.056  24.792  1.00  0.00     0.210 HD
ENDBRANCH  94  95
ENDBRANCH  90  91
ENDBRANCH  87  90
ENDBRANCH  86  87
ENDBRANCH  85  86
ENDBRANCH  77  80
ENDBRANCH  75  76
ENDBRANCH  74  75
ENDBRANCH   1  74
TORSDOF 21
ENDMDL
MODEL 3
REMARK VINA RESULT:     -10.7      3.095      9.020
REMARK SMILES O=C(NCCCCCCNC(=O)c1ccc(C[NH2+]C[C@H]2C[C@H](O)C2)nc1)c1ccc(-c2c3nc(c(-c4cccc(S(=O)(=O)[O-])c4F)c4ccc([nH]4)c(-c4cccc(S(=O)(=O)[O-])c4F)c4nc(c(-c5cccc(S(=O)(=O)[O-])c5F)c5ccc2[nH]5)C=C4)C=C3)cc1
REMARK SMILES IDX 7 1 6 2 5 3 4 4 3 5 1 6 2 7 27 9 28 10 89 11 29 12 88 13
REMARK SMILES IDX 30 14 31 15 32 16 82 17 33 18 87 19 81 20 83 21 34 22 86 23
REMARK SMILES IDX 80 24 79 25 35 27 67 28 47 29 66 30 48 31 51 32 65 33 84 34
REMARK SMILES IDX 49 35 50 36 64 38 85 39 52 40 36 41 37 42 45 43 38 44 40 45
REMARK SMILES IDX 46 46 39 47 41 48 42 49 43 50 44 51 68 52 69 53 77 54 70 55
REMARK SMILES IDX 72 56 78 57 71 58 73 59 74 60 75 61 76 62 53 63 54 64 62 65
REMARK SMILES IDX 55 66 57 67 63 68 56 69 58 70 59 71 60 72 61 73 8 74 9 75
REMARK SMILES IDX 10 76 11 77 12 79 13 80 14 81 26 82 15 83 25 84 16 85 17 86
REMARK SMILES IDX 18 87 19 90 20 91 24 92 21 93 22 94 23 95
REMARK H PARENT 3 8 83 26 51 37 10 78 18 88 18 89 23 96
REMARK Flexibility Score: inf
ROOT
ATOM      1  C   UNL A   1      34.614  24.944  25.147  1.00  0.00     0.002 C 
ENDROOT
BRANCH   1   2
ATOM      2  C   UNL A   1      35.084  24.045  24.000  1.00  0.00     0.002 C 
BRANCH   2   3
ATOM      3  C   UNL A   1      36.391  23.297  24.259  1.00  0.00     0.021 C 
BRANCH   3   4
ATOM      4  C   UNL A   1      37.043  23.615  25.597  1.00  0.00     0.116 C 
BRANCH   4   5
ATOM      5  N   UNL A   1      38.021  22.611  25.980  1.00  0.00    -0.352 N 
ATOM      6  O   UNL A   1      40.053  21.862  26.605  1.00  0.00    -0.269 OA
ATOM      7  C   UNL A   1      39.265  22.800  26.530  1.00  0.00     0.251 C 
ATOM      8  H   UNL A   1      37.756  21.676  25.825  1.00  0.00     0.163 HD
BRANCH   7   9
ATOM      9  C   UNL A   1      39.642  24.146  27.012  1.00  0.00     0.039 A 
ATOM     10  C   UNL A   1      39.429  24.496  28.349  1.00  0.00     0.014 A 
ATOM     11  C   UNL A   1      40.216  25.060  26.126  1.00  0.00     0.014 A 
ATOM     12  C   UNL A   1      39.683  25.794  28.772  1.00  0.00     0.010 A 
ATOM     13  C   UNL A   1      40.557  26.337  26.577  1.00  0.00     0.010 A 
ATOM     14  C   UNL A   1      40.286  26.716  27.901  1.00  0.00    -0.014 A 
BRANCH  14  15
ATOM     15  C   UNL A   1      40.763  28.011  28.446  1.00  0.00     0.031 A 
ATOM     16  C   UNL A   1      42.225  28.311  28.609  1.00  0.00     0.074 A 
ATOM     17  C   UNL A   1      39.833  28.911  28.825  1.00  0.00     0.049 A 
ATOM     18  N   UNL A   1      42.786  29.396  29.077  1.00  0.00    -0.248 NA
ATOM     19  C   UNL A   1      43.181  27.268  28.204  1.00  0.00     0.031 C 
ATOM     20  C   UNL A   1      38.383  28.698  28.761  1.00  0.00     0.029 A 
ATOM     21  N   UNL A   1      39.957  30.171  29.351  1.00  0.00    -0.354 N 
ATOM     22  C   UNL A   1      44.154  29.156  29.067  1.00  0.00     0.074 A 
ATOM     23  C   UNL A   1      44.343  27.823  28.534  1.00  0.00     0.031 C 
ATOM     24  C   UNL A   1      37.753  29.787  29.222  1.00  0.00     0.029 A 
ATOM     25  C   UNL A   1      38.750  30.748  29.672  1.00  0.00     0.049 A 
ATOM     26  H   UNL A   1      40.823  30.617  29.486  1.00  0.00     0.167 HD
ATOM     27  C   UNL A   1      45.156  29.979  29.462  1.00  0.00     0.034 A 
ATOM     28  C   UNL A   1      38.472  31.906  30.300  1.00  0.00     0.034 A 
ATOM     29  C   UNL A   1      44.954  31.315  29.961  1.00  0.00     0.049 A 
ATOM     30  C   UNL A   1      39.609  32.792  30.715  1.00  0.00     0.074 A 
ATOM     31  C   UNL A   1      45.911  32.259  30.290  1.00  0.00     0.029 A 
ATOM     32  N   UNL A   1      43.721  31.886  30.230  1.00  0.00    -0.354 N 
ATOM     33  N   UNL A   1      40.896  32.618  30.535  1.00  0.00    -0.248 NA
ATOM     34  C   UNL A   1      39.258  34.043  31.400  1.00  0.00     0.031 C 
ATOM     35  C   UNL A   1      45.257  33.387  30.797  1.00  0.00     0.029 A 
ATOM     36  C   UNL A   1      43.893  33.158  30.753  1.00  0.00     0.049 A 
ATOM     37  H   UNL A   1      42.851  31.453  30.073  1.00  0.00     0.167 HD
ATOM     38  C   UNL A   1      41.507  33.745  31.069  1.00  0.00     0.074 A 
ATOM     39  C   UNL A   1      40.446  34.612  31.542  1.00  0.00     0.031 C 
ATOM     40  C   UNL A   1      42.827  34.026  31.183  1.00  0.00     0.034 A 
BRANCH  27  41
ATOM     41  C   UNL A   1      46.576  29.488  29.358  1.00  0.00     0.023 A 
ATOM     42  C   UNL A   1      47.201  28.913  30.482  1.00  0.00     0.012 A 
ATOM     43  C   UNL A   1      47.237  29.474  28.113  1.00  0.00     0.148 A 
ATOM     44  C   UNL A   1      48.467  28.338  30.371  1.00  0.00     0.002 A 
ATOM     45  C   UNL A   1      48.481  28.865  28.002  1.00  0.00     0.091 A 
ATOM     46  F   UNL A   1      46.629  30.039  27.061  1.00  0.00    -0.205 F 
ATOM     47  C   UNL A   1      49.101  28.303  29.132  1.00  0.00     0.022 A 
BRANCH  45  48
ATOM     48  S   UNL A   1      49.346  28.693  26.436  1.00  0.00     0.127 S 
ATOM     49  O   UNL A   1      48.232  28.523  25.504  1.00  0.00    -0.237 OA
ATOM     50  O   UNL A   1      50.040  29.977  26.328  1.00  0.00    -0.237 OA
ATOM     51  O   UNL A   1      50.217  27.535  26.580  1.00  0.00    -0.744 OA
ENDBRANCH  45  48
ENDBRANCH  27  41
BRANCH  28  52
ATOM     52  C   UNL A   1      37.058  32.285  30.575  1.00  0.00     0.023 A 
ATOM     53  C   UNL A   1      36.514  32.076  31.854  1.00  0.00     0.012 A 
ATOM     54  C   UNL A   1      36.256  32.867  29.572  1.00  0.00     0.148 A 
ATOM     55  C   UNL A   1      35.183  32.401  32.121  1.00  0.00     0.002 A 
ATOM     56  C   UNL A   1      34.953  33.249  29.863  1.00  0.00     0.091 A 
ATOM     57  F   UNL A   1      36.785  33.044  28.354  1.00  0.00    -0.205 F 
ATOM     58  C   UNL A   1      34.406  32.997  31.130  1.00  0.00     0.022 A 
BRANCH  56  59
ATOM     59  S   UNL A   1      33.942  34.153  28.686  1.00  0.00     0.127 S 
ATOM     60  O   UNL A   1      32.817  34.572  29.517  1.00  0.00    -0.237 OA
ATOM     61  O   UNL A   1      34.842  35.233  28.277  1.00  0.00    -0.237 OA
ATOM     62  O   UNL A   1      33.637  33.200  27.628  1.00  0.00    -0.744 OA
ENDBRANCH  56  59
ENDBRANCH  28  52
BRANCH  40  63
ATOM     63  C   UNL A   1      43.201  35.331  31.832  1.00  0.00     0.023 A 
ATOM     64  C   UNL A   1      43.298  35.407  33.236  1.00  0.00     0.012 A 
ATOM     65  C   UNL A   1      43.509  36.462  31.054  1.00  0.00     0.148 A 
ATOM     66  C   UNL A   1      43.662  36.601  33.857  1.00  0.00     0.002 A 
ATOM     67  C   UNL A   1      43.921  37.634  31.676  1.00  0.00     0.091 A 
ATOM     68  F   UNL A   1      43.394  36.372  29.720  1.00  0.00    -0.205 F 
ATOM     69  C   UNL A   1      43.984  37.709  33.077  1.00  0.00     0.022 A 
BRANCH  67  70
ATOM     70  S   UNL A   1      44.447  39.083  30.755  1.00  0.00     0.127 S 
ATOM     71  O   UNL A   1      44.742  40.028  31.831  1.00  0.00    -0.237 OA
ATOM     72  O   UNL A   1      45.622  38.586  30.040  1.00  0.00    -0.237 OA
ATOM     73  O   UNL A   1      43.325  39.446  29.899  1.00  0.00    -0.744 OA
ENDBRANCH  67  70
ENDBRANCH  40  63
ENDBRANCH  14  15
ENDBRANCH   7   9
ENDBRANCH   4   5
ENDBRANCH   3   4
ENDBRANCH   2   3
ENDBRANCH   1   2
BRANCH   1  74
ATOM     74  C   UNL A   1      33.655  26.069  24.742  1.00  0.00     0.021 C 
BRANCH  74  75
ATOM     75  C   UNL A   1      32.562  26.371  25.764  1.00  0.00     0.116 C 
BRANCH  75  76
ATOM     76  N   UNL A   1      31.241  26.393  25.152  1.00  0.00    -0.352 N 
ATOM     77  C   UNL A   1      30.584  25.387  24.493  1.00  0.00     0.252 C 
ATOM     78  H   UNL A   1      30.755  27.246  25.220  1.00  0.00     0.163 HD
ATOM     79  O   UNL A   1      29.563  25.611  23.851  1.00  0.00    -0.269 OA
BRANCH  77  80
ATOM     80  C   UNL A   1      31.124  24.024  24.554  1.00  0.00     0.058 A 
ATOM     81  C   UNL A   1      31.559  23.361  23.409  1.00  0.00     0.017 A 
ATOM     82  C   UNL A   1      31.184  23.370  25.772  1.00  0.00     0.125 A 
ATOM     83  C   UNL A   1      31.964  22.037  23.516  1.00  0.00     0.030 A 
ATOM     84  N   UNL A   1      31.566  22.078  25.900  1.00  0.00    -0.255 NA
ATOM     85  C   UNL A   1      31.926  21.419  24.769  1.00  0.00     0.094 A 
BRANCH  85  86
ATOM     86  C   UNL A   1      32.279  19.947  24.880  1.00  0.00     0.317 C 
BRANCH  86  87
ATOM     87  N   UNL A   1      32.978  19.443  23.705  1.00  0.00    -0.341 N 
ATOM     88  H   UNL A   1      33.973  19.388  23.927  1.00  0.00     0.346 HD
ATOM     89  H   UNL A   1      32.769  20.092  22.947  1.00  0.00     0.346 HD
BRANCH  87  90
ATOM     90  C   UNL A   1      32.543  18.129  23.250  1.00  0.00     0.264 C 
BRANCH  90  91
ATOM     91  C   UNL A   1      33.488  16.962  23.554  1.00  0.00     0.049 C 
ATOM     92  C   UNL A   1      33.132  15.915  24.636  1.00  0.00     0.041 C 
ATOM     93  C   UNL A   1      34.840  17.211  24.259  1.00  0.00     0.041 C 
ATOM     94  C   UNL A   1      34.536  16.069  25.245  1.00  0.00     0.115 C 
BRANCH  94  95
ATOM     95  O   UNL A   1      35.390  14.913  25.167  1.00  0.00    -0.393 OA
ATOM     96  H   UNL A   1      35.648  14.765  24.244  1.00  0.00     0.210 HD
ENDBRANCH  94  95
ENDBRANCH  90  91
ENDBRANCH  87  90
ENDBRANCH  86  87
ENDBRANCH  85  86
ENDBRANCH  77  80
ENDBRANCH  75  76
ENDBRANCH  74  75
ENDBRANCH   1  74
TORSDOF 21
ENDMDL
