MODEL 1
REMARK VINA RESULT:     -12.2      0.000      0.000
REMARK SMILES O=C(NCCCCCCNC(=O)[C@@H]1CN(C(=O)C2(Cc3ccccc3)CCC2)CCO1)c1ccc(-c2c3nc(c(-c4cccc(S(=O)(=O)[O-])c4F)c4ccc([nH]4)c(-c4cccc(S(=O)(=O)[O-])c4F)c4nc(c(-c5cccc(S(=O)(=O)[O-])c5F)c5ccc2[nH]5)C=C4)C=C3)cc1
REMARK SMILES IDX 7 1 6 2 5 3 4 4 3 5 1 6 2 7 32 9 33 10 94 11 34 12 93 13
REMARK SMILES IDX 35 14 36 15 37 16 87 17 38 18 92 19 86 20 88 21 39 22 91 23
REMARK SMILES IDX 85 24 84 25 40 27 72 28 52 29 71 30 53 31 56 32 70 33 89 34
REMARK SMILES IDX 54 35 55 36 69 38 90 39 57 40 41 41 42 42 50 43 43 44 45 45
REMARK SMILES IDX 51 46 44 47 46 48 47 49 48 50 49 51 73 52 74 53 82 54 75 55
REMARK SMILES IDX 77 56 83 57 76 58 78 59 79 60 80 61 81 62 58 63 59 64 67 65
REMARK SMILES IDX 60 66 62 67 68 68 61 69 63 70 64 71 65 72 66 73 8 74 9 75
REMARK SMILES IDX 10 76 11 77 12 79 13 80 14 81 31 82 15 83 30 84 29 85 16 86
REMARK SMILES IDX 17 87 18 88 26 89 28 90 27 91 19 92 20 93 21 94 25 95 22 96
REMARK SMILES IDX 24 97 23 98
REMARK H PARENT 3 8 88 26 56 37 10 78
REMARK Flexibility Score: inf
ROOT
ATOM      1  C   UNL A   1      37.290  22.661  25.069  1.00  0.00     0.002 C 
ENDROOT
BRANCH   1   2
ATOM      2  C   UNL A   1      37.117  21.327  24.337  1.00  0.00     0.002 C 
BRANCH   2   3
ATOM      3  C   UNL A   1      37.848  20.145  24.976  1.00  0.00     0.021 C 
BRANCH   3   4
ATOM      4  C   UNL A   1      38.999  20.548  25.888  1.00  0.00     0.116 C 
BRANCH   4   5
ATOM      5  N   UNL A   1      40.025  19.520  25.941  1.00  0.00    -0.352 N 
ATOM      6  O   UNL A   1      42.125  18.716  25.820  1.00  0.00    -0.269 OA
ATOM      7  C   UNL A   1      41.387  19.669  26.037  1.00  0.00     0.251 C 
ATOM      8  H   UNL A   1      39.700  18.592  25.903  1.00  0.00     0.163 HD
BRANCH   7   9
ATOM      9  C   UNL A   1      41.943  20.992  26.394  1.00  0.00     0.039 A 
ATOM     10  C   UNL A   1      42.170  21.948  25.400  1.00  0.00     0.014 A 
ATOM     11  C   UNL A   1      42.222  21.283  27.731  1.00  0.00     0.014 A 
ATOM     12  C   UNL A   1      42.785  23.150  25.724  1.00  0.00     0.010 A 
ATOM     13  C   UNL A   1      42.756  22.529  28.066  1.00  0.00     0.010 A 
ATOM     14  C   UNL A   1      43.051  23.468  27.065  1.00  0.00    -0.014 A 
BRANCH  14  15
ATOM     15  C   UNL A   1      43.505  24.837  27.407  1.00  0.00     0.031 A 
ATOM     16  C   UNL A   1      42.553  25.874  27.931  1.00  0.00     0.074 A 
ATOM     17  C   UNL A   1      44.800  25.146  27.193  1.00  0.00     0.049 A 
ATOM     18  N   UNL A   1      42.794  27.120  28.241  1.00  0.00    -0.248 NA
ATOM     19  C   UNL A   1      41.153  25.466  28.129  1.00  0.00     0.031 C 
ATOM     20  C   UNL A   1      45.802  24.227  26.642  1.00  0.00     0.029 A 
ATOM     21  N   UNL A   1      45.494  26.312  27.385  1.00  0.00    -0.354 N 
ATOM     22  C   UNL A   1      41.574  27.663  28.622  1.00  0.00     0.074 A 
ATOM     23  C   UNL A   1      40.592  26.606  28.518  1.00  0.00     0.031 C 
ATOM     24  C   UNL A   1      46.977  24.863  26.539  1.00  0.00     0.029 A 
ATOM     25  C   UNL A   1      46.798  26.248  26.951  1.00  0.00     0.049 A 
ATOM     26  H   UNL A   1      45.099  27.116  27.793  1.00  0.00     0.167 HD
ATOM     27  C   UNL A   1      41.304  28.929  29.020  1.00  0.00     0.034 A 
ATOM     28  C   UNL A   1      47.736  27.208  26.847  1.00  0.00     0.034 A 
ATOM     29  C   UNL A   1      42.297  29.966  29.143  1.00  0.00     0.049 A 
ATOM     30  C   UNL A   1      47.399  28.600  27.295  1.00  0.00     0.074 A 
ATOM     31  C   UNL A   1      42.139  31.248  29.638  1.00  0.00     0.029 A 
ATOM     32  N   UNL A   1      43.618  29.853  28.740  1.00  0.00    -0.354 N 
ATOM     33  N   UNL A   1      46.283  29.049  27.815  1.00  0.00    -0.248 NA
ATOM     34  C   UNL A   1      48.455  29.613  27.163  1.00  0.00     0.031 C 
ATOM     35  C   UNL A   1      43.350  31.928  29.486  1.00  0.00     0.029 A 
ATOM     36  C   UNL A   1      44.276  31.055  28.937  1.00  0.00     0.049 A 
ATOM     37  H   UNL A   1      44.028  29.039  28.367  1.00  0.00     0.167 HD
ATOM     38  C   UNL A   1      46.508  30.391  28.091  1.00  0.00     0.074 A 
ATOM     39  C   UNL A   1      47.877  30.673  27.712  1.00  0.00     0.031 C 
ATOM     40  C   UNL A   1      45.651  31.312  28.593  1.00  0.00     0.034 A 
BRANCH  27  41
ATOM     41  C   UNL A   1      39.883  29.286  29.366  1.00  0.00     0.023 A 
ATOM     42  C   UNL A   1      38.925  29.438  28.345  1.00  0.00     0.012 A 
ATOM     43  C   UNL A   1      39.475  29.356  30.715  1.00  0.00     0.148 A 
ATOM     44  C   UNL A   1      37.585  29.671  28.660  1.00  0.00     0.002 A 
ATOM     45  C   UNL A   1      38.133  29.545  31.020  1.00  0.00     0.091 A 
ATOM     46  F   UNL A   1      40.407  29.224  31.670  1.00  0.00    -0.205 F 
ATOM     47  C   UNL A   1      37.189  29.712  29.995  1.00  0.00     0.022 A 
BRANCH  45  48
ATOM     48  S   UNL A   1      37.509  29.529  32.705  1.00  0.00     0.127 S 
ATOM     49  O   UNL A   1      36.175  30.105  32.529  1.00  0.00    -0.237 OA
ATOM     50  O   UNL A   1      37.519  28.101  33.020  1.00  0.00    -0.237 OA
ATOM     51  O   UNL A   1      38.435  30.335  33.487  1.00  0.00    -0.744 OA
ENDBRANCH  45  48
ENDBRANCH  27  41
BRANCH  28  52
ATOM     52  C   UNL A   1      49.075  26.881  26.282  1.00  0.00     0.023 A 
ATOM     53  C   UNL A   1      50.007  26.167  27.058  1.00  0.00     0.012 A 
ATOM     54  C   UNL A   1      49.419  27.263  24.969  1.00  0.00     0.148 A 
ATOM     55  C   UNL A   1      51.273  25.872  26.550  1.00  0.00     0.002 A 
ATOM     56  C   UNL A   1      50.657  26.909  24.448  1.00  0.00     0.091 A 
ATOM     57  F   UNL A   1      48.523  27.954  24.252  1.00  0.00    -0.205 F 
ATOM     58  C   UNL A   1      51.594  26.234  25.244  1.00  0.00     0.022 A 
BRANCH  56  59
ATOM     59  S   UNL A   1      51.094  27.210  22.732  1.00  0.00     0.127 S 
ATOM     60  O   UNL A   1      50.001  26.549  22.026  1.00  0.00    -0.237 OA
ATOM     61  O   UNL A   1      51.076  28.673  22.669  1.00  0.00    -0.237 OA
ATOM     62  O   UNL A   1      52.414  26.621  22.557  1.00  0.00    -0.744 OA
ENDBRANCH  56  59
ENDBRANCH  28  52
BRANCH  40  63
ATOM     63  C   UNL A   1      46.170  32.712  28.790  1.00  0.00     0.023 A 
ATOM     64  C   UNL A   1      46.854  33.045  29.976  1.00  0.00     0.012 A 
ATOM     65  C   UNL A   1      46.048  33.672  27.767  1.00  0.00     0.148 A 
ATOM     66  C   UNL A   1      47.384  34.321  30.152  1.00  0.00     0.002 A 
ATOM     67  C   UNL A   1      46.624  34.924  27.927  1.00  0.00     0.091 A 
ATOM     68  F   UNL A   1      45.379  33.338  26.654  1.00  0.00    -0.205 F 
ATOM     69  C   UNL A   1      47.281  35.255  29.124  1.00  0.00     0.022 A 
BRANCH  67  70
ATOM     70  S   UNL A   1      46.628  36.161  26.625  1.00  0.00     0.127 S 
ATOM     71  O   UNL A   1      47.156  35.400  25.494  1.00  0.00    -0.237 OA
ATOM     72  O   UNL A   1      45.210  36.503  26.522  1.00  0.00    -0.237 OA
ATOM     73  O   UNL A   1      47.483  37.242  27.096  1.00  0.00    -0.744 OA
ENDBRANCH  67  70
ENDBRANCH  40  63
ENDBRANCH  14  15
ENDBRANCH   7   9
ENDBRANCH   4   5
ENDBRANCH   3   4
ENDBRANCH   2   3
ENDBRANCH   1   2
BRANCH   1  74
ATOM     74  C   UNL A   1      36.151  23.018  26.028  1.00  0.00     0.021 C 
BRANCH  74  75
ATOM     75  C   UNL A   1      35.166  21.880  26.279  1.00  0.00     0.116 C 
BRANCH  75  76
ATOM     76  N   UNL A   1      34.053  22.326  27.092  1.00  0.00    -0.354 N 
ATOM     77  C   UNL A   1      32.901  22.959  26.714  1.00  0.00     0.250 C 
ATOM     78  H   UNL A   1      34.139  22.149  28.056  1.00  0.00     0.163 HD
ATOM     79  O   UNL A   1      32.110  23.290  27.599  1.00  0.00    -0.272 OA
BRANCH  77  80
ATOM     80  C   UNL A   1      32.655  23.235  25.224  1.00  0.00     0.226 C 
ATOM     81  C   UNL A   1      32.574  24.755  25.013  1.00  0.00     0.161 C 
ATOM     82  O   UNL A   1      31.444  22.607  24.769  1.00  0.00    -0.365 OA
ATOM     83  N   UNL A   1      32.278  25.085  23.614  1.00  0.00    -0.337 N 
ATOM     84  C   UNL A   1      31.251  22.846  23.369  1.00  0.00     0.183 C 
ATOM     85  C   UNL A   1      31.132  24.343  23.080  1.00  0.00     0.148 C 
BRANCH  83  86
ATOM     86  C   UNL A   1      32.554  26.333  23.040  1.00  0.00     0.229 C 
ATOM     87  O   UNL A   1      33.562  26.426  22.318  1.00  0.00    -0.274 OA
BRANCH  86  88
ATOM     88  C   UNL A   1      31.648  27.595  23.365  1.00  0.00     0.053 C 
ATOM     89  C   UNL A   1      30.517  27.834  22.306  1.00  0.00     0.017 C 
ATOM     90  C   UNL A   1      30.515  27.545  24.441  1.00  0.00     0.017 C 
ATOM     91  C   UNL A   1      29.571  28.242  23.445  1.00  0.00     0.002 C 
BRANCH  88  92
ATOM     92  C   UNL A   1      32.520  28.880  23.526  1.00  0.00     0.052 C 
BRANCH  92  93
ATOM     93  C   UNL A   1      32.948  29.160  24.954  1.00  0.00    -0.047 A 
ATOM     94  C   UNL A   1      32.347  30.213  25.663  1.00  0.00     0.004 A 
ATOM     95  C   UNL A   1      33.978  28.447  25.581  1.00  0.00     0.004 A 
ATOM     96  C   UNL A   1      32.757  30.533  26.961  1.00  0.00     0.000 A 
ATOM     97  C   UNL A   1      34.379  28.757  26.883  1.00  0.00     0.000 A 
ATOM     98  C   UNL A   1      33.771  29.801  27.572  1.00  0.00     0.000 A 
ENDBRANCH  92  93
ENDBRANCH  88  92
ENDBRANCH  86  88
ENDBRANCH  83  86
ENDBRANCH  77  80
ENDBRANCH  75  76
ENDBRANCH  74  75
ENDBRANCH   1  74
TORSDOF 20
ENDMDL
MODEL 2
REMARK VINA RESULT:     -12.2      5.460     11.643
REMARK SMILES O=C(NCCCCCCNC(=O)[C@@H]1CN(C(=O)C2(Cc3ccccc3)CCC2)CCO1)c1ccc(-c2c3nc(c(-c4cccc(S(=O)(=O)[O-])c4F)c4ccc([nH]4)c(-c4cccc(S(=O)(=O)[O-])c4F)c4nc(c(-c5cccc(S(=O)(=O)[O-])c5F)c5ccc2[nH]5)C=C4)C=C3)cc1
REMARK SMILES IDX 7 1 6 2 5 3 4 4 3 5 1 6 2 7 32 9 33 10 94 11 34 12 93 13
REMARK SMILES IDX 35 14 36 15 37 16 87 17 38 18 92 19 86 20 88 21 39 22 91 23
REMARK SMILES IDX 85 24 84 25 40 27 72 28 52 29 71 30 53 31 56 32 70 33 89 34
REMARK SMILES IDX 54 35 55 36 69 38 90 39 57 40 41 41 42 42 50 43 43 44 45 45
REMARK SMILES IDX 51 46 44 47 46 48 47 49 48 50 49 51 73 52 74 53 82 54 75 55
REMARK SMILES IDX 77 56 83 57 76 58 78 59 79 60 80 61 81 62 58 63 59 64 67 65
REMARK SMILES IDX 60 66 62 67 68 68 61 69 63 70 64 71 65 72 66 73 8 74 9 75
REMARK SMILES IDX 10 76 11 77 12 79 13 80 14 81 31 82 15 83 30 84 29 85 16 86
REMARK SMILES IDX 17 87 18 88 26 89 28 90 27 91 19 92 20 93 21 94 25 95 22 96
REMARK SMILES IDX 24 97 23 98
REMARK H PARENT 3 8 88 26 56 37 10 78
REMARK Flexibility Score: inf
ROOT
ATOM      1  C   UNL A   1      31.776  29.075  26.858  1.00  0.00     0.002 C 
ENDROOT
BRANCH   1   2
ATOM      2  C   UNL A   1      31.854  30.265  25.897  1.00  0.00     0.002 C 
BRANCH   2   3
ATOM      3  C   UNL A   1      31.562  31.624  26.535  1.00  0.00     0.021 C 
BRANCH   3   4
ATOM      4  C   UNL A   1      32.754  32.242  27.254  1.00  0.00     0.116 C 
BRANCH   4   5
ATOM      5  N   UNL A   1      32.527  33.644  27.559  1.00  0.00    -0.352 N 
ATOM      6  O   UNL A   1      32.632  35.508  28.819  1.00  0.00    -0.269 OA
ATOM      7  C   UNL A   1      33.111  34.418  28.532  1.00  0.00     0.251 C 
ATOM      8  H   UNL A   1      31.865  34.102  26.992  1.00  0.00     0.163 HD
BRANCH   7   9
ATOM      9  C   UNL A   1      34.313  33.911  29.229  1.00  0.00     0.039 A 
ATOM     10  C   UNL A   1      34.180  33.003  30.284  1.00  0.00     0.014 A 
ATOM     11  C   UNL A   1      35.578  34.332  28.815  1.00  0.00     0.014 A 
ATOM     12  C   UNL A   1      35.302  32.606  31.001  1.00  0.00     0.010 A 
ATOM     13  C   UNL A   1      36.712  33.860  29.480  1.00  0.00     0.010 A 
ATOM     14  C   UNL A   1      36.582  33.003  30.585  1.00  0.00    -0.014 A 
BRANCH  14  15
ATOM     15  C   UNL A   1      37.772  32.396  31.229  1.00  0.00     0.031 A 
ATOM     16  C   UNL A   1      38.516  31.258  30.593  1.00  0.00     0.074 A 
ATOM     17  C   UNL A   1      38.148  32.869  32.434  1.00  0.00     0.049 A 
ATOM     18  N   UNL A   1      39.551  30.603  31.051  1.00  0.00    -0.248 NA
ATOM     19  C   UNL A   1      38.041  30.788  29.281  1.00  0.00     0.031 C 
ATOM     20  C   UNL A   1      37.466  33.943  33.165  1.00  0.00     0.029 A 
ATOM     21  N   UNL A   1      39.170  32.502  33.269  1.00  0.00    -0.354 N 
ATOM     22  C   UNL A   1      39.823  29.613  30.114  1.00  0.00     0.074 A 
ATOM     23  C   UNL A   1      38.851  29.761  29.052  1.00  0.00     0.031 C 
ATOM     24  C   UNL A   1      38.086  34.146  34.335  1.00  0.00     0.029 A 
ATOM     25  C   UNL A   1      39.163  33.175  34.469  1.00  0.00     0.049 A 
ATOM     26  H   UNL A   1      39.844  31.823  33.034  1.00  0.00     0.167 HD
ATOM     27  C   UNL A   1      40.794  28.670  30.145  1.00  0.00     0.034 A 
ATOM     28  C   UNL A   1      39.906  33.001  35.577  1.00  0.00     0.034 A 
ATOM     29  C   UNL A   1      41.771  28.551  31.198  1.00  0.00     0.049 A 
ATOM     30  C   UNL A   1      40.972  31.944  35.576  1.00  0.00     0.074 A 
ATOM     31  C   UNL A   1      42.856  27.696  31.265  1.00  0.00     0.029 A 
ATOM     32  N   UNL A   1      41.763  29.280  32.376  1.00  0.00    -0.354 N 
ATOM     33  N   UNL A   1      41.323  31.132  34.607  1.00  0.00    -0.248 NA
ATOM     34  C   UNL A   1      41.757  31.791  36.807  1.00  0.00     0.031 C 
ATOM     35  C   UNL A   1      43.475  27.871  32.506  1.00  0.00     0.029 A 
ATOM     36  C   UNL A   1      42.801  28.867  33.194  1.00  0.00     0.049 A 
ATOM     37  H   UNL A   1      41.114  29.987  32.598  1.00  0.00     0.167 HD
ATOM     38  C   UNL A   1      42.382  30.386  35.106  1.00  0.00     0.074 A 
ATOM     39  C   UNL A   1      42.638  30.866  36.448  1.00  0.00     0.031 C 
ATOM     40  C   UNL A   1      43.069  29.381  34.513  1.00  0.00     0.034 A 
BRANCH  27  41
ATOM     41  C   UNL A   1      40.875  27.685  29.010  1.00  0.00     0.023 A 
ATOM     42  C   UNL A   1      39.956  26.619  28.934  1.00  0.00     0.012 A 
ATOM     43  C   UNL A   1      41.791  27.886  27.956  1.00  0.00     0.148 A 
ATOM     44  C   UNL A   1      39.960  25.758  27.836  1.00  0.00     0.002 A 
ATOM     45  C   UNL A   1      41.759  27.051  26.846  1.00  0.00     0.091 A 
ATOM     46  F   UNL A   1      42.666  28.896  28.057  1.00  0.00    -0.205 F 
ATOM     47  C   UNL A   1      40.851  25.982  26.788  1.00  0.00     0.022 A 
BRANCH  45  48
ATOM     48  S   UNL A   1      42.807  27.305  25.410  1.00  0.00     0.127 S 
ATOM     49  O   UNL A   1      42.656  26.030  24.707  1.00  0.00    -0.237 OA
ATOM     50  O   UNL A   1      42.158  28.441  24.756  1.00  0.00    -0.237 OA
ATOM     51  O   UNL A   1      44.142  27.575  25.925  1.00  0.00    -0.744 OA
ENDBRANCH  45  48
ENDBRANCH  27  41
BRANCH  28  52
ATOM     52  C   UNL A   1      39.655  33.840  36.782  1.00  0.00     0.023 A 
ATOM     53  C   UNL A   1      40.017  35.200  36.776  1.00  0.00     0.012 A 
ATOM     54  C   UNL A   1      39.040  33.296  37.928  1.00  0.00     0.148 A 
ATOM     55  C   UNL A   1      39.806  35.994  37.904  1.00  0.00     0.002 A 
ATOM     56  C   UNL A   1      38.775  34.108  39.023  1.00  0.00     0.091 A 
ATOM     57  F   UNL A   1      38.715  31.996  37.919  1.00  0.00    -0.205 F 
ATOM     58  C   UNL A   1      39.177  35.452  39.022  1.00  0.00     0.022 A 
BRANCH  56  59
ATOM     59  S   UNL A   1      37.843  33.526  40.443  1.00  0.00     0.127 S 
ATOM     60  O   UNL A   1      38.729  32.497  40.980  1.00  0.00    -0.237 OA
ATOM     61  O   UNL A   1      37.741  34.740  41.255  1.00  0.00    -0.237 OA
ATOM     62  O   UNL A   1      36.572  33.056  39.910  1.00  0.00    -0.744 OA
ENDBRANCH  56  59
ENDBRANCH  28  52
BRANCH  40  63
ATOM     63  C   UNL A   1      44.184  28.741  35.297  1.00  0.00     0.023 A 
ATOM     64  C   UNL A   1      45.485  29.277  35.228  1.00  0.00     0.012 A 
ATOM     65  C   UNL A   1      43.924  27.659  36.160  1.00  0.00     0.148 A 
ATOM     66  C   UNL A   1      46.517  28.728  35.986  1.00  0.00     0.002 A 
ATOM     67  C   UNL A   1      44.944  27.151  36.952  1.00  0.00     0.091 A 
ATOM     68  F   UNL A   1      42.682  27.156  36.196  1.00  0.00    -0.205 F 
ATOM     69  C   UNL A   1      46.244  27.675  36.857  1.00  0.00     0.022 A 
BRANCH  67  70
ATOM     70  S   UNL A   1      44.671  25.862  38.172  1.00  0.00     0.127 S 
ATOM     71  O   UNL A   1      46.007  25.705  38.743  1.00  0.00    -0.237 OA
ATOM     72  O   UNL A   1      43.694  26.485  39.064  1.00  0.00    -0.237 OA
ATOM     73  O   UNL A   1      44.174  24.707  37.436  1.00  0.00    -0.744 OA
ENDBRANCH  67  70
ENDBRANCH  40  63
ENDBRANCH  14  15
ENDBRANCH   7   9
ENDBRANCH   4   5
ENDBRANCH   3   4
ENDBRANCH   2   3
ENDBRANCH   1   2
BRANCH   1  74
ATOM     74  C   UNL A   1      32.617  27.863  26.447  1.00  0.00     0.021 C 
BRANCH  74  75
ATOM     75  C   UNL A   1      31.818  26.572  26.292  1.00  0.00     0.116 C 
BRANCH  75  76
ATOM     76  N   UNL A   1      30.560  26.819  25.615  1.00  0.00    -0.354 N 
ATOM     77  C   UNL A   1      30.202  26.549  24.324  1.00  0.00     0.250 C 
ATOM     78  H   UNL A   1      29.863  27.244  26.165  1.00  0.00     0.163 HD
ATOM     79  O   UNL A   1      29.079  26.896  23.953  1.00  0.00    -0.272 OA
BRANCH  77  80
ATOM     80  C   UNL A   1      31.207  25.842  23.403  1.00  0.00     0.226 C 
ATOM     81  C   UNL A   1      31.544  24.470  24.006  1.00  0.00     0.161 C 
ATOM     82  O   UNL A   1      32.406  26.620  23.243  1.00  0.00    -0.365 OA
ATOM     83  N   UNL A   1      32.551  23.765  23.202  1.00  0.00    -0.337 N 
ATOM     84  C   UNL A   1      33.315  25.961  22.353  1.00  0.00     0.183 C 
ATOM     85  C   UNL A   1      33.723  24.592  22.899  1.00  0.00     0.148 C 
BRANCH  83  86
ATOM     86  C   UNL A   1      32.741  22.378  23.247  1.00  0.00     0.229 C 
ATOM     87  O   UNL A   1      32.557  21.735  22.199  1.00  0.00    -0.274 OA
BRANCH  86  88
ATOM     88  C   UNL A   1      33.110  21.652  24.610  1.00  0.00     0.053 C 
ATOM     89  C   UNL A   1      34.555  21.044  24.616  1.00  0.00     0.017 C 
ATOM     90  C   UNL A   1      33.530  22.451  25.886  1.00  0.00     0.017 C 
ATOM     91  C   UNL A   1      34.702  21.473  26.084  1.00  0.00     0.002 C 
BRANCH  88  92
ATOM     92  C   UNL A   1      32.057  20.553  24.957  1.00  0.00     0.052 C 
BRANCH  92  93
ATOM     93  C   UNL A   1      32.535  19.136  24.700  1.00  0.00    -0.047 A 
ATOM     94  C   UNL A   1      32.644  18.671  23.379  1.00  0.00     0.004 A 
ATOM     95  C   UNL A   1      32.812  18.239  25.740  1.00  0.00     0.004 A 
ATOM     96  C   UNL A   1      33.028  17.354  23.110  1.00  0.00     0.000 A 
ATOM     97  C   UNL A   1      33.210  16.927  25.471  1.00  0.00     0.000 A 
ATOM     98  C   UNL A   1      33.315  16.484  24.157  1.00  0.00     0.000 A 
ENDBRANCH  92  93
ENDBRANCH  88  92
ENDBRANCH  86  88
ENDBRANCH  83  86
ENDBRANCH  77  80
ENDBRANCH  75  76
ENDBRANCH  74  75
ENDBRANCH   1  74
TORSDOF 20
ENDMDL
MODEL 3
REMARK VINA RESULT:     -12.2      1.563      2.363
REMARK SMILES O=C(NCCCCCCNC(=O)[C@@H]1CN(C(=O)C2(Cc3ccccc3)CCC2)CCO1)c1ccc(-c2c3nc(c(-c4cccc(S(=O)(=O)[O-])c4F)c4ccc([nH]4)c(-c4cccc(S(=O)(=O)[O-])c4F)c4nc(c(-c5cccc(S(=O)(=O)[O-])c5F)c5ccc2[nH]5)C=C4)C=C3)cc1
REMARK SMILES IDX 7 1 6 2 5 3 4 4 3 5 1 6 2 7 32 9 33 10 94 11 34 12 93 13
REMARK SMILES IDX 35 14 36 15 37 16 87 17 38 18 92 19 86 20 88 21 39 22 91 23
REMARK SMILES IDX 85 24 84 25 40 27 72 28 52 29 71 30 53 31 56 32 70 33 89 34
REMARK SMILES IDX 54 35 55 36 69 38 90 39 57 40 41 41 42 42 50 43 43 44 45 45
REMARK SMILES IDX 51 46 44 47 46 48 47 49 48 50 49 51 73 52 74 53 82 54 75 55
REMARK SMILES IDX 77 56 83 57 76 58 78 59 79 60 80 61 81 62 58 63 59 64 67 65
REMARK SMILES IDX 60 66 62 67 68 68 61 69 63 70 64 71 65 72 66 73 8 74 9 75
REMARK SMILES IDX 10 76 11 77 12 79 13 80 14 81 31 82 15 83 30 84 29 85 16 86
REMARK SMILES IDX 17 87 18 88 26 89 28 90 27 91 19 92 20 93 21 94 25 95 22 96
REMARK SMILES IDX 24 97 23 98
REMARK H PARENT 3 8 88 26 56 37 10 78
REMARK Flexibility Score: inf
ROOT
ATOM      1  C   UNL A   1      37.105  22.620  25.013  1.00  0.00     0.002 C 
ENDROOT
BRANCH   1   2
ATOM      2  C   UNL A   1      36.993  21.330  24.195  1.00  0.00     0.002 C 
BRANCH   2   3
ATOM      3  C   UNL A   1      37.763  20.139  24.767  1.00  0.00     0.021 C 
BRANCH   3   4
ATOM      4  C   UNL A   1      38.739  20.507  25.877  1.00  0.00     0.116 C 
BRANCH   4   5
ATOM      5  N   UNL A   1      39.798  19.521  26.008  1.00  0.00    -0.352 N 
ATOM      6  O   UNL A   1      41.930  18.795  26.022  1.00  0.00    -0.269 OA
ATOM      7  C   UNL A   1      41.146  19.723  26.178  1.00  0.00     0.251 C 
ATOM      8  H   UNL A   1      39.510  18.580  25.970  1.00  0.00     0.163 HD
BRANCH   7   9
ATOM      9  C   UNL A   1      41.630  21.072  26.540  1.00  0.00     0.039 A 
ATOM     10  C   UNL A   1      41.626  22.097  25.589  1.00  0.00     0.014 A 
ATOM     11  C   UNL A   1      42.075  21.318  27.841  1.00  0.00     0.014 A 
ATOM     12  C   UNL A   1      42.174  23.334  25.903  1.00  0.00     0.010 A 
ATOM     13  C   UNL A   1      42.542  22.590  28.179  1.00  0.00     0.010 A 
ATOM     14  C   UNL A   1      42.605  23.604  27.210  1.00  0.00    -0.014 A 
BRANCH  14  15
ATOM     15  C   UNL A   1      42.983  24.991  27.575  1.00  0.00     0.031 A 
ATOM     16  C   UNL A   1      41.996  25.939  28.193  1.00  0.00     0.074 A 
ATOM     17  C   UNL A   1      44.238  25.398  27.295  1.00  0.00     0.049 A 
ATOM     18  N   UNL A   1      42.169  27.188  28.534  1.00  0.00    -0.248 NA
ATOM     19  C   UNL A   1      40.642  25.426  28.460  1.00  0.00     0.031 C 
ATOM     20  C   UNL A   1      45.265  24.572  26.652  1.00  0.00     0.029 A 
ATOM     21  N   UNL A   1      44.859  26.604  27.489  1.00  0.00    -0.354 N 
ATOM     22  C   UNL A   1      40.939  27.630  29.007  1.00  0.00     0.074 A 
ATOM     23  C   UNL A   1      40.029  26.509  28.923  1.00  0.00     0.031 C 
ATOM     24  C   UNL A   1      46.384  25.293  26.503  1.00  0.00     0.029 A 
ATOM     25  C   UNL A   1      46.135  26.648  26.976  1.00  0.00     0.049 A 
ATOM     26  H   UNL A   1      44.435  27.364  27.950  1.00  0.00     0.167 HD
ATOM     27  C   UNL A   1      40.608  28.860  29.467  1.00  0.00     0.034 A 
ATOM     28  C   UNL A   1      46.996  27.676  26.851  1.00  0.00     0.034 A 
ATOM     29  C   UNL A   1      41.532  29.960  29.569  1.00  0.00     0.049 A 
ATOM     30  C   UNL A   1      46.592  29.025  27.370  1.00  0.00     0.074 A 
ATOM     31  C   UNL A   1      41.316  31.211  30.119  1.00  0.00     0.029 A 
ATOM     32  N   UNL A   1      42.830  29.956  29.083  1.00  0.00    -0.354 N 
ATOM     33  N   UNL A   1      45.482  29.376  27.972  1.00  0.00    -0.248 NA
ATOM     34  C   UNL A   1      47.564  30.114  27.212  1.00  0.00     0.031 C 
ATOM     35  C   UNL A   1      42.465  31.981  29.920  1.00  0.00     0.029 A 
ATOM     36  C   UNL A   1      43.414  31.195  29.285  1.00  0.00     0.049 A 
ATOM     37  H   UNL A   1      43.271  29.186  28.657  1.00  0.00     0.167 HD
ATOM     38  C   UNL A   1      45.629  30.720  28.283  1.00  0.00     0.074 A 
ATOM     39  C   UNL A   1      46.949  31.112  27.833  1.00  0.00     0.031 C 
ATOM     40  C   UNL A   1      44.744  31.561  28.869  1.00  0.00     0.034 A 
BRANCH  27  41
ATOM     41  C   UNL A   1      39.190  29.103  29.911  1.00  0.00     0.023 A 
ATOM     42  C   UNL A   1      38.785  28.739  31.210  1.00  0.00     0.012 A 
ATOM     43  C   UNL A   1      38.291  29.799  29.074  1.00  0.00     0.148 A 
ATOM     44  C   UNL A   1      37.502  29.049  31.665  1.00  0.00     0.002 A 
ATOM     45  C   UNL A   1      37.032  30.141  29.550  1.00  0.00     0.091 A 
ATOM     46  F   UNL A   1      38.692  30.120  27.836  1.00  0.00    -0.205 F 
ATOM     47  C   UNL A   1      36.632  29.759  30.841  1.00  0.00     0.022 A 
BRANCH  45  48
ATOM     48  S   UNL A   1      35.869  31.126  28.598  1.00  0.00     0.127 S 
ATOM     49  O   UNL A   1      34.858  31.443  29.607  1.00  0.00    -0.237 OA
ATOM     50  O   UNL A   1      36.696  32.261  28.187  1.00  0.00    -0.237 OA
ATOM     51  O   UNL A   1      35.414  30.274  27.509  1.00  0.00    -0.744 OA
ENDBRANCH  45  48
ENDBRANCH  27  41
BRANCH  28  52
ATOM     52  C   UNL A   1      48.317  27.465  26.196  1.00  0.00     0.023 A 
ATOM     53  C   UNL A   1      49.434  27.105  26.972  1.00  0.00     0.012 A 
ATOM     54  C   UNL A   1      48.462  27.603  24.800  1.00  0.00     0.148 A 
ATOM     55  C   UNL A   1      50.682  26.924  26.374  1.00  0.00     0.002 A 
ATOM     56  C   UNL A   1      49.693  27.358  24.205  1.00  0.00     0.091 A 
ATOM     57  F   UNL A   1      47.390  27.959  24.081  1.00  0.00    -0.205 F 
ATOM     58  C   UNL A   1      50.809  27.040  24.992  1.00  0.00     0.022 A 
BRANCH  56  59
ATOM     59  S   UNL A   1      49.909  27.347  22.422  1.00  0.00     0.127 S 
ATOM     60  O   UNL A   1      48.865  26.417  22.002  1.00  0.00    -0.237 OA
ATOM     61  O   UNL A   1      49.663  28.749  22.080  1.00  0.00    -0.237 OA
ATOM     62  O   UNL A   1      51.279  26.909  22.198  1.00  0.00    -0.744 OA
ENDBRANCH  56  59
ENDBRANCH  28  52
BRANCH  40  63
ATOM     63  C   UNL A   1      45.175  32.987  29.086  1.00  0.00     0.023 A 
ATOM     64  C   UNL A   1      45.878  33.335  30.256  1.00  0.00     0.012 A 
ATOM     65  C   UNL A   1      44.952  33.962  28.095  1.00  0.00     0.148 A 
ATOM     66  C   UNL A   1      46.328  34.640  30.449  1.00  0.00     0.002 A 
ATOM     67  C   UNL A   1      45.450  35.246  28.269  1.00  0.00     0.091 A 
ATOM     68  F   UNL A   1      44.267  33.611  26.997  1.00  0.00    -0.205 F 
ATOM     69  C   UNL A   1      46.126  35.590  29.451  1.00  0.00     0.022 A 
BRANCH  67  70
ATOM     70  S   UNL A   1      45.324  36.512  27.002  1.00  0.00     0.127 S 
ATOM     71  O   UNL A   1      45.960  37.654  27.657  1.00  0.00    -0.237 OA
ATOM     72  O   UNL A   1      46.098  35.928  25.906  1.00  0.00    -0.237 OA
ATOM     73  O   UNL A   1      43.903  36.670  26.727  1.00  0.00    -0.744 OA
ENDBRANCH  67  70
ENDBRANCH  40  63
ENDBRANCH  14  15
ENDBRANCH   7   9
ENDBRANCH   4   5
ENDBRANCH   3   4
ENDBRANCH   2   3
ENDBRANCH   1   2
BRANCH   1  74
ATOM     74  C   UNL A   1      35.978  22.835  26.027  1.00  0.00     0.021 C 
BRANCH  74  75
ATOM     75  C   UNL A   1      35.007  21.663  26.139  1.00  0.00     0.116 C 
BRANCH  75  76
ATOM     76  N   UNL A   1      33.976  21.935  27.120  1.00  0.00    -0.354 N 
ATOM     77  C   UNL A   1      32.828  22.668  26.992  1.00  0.00     0.250 C 
ATOM     78  H   UNL A   1      34.123  21.535  28.007  1.00  0.00     0.163 HD
ATOM     79  O   UNL A   1      32.118  22.802  27.990  1.00  0.00    -0.272 OA
BRANCH  77  80
ATOM     80  C   UNL A   1      32.488  23.290  25.631  1.00  0.00     0.226 C 
ATOM     81  C   UNL A   1      31.422  24.377  25.842  1.00  0.00     0.161 C 
ATOM     82  O   UNL A   1      32.006  22.298  24.709  1.00  0.00    -0.365 OA
ATOM     83  N   UNL A   1      31.006  24.973  24.566  1.00  0.00    -0.337 N 
ATOM     84  C   UNL A   1      31.728  22.892  23.434  1.00  0.00     0.183 C 
ATOM     85  C   UNL A   1      30.651  23.971  23.556  1.00  0.00     0.148 C 
BRANCH  83  86
ATOM     86  C   UNL A   1      30.395  26.229  24.463  1.00  0.00     0.229 C 
ATOM     87  O   UNL A   1      29.161  26.285  24.601  1.00  0.00    -0.274 OA
BRANCH  86  88
ATOM     88  C   UNL A   1      31.248  27.520  24.111  1.00  0.00     0.053 C 
ATOM     89  C   UNL A   1      31.288  28.572  25.273  1.00  0.00     0.017 C 
ATOM     90  C   UNL A   1      32.811  27.521  24.169  1.00  0.00     0.017 C 
ATOM     91  C   UNL A   1      32.758  28.857  24.931  1.00  0.00     0.002 C 
BRANCH  88  92
ATOM     92  C   UNL A   1      30.735  28.184  22.795  1.00  0.00     0.052 C 
BRANCH  92  93
ATOM     93  C   UNL A   1      29.604  29.174  23.003  1.00  0.00    -0.047 A 
ATOM     94  C   UNL A   1      29.899  30.487  23.407  1.00  0.00     0.004 A 
ATOM     95  C   UNL A   1      28.257  28.811  22.873  1.00  0.00     0.004 A 
ATOM     96  C   UNL A   1      28.878  31.408  23.661  1.00  0.00     0.000 A 
ATOM     97  C   UNL A   1      27.237  29.735  23.113  1.00  0.00     0.000 A 
ATOM     98  C   UNL A   1      27.547  31.032  23.510  1.00  0.00     0.000 A 
ENDBRANCH  92  93
ENDBRANCH  88  92
ENDBRANCH  86  88
ENDBRANCH  83  86
ENDBRANCH  77  80
ENDBRANCH  75  76
ENDBRANCH  74  75
ENDBRANCH   1  74
TORSDOF 20
ENDMDL
