MODEL 1
REMARK VINA RESULT:     -10.8      0.000      0.000
REMARK SMILES C[C@H](Sc1ccnc(C(=O)NCCCCCCNC(=O)c2ccc(-c3c4nc(c(-c5cccc(S(=O)(=O)[O-])c5F)c5ccc([nH]5)c(-c5cccc(S(=O)(=O)[O-])c5F)c5nc(c(-c6cccc(S(=O)(=O)[O-])c6F)c6ccc3[nH]6)C=C5)C=C4)cc2)c1)[C@@H](C)O
REMARK SMILES IDX 14 1 13 2 12 3 11 4 9 5 10 6 8 8 4 9 5 10 84 11 6 12 7 13
REMARK SMILES IDX 3 14 2 15 1 16 85 17 86 18 87 19 15 21 16 22 17 23 18 24
REMARK SMILES IDX 19 25 20 27 21 28 22 29 83 30 23 31 82 32 24 33 25 34 26 35
REMARK SMILES IDX 76 36 27 37 81 38 75 39 77 40 28 41 80 42 74 43 73 44 29 46
REMARK SMILES IDX 61 47 41 48 60 49 42 50 45 51 59 52 78 53 43 54 44 55 58 57
REMARK SMILES IDX 79 58 46 59 30 60 31 61 39 62 32 63 34 64 40 65 33 66 35 67
REMARK SMILES IDX 36 68 37 69 38 70 62 71 63 72 71 73 64 74 66 75 72 76 65 77
REMARK SMILES IDX 67 78 68 79 69 80 70 81 47 82 48 83 56 84 49 85 51 86 57 87
REMARK SMILES IDX 50 88 52 89 53 90 54 91 55 92
REMARK H PARENT 11 7 87 20 18 26 77 45 45 56
REMARK Flexibility Score: inf
ROOT
ATOM      1  C   UNL A   1      32.444  27.792  25.724  1.00  0.00     0.002 C 
ENDROOT
BRANCH   1   2
ATOM      2  C   UNL A   1      31.751  26.806  26.660  1.00  0.00     0.021 C 
BRANCH   2   3
ATOM      3  C   UNL A   1      30.642  25.968  26.034  1.00  0.00     0.116 C 
BRANCH   3   4
ATOM      4  N   UNL A   1      30.354  24.756  26.780  1.00  0.00    -0.351 N 
ATOM      5  C   UNL A   1      30.629  23.418  26.587  1.00  0.00     0.269 C 
ATOM      6  O   UNL A   1      30.163  22.650  27.435  1.00  0.00    -0.268 OA
ATOM      7  H   UNL A   1      29.849  24.928  27.607  1.00  0.00     0.163 HD
BRANCH   5   8
ATOM      8  C   UNL A   1      31.421  22.853  25.432  1.00  0.00     0.129 A 
ATOM      9  C   UNL A   1      33.204  21.529  24.459  1.00  0.00     0.011 A 
ATOM     10  C   UNL A   1      32.810  21.983  23.214  1.00  0.00     0.035 A 
ATOM     11  C   UNL A   1      32.412  21.893  25.557  1.00  0.00     0.049 A 
ATOM     12  C   UNL A   1      31.754  22.878  23.142  1.00  0.00     0.113 A 
ATOM     13  N   UNL A   1      31.088  23.350  24.214  1.00  0.00    -0.251 NA
BRANCH   9  14
ATOM     14  S   UNL A   1      34.651  20.603  24.937  1.00  0.00    -0.120 SA
BRANCH  14  15
ATOM     15  C   UNL A   1      36.116  21.671  25.286  1.00  0.00     0.077 C 
ATOM     16  C   UNL A   1      37.360  20.803  25.067  1.00  0.00     0.022 C 
BRANCH  15  17
ATOM     17  C   UNL A   1      36.270  23.083  24.688  1.00  0.00     0.124 C 
ATOM     18  C   UNL A   1      35.542  24.188  25.445  1.00  0.00     0.039 C 
BRANCH  17  19
ATOM     19  O   UNL A   1      37.658  23.452  24.641  1.00  0.00    -0.392 OA
ATOM     20  H   UNL A   1      37.739  24.417  24.695  1.00  0.00     0.210 HD
ENDBRANCH  17  19
ENDBRANCH  15  17
ENDBRANCH  14  15
ENDBRANCH   9  14
ENDBRANCH   5   8
ENDBRANCH   3   4
ENDBRANCH   2   3
ENDBRANCH   1   2
BRANCH   1  21
ATOM     21  C   UNL A   1      31.518  28.618  24.824  1.00  0.00     0.002 C 
BRANCH  21  22
ATOM     22  C   UNL A   1      31.407  30.107  25.166  1.00  0.00     0.021 C 
BRANCH  22  23
ATOM     23  C   UNL A   1      32.141  30.536  26.432  1.00  0.00     0.116 C 
BRANCH  23  24
ATOM     24  N   UNL A   1      32.138  31.981  26.600  1.00  0.00    -0.352 N 
ATOM     25  C   UNL A   1      32.945  32.762  27.381  1.00  0.00     0.251 C 
ATOM     26  H   UNL A   1      31.459  32.466  26.077  1.00  0.00     0.163 HD
ATOM     27  O   UNL A   1      32.658  33.948  27.569  1.00  0.00    -0.269 OA
BRANCH  25  28
ATOM     28  C   UNL A   1      34.155  32.188  28.006  1.00  0.00     0.039 A 
ATOM     29  C   UNL A   1      35.262  33.011  28.228  1.00  0.00     0.014 A 
ATOM     30  C   UNL A   1      34.202  30.835  28.356  1.00  0.00     0.014 A 
ATOM     31  C   UNL A   1      36.400  32.488  28.845  1.00  0.00     0.010 A 
ATOM     32  C   UNL A   1      35.308  30.335  29.036  1.00  0.00     0.010 A 
ATOM     33  C   UNL A   1      36.423  31.151  29.276  1.00  0.00    -0.014 A 
BRANCH  33  34
ATOM     34  C   UNL A   1      37.602  30.590  29.982  1.00  0.00     0.031 A 
ATOM     35  C   UNL A   1      37.938  31.046  31.377  1.00  0.00     0.074 A 
ATOM     36  C   UNL A   1      38.418  29.734  29.337  1.00  0.00     0.049 A 
ATOM     37  N   UNL A   1      38.949  30.705  32.134  1.00  0.00    -0.248 NA
ATOM     38  C   UNL A   1      37.037  32.035  31.991  1.00  0.00     0.031 C 
ATOM     39  C   UNL A   1      38.240  29.278  27.957  1.00  0.00     0.029 A 
ATOM     40  N   UNL A   1      39.571  29.115  29.745  1.00  0.00    -0.354 N 
ATOM     41  C   UNL A   1      38.830  31.464  33.292  1.00  0.00     0.074 A 
ATOM     42  C   UNL A   1      37.667  32.307  33.125  1.00  0.00     0.031 C 
ATOM     43  C   UNL A   1      39.244  28.445  27.636  1.00  0.00     0.029 A 
ATOM     44  C   UNL A   1      40.151  28.333  28.774  1.00  0.00     0.049 A 
ATOM     45  H   UNL A   1      39.948  29.219  30.649  1.00  0.00     0.167 HD
ATOM     46  C   UNL A   1      39.601  31.440  34.405  1.00  0.00     0.034 A 
ATOM     47  C   UNL A   1      41.289  27.612  28.794  1.00  0.00     0.034 A 
ATOM     48  C   UNL A   1      40.731  30.569  34.582  1.00  0.00     0.049 A 
ATOM     49  C   UNL A   1      42.107  27.574  30.056  1.00  0.00     0.074 A 
ATOM     50  C   UNL A   1      41.517  30.398  35.706  1.00  0.00     0.029 A 
ATOM     51  N   UNL A   1      41.245  29.731  33.604  1.00  0.00    -0.354 N 
ATOM     52  N   UNL A   1      41.886  28.172  31.201  1.00  0.00    -0.248 NA
ATOM     53  C   UNL A   1      43.312  26.732  30.042  1.00  0.00     0.031 C 
ATOM     54  C   UNL A   1      42.526  29.479  35.398  1.00  0.00     0.029 A 
ATOM     55  C   UNL A   1      42.347  29.052  34.092  1.00  0.00     0.049 A 
ATOM     56  H   UNL A   1      40.878  29.634  32.694  1.00  0.00     0.167 HD
ATOM     57  C   UNL A   1      42.900  27.752  32.055  1.00  0.00     0.074 A 
ATOM     58  C   UNL A   1      43.725  26.833  31.298  1.00  0.00     0.031 C 
ATOM     59  C   UNL A   1      43.133  28.104  33.343  1.00  0.00     0.034 A 
BRANCH  46  60
ATOM     60  C   UNL A   1      39.220  32.359  35.539  1.00  0.00     0.023 A 
ATOM     61  C   UNL A   1      38.359  31.895  36.556  1.00  0.00     0.012 A 
ATOM     62  C   UNL A   1      39.748  33.662  35.624  1.00  0.00     0.148 A 
ATOM     63  C   UNL A   1      37.998  32.727  37.615  1.00  0.00     0.002 A 
ATOM     64  C   UNL A   1      39.422  34.468  36.708  1.00  0.00     0.091 A 
ATOM     65  F   UNL A   1      40.547  34.094  34.638  1.00  0.00    -0.205 F 
ATOM     66  C   UNL A   1      38.536  34.007  37.697  1.00  0.00     0.022 A 
BRANCH  64  67
ATOM     67  S   UNL A   1      40.127  36.103  36.946  1.00  0.00     0.127 S 
ATOM     68  O   UNL A   1      39.446  36.543  38.163  1.00  0.00    -0.237 OA
ATOM     69  O   UNL A   1      41.549  35.804  37.118  1.00  0.00    -0.237 OA
ATOM     70  O   UNL A   1      39.807  36.856  35.742  1.00  0.00    -0.744 OA
ENDBRANCH  64  67
ENDBRANCH  46  60
BRANCH  47  71
ATOM     71  C   UNL A   1      41.681  26.812  27.600  1.00  0.00     0.023 A 
ATOM     72  C   UNL A   1      42.350  27.443  26.534  1.00  0.00     0.012 A 
ATOM     73  C   UNL A   1      41.432  25.427  27.533  1.00  0.00     0.148 A 
ATOM     74  C   UNL A   1      42.737  26.717  25.407  1.00  0.00     0.002 A 
ATOM     75  C   UNL A   1      41.869  24.699  26.432  1.00  0.00     0.091 A 
ATOM     76  F   UNL A   1      40.787  24.847  28.554  1.00  0.00    -0.205 F 
ATOM     77  C   UNL A   1      42.506  25.345  25.361  1.00  0.00     0.022 A 
BRANCH  75  78
ATOM     78  S   UNL A   1      41.734  22.910  26.343  1.00  0.00     0.127 S 
ATOM     79  O   UNL A   1      40.286  22.721  26.304  1.00  0.00    -0.237 OA
ATOM     80  O   UNL A   1      42.427  22.619  25.088  1.00  0.00    -0.237 OA
ATOM     81  O   UNL A   1      42.405  22.403  27.532  1.00  0.00    -0.744 OA
ENDBRANCH  75  78
ENDBRANCH  47  71
BRANCH  59  82
ATOM     82  C   UNL A   1      44.309  27.470  34.039  1.00  0.00     0.023 A 
ATOM     83  C   UNL A   1      45.584  28.061  33.947  1.00  0.00     0.012 A 
ATOM     84  C   UNL A   1      44.133  26.328  34.845  1.00  0.00     0.148 A 
ATOM     85  C   UNL A   1      46.673  27.508  34.619  1.00  0.00     0.002 A 
ATOM     86  C   UNL A   1      45.212  25.812  35.554  1.00  0.00     0.091 A 
ATOM     87  F   UNL A   1      42.916  25.769  34.906  1.00  0.00    -0.205 F 
ATOM     88  C   UNL A   1      46.484  26.393  35.432  1.00  0.00     0.022 A 
BRANCH  86  89
ATOM     89  S   UNL A   1      45.042  24.440  36.701  1.00  0.00     0.127 S 
ATOM     90  O   UNL A   1      44.536  23.382  35.828  1.00  0.00    -0.237 OA
ATOM     91  O   UNL A   1      46.418  24.246  37.159  1.00  0.00    -0.237 OA
ATOM     92  O   UNL A   1      44.120  24.892  37.735  1.00  0.00    -0.744 OA
ENDBRANCH  86  89
ENDBRANCH  59  82
ENDBRANCH  33  34
ENDBRANCH  25  28
ENDBRANCH  23  24
ENDBRANCH  22  23
ENDBRANCH  21  22
ENDBRANCH   1  21
TORSDOF 20
ENDMDL
MODEL 2
REMARK VINA RESULT:     -10.7      1.385      8.030
REMARK SMILES C[C@H](Sc1ccnc(C(=O)NCCCCCCNC(=O)c2ccc(-c3c4nc(c(-c5cccc(S(=O)(=O)[O-])c5F)c5ccc([nH]5)c(-c5cccc(S(=O)(=O)[O-])c5F)c5nc(c(-c6cccc(S(=O)(=O)[O-])c6F)c6ccc3[nH]6)C=C5)C=C4)cc2)c1)[C@@H](C)O
REMARK SMILES IDX 14 1 13 2 12 3 11 4 9 5 10 6 8 8 4 9 5 10 84 11 6 12 7 13
REMARK SMILES IDX 3 14 2 15 1 16 85 17 86 18 87 19 15 21 16 22 17 23 18 24
REMARK SMILES IDX 19 25 20 27 21 28 22 29 83 30 23 31 82 32 24 33 25 34 26 35
REMARK SMILES IDX 76 36 27 37 81 38 75 39 77 40 28 41 80 42 74 43 73 44 29 46
REMARK SMILES IDX 61 47 41 48 60 49 42 50 45 51 59 52 78 53 43 54 44 55 58 57
REMARK SMILES IDX 79 58 46 59 30 60 31 61 39 62 32 63 34 64 40 65 33 66 35 67
REMARK SMILES IDX 36 68 37 69 38 70 62 71 63 72 71 73 64 74 66 75 72 76 65 77
REMARK SMILES IDX 67 78 68 79 69 80 70 81 47 82 48 83 56 84 49 85 51 86 57 87
REMARK SMILES IDX 50 88 52 89 53 90 54 91 55 92
REMARK H PARENT 11 7 87 20 18 26 77 45 45 56
REMARK Flexibility Score: inf
ROOT
ATOM      1  C   UNL A   1      31.821  27.484  22.729  1.00  0.00     0.002 C 
ENDROOT
BRANCH   1   2
ATOM      2  C   UNL A   1      30.322  27.208  22.816  1.00  0.00     0.021 C 
BRANCH   2   3
ATOM      3  C   UNL A   1      29.874  26.363  24.003  1.00  0.00     0.116 C 
BRANCH   3   4
ATOM      4  N   UNL A   1      30.214  26.954  25.284  1.00  0.00    -0.351 N 
ATOM      5  C   UNL A   1      31.036  26.584  26.329  1.00  0.00     0.269 C 
ATOM      6  O   UNL A   1      31.028  27.339  27.307  1.00  0.00    -0.268 OA
ATOM      7  H   UNL A   1      29.755  27.810  25.443  1.00  0.00     0.163 HD
BRANCH   5   8
ATOM      8  C   UNL A   1      31.898  25.345  26.357  1.00  0.00     0.129 A 
ATOM      9  C   UNL A   1      33.842  24.034  25.740  1.00  0.00     0.011 A 
ATOM     10  C   UNL A   1      33.305  22.975  26.448  1.00  0.00     0.035 A 
ATOM     11  C   UNL A   1      33.165  25.260  25.806  1.00  0.00     0.049 A 
ATOM     12  C   UNL A   1      32.070  23.145  27.055  1.00  0.00     0.113 A 
ATOM     13  N   UNL A   1      31.345  24.278  26.989  1.00  0.00    -0.251 NA
BRANCH   9  14
ATOM     14  S   UNL A   1      35.247  24.086  24.644  1.00  0.00    -0.120 SA
BRANCH  14  15
ATOM     15  C   UNL A   1      35.987  22.423  24.329  1.00  0.00     0.077 C 
ATOM     16  C   UNL A   1      36.932  22.578  23.133  1.00  0.00     0.022 C 
BRANCH  15  17
ATOM     17  C   UNL A   1      36.596  21.564  25.454  1.00  0.00     0.124 C 
ATOM     18  C   UNL A   1      37.207  20.243  25.000  1.00  0.00     0.039 C 
BRANCH  17  19
ATOM     19  O   UNL A   1      37.633  22.295  26.130  1.00  0.00    -0.392 OA
ATOM     20  H   UNL A   1      38.084  21.710  26.758  1.00  0.00     0.210 HD
ENDBRANCH  17  19
ENDBRANCH  15  17
ENDBRANCH  14  15
ENDBRANCH   9  14
ENDBRANCH   5   8
ENDBRANCH   3   4
ENDBRANCH   2   3
ENDBRANCH   1   2
BRANCH   1  21
ATOM     21  C   UNL A   1      32.236  28.952  22.871  1.00  0.00     0.002 C 
BRANCH  21  22
ATOM     22  C   UNL A   1      33.493  29.214  23.706  1.00  0.00     0.021 C 
BRANCH  22  23
ATOM     23  C   UNL A   1      33.284  29.178  25.217  1.00  0.00     0.116 C 
BRANCH  23  24
ATOM     24  N   UNL A   1      32.741  30.430  25.721  1.00  0.00    -0.352 N 
ATOM     25  C   UNL A   1      33.131  31.167  26.806  1.00  0.00     0.251 C 
ATOM     26  H   UNL A   1      31.985  30.799  25.210  1.00  0.00     0.163 HD
ATOM     27  O   UNL A   1      32.417  32.088  27.213  1.00  0.00    -0.269 OA
BRANCH  25  28
ATOM     28  C   UNL A   1      34.401  30.859  27.495  1.00  0.00     0.039 A 
ATOM     29  C   UNL A   1      35.357  31.868  27.644  1.00  0.00     0.014 A 
ATOM     30  C   UNL A   1      34.656  29.572  27.977  1.00  0.00     0.014 A 
ATOM     31  C   UNL A   1      36.549  31.598  28.319  1.00  0.00     0.010 A 
ATOM     32  C   UNL A   1      35.812  29.325  28.713  1.00  0.00     0.010 A 
ATOM     33  C   UNL A   1      36.775  30.330  28.880  1.00  0.00    -0.014 A 
BRANCH  33  34
ATOM     34  C   UNL A   1      38.011  30.038  29.649  1.00  0.00     0.031 A 
ATOM     35  C   UNL A   1      39.048  29.100  29.091  1.00  0.00     0.074 A 
ATOM     36  C   UNL A   1      38.161  30.553  30.885  1.00  0.00     0.049 A 
ATOM     37  N   UNL A   1      40.165  28.690  29.634  1.00  0.00    -0.248 NA
ATOM     38  C   UNL A   1      38.781  28.524  27.762  1.00  0.00     0.031 C 
ATOM     39  C   UNL A   1      37.191  31.412  31.565  1.00  0.00     0.029 A 
ATOM     40  N   UNL A   1      39.174  30.407  31.799  1.00  0.00    -0.354 N 
ATOM     41  C   UNL A   1      40.713  27.782  28.735  1.00  0.00     0.074 A 
ATOM     42  C   UNL A   1      39.789  27.675  27.628  1.00  0.00     0.031 C 
ATOM     43  C   UNL A   1      37.658  31.724  32.785  1.00  0.00     0.029 A 
ATOM     44  C   UNL A   1      38.944  31.063  32.985  1.00  0.00     0.049 A 
ATOM     45  H   UNL A   1      39.989  29.883  31.622  1.00  0.00     0.167 HD
ATOM     46  C   UNL A   1      41.891  27.118  28.812  1.00  0.00     0.034 A 
ATOM     47  C   UNL A   1      39.681  31.121  34.111  1.00  0.00     0.034 A 
ATOM     48  C   UNL A   1      42.824  27.260  29.895  1.00  0.00     0.049 A 
ATOM     49  C   UNL A   1      41.004  30.406  34.155  1.00  0.00     0.074 A 
ATOM     50  C   UNL A   1      44.087  26.710  30.021  1.00  0.00     0.029 A 
ATOM     51  N   UNL A   1      42.594  27.997  31.048  1.00  0.00    -0.354 N 
ATOM     52  N   UNL A   1      41.583  29.683  33.227  1.00  0.00    -0.248 NA
ATOM     53  C   UNL A   1      41.794  30.543  35.387  1.00  0.00     0.031 C 
ATOM     54  C   UNL A   1      44.607  27.088  31.264  1.00  0.00     0.029 A 
ATOM     55  C   UNL A   1      43.681  27.903  31.898  1.00  0.00     0.049 A 
ATOM     56  H   UNL A   1      41.774  28.512  31.233  1.00  0.00     0.167 HD
ATOM     57  C   UNL A   1      42.817  29.309  33.746  1.00  0.00     0.074 A 
ATOM     58  C   UNL A   1      42.909  29.903  35.064  1.00  0.00     0.031 C 
ATOM     59  C   UNL A   1      43.781  28.537  33.188  1.00  0.00     0.034 A 
BRANCH  46  60
ATOM     60  C   UNL A   1      42.256  26.207  27.667  1.00  0.00     0.023 A 
ATOM     61  C   UNL A   1      43.028  26.704  26.596  1.00  0.00     0.012 A 
ATOM     62  C   UNL A   1      41.875  24.851  27.671  1.00  0.00     0.148 A 
ATOM     63  C   UNL A   1      43.380  25.878  25.530  1.00  0.00     0.002 A 
ATOM     64  C   UNL A   1      42.270  24.021  26.628  1.00  0.00     0.091 A 
ATOM     65  F   UNL A   1      41.122  24.400  28.685  1.00  0.00    -0.205 F 
ATOM     66  C   UNL A   1      43.011  24.537  25.550  1.00  0.00     0.022 A 
BRANCH  64  67
ATOM     67  S   UNL A   1      41.914  22.261  26.602  1.00  0.00     0.127 S 
ATOM     68  O   UNL A   1      42.595  21.840  25.378  1.00  0.00    -0.237 OA
ATOM     69  O   UNL A   1      42.545  21.800  27.840  1.00  0.00    -0.237 OA
ATOM     70  O   UNL A   1      40.463  22.147  26.582  1.00  0.00    -0.744 OA
ENDBRANCH  64  67
ENDBRANCH  46  60
BRANCH  47  71
ATOM     71  C   UNL A   1      39.216  31.946  35.261  1.00  0.00     0.023 A 
ATOM     72  C   UNL A   1      38.312  31.393  36.187  1.00  0.00     0.012 A 
ATOM     73  C   UNL A   1      39.693  33.256  35.464  1.00  0.00     0.148 A 
ATOM     74  C   UNL A   1      37.865  32.138  37.279  1.00  0.00     0.002 A 
ATOM     75  C   UNL A   1      39.288  33.973  36.583  1.00  0.00     0.091 A 
ATOM     76  F   UNL A   1      40.547  33.767  34.567  1.00  0.00    -0.205 F 
ATOM     77  C   UNL A   1      38.360  33.423  37.483  1.00  0.00     0.022 A 
BRANCH  75  78
ATOM     78  S   UNL A   1      39.971  35.582  36.999  1.00  0.00     0.127 S 
ATOM     79  O   UNL A   1      39.283  35.884  38.251  1.00  0.00    -0.237 OA
ATOM     80  O   UNL A   1      41.395  35.277  37.136  1.00  0.00    -0.237 OA
ATOM     81  O   UNL A   1      39.647  36.450  35.875  1.00  0.00    -0.744 OA
ENDBRANCH  75  78
ENDBRANCH  47  71
BRANCH  59  82
ATOM     82  C   UNL A   1      45.042  28.311  33.980  1.00  0.00     0.023 A 
ATOM     83  C   UNL A   1      46.100  29.238  33.898  1.00  0.00     0.012 A 
ATOM     84  C   UNL A   1      45.149  27.216  34.861  1.00  0.00     0.148 A 
ATOM     85  C   UNL A   1      47.256  29.062  34.657  1.00  0.00     0.002 A 
ATOM     86  C   UNL A   1      46.282  27.076  35.652  1.00  0.00     0.091 A 
ATOM     87  F   UNL A   1      44.139  26.335  34.910  1.00  0.00    -0.205 F 
ATOM     88  C   UNL A   1      47.342  27.990  35.542  1.00  0.00     0.022 A 
BRANCH  86  89
ATOM     89  S   UNL A   1      46.437  25.784  36.890  1.00  0.00     0.127 S 
ATOM     90  O   UNL A   1      45.342  26.113  37.802  1.00  0.00    -0.237 OA
ATOM     91  O   UNL A   1      46.228  24.570  36.100  1.00  0.00    -0.237 OA
ATOM     92  O   UNL A   1      47.776  25.918  37.447  1.00  0.00    -0.744 OA
ENDBRANCH  86  89
ENDBRANCH  59  82
ENDBRANCH  33  34
ENDBRANCH  25  28
ENDBRANCH  23  24
ENDBRANCH  22  23
ENDBRANCH  21  22
ENDBRANCH   1  21
TORSDOF 20
ENDMDL
MODEL 3
REMARK VINA RESULT:     -10.7      2.514      4.210
REMARK SMILES C[C@H](Sc1ccnc(C(=O)NCCCCCCNC(=O)c2ccc(-c3c4nc(c(-c5cccc(S(=O)(=O)[O-])c5F)c5ccc([nH]5)c(-c5cccc(S(=O)(=O)[O-])c5F)c5nc(c(-c6cccc(S(=O)(=O)[O-])c6F)c6ccc3[nH]6)C=C5)C=C4)cc2)c1)[C@@H](C)O
REMARK SMILES IDX 14 1 13 2 12 3 11 4 9 5 10 6 8 8 4 9 5 10 84 11 6 12 7 13
REMARK SMILES IDX 3 14 2 15 1 16 85 17 86 18 87 19 15 21 16 22 17 23 18 24
REMARK SMILES IDX 19 25 20 27 21 28 22 29 83 30 23 31 82 32 24 33 25 34 26 35
REMARK SMILES IDX 76 36 27 37 81 38 75 39 77 40 28 41 80 42 74 43 73 44 29 46
REMARK SMILES IDX 61 47 41 48 60 49 42 50 45 51 59 52 78 53 43 54 44 55 58 57
REMARK SMILES IDX 79 58 46 59 30 60 31 61 39 62 32 63 34 64 40 65 33 66 35 67
REMARK SMILES IDX 36 68 37 69 38 70 62 71 63 72 71 73 64 74 66 75 72 76 65 77
REMARK SMILES IDX 67 78 68 79 69 80 70 81 47 82 48 83 56 84 49 85 51 86 57 87
REMARK SMILES IDX 50 88 52 89 53 90 54 91 55 92
REMARK H PARENT 11 7 87 20 18 26 77 45 45 56
REMARK Flexibility Score: inf
ROOT
ATOM      1  C   UNL A   1      30.946  26.585  26.505  1.00  0.00     0.002 C 
ENDROOT
BRANCH   1   2
ATOM      2  C   UNL A   1      31.231  25.138  26.113  1.00  0.00     0.021 C 
BRANCH   2   3
ATOM      3  C   UNL A   1      32.551  24.898  25.390  1.00  0.00     0.116 C 
BRANCH   3   4
ATOM      4  N   UNL A   1      32.382  24.582  23.983  1.00  0.00    -0.351 N 
ATOM      5  C   UNL A   1      32.072  25.321  22.860  1.00  0.00     0.269 C 
ATOM      6  O   UNL A   1      31.962  24.677  21.812  1.00  0.00    -0.268 OA
ATOM      7  H   UNL A   1      32.518  23.628  23.787  1.00  0.00     0.163 HD
BRANCH   5   8
ATOM      8  C   UNL A   1      31.849  26.815  22.838  1.00  0.00     0.129 A 
ATOM      9  C   UNL A   1      30.469  28.807  22.773  1.00  0.00     0.011 A 
ATOM     10  C   UNL A   1      31.626  29.561  22.715  1.00  0.00     0.035 A 
ATOM     11  C   UNL A   1      30.611  27.423  22.952  1.00  0.00     0.049 A 
ATOM     12  C   UNL A   1      32.845  28.899  22.691  1.00  0.00     0.113 A 
ATOM     13  N   UNL A   1      32.978  27.559  22.708  1.00  0.00    -0.251 NA
BRANCH   9  14
ATOM     14  S   UNL A   1      28.768  29.298  22.560  1.00  0.00    -0.120 SA
BRANCH  14  15
ATOM     15  C   UNL A   1      28.479  31.090  22.898  1.00  0.00     0.077 C 
ATOM     16  C   UNL A   1      29.134  31.398  24.248  1.00  0.00     0.022 C 
BRANCH  15  17
ATOM     17  C   UNL A   1      28.754  32.184  21.847  1.00  0.00     0.124 C 
ATOM     18  C   UNL A   1      28.019  32.006  20.524  1.00  0.00     0.039 C 
BRANCH  17  19
ATOM     19  O   UNL A   1      28.381  33.472  22.364  1.00  0.00    -0.392 OA
ATOM     20  H   UNL A   1      27.455  33.450  22.652  1.00  0.00     0.210 HD
ENDBRANCH  17  19
ENDBRANCH  15  17
ENDBRANCH  14  15
ENDBRANCH   9  14
ENDBRANCH   5   8
ENDBRANCH   3   4
ENDBRANCH   2   3
ENDBRANCH   1   2
BRANCH   1  21
ATOM     21  C   UNL A   1      32.167  27.510  26.571  1.00  0.00     0.002 C 
BRANCH  21  22
ATOM     22  C   UNL A   1      31.883  29.005  26.401  1.00  0.00     0.021 C 
BRANCH  22  23
ATOM     23  C   UNL A   1      33.091  29.854  26.021  1.00  0.00     0.116 C 
BRANCH  23  24
ATOM     24  N   UNL A   1      32.931  31.242  26.424  1.00  0.00    -0.352 N 
ATOM     25  C   UNL A   1      33.606  31.947  27.385  1.00  0.00     0.251 C 
ATOM     26  H   UNL A   1      32.240  31.746  25.938  1.00  0.00     0.163 HD
ATOM     27  O   UNL A   1      33.188  33.052  27.743  1.00  0.00    -0.269 OA
BRANCH  25  28
ATOM     28  C   UNL A   1      34.827  31.385  27.998  1.00  0.00     0.039 A 
ATOM     29  C   UNL A   1      35.984  32.165  28.046  1.00  0.00     0.014 A 
ATOM     30  C   UNL A   1      34.833  30.083  28.508  1.00  0.00     0.014 A 
ATOM     31  C   UNL A   1      37.137  31.657  28.650  1.00  0.00     0.010 A 
ATOM     32  C   UNL A   1      35.959  29.606  29.173  1.00  0.00     0.010 A 
ATOM     33  C   UNL A   1      37.126  30.382  29.240  1.00  0.00    -0.014 A 
BRANCH  33  34
ATOM     34  C   UNL A   1      38.323  29.845  29.933  1.00  0.00     0.031 A 
ATOM     35  C   UNL A   1      38.681  30.329  31.313  1.00  0.00     0.074 A 
ATOM     36  C   UNL A   1      39.134  28.984  29.288  1.00  0.00     0.049 A 
ATOM     37  N   UNL A   1      39.710  30.011  32.056  1.00  0.00    -0.248 NA
ATOM     38  C   UNL A   1      37.783  31.321  31.926  1.00  0.00     0.031 C 
ATOM     39  C   UNL A   1      38.935  28.501  27.920  1.00  0.00     0.029 A 
ATOM     40  N   UNL A   1      40.301  28.383  29.686  1.00  0.00    -0.354 N 
ATOM     41  C   UNL A   1      39.605  30.790  33.203  1.00  0.00     0.074 A 
ATOM     42  C   UNL A   1      38.431  31.620  33.043  1.00  0.00     0.031 C 
ATOM     43  C   UNL A   1      39.940  27.672  27.596  1.00  0.00     0.029 A 
ATOM     44  C   UNL A   1      40.870  27.589  28.718  1.00  0.00     0.049 A 
ATOM     45  H   UNL A   1      40.694  28.508  30.581  1.00  0.00     0.167 HD
ATOM     46  C   UNL A   1      40.397  30.794  34.301  1.00  0.00     0.034 A 
ATOM     47  C   UNL A   1      42.015  26.879  28.729  1.00  0.00     0.034 A 
ATOM     48  C   UNL A   1      41.538  29.937  34.472  1.00  0.00     0.049 A 
ATOM     49  C   UNL A   1      42.857  26.871  29.976  1.00  0.00     0.074 A 
ATOM     50  C   UNL A   1      42.347  29.793  35.585  1.00  0.00     0.029 A 
ATOM     51  N   UNL A   1      42.041  29.085  33.500  1.00  0.00    -0.354 N 
ATOM     52  N   UNL A   1      42.651  27.488  31.115  1.00  0.00    -0.248 NA
ATOM     53  C   UNL A   1      44.069  26.040  29.955  1.00  0.00     0.031 C 
ATOM     54  C   UNL A   1      43.358  28.878  35.274  1.00  0.00     0.029 A 
ATOM     55  C   UNL A   1      43.159  28.425  33.979  1.00  0.00     0.049 A 
ATOM     56  H   UNL A   1      41.658  28.968  32.600  1.00  0.00     0.167 HD
ATOM     57  C   UNL A   1      43.685  27.093  31.956  1.00  0.00     0.074 A 
ATOM     58  C   UNL A   1      44.505  26.168  31.201  1.00  0.00     0.031 C 
ATOM     59  C   UNL A   1      43.939  27.471  33.233  1.00  0.00     0.034 A 
BRANCH  46  60
ATOM     60  C   UNL A   1      40.029  31.729  35.425  1.00  0.00     0.023 A 
ATOM     61  C   UNL A   1      40.631  33.003  35.500  1.00  0.00     0.012 A 
ATOM     62  C   UNL A   1      39.058  31.369  36.380  1.00  0.00     0.148 A 
ATOM     63  C   UNL A   1      40.303  33.885  36.529  1.00  0.00     0.002 A 
ATOM     64  C   UNL A   1      38.701  32.273  37.374  1.00  0.00     0.091 A 
ATOM     65  F   UNL A   1      38.512  30.147  36.308  1.00  0.00    -0.205 F 
ATOM     66  C   UNL A   1      39.333  33.525  37.458  1.00  0.00     0.022 A 
BRANCH  64  67
ATOM     67  S   UNL A   1      37.404  31.934  38.570  1.00  0.00     0.127 S 
ATOM     68  O   UNL A   1      38.096  32.183  39.834  1.00  0.00    -0.237 OA
ATOM     69  O   UNL A   1      36.394  32.934  38.221  1.00  0.00    -0.237 OA
ATOM     70  O   UNL A   1      36.998  30.555  38.340  1.00  0.00    -0.744 OA
ENDBRANCH  64  67
ENDBRANCH  46  60
BRANCH  47  71
ATOM     71  C   UNL A   1      42.392  26.060  27.543  1.00  0.00     0.023 A 
ATOM     72  C   UNL A   1      43.180  26.636  26.528  1.00  0.00     0.012 A 
ATOM     73  C   UNL A   1      42.009  24.709  27.435  1.00  0.00     0.148 A 
ATOM     74  C   UNL A   1      43.555  25.891  25.410  1.00  0.00     0.002 A 
ATOM     75  C   UNL A   1      42.433  23.956  26.345  1.00  0.00     0.091 A 
ATOM     76  F   UNL A   1      41.253  24.183  28.407  1.00  0.00    -0.205 F 
ATOM     77  C   UNL A   1      43.192  24.550  25.324  1.00  0.00     0.022 A 
BRANCH  75  78
ATOM     78  S   UNL A   1      42.125  22.192  26.212  1.00  0.00     0.127 S 
ATOM     79  O   UNL A   1      40.671  22.153  26.068  1.00  0.00    -0.237 OA
ATOM     80  O   UNL A   1      42.874  21.846  25.005  1.00  0.00    -0.237 OA
ATOM     81  O   UNL A   1      42.653  21.605  27.437  1.00  0.00    -0.744 OA
ENDBRANCH  75  78
ENDBRANCH  47  71
BRANCH  59  82
ATOM     82  C   UNL A   1      45.134  26.860  33.918  1.00  0.00     0.023 A 
ATOM     83  C   UNL A   1      46.371  27.535  33.912  1.00  0.00     0.012 A 
ATOM     84  C   UNL A   1      45.011  25.651  34.631  1.00  0.00     0.148 A 
ATOM     85  C   UNL A   1      47.473  27.002  34.577  1.00  0.00     0.002 A 
ATOM     86  C   UNL A   1      46.100  25.151  35.334  1.00  0.00     0.091 A 
ATOM     87  F   UNL A   1      43.831  25.014  34.610  1.00  0.00    -0.205 F 
ATOM     88  C   UNL A   1      47.335  25.818  35.298  1.00  0.00     0.022 A 
BRANCH  86  89
ATOM     89  S   UNL A   1      45.987  23.688  36.370  1.00  0.00     0.127 S 
ATOM     90  O   UNL A   1      47.339  23.608  36.921  1.00  0.00    -0.237 OA
ATOM     91  O   UNL A   1      44.957  24.071  37.337  1.00  0.00    -0.237 OA
ATOM     92  O   UNL A   1      45.607  22.596  35.485  1.00  0.00    -0.744 OA
ENDBRANCH  86  89
ENDBRANCH  59  82
ENDBRANCH  33  34
ENDBRANCH  25  28
ENDBRANCH  23  24
ENDBRANCH  22  23
ENDBRANCH  21  22
ENDBRANCH   1  21
TORSDOF 20
ENDMDL
