MODEL 1
REMARK VINA RESULT:     -10.8      0.000      0.000
REMARK SMILES CC[NH2+][C@]1(C(=O)NCCCCCCNC(=O)c2ccc(-c3c4nc(c(-c5cccc(S(=O)(=O)[O-])c5F)c5ccc([nH]5)c(-c5cccc(S(=O)(=O)[O-])c5F)c5nc(c(-c6cccc(S(=O)(=O)[O-])c6F)c6ccc3[nH]6)C=C5)C=C4)cc2)CCC[C@@H]1CCSc1ccc(C)cc1
REMARK SMILES IDX 10 1 9 2 8 3 7 4 5 5 6 6 4 8 80 9 83 10 81 11 82 12 3 13
REMARK SMILES IDX 2 16 1 17 84 18 85 19 86 20 87 21 88 22 93 23 89 24 92 25
REMARK SMILES IDX 90 26 91 27 11 28 12 29 13 30 14 31 15 32 16 34 17 35 18 36
REMARK SMILES IDX 79 37 19 38 78 39 20 40 21 41 22 42 72 43 23 44 77 45 71 46
REMARK SMILES IDX 73 47 24 48 76 49 70 50 69 51 25 53 57 54 37 55 56 56 38 57
REMARK SMILES IDX 41 58 55 59 74 60 39 61 40 62 54 64 75 65 42 66 26 67 27 68
REMARK SMILES IDX 35 69 28 70 30 71 36 72 29 73 31 74 32 75 33 76 34 77 58 78
REMARK SMILES IDX 59 79 67 80 60 81 62 82 68 83 61 84 63 85 64 86 65 87 66 88
REMARK SMILES IDX 43 89 44 90 52 91 45 92 47 93 53 94 46 95 48 96 49 97 50 98
REMARK SMILES IDX 51 99
REMARK H PARENT 7 7 3 14 3 15 14 33 73 52 41 63
REMARK Flexibility Score: inf
ROOT
ATOM      1  C   UNL A   1      32.579  29.668  25.806  1.00  0.00     0.002 C 
ENDROOT
BRANCH   1   2
ATOM      2  C   UNL A   1      32.346  28.157  25.792  1.00  0.00     0.021 C 
BRANCH   2   3
ATOM      3  C   UNL A   1      33.613  27.369  25.516  1.00  0.00     0.116 C 
BRANCH   3   4
ATOM      4  N   UNL A   1      33.679  26.939  24.136  1.00  0.00    -0.351 N 
ATOM      5  C   UNL A   1      33.796  25.701  23.574  1.00  0.00     0.281 C 
ATOM      6  O   UNL A   1      33.871  25.675  22.340  1.00  0.00    -0.268 OA
ATOM      7  H   UNL A   1      33.631  27.673  23.482  1.00  0.00     0.163 HD
BRANCH   5   8
ATOM      8  C   UNL A   1      33.796  24.400  24.436  1.00  0.00     0.178 C 
ATOM      9  C   UNL A   1      35.051  24.422  25.365  1.00  0.00     0.079 C 
ATOM     10  C   UNL A   1      32.705  24.340  25.581  1.00  0.00     0.061 C 
ATOM     11  C   UNL A   1      34.742  23.450  26.504  1.00  0.00     0.008 C 
ATOM     12  C   UNL A   1      33.255  23.151  26.372  1.00  0.00     0.011 C 
BRANCH   8  13
ATOM     13  N   UNL A   1      33.743  23.192  23.547  1.00  0.00    -0.334 N 
ATOM     14  H   UNL A   1      34.583  23.208  22.968  1.00  0.00     0.347 HD
ATOM     15  H   UNL A   1      33.660  22.408  24.193  1.00  0.00     0.347 HD
BRANCH  13  16
ATOM     16  C   UNL A   1      32.600  23.042  22.648  1.00  0.00     0.257 C 
ATOM     17  C   UNL A   1      32.138  21.593  22.667  1.00  0.00     0.071 C 
ENDBRANCH  13  16
ENDBRANCH   8  13
BRANCH  10  18
ATOM     18  C   UNL A   1      31.195  24.278  25.280  1.00  0.00     0.022 C 
BRANCH  18  19
ATOM     19  C   UNL A   1      30.422  25.592  25.028  1.00  0.00     0.075 C 
BRANCH  19  20
ATOM     20  S   UNL A   1      29.278  25.697  23.591  1.00  0.00    -0.126 SA
BRANCH  20  21
ATOM     21  C   UNL A   1      29.276  27.442  23.254  1.00  0.00     0.007 A 
ATOM     22  C   UNL A   1      28.058  28.117  23.340  1.00  0.00     0.015 A 
ATOM     23  C   UNL A   1      30.416  28.131  22.821  1.00  0.00     0.015 A 
ATOM     24  C   UNL A   1      27.943  29.426  22.876  1.00  0.00     0.004 A 
ATOM     25  C   UNL A   1      30.300  29.448  22.350  1.00  0.00     0.004 A 
ATOM     26  C   UNL A   1      29.055  30.091  22.345  1.00  0.00    -0.051 A 
ATOM     27  C   UNL A   1      28.866  31.415  21.665  1.00  0.00     0.044 C 
ENDBRANCH  20  21
ENDBRANCH  19  20
ENDBRANCH  18  19
ENDBRANCH  10  18
ENDBRANCH   5   8
ENDBRANCH   3   4
ENDBRANCH   2   3
ENDBRANCH   1   2
BRANCH   1  28
ATOM     28  C   UNL A   1      31.766  30.430  26.861  1.00  0.00     0.002 C 
BRANCH  28  29
ATOM     29  C   UNL A   1      31.734  31.949  26.676  1.00  0.00     0.021 C 
BRANCH  29  30
ATOM     30  C   UNL A   1      32.968  32.662  27.212  1.00  0.00     0.116 C 
BRANCH  30  31
ATOM     31  N   UNL A   1      32.660  34.024  27.617  1.00  0.00    -0.352 N 
ATOM     32  C   UNL A   1      33.130  34.723  28.700  1.00  0.00     0.251 C 
ATOM     33  H   UNL A   1      32.032  34.510  27.036  1.00  0.00     0.163 HD
ATOM     34  O   UNL A   1      32.599  35.771  29.038  1.00  0.00    -0.269 OA
BRANCH  32  35
ATOM     35  C   UNL A   1      34.279  34.182  29.452  1.00  0.00     0.039 A 
ATOM     36  C   UNL A   1      34.046  33.312  30.518  1.00  0.00     0.014 A 
ATOM     37  C   UNL A   1      35.584  34.531  29.091  1.00  0.00     0.014 A 
ATOM     38  C   UNL A   1      35.129  32.760  31.201  1.00  0.00     0.010 A 
ATOM     39  C   UNL A   1      36.659  33.916  29.718  1.00  0.00     0.010 A 
ATOM     40  C   UNL A   1      36.443  33.041  30.792  1.00  0.00    -0.014 A 
BRANCH  40  41
ATOM     41  C   UNL A   1      37.613  32.451  31.489  1.00  0.00     0.031 A 
ATOM     42  C   UNL A   1      38.372  31.322  30.844  1.00  0.00     0.074 A 
ATOM     43  C   UNL A   1      37.934  32.868  32.728  1.00  0.00     0.049 A 
ATOM     44  N   UNL A   1      39.361  30.616  31.323  1.00  0.00    -0.248 NA
ATOM     45  C   UNL A   1      37.943  30.913  29.495  1.00  0.00     0.031 C 
ATOM     46  C   UNL A   1      37.230  33.908  33.483  1.00  0.00     0.029 A 
ATOM     47  N   UNL A   1      38.918  32.447  33.586  1.00  0.00    -0.354 N 
ATOM     48  C   UNL A   1      39.645  29.658  30.357  1.00  0.00     0.074 A 
ATOM     49  C   UNL A   1      38.701  29.848  29.279  1.00  0.00     0.031 C 
ATOM     50  C   UNL A   1      37.805  34.043  34.689  1.00  0.00     0.029 A 
ATOM     51  C   UNL A   1      38.891  33.076  34.809  1.00  0.00     0.049 A 
ATOM     52  H   UNL A   1      39.583  31.759  33.349  1.00  0.00     0.167 HD
ATOM     53  C   UNL A   1      40.621  28.720  30.356  1.00  0.00     0.034 A 
ATOM     54  C   UNL A   1      39.646  32.883  35.909  1.00  0.00     0.034 A 
ATOM     55  C   UNL A   1      41.582  28.562  31.413  1.00  0.00     0.049 A 
ATOM     56  C   UNL A   1      40.742  31.852  35.868  1.00  0.00     0.074 A 
ATOM     57  C   UNL A   1      42.661  27.699  31.470  1.00  0.00     0.029 A 
ATOM     58  N   UNL A   1      41.576  29.278  32.599  1.00  0.00    -0.354 N 
ATOM     59  N   UNL A   1      41.088  31.053  34.888  1.00  0.00    -0.248 NA
ATOM     60  C   UNL A   1      41.578  31.721  37.070  1.00  0.00     0.031 C 
ATOM     61  C   UNL A   1      43.288  27.869  32.708  1.00  0.00     0.029 A 
ATOM     62  C   UNL A   1      42.627  28.870  33.402  1.00  0.00     0.049 A 
ATOM     63  H   UNL A   1      40.921  29.974  32.836  1.00  0.00     0.167 HD
ATOM     64  C   UNL A   1      42.207  30.360  35.336  1.00  0.00     0.074 A 
ATOM     65  C   UNL A   1      42.489  30.842  36.672  1.00  0.00     0.031 C 
ATOM     66  C   UNL A   1      42.931  29.405  34.703  1.00  0.00     0.034 A 
BRANCH  53  67
ATOM     67  C   UNL A   1      40.726  27.814  29.157  1.00  0.00     0.023 A 
ATOM     68  C   UNL A   1      39.891  26.682  29.059  1.00  0.00     0.012 A 
ATOM     69  C   UNL A   1      41.602  28.121  28.098  1.00  0.00     0.148 A 
ATOM     70  C   UNL A   1      39.950  25.851  27.941  1.00  0.00     0.002 A 
ATOM     71  C   UNL A   1      41.619  27.316  26.965  1.00  0.00     0.091 A 
ATOM     72  F   UNL A   1      42.402  29.190  28.218  1.00  0.00    -0.205 F 
ATOM     73  C   UNL A   1      40.804  26.173  26.890  1.00  0.00     0.022 A 
BRANCH  71  74
ATOM     74  S   UNL A   1      42.620  27.692  25.522  1.00  0.00     0.127 S 
ATOM     75  O   UNL A   1      42.360  26.529  24.673  1.00  0.00    -0.237 OA
ATOM     76  O   UNL A   1      42.019  28.939  25.049  1.00  0.00    -0.237 OA
ATOM     77  O   UNL A   1      43.989  27.819  26.002  1.00  0.00    -0.744 OA
ENDBRANCH  71  74
ENDBRANCH  53  67
BRANCH  54  78
ATOM     78  C   UNL A   1      39.426  33.715  37.125  1.00  0.00     0.023 A 
ATOM     79  C   UNL A   1      39.932  35.029  37.170  1.00  0.00     0.012 A 
ATOM     80  C   UNL A   1      38.713  33.216  38.233  1.00  0.00     0.148 A 
ATOM     81  C   UNL A   1      39.770  35.815  38.312  1.00  0.00     0.002 A 
ATOM     82  C   UNL A   1      38.506  34.025  39.344  1.00  0.00     0.091 A 
ATOM     83  F   UNL A   1      38.246  31.961  38.175  1.00  0.00    -0.205 F 
ATOM     84  C   UNL A   1      39.051  35.317  39.394  1.00  0.00     0.022 A 
BRANCH  82  85
ATOM     85  S   UNL A   1      37.484  33.514  40.730  1.00  0.00     0.127 S 
ATOM     86  O   UNL A   1      38.301  32.464  41.334  1.00  0.00    -0.237 OA
ATOM     87  O   UNL A   1      37.392  34.750  41.509  1.00  0.00    -0.237 OA
ATOM     88  O   UNL A   1      36.222  33.078  40.148  1.00  0.00    -0.744 OA
ENDBRANCH  82  85
ENDBRANCH  54  78
BRANCH  66  89
ATOM     89  C   UNL A   1      44.144  28.859  35.407  1.00  0.00     0.023 A 
ATOM     90  C   UNL A   1      45.400  29.475  35.241  1.00  0.00     0.012 A 
ATOM     91  C   UNL A   1      44.013  27.783  36.308  1.00  0.00     0.148 A 
ATOM     92  C   UNL A   1      46.513  29.010  35.940  1.00  0.00     0.002 A 
ATOM     93  C   UNL A   1      45.114  27.360  37.042  1.00  0.00     0.091 A 
ATOM     94  F   UNL A   1      42.812  27.200  36.438  1.00  0.00    -0.205 F 
ATOM     95  C   UNL A   1      46.367  27.963  36.849  1.00  0.00     0.022 A 
BRANCH  93  96
ATOM     96  S   UNL A   1      44.998  26.092  38.309  1.00  0.00     0.127 S 
ATOM     97  O   UNL A   1      43.993  26.661  39.206  1.00  0.00    -0.237 OA
ATOM     98  O   UNL A   1      44.545  24.931  37.542  1.00  0.00    -0.237 OA
ATOM     99  O   UNL A   1      46.334  25.962  38.873  1.00  0.00    -0.744 OA
ENDBRANCH  93  96
ENDBRANCH  66  89
ENDBRANCH  40  41
ENDBRANCH  32  35
ENDBRANCH  30  31
ENDBRANCH  29  30
ENDBRANCH  28  29
ENDBRANCH   1  28
TORSDOF 22
ENDMDL
MODEL 2
REMARK VINA RESULT:     -10.6      1.960      2.357
REMARK SMILES CC[NH2+][C@]1(C(=O)NCCCCCCNC(=O)c2ccc(-c3c4nc(c(-c5cccc(S(=O)(=O)[O-])c5F)c5ccc([nH]5)c(-c5cccc(S(=O)(=O)[O-])c5F)c5nc(c(-c6cccc(S(=O)(=O)[O-])c6F)c6ccc3[nH]6)C=C5)C=C4)cc2)CCC[C@@H]1CCSc1ccc(C)cc1
REMARK SMILES IDX 10 1 9 2 8 3 7 4 5 5 6 6 4 8 80 9 83 10 81 11 82 12 3 13
REMARK SMILES IDX 2 16 1 17 84 18 85 19 86 20 87 21 88 22 93 23 89 24 92 25
REMARK SMILES IDX 90 26 91 27 11 28 12 29 13 30 14 31 15 32 16 34 17 35 18 36
REMARK SMILES IDX 79 37 19 38 78 39 20 40 21 41 22 42 72 43 23 44 77 45 71 46
REMARK SMILES IDX 73 47 24 48 76 49 70 50 69 51 25 53 57 54 37 55 56 56 38 57
REMARK SMILES IDX 41 58 55 59 74 60 39 61 40 62 54 64 75 65 42 66 26 67 27 68
REMARK SMILES IDX 35 69 28 70 30 71 36 72 29 73 31 74 32 75 33 76 34 77 58 78
REMARK SMILES IDX 59 79 67 80 60 81 62 82 68 83 61 84 63 85 64 86 65 87 66 88
REMARK SMILES IDX 43 89 44 90 52 91 45 92 47 93 53 94 46 95 48 96 49 97 50 98
REMARK SMILES IDX 51 99
REMARK H PARENT 7 7 3 14 3 15 14 33 73 52 41 63
REMARK Flexibility Score: inf
ROOT
ATOM      1  C   UNL A   1      31.765  28.958  25.828  1.00  0.00     0.002 C 
ENDROOT
BRANCH   1   2
ATOM      2  C   UNL A   1      31.619  27.498  26.260  1.00  0.00     0.021 C 
BRANCH   2   3
ATOM      3  C   UNL A   1      32.956  26.805  26.447  1.00  0.00     0.116 C 
BRANCH   3   4
ATOM      4  N   UNL A   1      33.594  26.531  25.177  1.00  0.00    -0.351 N 
ATOM      5  C   UNL A   1      33.761  25.373  24.476  1.00  0.00     0.281 C 
ATOM      6  O   UNL A   1      34.402  25.470  23.423  1.00  0.00    -0.268 OA
ATOM      7  H   UNL A   1      33.976  27.325  24.739  1.00  0.00     0.163 HD
BRANCH   5   8
ATOM      8  C   UNL A   1      33.148  24.020  24.956  1.00  0.00     0.178 C 
ATOM      9  C   UNL A   1      33.370  23.895  26.497  1.00  0.00     0.079 C 
ATOM     10  C   UNL A   1      31.567  23.959  24.980  1.00  0.00     0.061 C 
ATOM     11  C   UNL A   1      32.344  22.873  26.983  1.00  0.00     0.008 C 
ATOM     12  C   UNL A   1      31.391  22.685  25.811  1.00  0.00     0.011 C 
BRANCH   8  13
ATOM     13  N   UNL A   1      33.743  22.881  24.181  1.00  0.00    -0.334 N 
ATOM     14  H   UNL A   1      33.032  22.152  24.125  1.00  0.00     0.347 HD
ATOM     15  H   UNL A   1      34.024  23.299  23.296  1.00  0.00     0.347 HD
BRANCH  13  16
ATOM     16  C   UNL A   1      34.963  22.259  24.691  1.00  0.00     0.257 C 
ATOM     17  C   UNL A   1      36.110  22.554  23.736  1.00  0.00     0.071 C 
ENDBRANCH  13  16
ENDBRANCH   8  13
BRANCH  10  18
ATOM     18  C   UNL A   1      30.719  24.019  23.695  1.00  0.00     0.022 C 
BRANCH  18  19
ATOM     19  C   UNL A   1      30.020  25.343  23.315  1.00  0.00     0.075 C 
BRANCH  19  20
ATOM     20  S   UNL A   1      31.026  26.724  22.634  1.00  0.00    -0.126 SA
BRANCH  20  21
ATOM     21  C   UNL A   1      29.869  28.073  22.674  1.00  0.00     0.007 A 
ATOM     22  C   UNL A   1      30.339  29.339  22.325  1.00  0.00     0.015 A 
ATOM     23  C   UNL A   1      28.552  27.927  23.125  1.00  0.00     0.015 A 
ATOM     24  C   UNL A   1      29.553  30.469  22.547  1.00  0.00     0.004 A 
ATOM     25  C   UNL A   1      27.761  29.064  23.352  1.00  0.00     0.004 A 
ATOM     26  C   UNL A   1      28.270  30.344  23.094  1.00  0.00    -0.051 A 
ATOM     27  C   UNL A   1      27.526  31.577  23.516  1.00  0.00     0.044 C 
ENDBRANCH  20  21
ENDBRANCH  19  20
ENDBRANCH  18  19
ENDBRANCH  10  18
ENDBRANCH   5   8
ENDBRANCH   3   4
ENDBRANCH   2   3
ENDBRANCH   1   2
BRANCH   1  28
ATOM     28  C   UNL A   1      31.559  29.980  26.954  1.00  0.00     0.002 C 
BRANCH  28  29
ATOM     29  C   UNL A   1      31.552  31.442  26.502  1.00  0.00     0.021 C 
BRANCH  29  30
ATOM     30  C   UNL A   1      32.827  32.201  26.845  1.00  0.00     0.116 C 
BRANCH  30  31
ATOM     31  N   UNL A   1      32.539  33.565  27.256  1.00  0.00    -0.352 N 
ATOM     32  C   UNL A   1      33.048  34.266  28.320  1.00  0.00     0.251 C 
ATOM     33  H   UNL A   1      31.893  34.052  26.695  1.00  0.00     0.163 HD
ATOM     34  O   UNL A   1      32.533  35.318  28.672  1.00  0.00    -0.269 OA
BRANCH  32  35
ATOM     35  C   UNL A   1      34.219  33.722  29.034  1.00  0.00     0.039 A 
ATOM     36  C   UNL A   1      34.031  32.717  29.984  1.00  0.00     0.014 A 
ATOM     37  C   UNL A   1      35.501  34.204  28.753  1.00  0.00     0.014 A 
ATOM     38  C   UNL A   1      35.138  32.166  30.627  1.00  0.00     0.010 A 
ATOM     39  C   UNL A   1      36.607  33.597  29.333  1.00  0.00     0.010 A 
ATOM     40  C   UNL A   1      36.436  32.586  30.290  1.00  0.00    -0.014 A 
BRANCH  40  41
ATOM     41  C   UNL A   1      37.633  32.002  30.944  1.00  0.00     0.031 A 
ATOM     42  C   UNL A   1      38.467  30.991  30.204  1.00  0.00     0.074 A 
ATOM     43  C   UNL A   1      37.914  32.312  32.224  1.00  0.00     0.049 A 
ATOM     44  N   UNL A   1      39.494  30.303  30.627  1.00  0.00    -0.248 NA
ATOM     45  C   UNL A   1      38.078  30.693  28.814  1.00  0.00     0.031 C 
ATOM     46  C   UNL A   1      37.139  33.227  33.065  1.00  0.00     0.029 A 
ATOM     47  N   UNL A   1      38.914  31.868  33.052  1.00  0.00    -0.354 N 
ATOM     48  C   UNL A   1      39.846  29.464  29.576  1.00  0.00     0.074 A 
ATOM     49  C   UNL A   1      38.904  29.703  28.507  1.00  0.00     0.031 C 
ATOM     50  C   UNL A   1      37.692  33.276  34.288  1.00  0.00     0.029 A 
ATOM     51  C   UNL A   1      38.835  32.369  34.330  1.00  0.00     0.049 A 
ATOM     52  H   UNL A   1      39.622  31.249  32.759  1.00  0.00     0.167 HD
ATOM     53  C   UNL A   1      40.879  28.592  29.499  1.00  0.00     0.034 A 
ATOM     54  C   UNL A   1      39.589  32.115  35.418  1.00  0.00     0.034 A 
ATOM     55  C   UNL A   1      41.836  28.389  30.550  1.00  0.00     0.049 A 
ATOM     56  C   UNL A   1      40.747  31.161  35.294  1.00  0.00     0.074 A 
ATOM     57  C   UNL A   1      42.967  27.592  30.540  1.00  0.00     0.029 A 
ATOM     58  N   UNL A   1      41.773  28.981  31.802  1.00  0.00    -0.354 N 
ATOM     59  N   UNL A   1      41.152  30.486  34.245  1.00  0.00    -0.248 NA
ATOM     60  C   UNL A   1      41.577  30.962  36.491  1.00  0.00     0.031 C 
ATOM     61  C   UNL A   1      43.569  27.675  31.799  1.00  0.00     0.029 A 
ATOM     62  C   UNL A   1      42.839  28.559  32.577  1.00  0.00     0.049 A 
ATOM     63  H   UNL A   1      41.074  29.608  32.095  1.00  0.00     0.167 HD
ATOM     64  C   UNL A   1      42.307  29.821  34.642  1.00  0.00     0.074 A 
ATOM     65  C   UNL A   1      42.544  30.184  36.024  1.00  0.00     0.031 C 
ATOM     66  C   UNL A   1      43.096  28.980  33.930  1.00  0.00     0.034 A 
BRANCH  53  67
ATOM     67  C   UNL A   1      41.053  27.818  28.218  1.00  0.00     0.023 A 
ATOM     68  C   UNL A   1      41.647  28.439  27.100  1.00  0.00     0.012 A 
ATOM     69  C   UNL A   1      40.691  26.459  28.143  1.00  0.00     0.148 A 
ATOM     70  C   UNL A   1      41.848  27.729  25.917  1.00  0.00     0.002 A 
ATOM     71  C   UNL A   1      40.940  25.745  26.977  1.00  0.00     0.091 A 
ATOM     72  F   UNL A   1      40.110  25.892  29.210  1.00  0.00    -0.205 F 
ATOM     73  C   UNL A   1      41.505  26.381  25.859  1.00  0.00     0.022 A 
BRANCH  71  74
ATOM     74  S   UNL A   1      40.615  23.984  26.829  1.00  0.00     0.127 S 
ATOM     75  O   UNL A   1      41.533  23.605  25.755  1.00  0.00    -0.237 OA
ATOM     76  O   UNL A   1      40.990  23.491  28.154  1.00  0.00    -0.237 OA
ATOM     77  O   UNL A   1      39.199  23.861  26.511  1.00  0.00    -0.744 OA
ENDBRANCH  71  74
ENDBRANCH  53  67
BRANCH  54  78
ATOM     78  C   UNL A   1      39.304  32.806  36.707  1.00  0.00     0.023 A 
ATOM     79  C   UNL A   1      39.954  34.020  37.002  1.00  0.00     0.012 A 
ATOM     80  C   UNL A   1      38.390  32.274  37.637  1.00  0.00     0.148 A 
ATOM     81  C   UNL A   1      39.733  34.669  38.219  1.00  0.00     0.002 A 
ATOM     82  C   UNL A   1      38.131  32.954  38.820  1.00  0.00     0.091 A 
ATOM     83  F   UNL A   1      37.787  31.113  37.341  1.00  0.00    -0.205 F 
ATOM     84  C   UNL A   1      38.816  34.141  39.122  1.00  0.00     0.022 A 
BRANCH  82  85
ATOM     85  S   UNL A   1      36.872  32.417  39.984  1.00  0.00     0.127 S 
ATOM     86  O   UNL A   1      37.391  31.119  40.408  1.00  0.00    -0.237 OA
ATOM     87  O   UNL A   1      36.933  33.468  41.001  1.00  0.00    -0.237 OA
ATOM     88  O   UNL A   1      35.627  32.385  39.230  1.00  0.00    -0.744 OA
ENDBRANCH  82  85
ENDBRANCH  54  78
BRANCH  66  89
ATOM     89  C   UNL A   1      44.333  28.441  34.596  1.00  0.00     0.023 A 
ATOM     90  C   UNL A   1      44.288  27.218  35.295  1.00  0.00     0.012 A 
ATOM     91  C   UNL A   1      45.565  29.110  34.448  1.00  0.00     0.148 A 
ATOM     92  C   UNL A   1      45.446  26.685  35.860  1.00  0.00     0.002 A 
ATOM     93  C   UNL A   1      46.723  28.546  34.967  1.00  0.00     0.091 A 
ATOM     94  F   UNL A   1      45.581  30.281  33.794  1.00  0.00    -0.205 F 
ATOM     95  C   UNL A   1      46.663  27.341  35.684  1.00  0.00     0.022 A 
BRANCH  93  96
ATOM     96  S   UNL A   1      48.347  29.264  34.700  1.00  0.00     0.127 S 
ATOM     97  O   UNL A   1      48.124  30.656  35.090  1.00  0.00    -0.237 OA
ATOM     98  O   UNL A   1      49.179  28.497  35.627  1.00  0.00    -0.237 OA
ATOM     99  O   UNL A   1      48.655  29.055  33.293  1.00  0.00    -0.744 OA
ENDBRANCH  93  96
ENDBRANCH  66  89
ENDBRANCH  40  41
ENDBRANCH  32  35
ENDBRANCH  30  31
ENDBRANCH  29  30
ENDBRANCH  28  29
ENDBRANCH   1  28
TORSDOF 22
ENDMDL
MODEL 3
REMARK VINA RESULT:     -10.4      1.599      7.584
REMARK SMILES CC[NH2+][C@]1(C(=O)NCCCCCCNC(=O)c2ccc(-c3c4nc(c(-c5cccc(S(=O)(=O)[O-])c5F)c5ccc([nH]5)c(-c5cccc(S(=O)(=O)[O-])c5F)c5nc(c(-c6cccc(S(=O)(=O)[O-])c6F)c6ccc3[nH]6)C=C5)C=C4)cc2)CCC[C@@H]1CCSc1ccc(C)cc1
REMARK SMILES IDX 10 1 9 2 8 3 7 4 5 5 6 6 4 8 80 9 83 10 81 11 82 12 3 13
REMARK SMILES IDX 2 16 1 17 84 18 85 19 86 20 87 21 88 22 93 23 89 24 92 25
REMARK SMILES IDX 90 26 91 27 11 28 12 29 13 30 14 31 15 32 16 34 17 35 18 36
REMARK SMILES IDX 79 37 19 38 78 39 20 40 21 41 22 42 72 43 23 44 77 45 71 46
REMARK SMILES IDX 73 47 24 48 76 49 70 50 69 51 25 53 57 54 37 55 56 56 38 57
REMARK SMILES IDX 41 58 55 59 74 60 39 61 40 62 54 64 75 65 42 66 26 67 27 68
REMARK SMILES IDX 35 69 28 70 30 71 36 72 29 73 31 74 32 75 33 76 34 77 58 78
REMARK SMILES IDX 59 79 67 80 60 81 62 82 68 83 61 84 63 85 64 86 65 87 66 88
REMARK SMILES IDX 43 89 44 90 52 91 45 92 47 93 53 94 46 95 48 96 49 97 50 98
REMARK SMILES IDX 51 99
REMARK H PARENT 7 7 3 14 3 15 14 33 73 52 41 63
REMARK Flexibility Score: inf
ROOT
ATOM      1  C   UNL A   1      31.905  29.743  26.757  1.00  0.00     0.002 C 
ENDROOT
BRANCH   1   2
ATOM      2  C   UNL A   1      32.225  28.357  27.319  1.00  0.00     0.021 C 
BRANCH   2   3
ATOM      3  C   UNL A   1      33.432  27.719  26.657  1.00  0.00     0.116 C 
BRANCH   3   4
ATOM      4  N   UNL A   1      33.268  27.636  25.221  1.00  0.00    -0.351 N 
ATOM      5  C   UNL A   1      33.142  26.568  24.381  1.00  0.00     0.281 C 
ATOM      6  O   UNL A   1      33.060  26.838  23.177  1.00  0.00    -0.268 OA
ATOM      7  H   UNL A   1      33.241  28.509  24.769  1.00  0.00     0.163 HD
BRANCH   5   8
ATOM      8  C   UNL A   1      33.069  25.103  24.912  1.00  0.00     0.178 C 
ATOM      9  C   UNL A   1      34.434  24.752  25.586  1.00  0.00     0.079 C 
ATOM     10  C   UNL A   1      32.159  24.885  26.188  1.00  0.00     0.061 C 
ATOM     11  C   UNL A   1      34.149  23.570  26.511  1.00  0.00     0.008 C 
ATOM     12  C   UNL A   1      32.630  23.483  26.581  1.00  0.00     0.011 C 
BRANCH   8  13
ATOM     13  N   UNL A   1      32.706  24.167  23.797  1.00  0.00    -0.334 N 
ATOM     14  H   UNL A   1      32.188  23.392  24.210  1.00  0.00     0.347 HD
ATOM     15  H   UNL A   1      32.189  24.750  23.139  1.00  0.00     0.347 HD
BRANCH  13  16
ATOM     16  C   UNL A   1      33.785  23.590  22.997  1.00  0.00     0.257 C 
ATOM     17  C   UNL A   1      33.304  23.410  21.566  1.00  0.00     0.071 C 
ENDBRANCH  13  16
ENDBRANCH   8  13
BRANCH  10  18
ATOM     18  C   UNL A   1      30.629  25.070  26.152  1.00  0.00     0.022 C 
BRANCH  18  19
ATOM     19  C   UNL A   1      30.039  26.343  25.504  1.00  0.00     0.075 C 
BRANCH  19  20
ATOM     20  S   UNL A   1      29.173  26.206  23.887  1.00  0.00    -0.126 SA
BRANCH  20  21
ATOM     21  C   UNL A   1      28.952  27.913  23.447  1.00  0.00     0.007 A 
ATOM     22  C   UNL A   1      29.997  28.795  23.726  1.00  0.00     0.015 A 
ATOM     23  C   UNL A   1      27.752  28.411  22.925  1.00  0.00     0.015 A 
ATOM     24  C   UNL A   1      29.807  30.171  23.615  1.00  0.00     0.004 A 
ATOM     25  C   UNL A   1      27.559  29.798  22.816  1.00  0.00     0.004 A 
ATOM     26  C   UNL A   1      28.576  30.686  23.191  1.00  0.00    -0.051 A 
ATOM     27  C   UNL A   1      28.326  32.163  23.276  1.00  0.00     0.044 C 
ENDBRANCH  20  21
ENDBRANCH  19  20
ENDBRANCH  18  19
ENDBRANCH  10  18
ENDBRANCH   5   8
ENDBRANCH   3   4
ENDBRANCH   2   3
ENDBRANCH   1   2
BRANCH   1  28
ATOM     28  C   UNL A   1      32.866  30.850  27.207  1.00  0.00     0.002 C 
BRANCH  28  29
ATOM     29  C   UNL A   1      32.228  32.233  27.358  1.00  0.00     0.021 C 
BRANCH  29  30
ATOM     30  C   UNL A   1      33.208  33.388  27.196  1.00  0.00     0.116 C 
BRANCH  30  31
ATOM     31  N   UNL A   1      32.841  34.518  28.033  1.00  0.00    -0.352 N 
ATOM     32  C   UNL A   1      33.261  34.814  29.305  1.00  0.00     0.251 C 
ATOM     33  H   UNL A   1      32.207  35.156  27.633  1.00  0.00     0.163 HD
ATOM     34  O   UNL A   1      32.684  35.668  29.964  1.00  0.00    -0.269 OA
BRANCH  32  35
ATOM     35  C   UNL A   1      34.412  34.080  29.863  1.00  0.00     0.039 A 
ATOM     36  C   UNL A   1      34.184  33.052  30.780  1.00  0.00     0.014 A 
ATOM     37  C   UNL A   1      35.713  34.404  29.468  1.00  0.00     0.014 A 
ATOM     38  C   UNL A   1      35.265  32.323  31.274  1.00  0.00     0.010 A 
ATOM     39  C   UNL A   1      36.778  33.624  29.897  1.00  0.00     0.010 A 
ATOM     40  C   UNL A   1      36.567  32.588  30.820  1.00  0.00    -0.014 A 
BRANCH  40  41
ATOM     41  C   UNL A   1      37.732  31.814  31.314  1.00  0.00     0.031 A 
ATOM     42  C   UNL A   1      38.332  32.143  32.654  1.00  0.00     0.074 A 
ATOM     43  C   UNL A   1      38.299  30.881  30.524  1.00  0.00     0.049 A 
ATOM     44  N   UNL A   1      39.397  31.647  33.224  1.00  0.00    -0.248 NA
ATOM     45  C   UNL A   1      37.662  33.190  33.446  1.00  0.00     0.031 C 
ATOM     46  C   UNL A   1      37.848  30.522  29.178  1.00  0.00     0.029 A 
ATOM     47  N   UNL A   1      39.398  30.086  30.728  1.00  0.00    -0.354 N 
ATOM     48  C   UNL A   1      39.550  32.346  34.416  1.00  0.00     0.074 A 
ATOM     49  C   UNL A   1      38.489  33.326  34.473  1.00  0.00     0.031 C 
ATOM     50  C   UNL A   1      38.662  29.578  28.678  1.00  0.00     0.029 A 
ATOM     51  C   UNL A   1      39.713  29.293  29.650  1.00  0.00     0.049 A 
ATOM     52  H   UNL A   1      39.913  30.082  31.568  1.00  0.00     0.167 HD
ATOM     53  C   UNL A   1      40.475  32.170  35.388  1.00  0.00     0.034 A 
ATOM     54  C   UNL A   1      40.743  28.445  29.459  1.00  0.00     0.034 A 
ATOM     55  C   UNL A   1      41.503  31.167  35.344  1.00  0.00     0.049 A 
ATOM     56  C   UNL A   1      41.741  28.249  30.569  1.00  0.00     0.074 A 
ATOM     57  C   UNL A   1      42.436  30.851  36.314  1.00  0.00     0.029 A 
ATOM     58  N   UNL A   1      41.737  30.323  34.271  1.00  0.00    -0.354 N 
ATOM     59  N   UNL A   1      41.783  28.817  31.750  1.00  0.00    -0.248 NA
ATOM     60  C   UNL A   1      42.811  27.269  30.337  1.00  0.00     0.031 C 
ATOM     61  C   UNL A   1      43.259  29.838  35.813  1.00  0.00     0.029 A 
ATOM     62  C   UNL A   1      42.808  29.492  34.549  1.00  0.00     0.049 A 
ATOM     63  H   UNL A   1      41.219  30.316  33.434  1.00  0.00     0.167 HD
ATOM     64  C   UNL A   1      42.852  28.230  32.418  1.00  0.00     0.074 A 
ATOM     65  C   UNL A   1      43.424  27.254  31.513  1.00  0.00     0.031 C 
ATOM     66  C   UNL A   1      43.324  28.481  33.663  1.00  0.00     0.034 A 
BRANCH  53  67
ATOM     67  C   UNL A   1      40.396  33.056  36.604  1.00  0.00     0.023 A 
ATOM     68  C   UNL A   1      41.168  34.234  36.665  1.00  0.00     0.012 A 
ATOM     69  C   UNL A   1      39.508  32.757  37.656  1.00  0.00     0.148 A 
ATOM     70  C   UNL A   1      41.083  35.084  37.766  1.00  0.00     0.002 A 
ATOM     71  C   UNL A   1      39.392  33.634  38.727  1.00  0.00     0.091 A 
ATOM     72  F   UNL A   1      38.797  31.623  37.590  1.00  0.00    -0.205 F 
ATOM     73  C   UNL A   1      40.188  34.791  38.792  1.00  0.00     0.022 A 
BRANCH  71  74
ATOM     74  S   UNL A   1      38.207  33.393  40.056  1.00  0.00     0.127 S 
ATOM     75  O   UNL A   1      36.989  33.078  39.310  1.00  0.00    -0.237 OA
ATOM     76  O   UNL A   1      38.787  32.262  40.781  1.00  0.00    -0.237 OA
ATOM     77  O   UNL A   1      38.175  34.643  40.801  1.00  0.00    -0.744 OA
ENDBRANCH  71  74
ENDBRANCH  53  67
BRANCH  54  78
ATOM     78  C   UNL A   1      40.859  27.680  28.185  1.00  0.00     0.023 A 
ATOM     79  C   UNL A   1      41.504  28.266  27.078  1.00  0.00     0.012 A 
ATOM     80  C   UNL A   1      40.343  26.375  28.066  1.00  0.00     0.148 A 
ATOM     81  C   UNL A   1      41.593  27.584  25.864  1.00  0.00     0.002 A 
ATOM     82  C   UNL A   1      40.488  25.679  26.872  1.00  0.00     0.091 A 
ATOM     83  F   UNL A   1      39.727  25.836  29.128  1.00  0.00    -0.205 F 
ATOM     84  C   UNL A   1      41.094  26.290  25.763  1.00  0.00     0.022 A 
BRANCH  82  85
ATOM     85  S   UNL A   1      39.990  23.962  26.691  1.00  0.00     0.127 S 
ATOM     86  O   UNL A   1      41.119  23.399  25.954  1.00  0.00    -0.237 OA
ATOM     87  O   UNL A   1      39.886  23.531  28.086  1.00  0.00    -0.237 OA
ATOM     88  O   UNL A   1      38.721  23.994  25.977  1.00  0.00    -0.744 OA
ENDBRANCH  82  85
ENDBRANCH  54  78
BRANCH  66  89
ATOM     89  C   UNL A   1      44.473  27.647  34.163  1.00  0.00     0.023 A 
ATOM     90  C   UNL A   1      45.799  28.089  33.990  1.00  0.00     0.012 A 
ATOM     91  C   UNL A   1      44.225  26.465  34.888  1.00  0.00     0.148 A 
ATOM     92  C   UNL A   1      46.863  27.350  34.507  1.00  0.00     0.002 A 
ATOM     93  C   UNL A   1      45.285  25.763  35.447  1.00  0.00     0.091 A 
ATOM     94  F   UNL A   1      42.955  26.054  35.026  1.00  0.00    -0.205 F 
ATOM     95  C   UNL A   1      46.605  26.196  35.245  1.00  0.00     0.022 A 
BRANCH  93  96
ATOM     96  S   UNL A   1      45.042  24.328  36.500  1.00  0.00     0.127 S 
ATOM     97  O   UNL A   1      44.217  23.472  35.648  1.00  0.00    -0.237 OA
ATOM     98  O   UNL A   1      46.413  23.854  36.695  1.00  0.00    -0.237 OA
ATOM     99  O   UNL A   1      44.391  24.817  37.706  1.00  0.00    -0.744 OA
ENDBRANCH  93  96
ENDBRANCH  66  89
ENDBRANCH  40  41
ENDBRANCH  32  35
ENDBRANCH  30  31
ENDBRANCH  29  30
ENDBRANCH  28  29
ENDBRANCH   1  28
TORSDOF 22
ENDMDL
