MODEL 1
REMARK VINA RESULT:     -11.7      0.000      0.000
REMARK SMILES C[C@@H](NC(=O)[C@H]1CC=CC[C@@H]1C(=O)NCCCCCCNC(=O)c1ccc(-c2c3nc(c(-c4cccc(S(=O)(=O)[O-])c4F)c4ccc([nH]4)c(-c4cccc(S(=O)(=O)[O-])c4F)c4nc(c(-c5cccc(S(=O)(=O)[O-])c5F)c5ccc2[nH]5)C=C4)C=C3)cc1)c1ccc(-n2ccnc2)cc1
REMARK SMILES IDX 17 1 16 2 15 3 14 4 12 5 13 6 11 8 6 9 7 10 8 11 10 12 9 13
REMARK SMILES IDX 4 14 3 15 5 17 2 18 1 19 87 20 88 21 97 22 89 23 96 24 90 25
REMARK SMILES IDX 91 26 92 27 95 28 93 29 94 30 18 31 19 32 20 33 21 34 22 35
REMARK SMILES IDX 23 37 24 38 25 39 86 40 26 41 85 42 27 43 28 44 29 45 79 46
REMARK SMILES IDX 30 47 84 48 78 49 80 50 31 51 83 52 77 53 76 54 32 56 64 57
REMARK SMILES IDX 44 58 63 59 45 60 48 61 62 62 81 63 46 64 47 65 61 67 82 68
REMARK SMILES IDX 49 69 33 70 34 71 42 72 35 73 37 74 43 75 36 76 38 77 39 78
REMARK SMILES IDX 40 79 41 80 65 81 66 82 74 83 67 84 69 85 75 86 68 87 70 88
REMARK SMILES IDX 71 89 72 90 73 91 50 92 51 93 59 94 52 95 54 96 60 97 53 98
REMARK SMILES IDX 55 99 56 100 57 101 58 102
REMARK H PARENT 14 7 3 16 21 36 80 55 48 66
REMARK Flexibility Score: inf
ROOT
ATOM      1  C   UNL A   1      36.094  22.665  23.585  1.00  0.00     0.002 C 
ENDROOT
BRANCH   1   2
ATOM      2  C   UNL A   1      35.170  23.853  23.877  1.00  0.00     0.021 C 
BRANCH   2   3
ATOM      3  C   UNL A   1      33.988  24.000  22.925  1.00  0.00     0.116 C 
BRANCH   3   4
ATOM      4  N   UNL A   1      33.949  25.343  22.376  1.00  0.00    -0.356 N 
ATOM      5  C   UNL A   1      33.598  26.528  22.948  1.00  0.00     0.224 C 
ATOM      6  O   UNL A   1      33.541  27.509  22.203  1.00  0.00    -0.275 OA
ATOM      7  H   UNL A   1      34.223  25.409  21.433  1.00  0.00     0.163 HD
BRANCH   5   8
ATOM      8  C   UNL A   1      33.298  26.610  24.449  1.00  0.00     0.095 C 
ATOM      9  C   UNL A   1      31.855  26.122  24.753  1.00  0.00     0.095 C 
ATOM     10  C   UNL A   1      30.817  27.197  24.367  1.00  0.00     0.041 C 
ATOM     11  C   UNL A   1      31.206  28.628  24.539  1.00  0.00    -0.030 C 
ATOM     12  C   UNL A   1      33.589  28.048  24.950  1.00  0.00     0.041 C 
ATOM     13  C   UNL A   1      32.451  29.014  24.824  1.00  0.00    -0.030 C 
BRANCH   9  14
ATOM     14  C   UNL A   1      31.681  25.722  26.218  1.00  0.00     0.224 C 
ATOM     15  N   UNL A   1      30.872  24.715  26.646  1.00  0.00    -0.349 N 
ATOM     16  H   UNL A   1      30.521  24.921  27.543  1.00  0.00     0.164 HD
ATOM     17  O   UNL A   1      32.211  26.387  27.115  1.00  0.00    -0.275 OA
BRANCH  15  18
ATOM     18  C   UNL A   1      30.352  23.399  26.181  1.00  0.00     0.109 C 
ATOM     19  C   UNL A   1      29.510  22.783  27.309  1.00  0.00     0.036 C 
BRANCH  18  20
ATOM     20  C   UNL A   1      31.329  22.452  25.513  1.00  0.00    -0.026 A 
ATOM     21  C   UNL A   1      32.291  21.801  26.289  1.00  0.00     0.008 A 
ATOM     22  C   UNL A   1      31.350  22.203  24.130  1.00  0.00     0.008 A 
ATOM     23  C   UNL A   1      32.965  20.684  25.797  1.00  0.00     0.027 A 
ATOM     24  C   UNL A   1      32.136  21.179  23.592  1.00  0.00     0.027 A 
ATOM     25  C   UNL A   1      32.816  20.327  24.460  1.00  0.00     0.046 A 
BRANCH  25  26
ATOM     26  N   UNL A   1      33.156  19.023  24.034  1.00  0.00    -0.306 N 
ATOM     27  C   UNL A   1      34.254  18.274  24.382  1.00  0.00     0.113 A 
ATOM     28  C   UNL A   1      32.550  18.349  22.994  1.00  0.00     0.204 A 
ATOM     29  C   UNL A   1      34.238  17.178  23.550  1.00  0.00     0.131 A 
ATOM     30  N   UNL A   1      33.181  17.236  22.685  1.00  0.00    -0.245 NA
ENDBRANCH  25  26
ENDBRANCH  18  20
ENDBRANCH  15  18
ENDBRANCH   9  14
ENDBRANCH   5   8
ENDBRANCH   3   4
ENDBRANCH   2   3
ENDBRANCH   1   2
BRANCH   1  31
ATOM     31  C   UNL A   1      36.222  21.641  24.712  1.00  0.00     0.002 C 
BRANCH  31  32
ATOM     32  C   UNL A   1      37.519  20.828  24.715  1.00  0.00     0.021 C 
BRANCH  32  33
ATOM     33  C   UNL A   1      38.570  21.263  25.734  1.00  0.00     0.116 C 
BRANCH  33  34
ATOM     34  N   UNL A   1      39.601  20.264  25.956  1.00  0.00    -0.352 N 
ATOM     35  C   UNL A   1      40.915  20.437  26.332  1.00  0.00     0.251 C 
ATOM     36  H   UNL A   1      39.321  19.330  25.818  1.00  0.00     0.163 HD
ATOM     37  O   UNL A   1      41.688  19.488  26.319  1.00  0.00    -0.269 OA
BRANCH  35  38
ATOM     38  C   UNL A   1      41.394  21.779  26.733  1.00  0.00     0.039 A 
ATOM     39  C   UNL A   1      41.712  22.709  25.741  1.00  0.00     0.014 A 
ATOM     40  C   UNL A   1      41.529  22.119  28.082  1.00  0.00     0.014 A 
ATOM     41  C   UNL A   1      42.111  23.999  26.103  1.00  0.00     0.010 A 
ATOM     42  C   UNL A   1      41.848  23.428  28.439  1.00  0.00     0.010 A 
ATOM     43  C   UNL A   1      42.156  24.380  27.455  1.00  0.00    -0.014 A 
BRANCH  43  44
ATOM     44  C   UNL A   1      42.534  25.764  27.851  1.00  0.00     0.031 A 
ATOM     45  C   UNL A   1      43.965  26.222  27.747  1.00  0.00     0.074 A 
ATOM     46  C   UNL A   1      41.601  26.595  28.359  1.00  0.00     0.049 A 
ATOM     47  N   UNL A   1      44.484  27.385  28.049  1.00  0.00    -0.248 NA
ATOM     48  C   UNL A   1      44.948  25.237  27.267  1.00  0.00     0.031 C 
ATOM     49  C   UNL A   1      40.193  26.254  28.579  1.00  0.00     0.029 A 
ATOM     50  N   UNL A   1      41.698  27.894  28.793  1.00  0.00    -0.354 N 
ATOM     51  C   UNL A   1      45.851  27.261  27.829  1.00  0.00     0.074 A 
ATOM     52  C   UNL A   1      46.087  25.897  27.412  1.00  0.00     0.031 C 
ATOM     53  C   UNL A   1      39.556  27.322  29.086  1.00  0.00     0.029 A 
ATOM     54  C   UNL A   1      40.511  28.413  29.256  1.00  0.00     0.049 A 
ATOM     55  H   UNL A   1      42.540  28.405  28.777  1.00  0.00     0.167 HD
ATOM     56  C   UNL A   1      46.820  28.202  27.930  1.00  0.00     0.034 A 
ATOM     57  C   UNL A   1      40.222  29.631  29.756  1.00  0.00     0.034 A 
ATOM     58  C   UNL A   1      46.579  29.568  28.311  1.00  0.00     0.049 A 
ATOM     59  C   UNL A   1      41.312  30.665  29.839  1.00  0.00     0.074 A 
ATOM     60  C   UNL A   1      47.478  30.618  28.367  1.00  0.00     0.029 A 
ATOM     61  N   UNL A   1      45.352  30.072  28.716  1.00  0.00    -0.354 N 
ATOM     62  N   UNL A   1      42.570  30.573  29.481  1.00  0.00    -0.248 NA
ATOM     63  C   UNL A   1      40.933  31.986  30.361  1.00  0.00     0.031 C 
ATOM     64  C   UNL A   1      46.802  31.748  28.839  1.00  0.00     0.029 A 
ATOM     65  C   UNL A   1      45.472  31.413  29.036  1.00  0.00     0.049 A 
ATOM     66  H   UNL A   1      44.518  29.551  28.767  1.00  0.00     0.167 HD
ATOM     67  C   UNL A   1      43.119  31.834  29.688  1.00  0.00     0.074 A 
ATOM     68  C   UNL A   1      42.053  32.675  30.190  1.00  0.00     0.031 C 
ATOM     69  C   UNL A   1      44.393  32.254  29.488  1.00  0.00     0.034 A 
BRANCH  56  70
ATOM     70  C   UNL A   1      48.230  27.790  27.586  1.00  0.00     0.023 A 
ATOM     71  C   UNL A   1      49.094  27.332  28.604  1.00  0.00     0.012 A 
ATOM     72  C   UNL A   1      48.691  27.823  26.256  1.00  0.00     0.148 A 
ATOM     73  C   UNL A   1      50.406  26.962  28.311  1.00  0.00     0.002 A 
ATOM     74  C   UNL A   1      49.985  27.404  25.964  1.00  0.00     0.091 A 
ATOM     75  F   UNL A   1      47.866  28.279  25.303  1.00  0.00    -0.205 F 
ATOM     76  C   UNL A   1      50.848  26.990  26.992  1.00  0.00     0.022 A 
BRANCH  74  77
ATOM     77  S   UNL A   1      50.621  27.324  24.287  1.00  0.00     0.127 S 
ATOM     78  O   UNL A   1      49.505  26.700  23.579  1.00  0.00    -0.237 OA
ATOM     79  O   UNL A   1      50.830  28.737  23.969  1.00  0.00    -0.237 OA
ATOM     80  O   UNL A   1      51.840  26.530  24.357  1.00  0.00    -0.744 OA
ENDBRANCH  74  77
ENDBRANCH  56  70
BRANCH  57  81
ATOM     81  C   UNL A   1      38.824  29.966  30.150  1.00  0.00     0.023 A 
ATOM     82  C   UNL A   1      38.399  29.714  31.470  1.00  0.00     0.012 A 
ATOM     83  C   UNL A   1      37.920  30.542  29.237  1.00  0.00     0.148 A 
ATOM     84  C   UNL A   1      37.090  29.995  31.863  1.00  0.00     0.002 A 
ATOM     85  C   UNL A   1      36.635  30.871  29.650  1.00  0.00     0.091 A 
ATOM     86  F   UNL A   1      38.342  30.767  27.985  1.00  0.00    -0.205 F 
ATOM     87  C   UNL A   1      36.211  30.581  30.957  1.00  0.00     0.022 A 
BRANCH  85  88
ATOM     88  S   UNL A   1      35.475  31.742  28.591  1.00  0.00     0.127 S 
ATOM     89  O   UNL A   1      36.296  32.839  28.087  1.00  0.00    -0.237 OA
ATOM     90  O   UNL A   1      35.142  30.715  27.603  1.00  0.00    -0.237 OA
ATOM     91  O   UNL A   1      34.366  32.128  29.453  1.00  0.00    -0.744 OA
ENDBRANCH  85  88
ENDBRANCH  57  81
BRANCH  69  92
ATOM     92  C   UNL A   1      44.701  33.705  29.759  1.00  0.00     0.023 A 
ATOM     93  C   UNL A   1      45.157  34.109  31.029  1.00  0.00     0.012 A 
ATOM     94  C   UNL A   1      44.595  34.660  28.727  1.00  0.00     0.148 A 
ATOM     95  C   UNL A   1      45.460  35.447  31.281  1.00  0.00     0.002 A 
ATOM     96  C   UNL A   1      44.953  35.981  28.970  1.00  0.00     0.091 A 
ATOM     97  F   UNL A   1      44.141  34.262  27.530  1.00  0.00    -0.205 F 
ATOM     98  C   UNL A   1      45.370  36.379  30.250  1.00  0.00     0.022 A 
BRANCH  96  99
ATOM     99  S   UNL A   1      44.966  37.227  27.677  1.00  0.00     0.127 S 
ATOM    100  O   UNL A   1      45.432  38.406  28.404  1.00  0.00    -0.237 OA
ATOM    101  O   UNL A   1      45.931  36.675  26.726  1.00  0.00    -0.237 OA
ATOM    102  O   UNL A   1      43.600  37.301  27.177  1.00  0.00    -0.744 OA
ENDBRANCH  96  99
ENDBRANCH  69  92
ENDBRANCH  43  44
ENDBRANCH  35  38
ENDBRANCH  33  34
ENDBRANCH  32  33
ENDBRANCH  31  32
ENDBRANCH   1  31
TORSDOF 20
ENDMDL
MODEL 2
REMARK VINA RESULT:     -11.7      6.026      9.284
REMARK SMILES C[C@@H](NC(=O)[C@H]1CC=CC[C@@H]1C(=O)NCCCCCCNC(=O)c1ccc(-c2c3nc(c(-c4cccc(S(=O)(=O)[O-])c4F)c4ccc([nH]4)c(-c4cccc(S(=O)(=O)[O-])c4F)c4nc(c(-c5cccc(S(=O)(=O)[O-])c5F)c5ccc2[nH]5)C=C4)C=C3)cc1)c1ccc(-n2ccnc2)cc1
REMARK SMILES IDX 17 1 16 2 15 3 14 4 12 5 13 6 11 8 6 9 7 10 8 11 10 12 9 13
REMARK SMILES IDX 4 14 3 15 5 17 2 18 1 19 87 20 88 21 97 22 89 23 96 24 90 25
REMARK SMILES IDX 91 26 92 27 95 28 93 29 94 30 18 31 19 32 20 33 21 34 22 35
REMARK SMILES IDX 23 37 24 38 25 39 86 40 26 41 85 42 27 43 28 44 29 45 79 46
REMARK SMILES IDX 30 47 84 48 78 49 80 50 31 51 83 52 77 53 76 54 32 56 64 57
REMARK SMILES IDX 44 58 63 59 45 60 48 61 62 62 81 63 46 64 47 65 61 67 82 68
REMARK SMILES IDX 49 69 33 70 34 71 42 72 35 73 37 74 43 75 36 76 38 77 39 78
REMARK SMILES IDX 40 79 41 80 65 81 66 82 74 83 67 84 69 85 75 86 68 87 70 88
REMARK SMILES IDX 71 89 72 90 73 91 50 92 51 93 59 94 52 95 54 96 60 97 53 98
REMARK SMILES IDX 55 99 56 100 57 101 58 102
REMARK H PARENT 14 7 3 16 21 36 80 55 48 66
REMARK Flexibility Score: inf
ROOT
ATOM      1  C   UNL A   1      33.095  30.419  26.318  1.00  0.00     0.002 C 
ENDROOT
BRANCH   1   2
ATOM      2  C   UNL A   1      33.503  29.281  27.261  1.00  0.00     0.021 C 
BRANCH   2   3
ATOM      3  C   UNL A   1      34.373  28.200  26.627  1.00  0.00     0.116 C 
BRANCH   3   4
ATOM      4  N   UNL A   1      33.969  27.971  25.252  1.00  0.00    -0.356 N 
ATOM      5  C   UNL A   1      33.267  26.948  24.690  1.00  0.00     0.224 C 
ATOM      6  O   UNL A   1      33.171  26.951  23.460  1.00  0.00    -0.275 OA
ATOM      7  H   UNL A   1      34.247  28.672  24.620  1.00  0.00     0.163 HD
BRANCH   5   8
ATOM      8  C   UNL A   1      32.634  25.863  25.567  1.00  0.00     0.095 C 
ATOM      9  C   UNL A   1      32.472  24.536  24.777  1.00  0.00     0.095 C 
ATOM     10  C   UNL A   1      31.275  24.615  23.805  1.00  0.00     0.041 C 
ATOM     11  C   UNL A   1      30.089  25.414  24.233  1.00  0.00    -0.030 C 
ATOM     12  C   UNL A   1      31.307  26.399  26.165  1.00  0.00     0.041 C 
ATOM     13  C   UNL A   1      30.093  26.203  25.310  1.00  0.00    -0.030 C 
BRANCH   9  14
ATOM     14  C   UNL A   1      32.321  23.329  25.703  1.00  0.00     0.224 C 
ATOM     15  N   UNL A   1      32.461  22.035  25.306  1.00  0.00    -0.349 N 
ATOM     16  H   UNL A   1      31.880  21.451  25.845  1.00  0.00     0.164 HD
ATOM     17  O   UNL A   1      31.953  23.482  26.874  1.00  0.00    -0.275 OA
BRANCH  15  18
ATOM     18  C   UNL A   1      33.218  21.228  24.309  1.00  0.00     0.109 C 
ATOM     19  C   UNL A   1      32.555  19.847  24.198  1.00  0.00     0.036 C 
BRANCH  18  20
ATOM     20  C   UNL A   1      34.730  21.211  24.420  1.00  0.00    -0.026 A 
ATOM     21  C   UNL A   1      35.457  22.347  24.057  1.00  0.00     0.008 A 
ATOM     22  C   UNL A   1      35.466  20.092  24.845  1.00  0.00     0.008 A 
ATOM     23  C   UNL A   1      36.782  22.503  24.461  1.00  0.00     0.027 A 
ATOM     24  C   UNL A   1      36.835  20.188  25.118  1.00  0.00     0.027 A 
ATOM     25  C   UNL A   1      37.443  21.442  25.071  1.00  0.00     0.046 A 
BRANCH  25  26
ATOM     26  N   UNL A   1      38.615  21.677  25.825  1.00  0.00    -0.306 N 
ATOM     27  C   UNL A   1      39.023  22.847  26.420  1.00  0.00     0.113 A 
ATOM     28  C   UNL A   1      39.690  20.815  25.904  1.00  0.00     0.204 A 
ATOM     29  C   UNL A   1      40.311  22.620  26.845  1.00  0.00     0.131 A 
ATOM     30  N   UNL A   1      40.722  21.359  26.514  1.00  0.00    -0.245 NA
ENDBRANCH  25  26
ENDBRANCH  18  20
ENDBRANCH  15  18
ENDBRANCH   9  14
ENDBRANCH   5   8
ENDBRANCH   3   4
ENDBRANCH   2   3
ENDBRANCH   1   2
BRANCH   1  31
ATOM     31  C   UNL A   1      31.647  30.892  26.449  1.00  0.00     0.002 C 
BRANCH  31  32
ATOM     32  C   UNL A   1      31.470  32.366  26.821  1.00  0.00     0.021 C 
BRANCH  32  33
ATOM     33  C   UNL A   1      32.701  33.052  27.409  1.00  0.00     0.116 C 
BRANCH  33  34
ATOM     34  N   UNL A   1      32.460  34.433  27.792  1.00  0.00    -0.352 N 
ATOM     35  C   UNL A   1      33.044  35.172  28.797  1.00  0.00     0.251 C 
ATOM     36  H   UNL A   1      31.783  34.907  27.258  1.00  0.00     0.163 HD
ATOM     37  O   UNL A   1      32.605  36.279  29.081  1.00  0.00    -0.269 OA
BRANCH  35  38
ATOM     38  C   UNL A   1      34.193  34.615  29.547  1.00  0.00     0.039 A 
ATOM     39  C   UNL A   1      33.980  34.097  30.826  1.00  0.00     0.014 A 
ATOM     40  C   UNL A   1      35.475  34.604  28.990  1.00  0.00     0.014 A 
ATOM     41  C   UNL A   1      35.043  33.516  31.524  1.00  0.00     0.010 A 
ATOM     42  C   UNL A   1      36.513  33.952  29.654  1.00  0.00     0.010 A 
ATOM     43  C   UNL A   1      36.314  33.413  30.934  1.00  0.00    -0.014 A 
BRANCH  43  44
ATOM     44  C   UNL A   1      37.442  32.755  31.648  1.00  0.00     0.031 A 
ATOM     45  C   UNL A   1      38.168  31.594  31.020  1.00  0.00     0.074 A 
ATOM     46  C   UNL A   1      37.779  33.162  32.888  1.00  0.00     0.049 A 
ATOM     47  N   UNL A   1      39.167  30.892  31.490  1.00  0.00    -0.248 NA
ATOM     48  C   UNL A   1      37.692  31.143  29.701  1.00  0.00     0.031 C 
ATOM     49  C   UNL A   1      37.112  34.227  33.641  1.00  0.00     0.029 A 
ATOM     50  N   UNL A   1      38.761  32.720  33.741  1.00  0.00    -0.354 N 
ATOM     51  C   UNL A   1      39.416  29.902  30.547  1.00  0.00     0.074 A 
ATOM     52  C   UNL A   1      38.434  30.066  29.498  1.00  0.00     0.031 C 
ATOM     53  C   UNL A   1      37.717  34.371  34.831  1.00  0.00     0.029 A 
ATOM     54  C   UNL A   1      38.793  33.391  34.942  1.00  0.00     0.049 A 
ATOM     55  H   UNL A   1      39.383  31.991  33.515  1.00  0.00     0.167 HD
ATOM     56  C   UNL A   1      40.392  28.964  30.532  1.00  0.00     0.034 A 
ATOM     57  C   UNL A   1      39.600  33.238  36.011  1.00  0.00     0.034 A 
ATOM     58  C   UNL A   1      41.390  28.824  31.559  1.00  0.00     0.049 A 
ATOM     59  C   UNL A   1      40.690  32.201  35.962  1.00  0.00     0.074 A 
ATOM     60  C   UNL A   1      42.469  27.958  31.600  1.00  0.00     0.029 A 
ATOM     61  N   UNL A   1      41.426  29.561  32.733  1.00  0.00    -0.354 N 
ATOM     62  N   UNL A   1      41.005  31.376  34.993  1.00  0.00    -0.248 NA
ATOM     63  C   UNL A   1      41.562  32.101  37.141  1.00  0.00     0.031 C 
ATOM     64  C   UNL A   1      43.136  28.148  32.815  1.00  0.00     0.029 A 
ATOM     65  C   UNL A   1      42.498  29.162  33.512  1.00  0.00     0.049 A 
ATOM     66  H   UNL A   1      40.782  30.266  32.976  1.00  0.00     0.167 HD
ATOM     67  C   UNL A   1      42.137  30.694  35.425  1.00  0.00     0.074 A 
ATOM     68  C   UNL A   1      42.461  31.213  36.737  1.00  0.00     0.031 C 
ATOM     69  C   UNL A   1      42.840  29.720  34.795  1.00  0.00     0.034 A 
BRANCH  56  70
ATOM     70  C   UNL A   1      40.448  28.033  29.345  1.00  0.00     0.023 A 
ATOM     71  C   UNL A   1      39.565  26.934  29.275  1.00  0.00     0.012 A 
ATOM     72  C   UNL A   1      41.345  28.263  28.285  1.00  0.00     0.148 A 
ATOM     73  C   UNL A   1      39.610  26.053  28.196  1.00  0.00     0.002 A 
ATOM     74  C   UNL A   1      41.350  27.409  27.188  1.00  0.00     0.091 A 
ATOM     75  F   UNL A   1      42.191  29.300  28.375  1.00  0.00    -0.205 F 
ATOM     76  C   UNL A   1      40.495  26.295  27.150  1.00  0.00     0.022 A 
BRANCH  74  77
ATOM     77  S   UNL A   1      42.394  27.682  25.753  1.00  0.00     0.127 S 
ATOM     78  O   UNL A   1      41.951  29.005  25.315  1.00  0.00    -0.237 OA
ATOM     79  O   UNL A   1      43.735  27.652  26.338  1.00  0.00    -0.237 OA
ATOM     80  O   UNL A   1      42.107  26.590  24.834  1.00  0.00    -0.744 OA
ENDBRANCH  74  77
ENDBRANCH  56  70
BRANCH  57  81
ATOM     81  C   UNL A   1      39.458  34.137  37.191  1.00  0.00     0.023 A 
ATOM     82  C   UNL A   1      39.868  35.482  37.087  1.00  0.00     0.012 A 
ATOM     83  C   UNL A   1      38.912  33.679  38.405  1.00  0.00     0.148 A 
ATOM     84  C   UNL A   1      39.770  36.343  38.180  1.00  0.00     0.002 A 
ATOM     85  C   UNL A   1      38.766  34.556  39.473  1.00  0.00     0.091 A 
ATOM     86  F   UNL A   1      38.535  32.395  38.485  1.00  0.00    -0.205 F 
ATOM     87  C   UNL A   1      39.211  35.883  39.370  1.00  0.00     0.022 A 
BRANCH  85  88
ATOM     88  S   UNL A   1      37.944  34.088  41.000  1.00  0.00     0.127 S 
ATOM     89  O   UNL A   1      38.965  33.272  41.651  1.00  0.00    -0.237 OA
ATOM     90  O   UNL A   1      37.705  35.390  41.622  1.00  0.00    -0.237 OA
ATOM     91  O   UNL A   1      36.735  33.383  40.597  1.00  0.00    -0.744 OA
ENDBRANCH  85  88
ENDBRANCH  57  81
BRANCH  69  92
ATOM     92  C   UNL A   1      44.067  29.183  35.489  1.00  0.00     0.023 A 
ATOM     93  C   UNL A   1      45.329  29.762  35.249  1.00  0.00     0.012 A 
ATOM     94  C   UNL A   1      43.954  28.139  36.429  1.00  0.00     0.148 A 
ATOM     95  C   UNL A   1      46.465  29.281  35.901  1.00  0.00     0.002 A 
ATOM     96  C   UNL A   1      45.081  27.703  37.116  1.00  0.00     0.091 A 
ATOM     97  F   UNL A   1      42.748  27.587  36.630  1.00  0.00    -0.205 F 
ATOM     98  C   UNL A   1      46.339  28.262  36.841  1.00  0.00     0.022 A 
BRANCH  96  99
ATOM     99  S   UNL A   1      44.996  26.468  38.417  1.00  0.00     0.127 S 
ATOM    100  O   UNL A   1      43.603  26.583  38.846  1.00  0.00    -0.237 OA
ATOM    101  O   UNL A   1      45.313  25.236  37.694  1.00  0.00    -0.237 OA
ATOM    102  O   UNL A   1      45.989  26.860  39.407  1.00  0.00    -0.744 OA
ENDBRANCH  96  99
ENDBRANCH  69  92
ENDBRANCH  43  44
ENDBRANCH  35  38
ENDBRANCH  33  34
ENDBRANCH  32  33
ENDBRANCH  31  32
ENDBRANCH   1  31
TORSDOF 20
ENDMDL
MODEL 3
REMARK VINA RESULT:     -11.5      5.742     10.515
REMARK SMILES C[C@@H](NC(=O)[C@H]1CC=CC[C@@H]1C(=O)NCCCCCCNC(=O)c1ccc(-c2c3nc(c(-c4cccc(S(=O)(=O)[O-])c4F)c4ccc([nH]4)c(-c4cccc(S(=O)(=O)[O-])c4F)c4nc(c(-c5cccc(S(=O)(=O)[O-])c5F)c5ccc2[nH]5)C=C4)C=C3)cc1)c1ccc(-n2ccnc2)cc1
REMARK SMILES IDX 17 1 16 2 15 3 14 4 12 5 13 6 11 8 6 9 7 10 8 11 10 12 9 13
REMARK SMILES IDX 4 14 3 15 5 17 2 18 1 19 87 20 88 21 97 22 89 23 96 24 90 25
REMARK SMILES IDX 91 26 92 27 95 28 93 29 94 30 18 31 19 32 20 33 21 34 22 35
REMARK SMILES IDX 23 37 24 38 25 39 86 40 26 41 85 42 27 43 28 44 29 45 79 46
REMARK SMILES IDX 30 47 84 48 78 49 80 50 31 51 83 52 77 53 76 54 32 56 64 57
REMARK SMILES IDX 44 58 63 59 45 60 48 61 62 62 81 63 46 64 47 65 61 67 82 68
REMARK SMILES IDX 49 69 33 70 34 71 42 72 35 73 37 74 43 75 36 76 38 77 39 78
REMARK SMILES IDX 40 79 41 80 65 81 66 82 74 83 67 84 69 85 75 86 68 87 70 88
REMARK SMILES IDX 71 89 72 90 73 91 50 92 51 93 59 94 52 95 54 96 60 97 53 98
REMARK SMILES IDX 55 99 56 100 57 101 58 102
REMARK H PARENT 14 7 3 16 21 36 80 55 48 66
REMARK Flexibility Score: inf
ROOT
ATOM      1  C   UNL A   1      32.985  30.301  26.200  1.00  0.00     0.002 C 
ENDROOT
BRANCH   1   2
ATOM      2  C   UNL A   1      33.345  29.192  27.196  1.00  0.00     0.021 C 
BRANCH   2   3
ATOM      3  C   UNL A   1      34.315  28.140  26.668  1.00  0.00     0.116 C 
BRANCH   3   4
ATOM      4  N   UNL A   1      33.932  27.731  25.329  1.00  0.00    -0.356 N 
ATOM      5  C   UNL A   1      33.475  26.537  24.860  1.00  0.00     0.224 C 
ATOM      6  O   UNL A   1      33.341  26.435  23.638  1.00  0.00    -0.275 OA
ATOM      7  H   UNL A   1      34.015  28.434  24.645  1.00  0.00     0.163 HD
BRANCH   5   8
ATOM      8  C   UNL A   1      33.147  25.394  25.827  1.00  0.00     0.095 C 
ATOM      9  C   UNL A   1      33.334  24.014  25.139  1.00  0.00     0.095 C 
ATOM     10  C   UNL A   1      32.157  23.707  24.191  1.00  0.00     0.041 C 
ATOM     11  C   UNL A   1      30.804  24.202  24.584  1.00  0.00    -0.030 C 
ATOM     12  C   UNL A   1      31.728  25.612  26.413  1.00  0.00     0.041 C 
ATOM     13  C   UNL A   1      30.605  25.044  25.600  1.00  0.00    -0.030 C 
BRANCH   9  14
ATOM     14  C   UNL A   1      33.503  22.884  26.154  1.00  0.00     0.224 C 
ATOM     15  N   UNL A   1      33.858  21.610  25.831  1.00  0.00    -0.349 N 
ATOM     16  H   UNL A   1      33.451  20.975  26.465  1.00  0.00     0.164 HD
ATOM     17  O   UNL A   1      33.218  23.064  27.344  1.00  0.00    -0.275 OA
BRANCH  15  18
ATOM     18  C   UNL A   1      34.667  20.878  24.818  1.00  0.00     0.109 C 
ATOM     19  C   UNL A   1      34.090  19.462  24.667  1.00  0.00     0.036 C 
BRANCH  18  20
ATOM     20  C   UNL A   1      36.177  20.952  24.936  1.00  0.00    -0.026 A 
ATOM     21  C   UNL A   1      36.798  22.199  25.022  1.00  0.00     0.008 A 
ATOM     22  C   UNL A   1      37.012  19.822  24.934  1.00  0.00     0.008 A 
ATOM     23  C   UNL A   1      38.112  22.311  25.474  1.00  0.00     0.027 A 
ATOM     24  C   UNL A   1      38.373  19.929  25.242  1.00  0.00     0.027 A 
ATOM     25  C   UNL A   1      38.871  21.160  25.664  1.00  0.00     0.046 A 
BRANCH  25  26
ATOM     26  N   UNL A   1      40.033  21.204  26.469  1.00  0.00    -0.306 N 
ATOM     27  C   UNL A   1      40.338  22.090  27.474  1.00  0.00     0.113 A 
ATOM     28  C   UNL A   1      41.189  20.491  26.226  1.00  0.00     0.204 A 
ATOM     29  C   UNL A   1      41.653  21.848  27.799  1.00  0.00     0.131 A 
ATOM     30  N   UNL A   1      42.177  20.858  27.014  1.00  0.00    -0.245 NA
ENDBRANCH  25  26
ENDBRANCH  18  20
ENDBRANCH  15  18
ENDBRANCH   9  14
ENDBRANCH   5   8
ENDBRANCH   3   4
ENDBRANCH   2   3
ENDBRANCH   1   2
BRANCH   1  31
ATOM     31  C   UNL A   1      31.549  30.817  26.285  1.00  0.00     0.002 C 
BRANCH  31  32
ATOM     32  C   UNL A   1      31.405  32.290  26.678  1.00  0.00     0.021 C 
BRANCH  32  33
ATOM     33  C   UNL A   1      32.650  32.939  27.278  1.00  0.00     0.116 C 
BRANCH  33  34
ATOM     34  N   UNL A   1      32.415  34.288  27.764  1.00  0.00    -0.352 N 
ATOM     35  C   UNL A   1      33.046  34.969  28.782  1.00  0.00     0.251 C 
ATOM     36  H   UNL A   1      31.704  34.786  27.300  1.00  0.00     0.163 HD
ATOM     37  O   UNL A   1      32.611  36.048  29.162  1.00  0.00    -0.269 OA
BRANCH  35  38
ATOM     38  C   UNL A   1      34.241  34.381  29.429  1.00  0.00     0.039 A 
ATOM     39  C   UNL A   1      34.091  33.707  30.644  1.00  0.00     0.014 A 
ATOM     40  C   UNL A   1      35.504  34.494  28.841  1.00  0.00     0.014 A 
ATOM     41  C   UNL A   1      35.200  33.098  31.239  1.00  0.00     0.010 A 
ATOM     42  C   UNL A   1      36.589  33.817  29.394  1.00  0.00     0.010 A 
ATOM     43  C   UNL A   1      36.454  33.123  30.606  1.00  0.00    -0.014 A 
BRANCH  43  44
ATOM     44  C   UNL A   1      37.631  32.438  31.207  1.00  0.00     0.031 A 
ATOM     45  C   UNL A   1      38.210  32.920  32.511  1.00  0.00     0.074 A 
ATOM     46  C   UNL A   1      38.218  31.416  30.552  1.00  0.00     0.049 A 
ATOM     47  N   UNL A   1      39.232  32.456  33.184  1.00  0.00    -0.248 NA
ATOM     48  C   UNL A   1      37.574  34.096  33.129  1.00  0.00     0.031 C 
ATOM     49  C   UNL A   1      37.803  30.895  29.248  1.00  0.00     0.029 A 
ATOM     50  N   UNL A   1      39.299  30.638  30.889  1.00  0.00    -0.354 N 
ATOM     51  C   UNL A   1      39.382  33.298  34.280  1.00  0.00     0.074 A 
ATOM     52  C   UNL A   1      38.375  34.329  34.158  1.00  0.00     0.031 C 
ATOM     53  C   UNL A   1      38.603  29.872  28.906  1.00  0.00     0.029 A 
ATOM     54  C   UNL A   1      39.607  29.682  29.949  1.00  0.00     0.049 A 
ATOM     55  H   UNL A   1      39.807  30.755  31.725  1.00  0.00     0.167 HD
ATOM     56  C   UNL A   1      40.253  33.206  35.312  1.00  0.00     0.034 A 
ATOM     57  C   UNL A   1      40.585  28.754  29.929  1.00  0.00     0.034 A 
ATOM     58  C   UNL A   1      41.232  32.161  35.450  1.00  0.00     0.049 A 
ATOM     59  C   UNL A   1      41.528  28.660  31.099  1.00  0.00     0.074 A 
ATOM     60  C   UNL A   1      42.108  31.934  36.497  1.00  0.00     0.029 A 
ATOM     61  N   UNL A   1      41.475  31.176  34.506  1.00  0.00    -0.354 N 
ATOM     62  N   UNL A   1      41.555  29.372  32.199  1.00  0.00    -0.248 NA
ATOM     63  C   UNL A   1      42.552  27.608  31.040  1.00  0.00     0.031 C 
ATOM     64  C   UNL A   1      42.904  30.831  36.169  1.00  0.00     0.029 A 
ATOM     65  C   UNL A   1      42.495  30.345  34.937  1.00  0.00     0.049 A 
ATOM     66  H   UNL A   1      40.992  31.080  33.652  1.00  0.00     0.167 HD
ATOM     67  C   UNL A   1      42.565  28.824  32.983  1.00  0.00     0.074 A 
ATOM     68  C   UNL A   1      43.116  27.712  32.236  1.00  0.00     0.031 C 
ATOM     69  C   UNL A   1      43.002  29.212  34.207  1.00  0.00     0.034 A 
BRANCH  56  70
ATOM     70  C   UNL A   1      40.161  34.252  36.397  1.00  0.00     0.023 A 
ATOM     71  C   UNL A   1      40.562  35.578  36.128  1.00  0.00     0.012 A 
ATOM     72  C   UNL A   1      39.648  33.933  37.669  1.00  0.00     0.148 A 
ATOM     73  C   UNL A   1      40.500  36.555  37.120  1.00  0.00     0.002 A 
ATOM     74  C   UNL A   1      39.542  34.925  38.638  1.00  0.00     0.091 A 
ATOM     75  F   UNL A   1      39.290  32.665  37.916  1.00  0.00    -0.205 F 
ATOM     76  C   UNL A   1      39.983  36.231  38.370  1.00  0.00     0.022 A 
BRANCH  74  77
ATOM     77  S   UNL A   1      38.813  34.627  40.252  1.00  0.00     0.127 S 
ATOM     78  O   UNL A   1      37.554  33.979  39.890  1.00  0.00    -0.237 OA
ATOM     79  O   UNL A   1      39.797  33.742  40.876  1.00  0.00    -0.237 OA
ATOM     80  O   UNL A   1      38.686  35.934  40.882  1.00  0.00    -0.744 OA
ENDBRANCH  74  77
ENDBRANCH  56  70
BRANCH  57  81
ATOM     81  C   UNL A   1      40.678  27.788  28.798  1.00  0.00     0.023 A 
ATOM     82  C   UNL A   1      39.756  26.724  28.721  1.00  0.00     0.012 A 
ATOM     83  C   UNL A   1      41.657  27.920  27.795  1.00  0.00     0.148 A 
ATOM     84  C   UNL A   1      39.831  25.790  27.688  1.00  0.00     0.002 A 
ATOM     85  C   UNL A   1      41.691  27.019  26.739  1.00  0.00     0.091 A 
ATOM     86  F   UNL A   1      42.528  28.935  27.891  1.00  0.00    -0.205 F 
ATOM     87  C   UNL A   1      40.792  25.942  26.692  1.00  0.00     0.022 A 
BRANCH  85  88
ATOM     88  S   UNL A   1      42.811  27.206  25.346  1.00  0.00     0.127 S 
ATOM     89  O   UNL A   1      44.102  27.337  26.017  1.00  0.00    -0.237 OA
ATOM     90  O   UNL A   1      42.611  25.946  24.630  1.00  0.00    -0.237 OA
ATOM     91  O   UNL A   1      42.352  28.386  24.627  1.00  0.00    -0.744 OA
ENDBRANCH  85  88
ENDBRANCH  57  81
BRANCH  69  92
ATOM     92  C   UNL A   1      44.097  28.398  34.848  1.00  0.00     0.023 A 
ATOM     93  C   UNL A   1      45.445  28.631  34.512  1.00  0.00     0.012 A 
ATOM     94  C   UNL A   1      43.788  27.439  35.835  1.00  0.00     0.148 A 
ATOM     95  C   UNL A   1      46.465  27.893  35.115  1.00  0.00     0.002 A 
ATOM     96  C   UNL A   1      44.812  26.748  36.471  1.00  0.00     0.091 A 
ATOM     97  F   UNL A   1      42.499  27.217  36.129  1.00  0.00    -0.205 F 
ATOM     98  C   UNL A   1      46.149  26.962  36.101  1.00  0.00     0.022 A 
BRANCH  96  99
ATOM     99  S   UNL A   1      44.506  25.606  37.823  1.00  0.00     0.127 S 
ATOM    100  O   UNL A   1      43.811  24.516  37.141  1.00  0.00    -0.237 OA
ATOM    101  O   UNL A   1      45.862  25.283  38.268  1.00  0.00    -0.237 OA
ATOM    102  O   UNL A   1      43.711  26.342  38.797  1.00  0.00    -0.744 OA
ENDBRANCH  96  99
ENDBRANCH  69  92
ENDBRANCH  43  44
ENDBRANCH  35  38
ENDBRANCH  33  34
ENDBRANCH  32  33
ENDBRANCH  31  32
ENDBRANCH   1  31
TORSDOF 20
ENDMDL
