MODEL 1
REMARK VINA RESULT:     -11.8      0.000      0.000
REMARK SMILES O=C(NCCCCCCNC(=O)c1ccc(-c2c3nc(c(-c4cccc(S(=O)(=O)[O-])c4F)c4ccc([nH]4)c(-c4cccc(S(=O)(=O)[O-])c4F)c4nc(c(-c5cccc(S(=O)(=O)[O-])c5F)c5ccc2[nH]5)C=C4)C=C3)cc1)C1=Cc2c(ccc(Cl)c2Sc2ccccc2)O[C@H]1C(F)(F)F
REMARK SMILES IDX 7 1 6 2 5 3 4 4 3 5 1 6 2 7 76 9 77 10 93 11 78 12 92 13
REMARK SMILES IDX 79 14 84 15 80 16 82 17 81 18 83 19 94 20 95 21 96 22 97 23
REMARK SMILES IDX 85 24 86 25 87 26 91 27 88 28 90 29 89 30 8 31 9 32 10 33
REMARK SMILES IDX 11 34 12 36 13 37 14 38 75 39 15 40 74 41 16 42 17 43 18 44
REMARK SMILES IDX 68 45 19 46 73 47 67 48 69 49 20 50 72 51 66 52 65 53 21 55
REMARK SMILES IDX 53 56 33 57 52 58 34 59 37 60 51 61 70 62 35 63 36 64 50 66
REMARK SMILES IDX 71 67 38 68 22 69 23 70 31 71 24 72 26 73 32 74 25 75 27 76
REMARK SMILES IDX 28 77 29 78 30 79 54 80 55 81 63 82 56 83 58 84 64 85 57 86
REMARK SMILES IDX 59 87 60 88 61 89 62 90 39 91 40 92 48 93 41 94 43 95 49 96
REMARK SMILES IDX 42 97 44 98 45 99 46 100 47 101
REMARK H PARENT 3 8 10 35 69 54 37 65
REMARK Flexibility Score: inf
ROOT
ATOM      1  C   UNL A   1      36.851  20.078  24.692  1.00  0.00     0.002 C 
ENDROOT
BRANCH   1   2
ATOM      2  C   UNL A   1      36.631  21.438  25.368  1.00  0.00     0.002 C 
BRANCH   2   3
ATOM      3  C   UNL A   1      37.114  22.673  24.606  1.00  0.00     0.021 C 
BRANCH   3   4
ATOM      4  C   UNL A   1      36.040  23.707  24.282  1.00  0.00     0.116 C 
BRANCH   4   5
ATOM      5  N   UNL A   1      35.208  24.049  25.423  1.00  0.00    -0.352 N 
ATOM      6  O   UNL A   1      33.318  24.676  26.486  1.00  0.00    -0.270 OA
ATOM      7  C   UNL A   1      33.882  24.388  25.439  1.00  0.00     0.251 C 
ATOM      8  H   UNL A   1      35.656  24.035  26.299  1.00  0.00     0.163 HD
BRANCH   7   9
ATOM      9  C   UNL A   1      33.128  24.386  24.170  1.00  0.00     0.067 C 
ATOM     10  C   UNL A   1      33.075  25.561  23.532  1.00  0.00     0.026 C 
ATOM     11  C   UNL A   1      32.094  23.329  23.940  1.00  0.00     0.314 C 
ATOM     12  C   UNL A   1      31.714  26.126  23.407  1.00  0.00     0.033 A 
ATOM     13  O   UNL A   1      30.780  23.862  23.611  1.00  0.00    -0.475 OA
ATOM     14  C   UNL A   1      30.635  25.222  23.487  1.00  0.00     0.129 A 
ATOM     15  C   UNL A   1      31.485  27.525  23.342  1.00  0.00     0.042 A 
ATOM     16  C   UNL A   1      29.326  25.691  23.520  1.00  0.00     0.049 A 
ATOM     17  C   UNL A   1      30.146  27.972  23.422  1.00  0.00     0.055 A 
ATOM     18  C   UNL A   1      29.084  27.062  23.507  1.00  0.00     0.025 A 
ATOM     19  Cl  UNL A   1      29.719  29.652  23.478  1.00  0.00    -0.083 Cl
BRANCH  11  20
ATOM     20  C   UNL A   1      32.553  22.362  22.840  1.00  0.00     0.429 C 
ATOM     21  F   UNL A   1      32.943  23.017  21.720  1.00  0.00    -0.167 F 
ATOM     22  F   UNL A   1      33.613  21.623  23.247  1.00  0.00    -0.167 F 
ATOM     23  F   UNL A   1      31.574  21.499  22.477  1.00  0.00    -0.167 F 
ENDBRANCH  11  20
BRANCH  15  24
ATOM     24  S   UNL A   1      32.826  28.752  23.313  1.00  0.00    -0.088 SA
BRANCH  24  25
ATOM     25  C   UNL A   1      33.103  29.155  25.026  1.00  0.00     0.012 A 
ATOM     26  C   UNL A   1      34.173  28.546  25.696  1.00  0.00     0.015 A 
ATOM     27  C   UNL A   1      32.342  30.124  25.690  1.00  0.00     0.015 A 
ATOM     28  C   UNL A   1      34.524  28.951  26.986  1.00  0.00     0.001 A 
ATOM     29  C   UNL A   1      32.689  30.521  26.984  1.00  0.00     0.001 A 
ATOM     30  C   UNL A   1      33.788  29.946  27.625  1.00  0.00     0.000 A 
ENDBRANCH  24  25
ENDBRANCH  15  24
ENDBRANCH   7   9
ENDBRANCH   4   5
ENDBRANCH   3   4
ENDBRANCH   2   3
ENDBRANCH   1   2
BRANCH   1  31
ATOM     31  C   UNL A   1      38.019  19.221  25.191  1.00  0.00     0.021 C 
BRANCH  31  32
ATOM     32  C   UNL A   1      39.252  19.959  25.714  1.00  0.00     0.116 C 
BRANCH  32  33
ATOM     33  N   UNL A   1      40.387  19.091  25.963  1.00  0.00    -0.352 N 
ATOM     34  C   UNL A   1      41.687  19.396  26.292  1.00  0.00     0.251 C 
ATOM     35  H   UNL A   1      40.197  18.129  25.884  1.00  0.00     0.163 HD
ATOM     36  O   UNL A   1      42.503  18.480  26.387  1.00  0.00    -0.269 OA
BRANCH  34  37
ATOM     37  C   UNL A   1      42.134  20.797  26.504  1.00  0.00     0.039 A 
ATOM     38  C   UNL A   1      42.486  21.186  27.803  1.00  0.00     0.014 A 
ATOM     39  C   UNL A   1      42.162  21.742  25.475  1.00  0.00     0.014 A 
ATOM     40  C   UNL A   1      42.915  22.492  28.058  1.00  0.00     0.010 A 
ATOM     41  C   UNL A   1      42.640  23.033  25.720  1.00  0.00     0.010 A 
ATOM     42  C   UNL A   1      43.019  23.424  27.014  1.00  0.00    -0.014 A 
BRANCH  42  43
ATOM     43  C   UNL A   1      43.526  24.800  27.259  1.00  0.00     0.031 A 
ATOM     44  C   UNL A   1      42.604  25.878  27.761  1.00  0.00     0.074 A 
ATOM     45  C   UNL A   1      44.806  25.103  26.966  1.00  0.00     0.049 A 
ATOM     46  N   UNL A   1      42.858  27.144  27.977  1.00  0.00    -0.248 NA
ATOM     47  C   UNL A   1      41.211  25.491  28.035  1.00  0.00     0.031 C 
ATOM     48  C   UNL A   1      45.787  24.171  26.407  1.00  0.00     0.029 A 
ATOM     49  N   UNL A   1      45.494  26.287  27.070  1.00  0.00    -0.354 N 
ATOM     50  C   UNL A   1      41.654  27.711  28.377  1.00  0.00     0.074 A 
ATOM     51  C   UNL A   1      40.664  26.655  28.358  1.00  0.00     0.031 C 
ATOM     52  C   UNL A   1      46.948  24.819  26.214  1.00  0.00     0.029 A 
ATOM     53  C   UNL A   1      46.793  26.213  26.620  1.00  0.00     0.049 A 
ATOM     54  H   UNL A   1      45.097  27.110  27.432  1.00  0.00     0.167 HD
ATOM     55  C   UNL A   1      41.399  28.986  28.757  1.00  0.00     0.034 A 
ATOM     56  C   UNL A   1      47.752  27.157  26.547  1.00  0.00     0.034 A 
ATOM     57  C   UNL A   1      42.390  30.025  28.841  1.00  0.00     0.049 A 
ATOM     58  C   UNL A   1      47.463  28.546  27.048  1.00  0.00     0.074 A 
ATOM     59  C   UNL A   1      42.235  31.328  29.281  1.00  0.00     0.029 A 
ATOM     60  N   UNL A   1      43.722  29.878  28.491  1.00  0.00    -0.354 N 
ATOM     61  N   UNL A   1      46.354  29.022  27.559  1.00  0.00    -0.248 NA
ATOM     62  C   UNL A   1      48.567  29.517  26.999  1.00  0.00     0.031 C 
ATOM     63  C   UNL A   1      43.478  31.966  29.208  1.00  0.00     0.029 A 
ATOM     64  C   UNL A   1      44.404  31.062  28.713  1.00  0.00     0.049 A 
ATOM     65  H   UNL A   1      44.125  29.052  28.135  1.00  0.00     0.167 HD
ATOM     66  C   UNL A   1      46.632  30.336  27.914  1.00  0.00     0.074 A 
ATOM     67  C   UNL A   1      48.021  30.577  27.582  1.00  0.00     0.031 C 
ATOM     68  C   UNL A   1      45.803  31.268  28.443  1.00  0.00     0.034 A 
BRANCH  55  69
ATOM     69  C   UNL A   1      39.998  29.313  29.194  1.00  0.00     0.023 A 
ATOM     70  C   UNL A   1      39.047  29.673  28.219  1.00  0.00     0.012 A 
ATOM     71  C   UNL A   1      39.605  29.213  30.542  1.00  0.00     0.148 A 
ATOM     72  C   UNL A   1      37.729  29.947  28.579  1.00  0.00     0.002 A 
ATOM     73  C   UNL A   1      38.281  29.461  30.891  1.00  0.00     0.091 A 
ATOM     74  F   UNL A   1      40.530  28.900  31.461  1.00  0.00    -0.205 F 
ATOM     75  C   UNL A   1      37.344  29.832  29.913  1.00  0.00     0.022 A 
BRANCH  73  76
ATOM     76  S   UNL A   1      37.691  29.281  32.579  1.00  0.00     0.127 S 
ATOM     77  O   UNL A   1      38.613  30.148  33.310  1.00  0.00    -0.237 OA
ATOM     78  O   UNL A   1      36.320  29.785  32.491  1.00  0.00    -0.237 OA
ATOM     79  O   UNL A   1      37.788  27.857  32.875  1.00  0.00    -0.744 OA
ENDBRANCH  73  76
ENDBRANCH  55  69
BRANCH  56  80
ATOM     80  C   UNL A   1      49.107  26.790  26.053  1.00  0.00     0.023 A 
ATOM     81  C   UNL A   1      49.925  25.963  26.846  1.00  0.00     0.012 A 
ATOM     82  C   UNL A   1      49.569  27.208  24.791  1.00  0.00     0.148 A 
ATOM     83  C   UNL A   1      51.188  25.574  26.398  1.00  0.00     0.002 A 
ATOM     84  C   UNL A   1      50.810  26.778  24.332  1.00  0.00     0.091 A 
ATOM     85  F   UNL A   1      48.789  28.014  24.056  1.00  0.00    -0.205 F 
ATOM     86  C   UNL A   1      51.626  25.970  25.136  1.00  0.00     0.022 A 
BRANCH  84  87
ATOM     87  S   UNL A   1      51.357  27.152  22.662  1.00  0.00     0.127 S 
ATOM     88  O   UNL A   1      50.223  26.699  21.862  1.00  0.00    -0.237 OA
ATOM     89  O   UNL A   1      51.539  28.604  22.702  1.00  0.00    -0.237 OA
ATOM     90  O   UNL A   1      52.600  26.405  22.507  1.00  0.00    -0.744 OA
ENDBRANCH  84  87
ENDBRANCH  56  80
BRANCH  68  91
ATOM     91  C   UNL A   1      46.368  32.636  28.712  1.00  0.00     0.023 A 
ATOM     92  C   UNL A   1      46.913  32.915  29.980  1.00  0.00     0.012 A 
ATOM     93  C   UNL A   1      46.435  33.610  27.698  1.00  0.00     0.148 A 
ATOM     94  C   UNL A   1      47.505  34.152  30.239  1.00  0.00     0.002 A 
ATOM     95  C   UNL A   1      47.054  34.829  27.955  1.00  0.00     0.091 A 
ATOM     96  F   UNL A   1      45.887  33.336  26.504  1.00  0.00    -0.205 F 
ATOM     97  C   UNL A   1      47.585  35.103  29.225  1.00  0.00     0.022 A 
BRANCH  95  98
ATOM     98  S   UNL A   1      47.260  36.068  26.670  1.00  0.00     0.127 S 
ATOM     99  O   UNL A   1      45.874  36.369  26.317  1.00  0.00    -0.237 OA
ATOM    100  O   UNL A   1      47.957  37.148  27.369  1.00  0.00    -0.237 OA
ATOM    101  O   UNL A   1      48.054  35.419  25.634  1.00  0.00    -0.744 OA
ENDBRANCH  95  98
ENDBRANCH  68  91
ENDBRANCH  42  43
ENDBRANCH  34  37
ENDBRANCH  32  33
ENDBRANCH  31  32
ENDBRANCH   1  31
TORSDOF 19
ENDMDL
MODEL 2
REMARK VINA RESULT:     -11.5      5.529      8.380
REMARK SMILES O=C(NCCCCCCNC(=O)c1ccc(-c2c3nc(c(-c4cccc(S(=O)(=O)[O-])c4F)c4ccc([nH]4)c(-c4cccc(S(=O)(=O)[O-])c4F)c4nc(c(-c5cccc(S(=O)(=O)[O-])c5F)c5ccc2[nH]5)C=C4)C=C3)cc1)C1=Cc2c(ccc(Cl)c2Sc2ccccc2)O[C@H]1C(F)(F)F
REMARK SMILES IDX 7 1 6 2 5 3 4 4 3 5 1 6 2 7 76 9 77 10 93 11 78 12 92 13
REMARK SMILES IDX 79 14 84 15 80 16 82 17 81 18 83 19 94 20 95 21 96 22 97 23
REMARK SMILES IDX 85 24 86 25 87 26 91 27 88 28 90 29 89 30 8 31 9 32 10 33
REMARK SMILES IDX 11 34 12 36 13 37 14 38 75 39 15 40 74 41 16 42 17 43 18 44
REMARK SMILES IDX 68 45 19 46 73 47 67 48 69 49 20 50 72 51 66 52 65 53 21 55
REMARK SMILES IDX 53 56 33 57 52 58 34 59 37 60 51 61 70 62 35 63 36 64 50 66
REMARK SMILES IDX 71 67 38 68 22 69 23 70 31 71 24 72 26 73 32 74 25 75 27 76
REMARK SMILES IDX 28 77 29 78 30 79 54 80 55 81 63 82 56 83 58 84 64 85 57 86
REMARK SMILES IDX 59 87 60 88 61 89 62 90 39 91 40 92 48 93 41 94 43 95 49 96
REMARK SMILES IDX 42 97 44 98 45 99 46 100 47 101
REMARK H PARENT 3 8 10 35 69 54 37 65
REMARK Flexibility Score: inf
ROOT
ATOM      1  C   UNL A   1      34.037  28.588  26.118  1.00  0.00     0.002 C 
ENDROOT
BRANCH   1   2
ATOM      2  C   UNL A   1      33.612  27.130  26.330  1.00  0.00     0.002 C 
BRANCH   2   3
ATOM      3  C   UNL A   1      33.919  26.149  25.198  1.00  0.00     0.021 C 
BRANCH   3   4
ATOM      4  C   UNL A   1      34.836  24.987  25.565  1.00  0.00     0.116 C 
BRANCH   4   5
ATOM      5  N   UNL A   1      35.539  24.427  24.423  1.00  0.00    -0.352 N 
ATOM      6  O   UNL A   1      35.923  22.959  22.751  1.00  0.00    -0.270 OA
ATOM      7  C   UNL A   1      35.214  23.326  23.679  1.00  0.00     0.251 C 
ATOM      8  H   UNL A   1      36.357  24.902  24.149  1.00  0.00     0.163 HD
BRANCH   7   9
ATOM      9  C   UNL A   1      33.976  22.586  23.998  1.00  0.00     0.067 C 
ATOM     10  C   UNL A   1      32.877  23.004  23.361  1.00  0.00     0.026 C 
ATOM     11  C   UNL A   1      33.889  21.841  25.293  1.00  0.00     0.314 C 
ATOM     12  C   UNL A   1      31.826  23.546  24.250  1.00  0.00     0.033 A 
ATOM     13  O   UNL A   1      32.738  22.213  26.102  1.00  0.00    -0.475 OA
ATOM     14  C   UNL A   1      31.847  23.127  25.597  1.00  0.00     0.129 A 
ATOM     15  C   UNL A   1      30.913  24.542  23.814  1.00  0.00     0.042 A 
ATOM     16  C   UNL A   1      30.982  23.698  26.524  1.00  0.00     0.049 A 
ATOM     17  C   UNL A   1      30.078  25.134  24.789  1.00  0.00     0.055 A 
ATOM     18  C   UNL A   1      30.114  24.711  26.125  1.00  0.00     0.025 A 
ATOM     19  Cl  UNL A   1      29.001  26.445  24.432  1.00  0.00    -0.083 Cl
BRANCH  11  20
ATOM     20  C   UNL A   1      33.879  20.327  25.039  1.00  0.00     0.429 C 
ATOM     21  F   UNL A   1      35.131  19.823  24.932  1.00  0.00    -0.167 F 
ATOM     22  F   UNL A   1      33.278  19.663  26.055  1.00  0.00    -0.167 F 
ATOM     23  F   UNL A   1      33.221  20.005  23.900  1.00  0.00    -0.167 F 
ENDBRANCH  11  20
BRANCH  15  24
ATOM     24  S   UNL A   1      30.879  25.183  22.114  1.00  0.00    -0.088 SA
BRANCH  24  25
ATOM     25  C   UNL A   1      31.882  26.655  22.169  1.00  0.00     0.012 A 
ATOM     26  C   UNL A   1      31.279  27.866  22.539  1.00  0.00     0.015 A 
ATOM     27  C   UNL A   1      33.262  26.618  21.942  1.00  0.00     0.015 A 
ATOM     28  C   UNL A   1      32.056  29.007  22.751  1.00  0.00     0.001 A 
ATOM     29  C   UNL A   1      34.036  27.764  22.146  1.00  0.00     0.001 A 
ATOM     30  C   UNL A   1      33.436  28.953  22.565  1.00  0.00     0.000 A 
ENDBRANCH  24  25
ENDBRANCH  15  24
ENDBRANCH   7   9
ENDBRANCH   4   5
ENDBRANCH   3   4
ENDBRANCH   2   3
ENDBRANCH   1   2
BRANCH   1  31
ATOM     31  C   UNL A   1      32.928  29.635  25.966  1.00  0.00     0.021 C 
BRANCH  31  32
ATOM     32  C   UNL A   1      32.501  30.385  27.228  1.00  0.00     0.116 C 
BRANCH  32  33
ATOM     33  N   UNL A   1      32.766  31.810  27.174  1.00  0.00    -0.352 N 
ATOM     34  C   UNL A   1      33.844  32.534  27.626  1.00  0.00     0.251 C 
ATOM     35  H   UNL A   1      32.060  32.346  26.746  1.00  0.00     0.163 HD
ATOM     36  O   UNL A   1      33.815  33.760  27.530  1.00  0.00    -0.269 OA
BRANCH  34  37
ATOM     37  C   UNL A   1      35.023  31.879  28.250  1.00  0.00     0.039 A 
ATOM     38  C   UNL A   1      36.244  32.564  28.230  1.00  0.00     0.014 A 
ATOM     39  C   UNL A   1      34.968  30.594  28.799  1.00  0.00     0.014 A 
ATOM     40  C   UNL A   1      37.385  31.993  28.804  1.00  0.00     0.010 A 
ATOM     41  C   UNL A   1      36.094  30.046  29.418  1.00  0.00     0.010 A 
ATOM     42  C   UNL A   1      37.316  30.737  29.426  1.00  0.00    -0.014 A 
BRANCH  42  43
ATOM     43  C   UNL A   1      38.506  30.142  30.089  1.00  0.00     0.031 A 
ATOM     44  C   UNL A   1      38.907  30.571  31.474  1.00  0.00     0.074 A 
ATOM     45  C   UNL A   1      39.274  29.260  29.418  1.00  0.00     0.049 A 
ATOM     46  N   UNL A   1      39.942  30.203  32.184  1.00  0.00    -0.248 NA
ATOM     47  C   UNL A   1      38.044  31.559  32.142  1.00  0.00     0.031 C 
ATOM     48  C   UNL A   1      39.040  28.811  28.045  1.00  0.00     0.029 A 
ATOM     49  N   UNL A   1      40.422  28.604  29.791  1.00  0.00    -0.354 N 
ATOM     50  C   UNL A   1      39.877  30.935  33.363  1.00  0.00     0.074 A 
ATOM     51  C   UNL A   1      38.708  31.784  33.268  1.00  0.00     0.031 C 
ATOM     52  C   UNL A   1      40.015  27.958  27.689  1.00  0.00     0.029 A 
ATOM     53  C   UNL A   1      40.951  27.809  28.801  1.00  0.00     0.049 A 
ATOM     54  H   UNL A   1      40.828  28.695  30.683  1.00  0.00     0.167 HD
ATOM     55  C   UNL A   1      40.695  30.886  34.441  1.00  0.00     0.034 A 
ATOM     56  C   UNL A   1      42.060  27.043  28.788  1.00  0.00     0.034 A 
ATOM     57  C   UNL A   1      41.821  30.000  34.571  1.00  0.00     0.049 A 
ATOM     58  C   UNL A   1      42.907  26.948  30.028  1.00  0.00     0.074 A 
ATOM     59  C   UNL A   1      42.665  29.833  35.655  1.00  0.00     0.029 A 
ATOM     60  N   UNL A   1      42.253  29.122  33.591  1.00  0.00    -0.354 N 
ATOM     61  N   UNL A   1      42.744  27.542  31.184  1.00  0.00    -0.248 NA
ATOM     62  C   UNL A   1      44.070  26.049  29.973  1.00  0.00     0.031 C 
ATOM     63  C   UNL A   1      43.601  28.844  35.335  1.00  0.00     0.029 A 
ATOM     64  C   UNL A   1      43.345  28.403  34.046  1.00  0.00     0.049 A 
ATOM     65  H   UNL A   1      41.844  29.023  32.700  1.00  0.00     0.167 HD
ATOM     66  C   UNL A   1      43.764  27.072  32.002  1.00  0.00     0.074 A 
ATOM     67  C   UNL A   1      44.529  26.125  31.217  1.00  0.00     0.031 C 
ATOM     68  C   UNL A   1      44.056  27.413  33.280  1.00  0.00     0.034 A 
BRANCH  55  69
ATOM     69  C   UNL A   1      40.354  31.765  35.613  1.00  0.00     0.023 A 
ATOM     70  C   UNL A   1      41.176  32.874  35.895  1.00  0.00     0.012 A 
ATOM     71  C   UNL A   1      39.205  31.537  36.394  1.00  0.00     0.148 A 
ATOM     72  C   UNL A   1      40.873  33.733  36.948  1.00  0.00     0.002 A 
ATOM     73  C   UNL A   1      38.893  32.415  37.427  1.00  0.00     0.091 A 
ATOM     74  F   UNL A   1      38.451  30.460  36.131  1.00  0.00    -0.205 F 
ATOM     75  C   UNL A   1      39.727  33.510  37.708  1.00  0.00     0.022 A 
BRANCH  73  76
ATOM     76  S   UNL A   1      37.405  32.230  38.417  1.00  0.00     0.127 S 
ATOM     77  O   UNL A   1      37.837  32.769  39.706  1.00  0.00    -0.237 OA
ATOM     78  O   UNL A   1      36.440  33.065  37.700  1.00  0.00    -0.237 OA
ATOM     79  O   UNL A   1      37.097  30.806  38.395  1.00  0.00    -0.744 OA
ENDBRANCH  73  76
ENDBRANCH  55  69
BRANCH  56  80
ATOM     80  C   UNL A   1      42.380  26.236  27.580  1.00  0.00     0.023 A 
ATOM     81  C   UNL A   1      43.160  26.811  26.558  1.00  0.00     0.012 A 
ATOM     82  C   UNL A   1      41.964  24.898  27.456  1.00  0.00     0.148 A 
ATOM     83  C   UNL A   1      43.505  26.072  25.427  1.00  0.00     0.002 A 
ATOM     84  C   UNL A   1      42.351  24.153  26.346  1.00  0.00     0.091 A 
ATOM     85  F   UNL A   1      41.202  24.370  28.425  1.00  0.00    -0.205 F 
ATOM     86  C   UNL A   1      43.112  24.739  25.325  1.00  0.00     0.022 A 
BRANCH  84  87
ATOM     87  S   UNL A   1      41.981  22.397  26.239  1.00  0.00     0.127 S 
ATOM     88  O   UNL A   1      42.657  22.020  25.001  1.00  0.00    -0.237 OA
ATOM     89  O   UNL A   1      42.590  21.866  27.459  1.00  0.00    -0.237 OA
ATOM     90  O   UNL A   1      40.524  22.331  26.228  1.00  0.00    -0.744 OA
ENDBRANCH  84  87
ENDBRANCH  56  80
BRANCH  68  91
ATOM     91  C   UNL A   1      45.246  26.757  33.925  1.00  0.00     0.023 A 
ATOM     92  C   UNL A   1      46.481  27.433  33.933  1.00  0.00     0.012 A 
ATOM     93  C   UNL A   1      45.126  25.522  34.590  1.00  0.00     0.148 A 
ATOM     94  C   UNL A   1      47.586  26.881  34.580  1.00  0.00     0.002 A 
ATOM     95  C   UNL A   1      46.225  24.993  35.261  1.00  0.00     0.091 A 
ATOM     96  F   UNL A   1      43.949  24.880  34.551  1.00  0.00    -0.205 F 
ATOM     97  C   UNL A   1      47.455  25.669  35.253  1.00  0.00     0.022 A 
BRANCH  95  98
ATOM     98  S   UNL A   1      46.103  23.473  36.212  1.00  0.00     0.127 S 
ATOM     99  O   UNL A   1      45.770  22.497  35.177  1.00  0.00    -0.237 OA
ATOM    100  O   UNL A   1      47.448  23.332  36.771  1.00  0.00    -0.237 OA
ATOM    101  O   UNL A   1      45.068  23.725  37.207  1.00  0.00    -0.744 OA
ENDBRANCH  95  98
ENDBRANCH  68  91
ENDBRANCH  42  43
ENDBRANCH  34  37
ENDBRANCH  32  33
ENDBRANCH  31  32
ENDBRANCH   1  31
TORSDOF 19
ENDMDL
MODEL 3
REMARK VINA RESULT:     -11.3      1.746      2.680
REMARK SMILES O=C(NCCCCCCNC(=O)c1ccc(-c2c3nc(c(-c4cccc(S(=O)(=O)[O-])c4F)c4ccc([nH]4)c(-c4cccc(S(=O)(=O)[O-])c4F)c4nc(c(-c5cccc(S(=O)(=O)[O-])c5F)c5ccc2[nH]5)C=C4)C=C3)cc1)C1=Cc2c(ccc(Cl)c2Sc2ccccc2)O[C@H]1C(F)(F)F
REMARK SMILES IDX 7 1 6 2 5 3 4 4 3 5 1 6 2 7 76 9 77 10 93 11 78 12 92 13
REMARK SMILES IDX 79 14 84 15 80 16 82 17 81 18 83 19 94 20 95 21 96 22 97 23
REMARK SMILES IDX 85 24 86 25 87 26 91 27 88 28 90 29 89 30 8 31 9 32 10 33
REMARK SMILES IDX 11 34 12 36 13 37 14 38 75 39 15 40 74 41 16 42 17 43 18 44
REMARK SMILES IDX 68 45 19 46 73 47 67 48 69 49 20 50 72 51 66 52 65 53 21 55
REMARK SMILES IDX 53 56 33 57 52 58 34 59 37 60 51 61 70 62 35 63 36 64 50 66
REMARK SMILES IDX 71 67 38 68 22 69 23 70 31 71 24 72 26 73 32 74 25 75 27 76
REMARK SMILES IDX 28 77 29 78 30 79 54 80 55 81 63 82 56 83 58 84 64 85 57 86
REMARK SMILES IDX 59 87 60 88 61 89 62 90 39 91 40 92 48 93 41 94 43 95 49 96
REMARK SMILES IDX 42 97 44 98 45 99 46 100 47 101
REMARK H PARENT 3 8 10 35 69 54 37 65
REMARK Flexibility Score: inf
ROOT
ATOM      1  C   UNL A   1      37.121  20.969  24.533  1.00  0.00     0.002 C 
ENDROOT
BRANCH   1   2
ATOM      2  C   UNL A   1      35.660  21.026  24.998  1.00  0.00     0.002 C 
BRANCH   2   3
ATOM      3  C   UNL A   1      35.359  21.887  26.225  1.00  0.00     0.021 C 
BRANCH   3   4
ATOM      4  C   UNL A   1      35.099  23.363  25.944  1.00  0.00     0.116 C 
BRANCH   4   5
ATOM      5  N   UNL A   1      35.146  23.697  24.531  1.00  0.00    -0.352 N 
ATOM      6  O   UNL A   1      34.321  24.360  22.537  1.00  0.00    -0.270 OA
ATOM      7  C   UNL A   1      34.132  24.141  23.726  1.00  0.00     0.251 C 
ATOM      8  H   UNL A   1      36.023  23.591  24.095  1.00  0.00     0.163 HD
BRANCH   7   9
ATOM      9  C   UNL A   1      32.798  24.370  24.316  1.00  0.00     0.067 C 
ATOM     10  C   UNL A   1      32.155  25.457  23.876  1.00  0.00     0.026 C 
ATOM     11  C   UNL A   1      32.476  23.760  25.644  1.00  0.00     0.314 C 
ATOM     12  C   UNL A   1      31.903  26.479  24.916  1.00  0.00     0.033 A 
ATOM     13  O   UNL A   1      32.025  24.726  26.634  1.00  0.00    -0.475 OA
ATOM     14  C   UNL A   1      31.884  26.038  26.255  1.00  0.00     0.129 A 
ATOM     15  C   UNL A   1      31.813  27.861  24.605  1.00  0.00     0.042 A 
ATOM     16  C   UNL A   1      31.795  26.957  27.296  1.00  0.00     0.049 A 
ATOM     17  C   UNL A   1      31.767  28.771  25.685  1.00  0.00     0.055 A 
ATOM     18  C   UNL A   1      31.755  28.319  27.011  1.00  0.00     0.025 A 
ATOM     19  Cl  UNL A   1      31.778  30.491  25.463  1.00  0.00    -0.083 Cl
BRANCH  11  20
ATOM     20  C   UNL A   1      31.426  22.651  25.483  1.00  0.00     0.429 C 
ATOM     21  F   UNL A   1      30.695  22.479  26.610  1.00  0.00    -0.167 F 
ATOM     22  F   UNL A   1      30.550  22.945  24.493  1.00  0.00    -0.167 F 
ATOM     23  F   UNL A   1      31.987  21.456  25.185  1.00  0.00    -0.167 F 
ENDBRANCH  11  20
BRANCH  15  24
ATOM     24  S   UNL A   1      31.905  28.506  22.907  1.00  0.00    -0.088 SA
BRANCH  24  25
ATOM     25  C   UNL A   1      30.240  29.022  22.533  1.00  0.00     0.012 A 
ATOM     26  C   UNL A   1      29.173  28.333  23.125  1.00  0.00     0.015 A 
ATOM     27  C   UNL A   1      29.976  30.144  21.740  1.00  0.00     0.015 A 
ATOM     28  C   UNL A   1      27.865  28.802  22.988  1.00  0.00     0.001 A 
ATOM     29  C   UNL A   1      28.664  30.606  21.597  1.00  0.00     0.001 A 
ATOM     30  C   UNL A   1      27.612  29.944  22.232  1.00  0.00     0.000 A 
ENDBRANCH  24  25
ENDBRANCH  15  24
ENDBRANCH   7   9
ENDBRANCH   4   5
ENDBRANCH   3   4
ENDBRANCH   2   3
ENDBRANCH   1   2
BRANCH   1  31
ATOM     31  C   UNL A   1      37.968  19.781  25.002  1.00  0.00     0.021 C 
BRANCH  31  32
ATOM     32  C   UNL A   1      39.005  20.051  26.092  1.00  0.00     0.116 C 
BRANCH  32  33
ATOM     33  N   UNL A   1      40.178  19.202  26.001  1.00  0.00    -0.352 N 
ATOM     34  C   UNL A   1      41.513  19.510  26.125  1.00  0.00     0.251 C 
ATOM     35  H   UNL A   1      39.988  18.253  25.822  1.00  0.00     0.163 HD
ATOM     36  O   UNL A   1      42.343  18.622  25.937  1.00  0.00    -0.269 OA
BRANCH  34  37
ATOM     37  C   UNL A   1      41.974  20.884  26.448  1.00  0.00     0.039 A 
ATOM     38  C   UNL A   1      42.104  21.800  25.396  1.00  0.00     0.014 A 
ATOM     39  C   UNL A   1      42.332  21.273  27.742  1.00  0.00     0.014 A 
ATOM     40  C   UNL A   1      42.534  23.107  25.645  1.00  0.00     0.010 A 
ATOM     41  C   UNL A   1      42.712  22.594  27.999  1.00  0.00     0.010 A 
ATOM     42  C   UNL A   1      42.820  23.525  26.954  1.00  0.00    -0.014 A 
BRANCH  42  43
ATOM     43  C   UNL A   1      43.224  24.926  27.242  1.00  0.00     0.031 A 
ATOM     44  C   UNL A   1      42.256  25.888  27.876  1.00  0.00     0.074 A 
ATOM     45  C   UNL A   1      44.445  25.360  26.870  1.00  0.00     0.049 A 
ATOM     46  N   UNL A   1      42.416  27.159  28.148  1.00  0.00    -0.248 NA
ATOM     47  C   UNL A   1      40.929  25.362  28.233  1.00  0.00     0.031 C 
ATOM     48  C   UNL A   1      45.454  24.553  26.182  1.00  0.00     0.029 A 
ATOM     49  N   UNL A   1      45.034  26.595  26.992  1.00  0.00    -0.354 N 
ATOM     50  C   UNL A   1      41.204  27.591  28.673  1.00  0.00     0.074 A 
ATOM     51  C   UNL A   1      40.311  26.452  28.667  1.00  0.00     0.031 C 
ATOM     52  C   UNL A   1      46.534  25.313  25.939  1.00  0.00     0.029 A 
ATOM     53  C   UNL A   1      46.292  26.664  26.439  1.00  0.00     0.049 A 
ATOM     54  H   UNL A   1      44.597  27.359  27.432  1.00  0.00     0.167 HD
ATOM     55  C   UNL A   1      40.872  28.815  29.148  1.00  0.00     0.034 A 
ATOM     56  C   UNL A   1      47.156  27.694  26.349  1.00  0.00     0.034 A 
ATOM     57  C   UNL A   1      41.773  29.935  29.217  1.00  0.00     0.049 A 
ATOM     58  C   UNL A   1      46.790  29.022  26.954  1.00  0.00     0.074 A 
ATOM     59  C   UNL A   1      41.542  31.194  29.745  1.00  0.00     0.029 A 
ATOM     60  N   UNL A   1      43.079  29.929  28.757  1.00  0.00    -0.354 N 
ATOM     61  N   UNL A   1      45.690  29.368  27.576  1.00  0.00    -0.248 NA
ATOM     62  C   UNL A   1      47.798  30.091  26.878  1.00  0.00     0.031 C 
ATOM     63  C   UNL A   1      42.714  31.946  29.615  1.00  0.00     0.029 A 
ATOM     64  C   UNL A   1      43.671  31.157  28.997  1.00  0.00     0.049 A 
ATOM     65  H   UNL A   1      43.521  29.163  28.323  1.00  0.00     0.167 HD
ATOM     66  C   UNL A   1      45.881  30.681  27.986  1.00  0.00     0.074 A 
ATOM     67  C   UNL A   1      47.212  31.064  27.564  1.00  0.00     0.031 C 
ATOM     68  C   UNL A   1      45.020  31.504  28.634  1.00  0.00     0.034 A 
BRANCH  55  69
ATOM     69  C   UNL A   1      39.488  28.990  29.710  1.00  0.00     0.023 A 
ATOM     70  C   UNL A   1      39.239  28.594  31.039  1.00  0.00     0.012 A 
ATOM     71  C   UNL A   1      38.458  29.587  28.959  1.00  0.00     0.148 A 
ATOM     72  C   UNL A   1      37.980  28.774  31.609  1.00  0.00     0.002 A 
ATOM     73  C   UNL A   1      37.211  29.789  29.544  1.00  0.00     0.091 A 
ATOM     74  F   UNL A   1      38.704  29.929  27.686  1.00  0.00    -0.205 F 
ATOM     75  C   UNL A   1      36.969  29.379  30.865  1.00  0.00     0.022 A 
BRANCH  73  76
ATOM     76  S   UNL A   1      35.873  30.612  28.673  1.00  0.00     0.127 S 
ATOM     77  O   UNL A   1      36.603  31.384  27.668  1.00  0.00    -0.237 OA
ATOM     78  O   UNL A   1      35.104  29.488  28.137  1.00  0.00    -0.237 OA
ATOM     79  O   UNL A   1      35.171  31.391  29.684  1.00  0.00    -0.744 OA
ENDBRANCH  73  76
ENDBRANCH  55  69
BRANCH  56  80
ATOM     80  C   UNL A   1      48.493  27.478  25.731  1.00  0.00     0.023 A 
ATOM     81  C   UNL A   1      49.565  27.063  26.543  1.00  0.00     0.012 A 
ATOM     82  C   UNL A   1      48.698  27.632  24.348  1.00  0.00     0.148 A 
ATOM     83  C   UNL A   1      50.823  26.821  25.990  1.00  0.00     0.002 A 
ATOM     84  C   UNL A   1      49.943  27.344  23.796  1.00  0.00     0.091 A 
ATOM     85  F   UNL A   1      47.674  28.051  23.589  1.00  0.00    -0.205 F 
ATOM     86  C   UNL A   1      51.010  26.949  24.615  1.00  0.00     0.022 A 
BRANCH  84  87
ATOM     87  S   UNL A   1      50.192  27.366  22.017  1.00  0.00     0.127 S 
ATOM     88  O   UNL A   1      51.555  26.856  21.895  1.00  0.00    -0.237 OA
ATOM     89  O   UNL A   1      49.151  26.457  21.536  1.00  0.00    -0.237 OA
ATOM     90  O   UNL A   1      49.983  28.758  21.635  1.00  0.00    -0.744 OA
ENDBRANCH  84  87
ENDBRANCH  56  80
BRANCH  68  91
ATOM     91  C   UNL A   1      45.485  32.901  28.940  1.00  0.00     0.023 A 
ATOM     92  C   UNL A   1      46.276  33.126  30.082  1.00  0.00     0.012 A 
ATOM     93  C   UNL A   1      45.212  33.969  28.064  1.00  0.00     0.148 A 
ATOM     94  C   UNL A   1      46.777  34.398  30.358  1.00  0.00     0.002 A 
ATOM     95  C   UNL A   1      45.742  35.229  28.329  1.00  0.00     0.091 A 
ATOM     96  F   UNL A   1      44.435  33.743  26.994  1.00  0.00    -0.205 F 
ATOM     97  C   UNL A   1      46.520  35.445  29.476  1.00  0.00     0.022 A 
BRANCH  95  98
ATOM     98  S   UNL A   1      45.512  36.602  27.193  1.00  0.00     0.127 S 
ATOM     99  O   UNL A   1      46.433  36.256  26.112  1.00  0.00    -0.237 OA
ATOM    100  O   UNL A   1      44.096  36.498  26.842  1.00  0.00    -0.237 OA
ATOM    101  O   UNL A   1      45.850  37.795  27.959  1.00  0.00    -0.744 OA
ENDBRANCH  95  98
ENDBRANCH  68  91
ENDBRANCH  42  43
ENDBRANCH  34  37
ENDBRANCH  32  33
ENDBRANCH  31  32
ENDBRANCH   1  31
TORSDOF 19
ENDMDL
