MODEL 1
REMARK VINA RESULT:     -10.6      0.000      0.000
REMARK SMILES CCN(C(=O)N[C@@H]1CCOC1)[C@H]1COC[C@H]1C(=O)NCCCCCCNC(=O)c1ccc(-c2c3nc(c(-c4cccc(S(=O)(=O)[O-])c4F)c4ccc([nH]4)c(-c4cccc(S(=O)(=O)[O-])c4F)c4nc(c(-c5cccc(S(=O)(=O)[O-])c5F)c5ccc2[nH]5)C=C4)C=C3)cc1
REMARK SMILES IDX 22 1 21 2 20 3 19 4 17 5 18 6 16 8 12 9 13 10 14 11 15 12
REMARK SMILES IDX 3 13 2 14 1 15 4 16 5 17 6 18 7 20 8 21 11 22 9 23 10 24
REMARK SMILES IDX 23 25 24 26 25 27 26 28 27 29 28 31 29 32 30 33 91 34 31 35
REMARK SMILES IDX 90 36 32 37 33 38 34 39 84 40 35 41 89 42 83 43 85 44 36 45
REMARK SMILES IDX 88 46 82 47 81 48 37 50 69 51 49 52 68 53 50 54 53 55 67 56
REMARK SMILES IDX 86 57 51 58 52 59 66 61 87 62 54 63 38 64 39 65 47 66 40 67
REMARK SMILES IDX 42 68 48 69 41 70 43 71 44 72 45 73 46 74 70 75 71 76 79 77
REMARK SMILES IDX 72 78 74 79 80 80 73 81 75 82 76 83 77 84 78 85 55 86 56 87
REMARK SMILES IDX 64 88 57 89 59 90 65 91 58 92 60 93 61 94 62 95 63 96
REMARK H PARENT 19 7 6 19 26 30 85 49 53 60
REMARK Flexibility Score: inf
ROOT
ATOM      1  C   UNL A   1      32.731  29.686  26.939  1.00  0.00     0.002 C 
ENDROOT
BRANCH   1   2
ATOM      2  C   UNL A   1      32.538  28.191  27.227  1.00  0.00     0.021 C 
BRANCH   2   3
ATOM      3  C   UNL A   1      31.389  27.477  26.505  1.00  0.00     0.116 C 
BRANCH   3   4
ATOM      4  N   UNL A   1      31.196  26.113  26.949  1.00  0.00    -0.356 N 
ATOM      5  C   UNL A   1      31.724  24.923  26.590  1.00  0.00     0.227 C 
ATOM      6  O   UNL A   1      31.400  23.986  27.342  1.00  0.00    -0.275 OA
ATOM      7  H   UNL A   1      30.533  26.035  27.672  1.00  0.00     0.163 HD
BRANCH   5   8
ATOM      8  C   UNL A   1      32.717  24.607  25.476  1.00  0.00     0.129 C 
ATOM      9  C   UNL A   1      32.570  24.718  23.959  1.00  0.00     0.127 C 
ATOM     10  C   UNL A   1      33.981  24.266  23.548  1.00  0.00     0.186 C 
ATOM     11  O   UNL A   1      34.884  24.826  24.515  1.00  0.00    -0.378 OA
ATOM     12  C   UNL A   1      34.152  25.013  25.746  1.00  0.00     0.176 C 
BRANCH   9  13
ATOM     13  N   UNL A   1      32.105  25.997  23.350  1.00  0.00    -0.319 N 
BRANCH  13  14
ATOM     14  C   UNL A   1      33.085  26.856  22.670  1.00  0.00     0.118 C 
ATOM     15  C   UNL A   1      33.699  28.001  23.468  1.00  0.00     0.027 C 
ENDBRANCH  13  14
BRANCH  13  16
ATOM     16  C   UNL A   1      30.744  26.105  23.242  1.00  0.00     0.318 C 
ATOM     17  O   UNL A   1      30.024  25.095  23.269  1.00  0.00    -0.249 OA
ATOM     18  N   UNL A   1      30.023  27.220  23.128  1.00  0.00    -0.333 N 
ATOM     19  H   UNL A   1      29.103  26.930  22.929  1.00  0.00     0.165 HD
BRANCH  18  20
ATOM     20  C   UNL A   1      29.986  28.692  23.167  1.00  0.00     0.112 C 
ATOM     21  C   UNL A   1      28.592  29.259  23.313  1.00  0.00     0.056 C 
ATOM     22  C   UNL A   1      30.583  29.540  22.064  1.00  0.00     0.185 C 
ATOM     23  C   UNL A   1      28.264  29.746  21.921  1.00  0.00     0.162 C 
ATOM     24  O   UNL A   1      29.506  30.058  21.275  1.00  0.00    -0.379 OA
ENDBRANCH  18  20
ENDBRANCH  13  16
ENDBRANCH   9  13
ENDBRANCH   5   8
ENDBRANCH   3   4
ENDBRANCH   2   3
ENDBRANCH   1   2
BRANCH   1  25
ATOM     25  C   UNL A   1      31.555  30.464  26.333  1.00  0.00     0.002 C 
BRANCH  25  26
ATOM     26  C   UNL A   1      31.445  31.966  26.616  1.00  0.00     0.021 C 
BRANCH  26  27
ATOM     27  C   UNL A   1      32.720  32.726  26.985  1.00  0.00     0.116 C 
BRANCH  27  28
ATOM     28  N   UNL A   1      32.496  33.969  27.693  1.00  0.00    -0.352 N 
ATOM     29  C   UNL A   1      33.177  34.536  28.747  1.00  0.00     0.251 C 
ATOM     30  H   UNL A   1      31.730  34.494  27.369  1.00  0.00     0.163 HD
ATOM     31  O   UNL A   1      32.746  35.585  29.226  1.00  0.00    -0.269 OA
BRANCH  29  32
ATOM     32  C   UNL A   1      34.392  33.916  29.344  1.00  0.00     0.039 A 
ATOM     33  C   UNL A   1      34.207  32.897  30.287  1.00  0.00     0.014 A 
ATOM     34  C   UNL A   1      35.691  34.353  29.065  1.00  0.00     0.014 A 
ATOM     35  C   UNL A   1      35.308  32.285  30.901  1.00  0.00     0.010 A 
ATOM     36  C   UNL A   1      36.795  33.709  29.648  1.00  0.00     0.010 A 
ATOM     37  C   UNL A   1      36.618  32.664  30.569  1.00  0.00    -0.014 A 
BRANCH  37  38
ATOM     38  C   UNL A   1      37.786  31.937  31.147  1.00  0.00     0.031 A 
ATOM     39  C   UNL A   1      38.305  32.246  32.528  1.00  0.00     0.074 A 
ATOM     40  C   UNL A   1      38.424  31.010  30.403  1.00  0.00     0.049 A 
ATOM     41  N   UNL A   1      39.305  31.700  33.175  1.00  0.00    -0.248 NA
ATOM     42  C   UNL A   1      37.624  33.315  33.275  1.00  0.00     0.031 C 
ATOM     43  C   UNL A   1      38.076  30.650  29.027  1.00  0.00     0.029 A 
ATOM     44  N   UNL A   1      39.511  30.216  30.686  1.00  0.00    -0.354 N 
ATOM     45  C   UNL A   1      39.392  32.370  34.391  1.00  0.00     0.074 A 
ATOM     46  C   UNL A   1      38.354  33.379  34.382  1.00  0.00     0.031 C 
ATOM     47  C   UNL A   1      38.932  29.714  28.586  1.00  0.00     0.029 A 
ATOM     48  C   UNL A   1      39.904  29.420  29.634  1.00  0.00     0.049 A 
ATOM     49  H   UNL A   1      39.966  30.218  31.559  1.00  0.00     0.167 HD
ATOM     50  C   UNL A   1      40.238  32.152  35.428  1.00  0.00     0.034 A 
ATOM     51  C   UNL A   1      40.933  28.555  29.518  1.00  0.00     0.034 A 
ATOM     52  C   UNL A   1      41.248  31.125  35.460  1.00  0.00     0.049 A 
ATOM     53  C   UNL A   1      41.841  28.315  30.693  1.00  0.00     0.074 A 
ATOM     54  C   UNL A   1      42.086  30.775  36.506  1.00  0.00     0.029 A 
ATOM     55  N   UNL A   1      41.571  30.291  34.401  1.00  0.00    -0.354 N 
ATOM     56  N   UNL A   1      41.793  28.839  31.893  1.00  0.00    -0.248 NA
ATOM     57  C   UNL A   1      42.923  27.336  30.510  1.00  0.00     0.031 C 
ATOM     58  C   UNL A   1      42.931  29.748  36.072  1.00  0.00     0.029 A 
ATOM     59  C   UNL A   1      42.604  29.442  34.762  1.00  0.00     0.049 A 
ATOM     60  H   UNL A   1      41.130  30.302  33.521  1.00  0.00     0.167 HD
ATOM     61  C   UNL A   1      42.816  28.234  32.615  1.00  0.00     0.074 A 
ATOM     62  C   UNL A   1      43.451  27.284  31.727  1.00  0.00     0.031 C 
ATOM     63  C   UNL A   1      43.205  28.461  33.894  1.00  0.00     0.034 A 
BRANCH  50  64
ATOM     64  C   UNL A   1      40.079  33.008  36.660  1.00  0.00     0.023 A 
ATOM     65  C   UNL A   1      39.057  32.708  37.583  1.00  0.00     0.012 A 
ATOM     66  C   UNL A   1      40.988  34.046  36.948  1.00  0.00     0.148 A 
ATOM     67  C   UNL A   1      38.924  33.445  38.761  1.00  0.00     0.002 A 
ATOM     68  C   UNL A   1      40.874  34.749  38.143  1.00  0.00     0.091 A 
ATOM     69  F   UNL A   1      41.944  34.326  36.051  1.00  0.00    -0.205 F 
ATOM     70  C   UNL A   1      39.838  34.457  39.044  1.00  0.00     0.022 A 
BRANCH  68  71
ATOM     71  S   UNL A   1      42.045  36.020  38.635  1.00  0.00     0.127 S 
ATOM     72  O   UNL A   1      41.656  37.130  37.765  1.00  0.00    -0.237 OA
ATOM     73  O   UNL A   1      41.718  36.211  40.048  1.00  0.00    -0.237 OA
ATOM     74  O   UNL A   1      43.367  35.465  38.387  1.00  0.00    -0.744 OA
ENDBRANCH  68  71
ENDBRANCH  50  64
BRANCH  51  75
ATOM     75  C   UNL A   1      41.127  27.803  28.244  1.00  0.00     0.023 A 
ATOM     76  C   UNL A   1      41.687  28.459  27.130  1.00  0.00     0.012 A 
ATOM     77  C   UNL A   1      40.782  26.442  28.138  1.00  0.00     0.148 A 
ATOM     78  C   UNL A   1      41.874  27.780  25.925  1.00  0.00     0.002 A 
ATOM     79  C   UNL A   1      41.023  25.757  26.952  1.00  0.00     0.091 A 
ATOM     80  F   UNL A   1      40.231  25.840  29.202  1.00  0.00    -0.205 F 
ATOM     81  C   UNL A   1      41.553  26.428  25.840  1.00  0.00     0.022 A 
BRANCH  79  82
ATOM     82  S   UNL A   1      40.768  23.985  26.800  1.00  0.00     0.127 S 
ATOM     83  O   UNL A   1      41.674  23.647  25.706  1.00  0.00    -0.237 OA
ATOM     84  O   UNL A   1      41.183  23.504  28.118  1.00  0.00    -0.237 OA
ATOM     85  O   UNL A   1      39.348  23.819  26.524  1.00  0.00    -0.744 OA
ENDBRANCH  79  82
ENDBRANCH  51  75
BRANCH  63  86
ATOM     86  C   UNL A   1      44.361  27.656  34.430  1.00  0.00     0.023 A 
ATOM     87  C   UNL A   1      45.675  28.147  34.296  1.00  0.00     0.012 A 
ATOM     88  C   UNL A   1      44.145  26.448  35.123  1.00  0.00     0.148 A 
ATOM     89  C   UNL A   1      46.757  27.435  34.814  1.00  0.00     0.002 A 
ATOM     90  C   UNL A   1      45.223  25.766  35.677  1.00  0.00     0.091 A 
ATOM     91  F   UNL A   1      42.890  25.984  35.224  1.00  0.00    -0.205 F 
ATOM     92  C   UNL A   1      46.531  26.252  35.512  1.00  0.00     0.022 A 
BRANCH  90  93
ATOM     93  S   UNL A   1      45.020  24.283  36.670  1.00  0.00     0.127 S 
ATOM     94  O   UNL A   1      46.405  23.942  36.987  1.00  0.00    -0.237 OA
ATOM     95  O   UNL A   1      44.236  24.772  37.804  1.00  0.00    -0.237 OA
ATOM     96  O   UNL A   1      44.319  23.327  35.821  1.00  0.00    -0.744 OA
ENDBRANCH  90  93
ENDBRANCH  63  86
ENDBRANCH  37  38
ENDBRANCH  29  32
ENDBRANCH  27  28
ENDBRANCH  26  27
ENDBRANCH  25  26
ENDBRANCH   1  25
TORSDOF 20
ENDMDL
MODEL 2
REMARK VINA RESULT:     -10.4      5.320     10.128
REMARK SMILES CCN(C(=O)N[C@@H]1CCOC1)[C@H]1COC[C@H]1C(=O)NCCCCCCNC(=O)c1ccc(-c2c3nc(c(-c4cccc(S(=O)(=O)[O-])c4F)c4ccc([nH]4)c(-c4cccc(S(=O)(=O)[O-])c4F)c4nc(c(-c5cccc(S(=O)(=O)[O-])c5F)c5ccc2[nH]5)C=C4)C=C3)cc1
REMARK SMILES IDX 22 1 21 2 20 3 19 4 17 5 18 6 16 8 12 9 13 10 14 11 15 12
REMARK SMILES IDX 3 13 2 14 1 15 4 16 5 17 6 18 7 20 8 21 11 22 9 23 10 24
REMARK SMILES IDX 23 25 24 26 25 27 26 28 27 29 28 31 29 32 30 33 91 34 31 35
REMARK SMILES IDX 90 36 32 37 33 38 34 39 84 40 35 41 89 42 83 43 85 44 36 45
REMARK SMILES IDX 88 46 82 47 81 48 37 50 69 51 49 52 68 53 50 54 53 55 67 56
REMARK SMILES IDX 86 57 51 58 52 59 66 61 87 62 54 63 38 64 39 65 47 66 40 67
REMARK SMILES IDX 42 68 48 69 41 70 43 71 44 72 45 73 46 74 70 75 71 76 79 77
REMARK SMILES IDX 72 78 74 79 80 80 73 81 75 82 76 83 77 84 78 85 55 86 56 87
REMARK SMILES IDX 64 88 57 89 59 90 65 91 58 92 60 93 61 94 62 95 63 96
REMARK H PARENT 19 7 6 19 26 30 85 49 53 60
REMARK Flexibility Score: inf
ROOT
ATOM      1  C   UNL A   1      33.433  20.206  25.511  1.00  0.00     0.002 C 
ENDROOT
BRANCH   1   2
ATOM      2  C   UNL A   1      32.096  20.658  24.908  1.00  0.00     0.021 C 
BRANCH   2   3
ATOM      3  C   UNL A   1      31.385  21.839  25.579  1.00  0.00     0.116 C 
BRANCH   3   4
ATOM      4  N   UNL A   1      32.293  22.872  26.032  1.00  0.00    -0.356 N 
ATOM      5  C   UNL A   1      32.857  23.951  25.448  1.00  0.00     0.227 C 
ATOM      6  O   UNL A   1      33.465  24.688  26.245  1.00  0.00    -0.275 OA
ATOM      7  H   UNL A   1      32.557  22.763  26.974  1.00  0.00     0.163 HD
BRANCH   5   8
ATOM      8  C   UNL A   1      32.761  24.423  24.001  1.00  0.00     0.129 C 
ATOM      9  C   UNL A   1      32.122  25.680  23.411  1.00  0.00     0.127 C 
ATOM     10  C   UNL A   1      32.471  25.454  21.931  1.00  0.00     0.186 C 
ATOM     11  O   UNL A   1      33.793  24.891  21.908  1.00  0.00    -0.378 OA
ATOM     12  C   UNL A   1      34.002  24.200  23.159  1.00  0.00     0.176 C 
BRANCH   9  13
ATOM     13  N   UNL A   1      32.481  27.021  23.956  1.00  0.00    -0.319 N 
BRANCH  13  14
ATOM     14  C   UNL A   1      33.742  27.645  23.529  1.00  0.00     0.118 C 
ATOM     15  C   UNL A   1      33.670  29.033  22.904  1.00  0.00     0.027 C 
ENDBRANCH  13  14
BRANCH  13  16
ATOM     16  C   UNL A   1      31.450  27.664  24.588  1.00  0.00     0.318 C 
ATOM     17  O   UNL A   1      31.492  27.880  25.809  1.00  0.00    -0.249 OA
ATOM     18  N   UNL A   1      30.337  28.149  24.041  1.00  0.00    -0.333 N 
ATOM     19  H   UNL A   1      29.757  28.414  24.792  1.00  0.00     0.165 HD
BRANCH  18  20
ATOM     20  C   UNL A   1      29.584  28.468  22.815  1.00  0.00     0.112 C 
ATOM     21  C   UNL A   1      30.061  29.724  22.122  1.00  0.00     0.056 C 
ATOM     22  C   UNL A   1      28.080  28.632  22.816  1.00  0.00     0.185 C 
ATOM     23  C   UNL A   1      29.008  30.746  22.483  1.00  0.00     0.162 C 
ATOM     24  O   UNL A   1      27.789  30.032  22.729  1.00  0.00    -0.379 OA
ENDBRANCH  18  20
ENDBRANCH  13  16
ENDBRANCH   9  13
ENDBRANCH   5   8
ENDBRANCH   3   4
ENDBRANCH   2   3
ENDBRANCH   1   2
BRANCH   1  25
ATOM     25  C   UNL A   1      34.704  20.393  24.672  1.00  0.00     0.002 C 
BRANCH  25  26
ATOM     26  C   UNL A   1      35.648  21.550  25.017  1.00  0.00     0.021 C 
BRANCH  26  27
ATOM     27  C   UNL A   1      37.064  21.523  24.436  1.00  0.00     0.116 C 
BRANCH  27  28
ATOM     28  N   UNL A   1      37.935  20.524  25.020  1.00  0.00    -0.352 N 
ATOM     29  C   UNL A   1      39.071  20.662  25.785  1.00  0.00     0.251 C 
ATOM     30  H   UNL A   1      37.672  19.593  24.839  1.00  0.00     0.163 HD
ATOM     31  O   UNL A   1      39.684  19.646  26.112  1.00  0.00    -0.269 OA
BRANCH  29  32
ATOM     32  C   UNL A   1      39.600  21.989  26.204  1.00  0.00     0.039 A 
ATOM     33  C   UNL A   1      40.933  22.055  26.631  1.00  0.00     0.014 A 
ATOM     34  C   UNL A   1      38.814  23.145  26.260  1.00  0.00     0.014 A 
ATOM     35  C   UNL A   1      41.487  23.270  27.056  1.00  0.00     0.010 A 
ATOM     36  C   UNL A   1      39.382  24.370  26.645  1.00  0.00     0.010 A 
ATOM     37  C   UNL A   1      40.727  24.450  27.043  1.00  0.00    -0.014 A 
BRANCH  37  38
ATOM     38  C   UNL A   1      41.352  25.758  27.396  1.00  0.00     0.031 A 
ATOM     39  C   UNL A   1      42.778  26.078  27.024  1.00  0.00     0.074 A 
ATOM     40  C   UNL A   1      40.643  26.662  28.104  1.00  0.00     0.049 A 
ATOM     41  N   UNL A   1      43.464  27.170  27.252  1.00  0.00    -0.248 NA
ATOM     42  C   UNL A   1      43.535  25.035  26.318  1.00  0.00     0.031 C 
ATOM     43  C   UNL A   1      39.276  26.466  28.589  1.00  0.00     0.029 A 
ATOM     44  N   UNL A   1      40.979  27.916  28.558  1.00  0.00    -0.354 N 
ATOM     45  C   UNL A   1      44.738  26.942  26.744  1.00  0.00     0.074 A 
ATOM     46  C   UNL A   1      44.735  25.594  26.211  1.00  0.00     0.031 C 
ATOM     47  C   UNL A   1      38.891  27.555  29.275  1.00  0.00     0.029 A 
ATOM     48  C   UNL A   1      39.988  28.519  29.300  1.00  0.00     0.049 A 
ATOM     49  H   UNL A   1      41.846  28.343  28.372  1.00  0.00     0.167 HD
ATOM     50  C   UNL A   1      45.804  27.779  26.698  1.00  0.00     0.034 A 
ATOM     51  C   UNL A   1      39.960  29.708  29.936  1.00  0.00     0.034 A 
ATOM     52  C   UNL A   1      45.804  29.133  27.191  1.00  0.00     0.049 A 
ATOM     53  C   UNL A   1      41.148  30.627  29.849  1.00  0.00     0.074 A 
ATOM     54  C   UNL A   1      46.810  30.080  27.102  1.00  0.00     0.029 A 
ATOM     55  N   UNL A   1      44.757  29.732  27.874  1.00  0.00    -0.354 N 
ATOM     56  N   UNL A   1      42.279  30.454  29.211  1.00  0.00    -0.248 NA
ATOM     57  C   UNL A   1      41.041  31.922  30.538  1.00  0.00     0.031 C 
ATOM     58  C   UNL A   1      46.383  31.243  27.753  1.00  0.00     0.029 A 
ATOM     59  C   UNL A   1      45.100  31.027  28.228  1.00  0.00     0.049 A 
ATOM     60  H   UNL A   1      43.897  29.300  28.079  1.00  0.00     0.167 HD
ATOM     61  C   UNL A   1      43.005  31.625  29.397  1.00  0.00     0.074 A 
ATOM     62  C   UNL A   1      42.176  32.512  30.184  1.00  0.00     0.031 C 
ATOM     63  C   UNL A   1      44.256  31.929  28.968  1.00  0.00     0.034 A 
BRANCH  50  64
ATOM     64  C   UNL A   1      47.065  27.279  26.039  1.00  0.00     0.023 A 
ATOM     65  C   UNL A   1      47.271  27.522  24.666  1.00  0.00     0.012 A 
ATOM     66  C   UNL A   1      48.082  26.655  26.790  1.00  0.00     0.148 A 
ATOM     67  C   UNL A   1      48.454  27.126  24.043  1.00  0.00     0.002 A 
ATOM     68  C   UNL A   1      49.275  26.299  26.171  1.00  0.00     0.091 A 
ATOM     69  F   UNL A   1      47.863  26.419  28.091  1.00  0.00    -0.205 F 
ATOM     70  C   UNL A   1      49.459  26.524  24.797  1.00  0.00     0.022 A 
BRANCH  68  71
ATOM     71  S   UNL A   1      50.659  25.587  27.070  1.00  0.00     0.127 S 
ATOM     72  O   UNL A   1      50.068  24.354  27.589  1.00  0.00    -0.237 OA
ATOM     73  O   UNL A   1      51.647  25.389  26.009  1.00  0.00    -0.237 OA
ATOM     74  O   UNL A   1      51.034  26.572  28.074  1.00  0.00    -0.744 OA
ENDBRANCH  68  71
ENDBRANCH  50  64
BRANCH  51  75
ATOM     75  C   UNL A   1      38.732  30.125  30.673  1.00  0.00     0.023 A 
ATOM     76  C   UNL A   1      38.588  29.780  32.031  1.00  0.00     0.012 A 
ATOM     77  C   UNL A   1      37.721  30.877  30.044  1.00  0.00     0.148 A 
ATOM     78  C   UNL A   1      37.446  30.153  32.742  1.00  0.00     0.002 A 
ATOM     79  C   UNL A   1      36.612  31.293  30.773  1.00  0.00     0.091 A 
ATOM     80  F   UNL A   1      37.866  31.177  28.745  1.00  0.00    -0.205 F 
ATOM     81  C   UNL A   1      36.465  30.918  32.117  1.00  0.00     0.022 A 
BRANCH  79  82
ATOM     82  S   UNL A   1      35.372  32.394  30.085  1.00  0.00     0.127 S 
ATOM     83  O   UNL A   1      34.855  31.604  28.971  1.00  0.00    -0.237 OA
ATOM     84  O   UNL A   1      34.450  32.553  31.210  1.00  0.00    -0.237 OA
ATOM     85  O   UNL A   1      36.087  33.611  29.724  1.00  0.00    -0.744 OA
ENDBRANCH  79  82
ENDBRANCH  51  75
BRANCH  63  86
ATOM     86  C   UNL A   1      44.807  33.288  29.320  1.00  0.00     0.023 A 
ATOM     87  C   UNL A   1      45.488  33.470  30.540  1.00  0.00     0.012 A 
ATOM     88  C   UNL A   1      44.711  34.365  28.416  1.00  0.00     0.148 A 
ATOM     89  C   UNL A   1      46.035  34.710  30.870  1.00  0.00     0.002 A 
ATOM     90  C   UNL A   1      45.300  35.585  28.731  1.00  0.00     0.091 A 
ATOM     91  F   UNL A   1      44.043  34.180  27.267  1.00  0.00    -0.205 F 
ATOM     92  C   UNL A   1      45.951  35.763  29.963  1.00  0.00     0.022 A 
BRANCH  90  93
ATOM     93  S   UNL A   1      45.319  36.970  27.587  1.00  0.00     0.127 S 
ATOM     94  O   UNL A   1      43.892  37.216  27.389  1.00  0.00    -0.237 OA
ATOM     95  O   UNL A   1      46.015  38.001  28.357  1.00  0.00    -0.237 OA
ATOM     96  O   UNL A   1      46.043  36.507  26.410  1.00  0.00    -0.744 OA
ENDBRANCH  90  93
ENDBRANCH  63  86
ENDBRANCH  37  38
ENDBRANCH  29  32
ENDBRANCH  27  28
ENDBRANCH  26  27
ENDBRANCH  25  26
ENDBRANCH   1  25
TORSDOF 20
ENDMDL
MODEL 3
REMARK VINA RESULT:     -10.4      4.556      9.337
REMARK SMILES CCN(C(=O)N[C@@H]1CCOC1)[C@H]1COC[C@H]1C(=O)NCCCCCCNC(=O)c1ccc(-c2c3nc(c(-c4cccc(S(=O)(=O)[O-])c4F)c4ccc([nH]4)c(-c4cccc(S(=O)(=O)[O-])c4F)c4nc(c(-c5cccc(S(=O)(=O)[O-])c5F)c5ccc2[nH]5)C=C4)C=C3)cc1
REMARK SMILES IDX 22 1 21 2 20 3 19 4 17 5 18 6 16 8 12 9 13 10 14 11 15 12
REMARK SMILES IDX 3 13 2 14 1 15 4 16 5 17 6 18 7 20 8 21 11 22 9 23 10 24
REMARK SMILES IDX 23 25 24 26 25 27 26 28 27 29 28 31 29 32 30 33 91 34 31 35
REMARK SMILES IDX 90 36 32 37 33 38 34 39 84 40 35 41 89 42 83 43 85 44 36 45
REMARK SMILES IDX 88 46 82 47 81 48 37 50 69 51 49 52 68 53 50 54 53 55 67 56
REMARK SMILES IDX 86 57 51 58 52 59 66 61 87 62 54 63 38 64 39 65 47 66 40 67
REMARK SMILES IDX 42 68 48 69 41 70 43 71 44 72 45 73 46 74 70 75 71 76 79 77
REMARK SMILES IDX 72 78 74 79 80 80 73 81 75 82 76 83 77 84 78 85 55 86 56 87
REMARK SMILES IDX 64 88 57 89 59 90 65 91 58 92 60 93 61 94 62 95 63 96
REMARK H PARENT 19 7 6 19 26 30 85 49 53 60
REMARK Flexibility Score: inf
ROOT
ATOM      1  C   UNL A   1      33.939  22.402  23.798  1.00  0.00     0.002 C 
ENDROOT
BRANCH   1   2
ATOM      2  C   UNL A   1      32.804  22.733  22.821  1.00  0.00     0.021 C 
BRANCH   2   3
ATOM      3  C   UNL A   1      32.932  24.022  22.002  1.00  0.00     0.116 C 
BRANCH   3   4
ATOM      4  N   UNL A   1      31.794  24.906  22.145  1.00  0.00    -0.356 N 
ATOM      5  C   UNL A   1      31.362  25.732  23.121  1.00  0.00     0.227 C 
ATOM      6  O   UNL A   1      30.405  26.451  22.779  1.00  0.00    -0.275 OA
ATOM      7  H   UNL A   1      31.206  24.905  21.355  1.00  0.00     0.163 HD
BRANCH   5   8
ATOM      8  C   UNL A   1      31.941  25.965  24.513  1.00  0.00     0.129 C 
ATOM      9  C   UNL A   1      32.592  27.208  25.118  1.00  0.00     0.127 C 
ATOM     10  C   UNL A   1      32.865  26.671  26.533  1.00  0.00     0.186 C 
ATOM     11  O   UNL A   1      31.735  25.856  26.882  1.00  0.00    -0.378 OA
ATOM     12  C   UNL A   1      31.154  25.357  25.657  1.00  0.00     0.176 C 
BRANCH   9  13
ATOM     13  N   UNL A   1      31.885  28.520  25.057  1.00  0.00    -0.319 N 
BRANCH  13  14
ATOM     14  C   UNL A   1      31.579  29.219  26.313  1.00  0.00     0.118 C 
ATOM     15  C   UNL A   1      31.959  30.692  26.416  1.00  0.00     0.027 C 
ENDBRANCH  13  14
BRANCH  13  16
ATOM     16  C   UNL A   1      31.844  29.078  23.807  1.00  0.00     0.318 C 
ATOM     17  O   UNL A   1      32.839  29.050  23.067  1.00  0.00    -0.249 OA
ATOM     18  N   UNL A   1      30.807  29.669  23.214  1.00  0.00    -0.333 N 
ATOM     19  H   UNL A   1      31.162  30.078  22.391  1.00  0.00     0.165 HD
BRANCH  18  20
ATOM     20  C   UNL A   1      29.369  29.984  23.238  1.00  0.00     0.112 C 
ATOM     21  C   UNL A   1      28.640  29.582  21.976  1.00  0.00     0.056 C 
ATOM     22  C   UNL A   1      28.858  31.386  23.491  1.00  0.00     0.185 C 
ATOM     23  C   UNL A   1      28.446  30.892  21.249  1.00  0.00     0.162 C 
ATOM     24  O   UNL A   1      28.420  31.928  22.240  1.00  0.00    -0.379 OA
ENDBRANCH  18  20
ENDBRANCH  13  16
ENDBRANCH   9  13
ENDBRANCH   5   8
ENDBRANCH   3   4
ENDBRANCH   2   3
ENDBRANCH   1   2
BRANCH   1  25
ATOM     25  C   UNL A   1      34.521  23.543  24.644  1.00  0.00     0.002 C 
BRANCH  25  26
ATOM     26  C   UNL A   1      35.703  23.240  25.571  1.00  0.00     0.021 C 
BRANCH  26  27
ATOM     27  C   UNL A   1      37.118  23.372  25.002  1.00  0.00     0.116 C 
BRANCH  27  28
ATOM     28  N   UNL A   1      38.079  22.444  25.561  1.00  0.00    -0.352 N 
ATOM     29  C   UNL A   1      39.209  22.669  26.315  1.00  0.00     0.251 C 
ATOM     30  H   UNL A   1      37.896  21.497  25.368  1.00  0.00     0.163 HD
ATOM     31  O   UNL A   1      39.911  21.706  26.619  1.00  0.00    -0.269 OA
BRANCH  29  32
ATOM     32  C   UNL A   1      39.626  24.031  26.749  1.00  0.00     0.039 A 
ATOM     33  C   UNL A   1      39.333  24.414  28.065  1.00  0.00     0.014 A 
ATOM     34  C   UNL A   1      40.222  24.960  25.890  1.00  0.00     0.014 A 
ATOM     35  C   UNL A   1      39.681  25.689  28.530  1.00  0.00     0.010 A 
ATOM     36  C   UNL A   1      40.610  26.222  26.371  1.00  0.00     0.010 A 
ATOM     37  C   UNL A   1      40.349  26.601  27.698  1.00  0.00    -0.014 A 
BRANCH  37  38
ATOM     38  C   UNL A   1      40.811  27.916  28.231  1.00  0.00     0.031 A 
ATOM     39  C   UNL A   1      42.275  28.271  28.300  1.00  0.00     0.074 A 
ATOM     40  C   UNL A   1      39.903  28.795  28.704  1.00  0.00     0.049 A 
ATOM     41  N   UNL A   1      42.837  29.373  28.731  1.00  0.00    -0.248 NA
ATOM     42  C   UNL A   1      43.232  27.253  27.842  1.00  0.00     0.031 C 
ATOM     43  C   UNL A   1      38.459  28.564  28.761  1.00  0.00     0.029 A 
ATOM     44  N   UNL A   1      40.059  30.048  29.248  1.00  0.00    -0.354 N 
ATOM     45  C   UNL A   1      44.209  29.178  28.620  1.00  0.00     0.074 A 
ATOM     46  C   UNL A   1      44.395  27.839  28.100  1.00  0.00     0.031 C 
ATOM     47  C   UNL A   1      37.862  29.634  29.311  1.00  0.00     0.029 A 
ATOM     48  C   UNL A   1      38.879  30.620  29.667  1.00  0.00     0.049 A 
ATOM     49  H   UNL A   1      40.932  30.496  29.330  1.00  0.00     0.167 HD
ATOM     50  C   UNL A   1      45.220  30.037  28.899  1.00  0.00     0.034 A 
ATOM     51  C   UNL A   1      38.636  31.799  30.276  1.00  0.00     0.034 A 
ATOM     52  C   UNL A   1      45.043  31.383  29.380  1.00  0.00     0.049 A 
ATOM     53  C   UNL A   1      39.775  32.743  30.552  1.00  0.00     0.074 A 
ATOM     54  C   UNL A   1      46.007  32.352  29.602  1.00  0.00     0.029 A 
ATOM     55  N   UNL A   1      43.827  31.951  29.728  1.00  0.00    -0.354 N 
ATOM     56  N   UNL A   1      41.048  32.602  30.277  1.00  0.00    -0.248 NA
ATOM     57  C   UNL A   1      39.438  34.026  31.189  1.00  0.00     0.031 C 
ATOM     58  C   UNL A   1      45.379  33.496  30.106  1.00  0.00     0.029 A 
ATOM     59  C   UNL A   1      44.019  33.247  30.178  1.00  0.00     0.049 A 
ATOM     60  H   UNL A   1      42.954  31.499  29.665  1.00  0.00     0.167 HD
ATOM     61  C   UNL A   1      41.658  33.785  30.679  1.00  0.00     0.074 A 
ATOM     62  C   UNL A   1      40.612  34.644  31.192  1.00  0.00     0.031 C 
ATOM     63  C   UNL A   1      42.972  34.121  30.643  1.00  0.00     0.034 A 
BRANCH  50  64
ATOM     64  C   UNL A   1      46.632  29.573  28.639  1.00  0.00     0.023 A 
ATOM     65  C   UNL A   1      47.228  29.839  27.390  1.00  0.00     0.012 A 
ATOM     66  C   UNL A   1      47.395  28.959  29.653  1.00  0.00     0.148 A 
ATOM     67  C   UNL A   1      48.552  29.476  27.143  1.00  0.00     0.002 A 
ATOM     68  C   UNL A   1      48.726  28.636  29.412  1.00  0.00     0.091 A 
ATOM     69  F   UNL A   1      46.807  28.700  30.829  1.00  0.00    -0.205 F 
ATOM     70  C   UNL A   1      49.303  28.885  28.156  1.00  0.00     0.022 A 
BRANCH  68  71
ATOM     71  S   UNL A   1      49.799  27.940  30.675  1.00  0.00     0.127 S 
ATOM     72  O   UNL A   1      51.098  27.961  30.001  1.00  0.00    -0.237 OA
ATOM     73  O   UNL A   1      49.663  28.908  31.763  1.00  0.00    -0.237 OA
ATOM     74  O   UNL A   1      49.268  26.617  30.967  1.00  0.00    -0.744 OA
ENDBRANCH  68  71
ENDBRANCH  50  64
BRANCH  51  75
ATOM     75  C   UNL A   1      37.235  32.180  30.620  1.00  0.00     0.023 A 
ATOM     76  C   UNL A   1      36.742  31.916  31.912  1.00  0.00     0.012 A 
ATOM     77  C   UNL A   1      36.400  32.820  29.684  1.00  0.00     0.148 A 
ATOM     78  C   UNL A   1      35.433  32.256  32.257  1.00  0.00     0.002 A 
ATOM     79  C   UNL A   1      35.117  33.208  30.051  1.00  0.00     0.091 A 
ATOM     80  F   UNL A   1      36.881  33.044  28.452  1.00  0.00    -0.205 F 
ATOM     81  C   UNL A   1      34.626  32.912  31.332  1.00  0.00     0.022 A 
BRANCH  79  82
ATOM     82  S   UNL A   1      34.061  34.176  28.969  1.00  0.00     0.127 S 
ATOM     83  O   UNL A   1      33.626  33.174  28.001  1.00  0.00    -0.237 OA
ATOM     84  O   UNL A   1      33.022  34.637  29.890  1.00  0.00    -0.237 OA
ATOM     85  O   UNL A   1      34.909  35.239  28.446  1.00  0.00    -0.744 OA
ENDBRANCH  79  82
ENDBRANCH  51  75
BRANCH  63  86
ATOM     86  C   UNL A   1      43.362  35.485  31.152  1.00  0.00     0.023 A 
ATOM     87  C   UNL A   1      43.659  35.661  32.518  1.00  0.00     0.012 A 
ATOM     88  C   UNL A   1      43.500  36.577  30.271  1.00  0.00     0.148 A 
ATOM     89  C   UNL A   1      44.055  36.907  33.005  1.00  0.00     0.002 A 
ATOM     90  C   UNL A   1      43.939  37.804  30.755  1.00  0.00     0.091 A 
ATOM     91  F   UNL A   1      43.194  36.397  28.977  1.00  0.00    -0.205 F 
ATOM     92  C   UNL A   1      44.205  37.974  32.124  1.00  0.00     0.022 A 
BRANCH  90  93
ATOM     93  S   UNL A   1      44.248  39.210  29.680  1.00  0.00     0.127 S 
ATOM     94  O   UNL A   1      45.061  38.608  28.625  1.00  0.00    -0.237 OA
ATOM     95  O   UNL A   1      42.897  39.590  29.268  1.00  0.00    -0.237 OA
ATOM     96  O   UNL A   1      44.928  40.202  30.504  1.00  0.00    -0.744 OA
ENDBRANCH  90  93
ENDBRANCH  63  86
ENDBRANCH  37  38
ENDBRANCH  29  32
ENDBRANCH  27  28
ENDBRANCH  26  27
ENDBRANCH  25  26
ENDBRANCH   1  25
TORSDOF 20
ENDMDL
