MODEL 1
REMARK VINA RESULT:     -12.1      0.000      0.000
REMARK SMILES CS(=O)(=O)c1ccc(/C=C(/C(=O)NCCCCCCNC(=O)c2ccc(-c3c4nc(c(-c5cccc(S(=O)(=O)[O-])c5F)c5ccc([nH]5)c(-c5cccc(S(=O)(=O)[O-])c5F)c5nc(c(-c6cccc(S(=O)(=O)[O-])c6F)c6ccc3[nH]6)C=C5)C=C4)cc2)c2cccc(Br)c2)cc1
REMARK SMILES IDX 17 1 16 2 15 3 14 4 13 5 11 6 12 7 10 9 9 10 8 11 5 12 6 13
REMARK SMILES IDX 94 14 7 15 93 16 2 17 1 18 3 19 4 20 86 21 87 22 92 23 88 24
REMARK SMILES IDX 90 25 89 26 91 27 18 28 19 29 20 30 21 31 22 33 23 34 24 35
REMARK SMILES IDX 85 36 25 37 84 38 26 39 27 40 28 41 78 42 29 43 83 44 77 45
REMARK SMILES IDX 79 46 30 47 82 48 76 49 75 50 31 52 63 53 43 54 62 55 44 56
REMARK SMILES IDX 47 57 61 58 80 59 45 60 46 61 60 63 81 64 48 65 32 66 33 67
REMARK SMILES IDX 41 68 34 69 36 70 42 71 35 72 37 73 38 74 39 75 40 76 64 77
REMARK SMILES IDX 65 78 73 79 66 80 68 81 74 82 67 83 69 84 70 85 71 86 72 87
REMARK SMILES IDX 49 88 50 89 58 90 51 91 53 92 59 93 52 94 54 95 55 96 56 97
REMARK SMILES IDX 57 98
REMARK H PARENT 13 8 20 32 79 51 47 62
REMARK Flexibility Score: inf
ROOT
ATOM      1  C   UNL A   1      35.984  22.672  23.607  1.00  0.00     0.002 C 
ENDROOT
BRANCH   1   2
ATOM      2  C   UNL A   1      34.457  22.776  23.515  1.00  0.00     0.002 C 
BRANCH   2   3
ATOM      3  C   UNL A   1      33.691  21.818  24.441  1.00  0.00     0.021 C 
BRANCH   3   4
ATOM      4  C   UNL A   1      32.171  21.985  24.354  1.00  0.00     0.116 C 
BRANCH   4   5
ATOM      5  N   UNL A   1      31.652  22.303  25.669  1.00  0.00    -0.352 N 
ATOM      6  C   UNL A   1      31.259  23.446  26.285  1.00  0.00     0.251 C 
ATOM      7  O   UNL A   1      30.977  23.340  27.482  1.00  0.00    -0.269 OA
ATOM      8  H   UNL A   1      31.564  21.510  26.246  1.00  0.00     0.163 HD
BRANCH   6   9
ATOM      9  C   UNL A   1      31.061  24.765  25.569  1.00  0.00     0.047 C 
ATOM     10  C   UNL A   1      30.158  24.934  24.575  1.00  0.00     0.022 C 
BRANCH  10  11
ATOM     11  C   UNL A   1      29.711  26.179  23.907  1.00  0.00    -0.025 A 
ATOM     12  C   UNL A   1      28.734  28.610  22.892  1.00  0.00     0.067 A 
ATOM     13  C   UNL A   1      30.090  28.302  22.776  1.00  0.00     0.021 A 
ATOM     14  C   UNL A   1      27.851  27.707  23.479  1.00  0.00     0.021 A 
ATOM     15  C   UNL A   1      30.563  27.073  23.246  1.00  0.00     0.009 A 
ATOM     16  C   UNL A   1      28.342  26.497  23.982  1.00  0.00     0.009 A 
BRANCH  12  17
ATOM     17  S   UNL A   1      28.144  30.185  22.321  1.00  0.00     0.175 S 
ATOM     18  C   UNL A   1      29.542  31.247  22.572  1.00  0.00     0.163 C 
ATOM     19  O   UNL A   1      27.091  30.613  23.222  1.00  0.00    -0.224 OA
ATOM     20  O   UNL A   1      27.900  30.074  20.895  1.00  0.00    -0.224 OA
ENDBRANCH  12  17
ENDBRANCH  10  11
BRANCH   9  21
ATOM     21  C   UNL A   1      32.044  25.834  25.886  1.00  0.00    -0.012 A 
ATOM     22  C   UNL A   1      33.380  25.640  25.487  1.00  0.00     0.009 A 
ATOM     23  C   UNL A   1      31.677  27.058  26.460  1.00  0.00     0.024 A 
ATOM     24  C   UNL A   1      34.324  26.656  25.618  1.00  0.00     0.002 A 
ATOM     25  C   UNL A   1      32.623  28.082  26.557  1.00  0.00     0.018 A 
ATOM     26  C   UNL A   1      33.940  27.887  26.137  1.00  0.00     0.016 A 
ATOM     27  Br  UNL A   1      32.100  29.782  27.199  1.00  0.00    -0.051 Br
ENDBRANCH   9  21
ENDBRANCH   6   9
ENDBRANCH   4   5
ENDBRANCH   3   4
ENDBRANCH   2   3
ENDBRANCH   1   2
BRANCH   1  28
ATOM     28  C   UNL A   1      36.635  23.693  24.544  1.00  0.00     0.021 C 
BRANCH  28  29
ATOM     29  C   UNL A   1      36.746  23.222  25.990  1.00  0.00     0.116 C 
BRANCH  29  30
ATOM     30  N   UNL A   1      37.892  22.345  26.178  1.00  0.00    -0.352 N 
ATOM     31  C   UNL A   1      39.196  22.677  26.446  1.00  0.00     0.251 C 
ATOM     32  H   UNL A   1      37.706  21.382  26.104  1.00  0.00     0.163 HD
ATOM     33  O   UNL A   1      40.081  21.834  26.331  1.00  0.00    -0.269 OA
BRANCH  31  34
ATOM     34  C   UNL A   1      39.526  24.054  26.866  1.00  0.00     0.039 A 
ATOM     35  C   UNL A   1      39.321  24.427  28.196  1.00  0.00     0.014 A 
ATOM     36  C   UNL A   1      40.034  24.974  25.944  1.00  0.00     0.014 A 
ATOM     37  C   UNL A   1      39.671  25.712  28.612  1.00  0.00     0.010 A 
ATOM     38  C   UNL A   1      40.457  26.226  26.379  1.00  0.00     0.010 A 
ATOM     39  C   UNL A   1      40.268  26.613  27.714  1.00  0.00    -0.014 A 
BRANCH  39  40
ATOM     40  C   UNL A   1      40.706  27.961  28.156  1.00  0.00     0.031 A 
ATOM     41  C   UNL A   1      42.168  28.310  28.201  1.00  0.00     0.074 A 
ATOM     42  C   UNL A   1      39.789  28.844  28.599  1.00  0.00     0.049 A 
ATOM     43  N   UNL A   1      42.738  29.417  28.598  1.00  0.00    -0.248 NA
ATOM     44  C   UNL A   1      43.116  27.269  27.769  1.00  0.00     0.031 C 
ATOM     45  C   UNL A   1      38.349  28.592  28.687  1.00  0.00     0.029 A 
ATOM     46  N   UNL A   1      39.934  30.118  29.086  1.00  0.00    -0.354 N 
ATOM     47  C   UNL A   1      44.107  29.195  28.505  1.00  0.00     0.074 A 
ATOM     48  C   UNL A   1      44.283  27.836  28.044  1.00  0.00     0.031 C 
ATOM     49  C   UNL A   1      37.743  29.678  29.192  1.00  0.00     0.029 A 
ATOM     50  C   UNL A   1      38.752  30.687  29.499  1.00  0.00     0.049 A 
ATOM     51  H   UNL A   1      40.801  30.580  29.135  1.00  0.00     0.167 HD
ATOM     52  C   UNL A   1      45.125  30.051  28.757  1.00  0.00     0.034 A 
ATOM     53  C   UNL A   1      38.507  31.880  30.076  1.00  0.00     0.034 A 
ATOM     54  C   UNL A   1      44.944  31.412  29.184  1.00  0.00     0.049 A 
ATOM     55  C   UNL A   1      39.650  32.829  30.309  1.00  0.00     0.074 A 
ATOM     56  C   UNL A   1      45.904  32.391  29.366  1.00  0.00     0.029 A 
ATOM     57  N   UNL A   1      43.724  31.983  29.515  1.00  0.00    -0.354 N 
ATOM     58  N   UNL A   1      40.926  32.660  30.055  1.00  0.00    -0.248 NA
ATOM     59  C   UNL A   1      39.318  34.144  30.872  1.00  0.00     0.031 C 
ATOM     60  C   UNL A   1      45.271  33.540  29.851  1.00  0.00     0.029 A 
ATOM     61  C   UNL A   1      43.910  33.293  29.924  1.00  0.00     0.049 A 
ATOM     62  H   UNL A   1      42.854  31.524  29.466  1.00  0.00     0.167 HD
ATOM     63  C   UNL A   1      41.544  33.858  30.397  1.00  0.00     0.074 A 
ATOM     64  C   UNL A   1      40.499  34.749  30.855  1.00  0.00     0.031 C 
ATOM     65  C   UNL A   1      42.858  34.185  30.342  1.00  0.00     0.034 A 
BRANCH  52  66
ATOM     66  C   UNL A   1      46.532  29.547  28.555  1.00  0.00     0.023 A 
ATOM     67  C   UNL A   1      47.183  29.753  27.321  1.00  0.00     0.012 A 
ATOM     68  C   UNL A   1      47.226  28.912  29.602  1.00  0.00     0.148 A 
ATOM     69  C   UNL A   1      48.485  29.296  27.118  1.00  0.00     0.002 A 
ATOM     70  C   UNL A   1      48.540  28.504  29.411  1.00  0.00     0.091 A 
ATOM     71  F   UNL A   1      46.585  28.705  30.762  1.00  0.00    -0.205 F 
ATOM     72  C   UNL A   1      49.166  28.682  28.166  1.00  0.00     0.022 A 
BRANCH  70  73
ATOM     73  S   UNL A   1      49.530  27.780  30.723  1.00  0.00     0.127 S 
ATOM     74  O   UNL A   1      49.571  28.871  31.696  1.00  0.00    -0.237 OA
ATOM     75  O   UNL A   1      48.713  26.635  31.126  1.00  0.00    -0.237 OA
ATOM     76  O   UNL A   1      50.808  27.432  30.118  1.00  0.00    -0.744 OA
ENDBRANCH  70  73
ENDBRANCH  52  66
BRANCH  53  77
ATOM     77  C   UNL A   1      37.111  32.254  30.430  1.00  0.00     0.023 A 
ATOM     78  C   UNL A   1      36.631  32.017  31.733  1.00  0.00     0.012 A 
ATOM     79  C   UNL A   1      36.269  32.882  29.492  1.00  0.00     0.148 A 
ATOM     80  C   UNL A   1      35.330  32.374  32.087  1.00  0.00     0.002 A 
ATOM     81  C   UNL A   1      34.995  33.289  29.868  1.00  0.00     0.091 A 
ATOM     82  F   UNL A   1      36.744  33.092  28.256  1.00  0.00    -0.205 F 
ATOM     83  C   UNL A   1      34.516  33.018  31.160  1.00  0.00     0.022 A 
BRANCH  81  84
ATOM     84  S   UNL A   1      33.931  34.247  28.785  1.00  0.00     0.127 S 
ATOM     85  O   UNL A   1      33.535  33.248  27.795  1.00  0.00    -0.237 OA
ATOM     86  O   UNL A   1      32.870  34.665  29.702  1.00  0.00    -0.237 OA
ATOM     87  O   UNL A   1      34.756  35.338  28.283  1.00  0.00    -0.744 OA
ENDBRANCH  81  84
ENDBRANCH  53  77
BRANCH  65  88
ATOM     88  C   UNL A   1      43.249  35.581  30.753  1.00  0.00     0.023 A 
ATOM     89  C   UNL A   1      43.627  35.849  32.084  1.00  0.00     0.012 A 
ATOM     90  C   UNL A   1      43.310  36.614  29.796  1.00  0.00     0.148 A 
ATOM     91  C   UNL A   1      44.024  37.131  32.463  1.00  0.00     0.002 A 
ATOM     92  C   UNL A   1      43.760  37.874  30.169  1.00  0.00     0.091 A 
ATOM     93  F   UNL A   1      42.931  36.344  28.539  1.00  0.00    -0.205 F 
ATOM     94  C   UNL A   1      44.103  38.138  31.505  1.00  0.00     0.022 A 
BRANCH  92  95
ATOM     95  S   UNL A   1      43.990  39.205  28.985  1.00  0.00     0.127 S 
ATOM     96  O   UNL A   1      44.994  38.635  28.088  1.00  0.00    -0.237 OA
ATOM     97  O   UNL A   1      42.655  39.334  28.402  1.00  0.00    -0.237 OA
ATOM     98  O   UNL A   1      44.429  40.360  29.756  1.00  0.00    -0.744 OA
ENDBRANCH  92  95
ENDBRANCH  65  88
ENDBRANCH  39  40
ENDBRANCH  31  34
ENDBRANCH  29  30
ENDBRANCH  28  29
ENDBRANCH   1  28
TORSDOF 19
ENDMDL
MODEL 2
REMARK VINA RESULT:     -11.9      2.152      2.486
REMARK SMILES CS(=O)(=O)c1ccc(/C=C(/C(=O)NCCCCCCNC(=O)c2ccc(-c3c4nc(c(-c5cccc(S(=O)(=O)[O-])c5F)c5ccc([nH]5)c(-c5cccc(S(=O)(=O)[O-])c5F)c5nc(c(-c6cccc(S(=O)(=O)[O-])c6F)c6ccc3[nH]6)C=C5)C=C4)cc2)c2cccc(Br)c2)cc1
REMARK SMILES IDX 17 1 16 2 15 3 14 4 13 5 11 6 12 7 10 9 9 10 8 11 5 12 6 13
REMARK SMILES IDX 94 14 7 15 93 16 2 17 1 18 3 19 4 20 86 21 87 22 92 23 88 24
REMARK SMILES IDX 90 25 89 26 91 27 18 28 19 29 20 30 21 31 22 33 23 34 24 35
REMARK SMILES IDX 85 36 25 37 84 38 26 39 27 40 28 41 78 42 29 43 83 44 77 45
REMARK SMILES IDX 79 46 30 47 82 48 76 49 75 50 31 52 63 53 43 54 62 55 44 56
REMARK SMILES IDX 47 57 61 58 80 59 45 60 46 61 60 63 81 64 48 65 32 66 33 67
REMARK SMILES IDX 41 68 34 69 36 70 42 71 35 72 37 73 38 74 39 75 40 76 64 77
REMARK SMILES IDX 65 78 73 79 66 80 68 81 74 82 67 83 69 84 70 85 71 86 72 87
REMARK SMILES IDX 49 88 50 89 58 90 51 91 53 92 59 93 52 94 54 95 55 96 56 97
REMARK SMILES IDX 57 98
REMARK H PARENT 13 8 20 32 79 51 47 62
REMARK Flexibility Score: inf
ROOT
ATOM      1  C   UNL A   1      35.772  23.221  23.815  1.00  0.00     0.002 C 
ENDROOT
BRANCH   1   2
ATOM      2  C   UNL A   1      34.370  22.732  23.433  1.00  0.00     0.002 C 
BRANCH   2   3
ATOM      3  C   UNL A   1      33.623  21.987  24.552  1.00  0.00     0.021 C 
BRANCH   3   4
ATOM      4  C   UNL A   1      32.103  21.992  24.365  1.00  0.00     0.116 C 
BRANCH   4   5
ATOM      5  N   UNL A   1      31.471  22.338  25.623  1.00  0.00    -0.352 N 
ATOM      6  C   UNL A   1      31.059  23.498  26.193  1.00  0.00     0.251 C 
ATOM      7  O   UNL A   1      30.661  23.410  27.358  1.00  0.00    -0.269 OA
ATOM      8  H   UNL A   1      31.303  21.553  26.193  1.00  0.00     0.163 HD
BRANCH   6   9
ATOM      9  C   UNL A   1      30.974  24.816  25.454  1.00  0.00     0.047 C 
ATOM     10  C   UNL A   1      30.129  25.026  24.418  1.00  0.00     0.022 C 
BRANCH  10  11
ATOM     11  C   UNL A   1      29.789  26.287  23.717  1.00  0.00    -0.025 A 
ATOM     12  C   UNL A   1      29.033  28.770  22.641  1.00  0.00     0.067 A 
ATOM     13  C   UNL A   1      30.345  28.317  22.492  1.00  0.00     0.021 A 
ATOM     14  C   UNL A   1      28.083  27.985  23.291  1.00  0.00     0.021 A 
ATOM     15  C   UNL A   1      30.704  27.062  22.994  1.00  0.00     0.009 A 
ATOM     16  C   UNL A   1      28.464  26.749  23.824  1.00  0.00     0.009 A 
BRANCH  12  17
ATOM     17  S   UNL A   1      28.588  30.376  22.028  1.00  0.00     0.175 S 
ATOM     18  C   UNL A   1      27.530  31.007  23.304  1.00  0.00     0.163 C 
ATOM     19  O   UNL A   1      27.785  30.185  20.836  1.00  0.00    -0.224 OA
ATOM     20  O   UNL A   1      29.793  31.183  21.990  1.00  0.00    -0.224 OA
ENDBRANCH  12  17
ENDBRANCH  10  11
BRANCH   9  21
ATOM     21  C   UNL A   1      32.004  25.829  25.805  1.00  0.00    -0.012 A 
ATOM     22  C   UNL A   1      33.335  25.575  25.422  1.00  0.00     0.009 A 
ATOM     23  C   UNL A   1      31.691  27.059  26.397  1.00  0.00     0.024 A 
ATOM     24  C   UNL A   1      34.327  26.539  25.585  1.00  0.00     0.002 A 
ATOM     25  C   UNL A   1      32.685  28.032  26.527  1.00  0.00     0.018 A 
ATOM     26  C   UNL A   1      33.997  27.779  26.122  1.00  0.00     0.016 A 
ATOM     27  Br  UNL A   1      32.238  29.745  27.193  1.00  0.00    -0.051 Br
ENDBRANCH   9  21
ENDBRANCH   6   9
ENDBRANCH   4   5
ENDBRANCH   3   4
ENDBRANCH   2   3
ENDBRANCH   1   2
BRANCH   1  28
ATOM     28  C   UNL A   1      36.732  22.115  24.260  1.00  0.00     0.021 C 
BRANCH  28  29
ATOM     29  C   UNL A   1      37.159  22.218  25.721  1.00  0.00     0.116 C 
BRANCH  29  30
ATOM     30  N   UNL A   1      38.180  21.234  26.048  1.00  0.00    -0.352 N 
ATOM     31  C   UNL A   1      39.483  21.437  26.429  1.00  0.00     0.251 C 
ATOM     32  H   UNL A   1      37.897  20.293  25.990  1.00  0.00     0.163 HD
ATOM     33  O   UNL A   1      40.277  20.502  26.428  1.00  0.00    -0.269 OA
BRANCH  31  34
ATOM     34  C   UNL A   1      39.921  22.789  26.830  1.00  0.00     0.039 A 
ATOM     35  C   UNL A   1      40.820  22.925  27.891  1.00  0.00     0.014 A 
ATOM     36  C   UNL A   1      39.443  23.919  26.160  1.00  0.00     0.014 A 
ATOM     37  C   UNL A   1      41.274  24.195  28.249  1.00  0.00     0.010 A 
ATOM     38  C   UNL A   1      39.959  25.174  26.465  1.00  0.00     0.010 A 
ATOM     39  C   UNL A   1      40.870  25.327  27.521  1.00  0.00    -0.014 A 
BRANCH  39  40
ATOM     40  C   UNL A   1      41.395  26.677  27.847  1.00  0.00     0.031 A 
ATOM     41  C   UNL A   1      42.826  27.030  27.551  1.00  0.00     0.074 A 
ATOM     42  C   UNL A   1      40.603  27.559  28.489  1.00  0.00     0.049 A 
ATOM     43  N   UNL A   1      43.470  28.139  27.804  1.00  0.00    -0.248 NA
ATOM     44  C   UNL A   1      43.652  25.990  26.914  1.00  0.00     0.031 C 
ATOM     45  C   UNL A   1      39.223  27.305  28.908  1.00  0.00     0.029 A 
ATOM     46  N   UNL A   1      40.854  28.835  28.926  1.00  0.00    -0.354 N 
ATOM     47  C   UNL A   1      44.781  27.920  27.397  1.00  0.00     0.074 A 
ATOM     48  C   UNL A   1      44.849  26.560  26.910  1.00  0.00     0.031 C 
ATOM     49  C   UNL A   1      38.748  28.390  29.537  1.00  0.00     0.029 A 
ATOM     50  C   UNL A   1      39.798  29.403  29.601  1.00  0.00     0.049 A 
ATOM     51  H   UNL A   1      41.707  29.299  28.772  1.00  0.00     0.167 HD
ATOM     52  C   UNL A   1      45.827  28.778  27.405  1.00  0.00     0.034 A 
ATOM     53  C   UNL A   1      39.690  30.596  30.216  1.00  0.00     0.034 A 
ATOM     54  C   UNL A   1      45.746  30.140  27.859  1.00  0.00     0.049 A 
ATOM     55  C   UNL A   1      40.853  31.548  30.177  1.00  0.00     0.074 A 
ATOM     56  C   UNL A   1      46.720  31.122  27.812  1.00  0.00     0.029 A 
ATOM     57  N   UNL A   1      44.634  30.709  28.463  1.00  0.00    -0.354 N 
ATOM     58  N   UNL A   1      42.036  31.381  29.635  1.00  0.00    -0.248 NA
ATOM     59  C   UNL A   1      40.656  32.864  30.799  1.00  0.00     0.031 C 
ATOM     60  C   UNL A   1      46.213  32.271  28.428  1.00  0.00     0.029 A 
ATOM     61  C   UNL A   1      44.906  32.020  28.815  1.00  0.00     0.049 A 
ATOM     62  H   UNL A   1      43.779  30.248  28.618  1.00  0.00     0.167 HD
ATOM     63  C   UNL A   1      42.713  32.581  29.822  1.00  0.00     0.074 A 
ATOM     64  C   UNL A   1      41.800  33.472  30.508  1.00  0.00     0.031 C 
ATOM     65  C   UNL A   1      43.978  32.911  29.464  1.00  0.00     0.034 A 
BRANCH  52  66
ATOM     66  C   UNL A   1      47.150  28.277  26.883  1.00  0.00     0.023 A 
ATOM     67  C   UNL A   1      48.188  27.960  27.783  1.00  0.00     0.012 A 
ATOM     68  C   UNL A   1      47.350  28.076  25.504  1.00  0.00     0.148 A 
ATOM     69  C   UNL A   1      49.417  27.493  27.317  1.00  0.00     0.002 A 
ATOM     70  C   UNL A   1      48.558  27.562  25.049  1.00  0.00     0.091 A 
ATOM     71  F   UNL A   1      46.360  28.403  24.660  1.00  0.00    -0.205 F 
ATOM     72  C   UNL A   1      49.597  27.284  25.953  1.00  0.00     0.022 A 
BRANCH  70  73
ATOM     73  S   UNL A   1      48.858  27.179  23.321  1.00  0.00     0.127 S 
ATOM     74  O   UNL A   1      48.218  28.312  22.653  1.00  0.00    -0.237 OA
ATOM     75  O   UNL A   1      50.320  27.180  23.256  1.00  0.00    -0.237 OA
ATOM     76  O   UNL A   1      48.240  25.883  23.082  1.00  0.00    -0.744 OA
ENDBRANCH  70  73
ENDBRANCH  52  66
BRANCH  53  77
ATOM     77  C   UNL A   1      38.412  30.968  30.884  1.00  0.00     0.023 A 
ATOM     78  C   UNL A   1      38.231  30.691  32.252  1.00  0.00     0.012 A 
ATOM     79  C   UNL A   1      37.393  31.633  30.176  1.00  0.00     0.148 A 
ATOM     80  C   UNL A   1      37.046  31.045  32.898  1.00  0.00     0.002 A 
ATOM     81  C   UNL A   1      36.239  32.036  30.838  1.00  0.00     0.091 A 
ATOM     82  F   UNL A   1      37.584  31.881  28.872  1.00  0.00    -0.205 F 
ATOM     83  C   UNL A   1      36.055  31.726  32.195  1.00  0.00     0.022 A 
BRANCH  81  84
ATOM     84  S   UNL A   1      34.976  33.038  30.048  1.00  0.00     0.127 S 
ATOM     85  O   UNL A   1      34.258  32.043  29.255  1.00  0.00    -0.237 OA
ATOM     86  O   UNL A   1      34.241  33.556  31.204  1.00  0.00    -0.237 OA
ATOM     87  O   UNL A   1      35.693  34.052  29.287  1.00  0.00    -0.744 OA
ENDBRANCH  81  84
ENDBRANCH  53  77
BRANCH  65  88
ATOM     88  C   UNL A   1      44.449  34.310  29.771  1.00  0.00     0.023 A 
ATOM     89  C   UNL A   1      45.219  34.561  30.924  1.00  0.00     0.012 A 
ATOM     90  C   UNL A   1      44.188  35.362  28.870  1.00  0.00     0.148 A 
ATOM     91  C   UNL A   1      45.689  35.846  31.195  1.00  0.00     0.002 A 
ATOM     92  C   UNL A   1      44.707  36.627  29.119  1.00  0.00     0.091 A 
ATOM     93  F   UNL A   1      43.440  35.106  27.787  1.00  0.00    -0.205 F 
ATOM     94  C   UNL A   1      45.444  36.874  30.288  1.00  0.00     0.022 A 
BRANCH  92  95
ATOM     95  S   UNL A   1      44.529  37.986  27.959  1.00  0.00     0.127 S 
ATOM     96  O   UNL A   1      45.210  39.070  28.664  1.00  0.00    -0.237 OA
ATOM     97  O   UNL A   1      45.238  37.483  26.783  1.00  0.00    -0.237 OA
ATOM     98  O   UNL A   1      43.096  38.170  27.770  1.00  0.00    -0.744 OA
ENDBRANCH  92  95
ENDBRANCH  65  88
ENDBRANCH  39  40
ENDBRANCH  31  34
ENDBRANCH  29  30
ENDBRANCH  28  29
ENDBRANCH   1  28
TORSDOF 19
ENDMDL
MODEL 3
REMARK VINA RESULT:     -11.7      3.612      8.229
REMARK SMILES CS(=O)(=O)c1ccc(/C=C(/C(=O)NCCCCCCNC(=O)c2ccc(-c3c4nc(c(-c5cccc(S(=O)(=O)[O-])c5F)c5ccc([nH]5)c(-c5cccc(S(=O)(=O)[O-])c5F)c5nc(c(-c6cccc(S(=O)(=O)[O-])c6F)c6ccc3[nH]6)C=C5)C=C4)cc2)c2cccc(Br)c2)cc1
REMARK SMILES IDX 17 1 16 2 15 3 14 4 13 5 11 6 12 7 10 9 9 10 8 11 5 12 6 13
REMARK SMILES IDX 94 14 7 15 93 16 2 17 1 18 3 19 4 20 86 21 87 22 92 23 88 24
REMARK SMILES IDX 90 25 89 26 91 27 18 28 19 29 20 30 21 31 22 33 23 34 24 35
REMARK SMILES IDX 85 36 25 37 84 38 26 39 27 40 28 41 78 42 29 43 83 44 77 45
REMARK SMILES IDX 79 46 30 47 82 48 76 49 75 50 31 52 63 53 43 54 62 55 44 56
REMARK SMILES IDX 47 57 61 58 80 59 45 60 46 61 60 63 81 64 48 65 32 66 33 67
REMARK SMILES IDX 41 68 34 69 36 70 42 71 35 72 37 73 38 74 39 75 40 76 64 77
REMARK SMILES IDX 65 78 73 79 66 80 68 81 74 82 67 83 69 84 70 85 71 86 72 87
REMARK SMILES IDX 49 88 50 89 58 90 51 91 53 92 59 93 52 94 54 95 55 96 56 97
REMARK SMILES IDX 57 98
REMARK H PARENT 13 8 20 32 79 51 47 62
REMARK Flexibility Score: inf
ROOT
ATOM      1  C   UNL A   1      37.380  21.671  24.291  1.00  0.00     0.002 C 
ENDROOT
BRANCH   1   2
ATOM      2  C   UNL A   1      35.856  21.840  24.329  1.00  0.00     0.002 C 
BRANCH   2   3
ATOM      3  C   UNL A   1      35.218  21.601  25.707  1.00  0.00     0.021 C 
BRANCH   3   4
ATOM      4  C   UNL A   1      34.782  22.896  26.400  1.00  0.00     0.116 C 
BRANCH   4   5
ATOM      5  N   UNL A   1      33.508  22.677  27.056  1.00  0.00    -0.352 N 
ATOM      6  C   UNL A   1      32.282  23.252  26.968  1.00  0.00     0.251 C 
ATOM      7  O   UNL A   1      31.449  22.864  27.793  1.00  0.00    -0.269 OA
ATOM      8  H   UNL A   1      33.540  21.946  27.715  1.00  0.00     0.163 HD
BRANCH   6   9
ATOM      9  C   UNL A   1      31.885  24.228  25.882  1.00  0.00     0.047 C 
ATOM     10  C   UNL A   1      31.103  25.308  26.115  1.00  0.00     0.022 C 
BRANCH  10  11
ATOM     11  C   UNL A   1      30.778  26.448  25.224  1.00  0.00    -0.025 A 
ATOM     12  C   UNL A   1      29.886  28.582  23.630  1.00  0.00     0.067 A 
ATOM     13  C   UNL A   1      30.984  28.755  24.474  1.00  0.00     0.021 A 
ATOM     14  C   UNL A   1      29.245  27.348  23.545  1.00  0.00     0.021 A 
ATOM     15  C   UNL A   1      31.448  27.677  25.234  1.00  0.00     0.009 A 
ATOM     16  C   UNL A   1      29.694  26.288  24.340  1.00  0.00     0.009 A 
BRANCH  12  17
ATOM     17  S   UNL A   1      29.281  29.962  22.689  1.00  0.00     0.175 S 
ATOM     18  C   UNL A   1      27.540  29.637  22.584  1.00  0.00     0.163 C 
ATOM     19  O   UNL A   1      29.835  29.860  21.354  1.00  0.00    -0.224 OA
ATOM     20  O   UNL A   1      29.478  31.159  23.485  1.00  0.00    -0.224 OA
ENDBRANCH  12  17
ENDBRANCH  10  11
BRANCH   9  21
ATOM     21  C   UNL A   1      32.247  23.842  24.493  1.00  0.00    -0.012 A 
ATOM     22  C   UNL A   1      33.125  24.684  23.784  1.00  0.00     0.009 A 
ATOM     23  C   UNL A   1      31.841  22.636  23.909  1.00  0.00     0.024 A 
ATOM     24  C   UNL A   1      33.623  24.315  22.536  1.00  0.00     0.002 A 
ATOM     25  C   UNL A   1      32.372  22.259  22.673  1.00  0.00     0.018 A 
ATOM     26  C   UNL A   1      33.260  23.089  21.987  1.00  0.00     0.016 A 
ATOM     27  Br  UNL A   1      31.940  20.567  21.945  1.00  0.00    -0.051 Br
ENDBRANCH   9  21
ENDBRANCH   6   9
ENDBRANCH   4   5
ENDBRANCH   3   4
ENDBRANCH   2   3
ENDBRANCH   1   2
BRANCH   1  28
ATOM     28  C   UNL A   1      37.896  20.408  24.985  1.00  0.00     0.021 C 
BRANCH  28  29
ATOM     29  C   UNL A   1      38.955  20.677  26.049  1.00  0.00     0.116 C 
BRANCH  29  30
ATOM     30  N   UNL A   1      39.965  19.630  26.072  1.00  0.00    -0.352 N 
ATOM     31  C   UNL A   1      41.332  19.750  26.095  1.00  0.00     0.251 C 
ATOM     32  H   UNL A   1      39.621  18.708  26.072  1.00  0.00     0.163 HD
ATOM     33  O   UNL A   1      42.040  18.775  25.864  1.00  0.00    -0.269 OA
BRANCH  31  34
ATOM     34  C   UNL A   1      41.942  21.062  26.392  1.00  0.00     0.039 A 
ATOM     35  C   UNL A   1      42.200  21.945  25.340  1.00  0.00     0.014 A 
ATOM     36  C   UNL A   1      42.261  21.416  27.706  1.00  0.00     0.014 A 
ATOM     37  C   UNL A   1      42.736  23.204  25.615  1.00  0.00     0.010 A 
ATOM     38  C   UNL A   1      42.718  22.700  27.984  1.00  0.00     0.010 A 
ATOM     39  C   UNL A   1      42.973  23.603  26.941  1.00  0.00    -0.014 A 
BRANCH  39  40
ATOM     40  C   UNL A   1      43.481  24.962  27.255  1.00  0.00     0.031 A 
ATOM     41  C   UNL A   1      42.560  26.008  27.820  1.00  0.00     0.074 A 
ATOM     42  C   UNL A   1      44.755  25.280  26.951  1.00  0.00     0.049 A 
ATOM     43  N   UNL A   1      42.813  27.256  28.114  1.00  0.00    -0.248 NA
ATOM     44  C   UNL A   1      41.162  25.608  28.058  1.00  0.00     0.031 C 
ATOM     45  C   UNL A   1      45.722  24.380  26.321  1.00  0.00     0.029 A 
ATOM     46  N   UNL A   1      45.445  26.455  27.104  1.00  0.00    -0.354 N 
ATOM     47  C   UNL A   1      41.605  27.801  28.532  1.00  0.00     0.074 A 
ATOM     48  C   UNL A   1      40.611  26.757  28.423  1.00  0.00     0.031 C 
ATOM     49  C   UNL A   1      46.881  25.033  26.145  1.00  0.00     0.029 A 
ATOM     50  C   UNL A   1      46.730  26.407  26.614  1.00  0.00     0.049 A 
ATOM     51  H   UNL A   1      45.059  27.257  27.525  1.00  0.00     0.167 HD
ATOM     52  C   UNL A   1      41.350  29.050  28.988  1.00  0.00     0.034 A 
ATOM     53  C   UNL A   1      47.675  27.363  26.535  1.00  0.00     0.034 A 
ATOM     54  C   UNL A   1      42.349  30.075  29.126  1.00  0.00     0.049 A 
ATOM     55  C   UNL A   1      47.380  28.732  27.084  1.00  0.00     0.074 A 
ATOM     56  C   UNL A   1      42.215  31.338  29.675  1.00  0.00     0.029 A 
ATOM     57  N   UNL A   1      43.662  29.965  28.695  1.00  0.00    -0.354 N 
ATOM     58  N   UNL A   1      46.276  29.179  27.632  1.00  0.00    -0.248 NA
ATOM     59  C   UNL A   1      48.471  29.715  27.040  1.00  0.00     0.031 C 
ATOM     60  C   UNL A   1      43.434  32.008  29.534  1.00  0.00     0.029 A 
ATOM     61  C   UNL A   1      44.343  31.145  28.942  1.00  0.00     0.049 A 
ATOM     62  H   UNL A   1      44.053  29.165  28.274  1.00  0.00     0.167 HD
ATOM     63  C   UNL A   1      46.548  30.484  28.027  1.00  0.00     0.074 A 
ATOM     64  C   UNL A   1      47.928  30.746  27.674  1.00  0.00     0.031 C 
ATOM     65  C   UNL A   1      45.727  31.384  28.621  1.00  0.00     0.034 A 
BRANCH  52  66
ATOM     66  C   UNL A   1      39.934  29.373  29.396  1.00  0.00     0.023 A 
ATOM     67  C   UNL A   1      38.958  29.626  28.411  1.00  0.00     0.012 A 
ATOM     68  C   UNL A   1      39.561  29.380  30.754  1.00  0.00     0.148 A 
ATOM     69  C   UNL A   1      37.643  29.923  28.771  1.00  0.00     0.002 A 
ATOM     70  C   UNL A   1      38.239  29.627  31.104  1.00  0.00     0.091 A 
ATOM     71  F   UNL A   1      40.507  29.159  31.678  1.00  0.00    -0.205 F 
ATOM     72  C   UNL A   1      37.283  29.913  30.115  1.00  0.00     0.022 A 
BRANCH  70  73
ATOM     73  S   UNL A   1      37.658  29.553  32.801  1.00  0.00     0.127 S 
ATOM     74  O   UNL A   1      36.397  30.288  32.713  1.00  0.00    -0.237 OA
ATOM     75  O   UNL A   1      37.510  28.112  33.012  1.00  0.00    -0.237 OA
ATOM     76  O   UNL A   1      38.694  30.182  33.609  1.00  0.00    -0.744 OA
ENDBRANCH  70  73
ENDBRANCH  52  66
BRANCH  53  77
ATOM     77  C   UNL A   1      49.004  27.039  25.947  1.00  0.00     0.023 A 
ATOM     78  C   UNL A   1      49.950  26.324  26.708  1.00  0.00     0.012 A 
ATOM     79  C   UNL A   1      49.317  27.401  24.623  1.00  0.00     0.148 A 
ATOM     80  C   UNL A   1      51.195  25.999  26.168  1.00  0.00     0.002 A 
ATOM     81  C   UNL A   1      50.536  27.022  24.072  1.00  0.00     0.091 A 
ATOM     82  F   UNL A   1      48.405  28.086  23.920  1.00  0.00    -0.205 F 
ATOM     83  C   UNL A   1      51.484  26.338  24.849  1.00  0.00     0.022 A 
BRANCH  81  84
ATOM     84  S   UNL A   1      50.936  27.293  22.343  1.00  0.00     0.127 S 
ATOM     85  O   UNL A   1      49.870  26.556  21.670  1.00  0.00    -0.237 OA
ATOM     86  O   UNL A   1      50.842  28.751  22.240  1.00  0.00    -0.237 OA
ATOM     87  O   UNL A   1      52.281  26.764  22.160  1.00  0.00    -0.744 OA
ENDBRANCH  81  84
ENDBRANCH  53  77
BRANCH  65  88
ATOM     88  C   UNL A   1      46.302  32.734  28.967  1.00  0.00     0.023 A 
ATOM     89  C   UNL A   1      47.031  32.909  30.160  1.00  0.00     0.012 A 
ATOM     90  C   UNL A   1      46.180  33.811  28.066  1.00  0.00     0.148 A 
ATOM     91  C   UNL A   1      47.597  34.146  30.468  1.00  0.00     0.002 A 
ATOM     92  C   UNL A   1      46.794  35.024  28.355  1.00  0.00     0.091 A 
ATOM     93  F   UNL A   1      45.468  33.630  26.945  1.00  0.00    -0.205 F 
ATOM     94  C   UNL A   1      47.489  35.197  29.562  1.00  0.00     0.022 A 
BRANCH  92  95
ATOM     95  S   UNL A   1      46.794  36.401  27.203  1.00  0.00     0.127 S 
ATOM     96  O   UNL A   1      47.625  37.377  27.906  1.00  0.00    -0.237 OA
ATOM     97  O   UNL A   1      47.418  35.813  26.018  1.00  0.00    -0.237 OA
ATOM     98  O   UNL A   1      45.399  36.781  27.028  1.00  0.00    -0.744 OA
ENDBRANCH  92  95
ENDBRANCH  65  88
ENDBRANCH  39  40
ENDBRANCH  31  34
ENDBRANCH  29  30
ENDBRANCH  28  29
ENDBRANCH   1  28
TORSDOF 19
ENDMDL
