MODEL 1
REMARK VINA RESULT:     -10.8      0.000      0.000
REMARK SMILES C[C@@](O)(c1ccc(Cl)cc1Cl)[C@@H](F)C(=O)NCCCCCCNC(=O)c1ccc(-c2c3nc(c(-c4cccc(S(=O)(=O)[O-])c4F)c4ccc([nH]4)c(-c4cccc(S(=O)(=O)[O-])c4F)c4nc(c(-c5cccc(S(=O)(=O)[O-])c5F)c5ccc2[nH]5)C=C4)C=C3)cc1
REMARK SMILES IDX 20 1 19 2 18 3 17 4 16 5 14 6 15 7 12 9 13 10 2 11 1 12 3 13
REMARK SMILES IDX 4 15 5 16 10 17 6 18 9 19 11 20 7 21 8 22 21 23 22 24 23 25
REMARK SMILES IDX 24 26 25 28 26 29 27 30 88 31 28 32 87 33 29 34 30 35 31 36
REMARK SMILES IDX 81 37 32 38 86 39 80 40 82 41 33 42 85 43 79 44 78 45 34 47
REMARK SMILES IDX 66 48 46 49 65 50 47 51 50 52 64 53 83 54 48 55 49 56 63 58
REMARK SMILES IDX 84 59 51 60 35 61 36 62 44 63 37 64 39 65 45 66 38 67 40 68
REMARK SMILES IDX 41 69 42 70 43 71 67 72 68 73 76 74 69 75 71 76 77 77 70 78
REMARK SMILES IDX 72 79 73 80 74 81 75 82 52 83 53 84 61 85 54 86 56 87 62 88
REMARK SMILES IDX 55 89 57 90 58 91 59 92 60 93
REMARK H PARENT 16 8 3 14 23 27 82 46 50 57
REMARK Flexibility Score: inf
ROOT
ATOM      1  C   UNL A   1      36.550  20.798  24.892  1.00  0.00     0.002 C 
ENDROOT
BRANCH   1   2
ATOM      2  C   UNL A   1      36.616  22.052  24.020  1.00  0.00     0.002 C 
BRANCH   2   3
ATOM      3  C   UNL A   1      36.791  23.357  24.794  1.00  0.00     0.021 C 
BRANCH   3   4
ATOM      4  C   UNL A   1      35.595  23.738  25.674  1.00  0.00     0.116 C 
BRANCH   4   5
ATOM      5  N   UNL A   1      34.970  24.945  25.162  1.00  0.00    -0.353 N 
ATOM      6  C   UNL A   1      34.089  25.120  24.135  1.00  0.00     0.257 C 
ATOM      7  O   UNL A   1      33.874  26.286  23.786  1.00  0.00    -0.272 OA
ATOM      8  H   UNL A   1      35.223  25.772  25.633  1.00  0.00     0.163 HD
BRANCH   6   9
ATOM      9  C   UNL A   1      33.405  23.947  23.417  1.00  0.00     0.291 C 
ATOM     10  F   UNL A   1      32.974  24.305  22.169  1.00  0.00    -0.233 F 
BRANCH   9  11
ATOM     11  C   UNL A   1      32.245  23.260  24.217  1.00  0.00     0.128 C 
ATOM     12  C   UNL A   1      30.917  23.453  23.469  1.00  0.00     0.051 C 
BRANCH  11  13
ATOM     13  O   UNL A   1      32.171  23.863  25.517  1.00  0.00    -0.382 OA
ATOM     14  H   UNL A   1      33.067  24.030  25.847  1.00  0.00     0.212 HD
ENDBRANCH  11  13
BRANCH  11  15
ATOM     15  C   UNL A   1      32.421  21.744  24.457  1.00  0.00     0.005 A 
ATOM     16  C   UNL A   1      32.738  21.247  25.740  1.00  0.00     0.010 A 
ATOM     17  C   UNL A   1      32.350  20.790  23.407  1.00  0.00     0.048 A 
ATOM     18  C   UNL A   1      33.034  19.896  25.954  1.00  0.00     0.021 A 
ATOM     19  C   UNL A   1      32.682  19.445  23.620  1.00  0.00     0.041 A 
ATOM     20  Cl  UNL A   1      31.846  21.166  21.788  1.00  0.00    -0.084 Cl
ATOM     21  C   UNL A   1      33.031  19.008  24.888  1.00  0.00     0.042 A 
ATOM     22  Cl  UNL A   1      33.452  17.360  25.142  1.00  0.00    -0.084 Cl
ENDBRANCH  11  15
ENDBRANCH   9  11
ENDBRANCH   6   9
ENDBRANCH   4   5
ENDBRANCH   3   4
ENDBRANCH   2   3
ENDBRANCH   1   2
BRANCH   1  23
ATOM     23  C   UNL A   1      37.802  19.917  24.853  1.00  0.00     0.021 C 
BRANCH  23  24
ATOM     24  C   UNL A   1      38.937  20.379  25.763  1.00  0.00     0.116 C 
BRANCH  24  25
ATOM     25  N   UNL A   1      39.943  19.341  25.939  1.00  0.00    -0.352 N 
ATOM     26  C   UNL A   1      41.297  19.470  26.105  1.00  0.00     0.251 C 
ATOM     27  H   UNL A   1      39.603  18.417  25.938  1.00  0.00     0.163 HD
ATOM     28  O   UNL A   1      42.032  18.489  25.992  1.00  0.00    -0.269 OA
BRANCH  26  29
ATOM     29  C   UNL A   1      41.869  20.796  26.412  1.00  0.00     0.039 A 
ATOM     30  C   UNL A   1      42.196  21.658  25.364  1.00  0.00     0.014 A 
ATOM     31  C   UNL A   1      42.075  21.184  27.739  1.00  0.00     0.014 A 
ATOM     32  C   UNL A   1      42.677  22.937  25.650  1.00  0.00     0.010 A 
ATOM     33  C   UNL A   1      42.483  22.483  28.022  1.00  0.00     0.010 A 
ATOM     34  C   UNL A   1      42.794  23.372  26.981  1.00  0.00    -0.014 A 
BRANCH  34  35
ATOM     35  C   UNL A   1      43.222  24.756  27.305  1.00  0.00     0.031 A 
ATOM     36  C   UNL A   1      42.245  25.733  27.899  1.00  0.00     0.074 A 
ATOM     37  C   UNL A   1      44.466  25.158  26.977  1.00  0.00     0.049 A 
ATOM     38  N   UNL A   1      42.417  26.996  28.190  1.00  0.00    -0.248 NA
ATOM     39  C   UNL A   1      40.887  25.233  28.178  1.00  0.00     0.031 C 
ATOM     40  C   UNL A   1      45.478  24.328  26.321  1.00  0.00     0.029 A 
ATOM     41  N   UNL A   1      45.079  26.378  27.121  1.00  0.00    -0.354 N 
ATOM     42  C   UNL A   1      41.187  27.451  28.650  1.00  0.00     0.074 A 
ATOM     43  C   UNL A   1      40.268  26.338  28.568  1.00  0.00     0.031 C 
ATOM     44  C   UNL A   1      46.584  25.061  26.118  1.00  0.00     0.029 A 
ATOM     45  C   UNL A   1      46.350  26.420  26.595  1.00  0.00     0.049 A 
ATOM     46  H   UNL A   1      44.651  27.149  27.558  1.00  0.00     0.167 HD
ATOM     47  C   UNL A   1      40.859  28.677  29.123  1.00  0.00     0.034 A 
ATOM     48  C   UNL A   1      47.223  27.441  26.493  1.00  0.00     0.034 A 
ATOM     49  C   UNL A   1      41.786  29.771  29.232  1.00  0.00     0.049 A 
ATOM     50  C   UNL A   1      46.846  28.785  27.053  1.00  0.00     0.074 A 
ATOM     51  C   UNL A   1      41.577  31.023  29.783  1.00  0.00     0.029 A 
ATOM     52  N   UNL A   1      43.091  29.753  28.767  1.00  0.00    -0.354 N 
ATOM     53  N   UNL A   1      45.730  29.150  27.638  1.00  0.00    -0.248 NA
ATOM     54  C   UNL A   1      47.857  29.848  26.973  1.00  0.00     0.031 C 
ATOM     55  C   UNL A   1      42.746  31.773  29.620  1.00  0.00     0.029 A 
ATOM     56  C   UNL A   1      43.696  30.976  29.002  1.00  0.00     0.049 A 
ATOM     57  H   UNL A   1      43.525  28.982  28.334  1.00  0.00     0.167 HD
ATOM     58  C   UNL A   1      45.918  30.472  28.025  1.00  0.00     0.074 A 
ATOM     59  C   UNL A   1      47.262  30.835  27.627  1.00  0.00     0.031 C 
ATOM     60  C   UNL A   1      45.051  31.312  28.642  1.00  0.00     0.034 A 
BRANCH  47  61
ATOM     61  C   UNL A   1      39.444  28.889  29.597  1.00  0.00     0.023 A 
ATOM     62  C   UNL A   1      39.080  28.505  30.905  1.00  0.00     0.012 A 
ATOM     63  C   UNL A   1      38.489  29.515  28.772  1.00  0.00     0.148 A 
ATOM     64  C   UNL A   1      37.781  28.704  31.369  1.00  0.00     0.002 A 
ATOM     65  C   UNL A   1      37.209  29.754  29.259  1.00  0.00     0.091 A 
ATOM     66  F   UNL A   1      38.845  29.855  27.525  1.00  0.00    -0.205 F 
ATOM     67  C   UNL A   1      36.850  29.336  30.551  1.00  0.00     0.022 A 
BRANCH  65  68
ATOM     68  S   UNL A   1      35.962  30.634  28.314  1.00  0.00     0.127 S 
ATOM     69  O   UNL A   1      34.913  30.823  29.315  1.00  0.00    -0.237 OA
ATOM     70  O   UNL A   1      36.670  31.858  27.935  1.00  0.00    -0.237 OA
ATOM     71  O   UNL A   1      35.612  29.764  27.199  1.00  0.00    -0.744 OA
ENDBRANCH  65  68
ENDBRANCH  47  61
BRANCH  48  72
ATOM     72  C   UNL A   1      48.560  27.215  25.873  1.00  0.00     0.023 A 
ATOM     73  C   UNL A   1      49.619  26.723  26.661  1.00  0.00     0.012 A 
ATOM     74  C   UNL A   1      48.777  27.455  24.502  1.00  0.00     0.148 A 
ATOM     75  C   UNL A   1      50.878  26.504  26.102  1.00  0.00     0.002 A 
ATOM     76  C   UNL A   1      50.018  27.180  23.940  1.00  0.00     0.091 A 
ATOM     77  F   UNL A   1      47.759  27.932  23.772  1.00  0.00    -0.205 F 
ATOM     78  C   UNL A   1      51.075  26.721  24.741  1.00  0.00     0.022 A 
BRANCH  76  79
ATOM     79  S   UNL A   1      50.322  27.299  22.174  1.00  0.00     0.127 S 
ATOM     80  O   UNL A   1      50.158  28.731  21.938  1.00  0.00    -0.237 OA
ATOM     81  O   UNL A   1      51.697  26.810  22.071  1.00  0.00    -0.237 OA
ATOM     82  O   UNL A   1      49.331  26.437  21.543  1.00  0.00    -0.744 OA
ENDBRANCH  76  79
ENDBRANCH  48  72
BRANCH  60  83
ATOM     83  C   UNL A   1      45.531  32.704  28.962  1.00  0.00     0.023 A 
ATOM     84  C   UNL A   1      46.251  32.945  30.149  1.00  0.00     0.012 A 
ATOM     85  C   UNL A   1      45.335  33.756  28.046  1.00  0.00     0.148 A 
ATOM     86  C   UNL A   1      46.740  34.219  30.433  1.00  0.00     0.002 A 
ATOM     87  C   UNL A   1      45.870  35.011  28.312  1.00  0.00     0.091 A 
ATOM     88  F   UNL A   1      44.632  33.510  26.930  1.00  0.00    -0.205 F 
ATOM     89  C   UNL A   1      46.561  35.247  29.511  1.00  0.00     0.022 A 
BRANCH  87  90
ATOM     90  S   UNL A   1      45.776  36.369  27.140  1.00  0.00     0.127 S 
ATOM     91  O   UNL A   1      46.529  37.413  27.833  1.00  0.00    -0.237 OA
ATOM     92  O   UNL A   1      46.446  35.810  25.965  1.00  0.00    -0.237 OA
ATOM     93  O   UNL A   1      44.358  36.644  26.954  1.00  0.00    -0.744 OA
ENDBRANCH  87  90
ENDBRANCH  60  83
ENDBRANCH  34  35
ENDBRANCH  26  29
ENDBRANCH  24  25
ENDBRANCH  23  24
ENDBRANCH   1  23
TORSDOF 19
ENDMDL
MODEL 2
REMARK VINA RESULT:     -10.7      5.283      8.372
REMARK SMILES C[C@@](O)(c1ccc(Cl)cc1Cl)[C@@H](F)C(=O)NCCCCCCNC(=O)c1ccc(-c2c3nc(c(-c4cccc(S(=O)(=O)[O-])c4F)c4ccc([nH]4)c(-c4cccc(S(=O)(=O)[O-])c4F)c4nc(c(-c5cccc(S(=O)(=O)[O-])c5F)c5ccc2[nH]5)C=C4)C=C3)cc1
REMARK SMILES IDX 20 1 19 2 18 3 17 4 16 5 14 6 15 7 12 9 13 10 2 11 1 12 3 13
REMARK SMILES IDX 4 15 5 16 10 17 6 18 9 19 11 20 7 21 8 22 21 23 22 24 23 25
REMARK SMILES IDX 24 26 25 28 26 29 27 30 88 31 28 32 87 33 29 34 30 35 31 36
REMARK SMILES IDX 81 37 32 38 86 39 80 40 82 41 33 42 85 43 79 44 78 45 34 47
REMARK SMILES IDX 66 48 46 49 65 50 47 51 50 52 64 53 83 54 48 55 49 56 63 58
REMARK SMILES IDX 84 59 51 60 35 61 36 62 44 63 37 64 39 65 45 66 38 67 40 68
REMARK SMILES IDX 41 69 42 70 43 71 67 72 68 73 76 74 69 75 71 76 77 77 70 78
REMARK SMILES IDX 72 79 73 80 74 81 75 82 52 83 53 84 61 85 54 86 56 87 62 88
REMARK SMILES IDX 55 89 57 90 58 91 59 92 60 93
REMARK H PARENT 16 8 3 14 23 27 82 46 50 57
REMARK Flexibility Score: inf
ROOT
ATOM      1  C   UNL A   1      32.558  28.579  24.698  1.00  0.00     0.002 C 
ENDROOT
BRANCH   1   2
ATOM      2  C   UNL A   1      33.736  27.799  24.114  1.00  0.00     0.002 C 
BRANCH   2   3
ATOM      3  C   UNL A   1      33.377  26.876  22.952  1.00  0.00     0.021 C 
BRANCH   3   4
ATOM      4  C   UNL A   1      32.909  25.479  23.373  1.00  0.00     0.116 C 
BRANCH   4   5
ATOM      5  N   UNL A   1      33.841  24.477  22.885  1.00  0.00    -0.353 N 
ATOM      6  C   UNL A   1      34.943  23.931  23.472  1.00  0.00     0.257 C 
ATOM      7  O   UNL A   1      35.671  23.244  22.746  1.00  0.00    -0.272 OA
ATOM      8  H   UNL A   1      33.644  24.138  21.981  1.00  0.00     0.163 HD
BRANCH   6   9
ATOM      9  C   UNL A   1      35.297  24.158  24.950  1.00  0.00     0.291 C 
ATOM     10  F   UNL A   1      36.649  24.102  25.156  1.00  0.00    -0.233 F 
BRANCH   9  11
ATOM     11  C   UNL A   1      34.552  23.226  25.966  1.00  0.00     0.128 C 
ATOM     12  C   UNL A   1      33.341  23.968  26.553  1.00  0.00     0.051 C 
BRANCH  11  13
ATOM     13  O   UNL A   1      35.468  22.872  27.012  1.00  0.00    -0.382 OA
ATOM     14  H   UNL A   1      35.377  23.499  27.747  1.00  0.00     0.212 HD
ENDBRANCH  11  13
BRANCH  11  15
ATOM     15  C   UNL A   1      34.035  21.894  25.378  1.00  0.00     0.005 A 
ATOM     16  C   UNL A   1      32.654  21.681  25.176  1.00  0.00     0.010 A 
ATOM     17  C   UNL A   1      34.895  20.803  25.084  1.00  0.00     0.048 A 
ATOM     18  C   UNL A   1      32.152  20.439  24.773  1.00  0.00     0.021 A 
ATOM     19  C   UNL A   1      34.385  19.551  24.716  1.00  0.00     0.041 A 
ATOM     20  Cl  UNL A   1      36.629  20.894  25.134  1.00  0.00    -0.084 Cl
ATOM     21  C   UNL A   1      33.018  19.373  24.572  1.00  0.00     0.042 A 
ATOM     22  Cl  UNL A   1      32.395  17.831  24.133  1.00  0.00    -0.084 Cl
ENDBRANCH  11  15
ENDBRANCH   9  11
ENDBRANCH   6   9
ENDBRANCH   4   5
ENDBRANCH   3   4
ENDBRANCH   2   3
ENDBRANCH   1   2
BRANCH   1  23
ATOM     23  C   UNL A   1      32.358  28.416  26.207  1.00  0.00     0.021 C 
BRANCH  23  24
ATOM     24  C   UNL A   1      33.572  28.784  27.056  1.00  0.00     0.116 C 
BRANCH  24  25
ATOM     25  N   UNL A   1      33.594  30.203  27.379  1.00  0.00    -0.352 N 
ATOM     26  C   UNL A   1      34.494  30.901  28.141  1.00  0.00     0.251 C 
ATOM     27  H   UNL A   1      32.859  30.736  26.998  1.00  0.00     0.163 HD
ATOM     28  O   UNL A   1      34.232  32.044  28.518  1.00  0.00    -0.269 OA
BRANCH  26  29
ATOM     29  C   UNL A   1      35.776  30.271  28.513  1.00  0.00     0.039 A 
ATOM     30  C   UNL A   1      36.858  30.356  27.636  1.00  0.00     0.014 A 
ATOM     31  C   UNL A   1      35.904  29.602  29.734  1.00  0.00     0.014 A 
ATOM     32  C   UNL A   1      38.091  29.817  28.010  1.00  0.00     0.010 A 
ATOM     33  C   UNL A   1      37.150  29.133  30.136  1.00  0.00     0.010 A 
ATOM     34  C   UNL A   1      38.255  29.230  29.276  1.00  0.00    -0.014 A 
BRANCH  34  35
ATOM     35  C   UNL A   1      39.578  28.728  29.727  1.00  0.00     0.031 A 
ATOM     36  C   UNL A   1      40.337  29.453  30.804  1.00  0.00     0.074 A 
ATOM     37  C   UNL A   1      40.135  27.673  29.100  1.00  0.00     0.049 A 
ATOM     38  N   UNL A   1      41.528  29.202  31.283  1.00  0.00    -0.248 NA
ATOM     39  C   UNL A   1      39.686  30.631  31.403  1.00  0.00     0.031 C 
ATOM     40  C   UNL A   1      39.533  26.937  27.986  1.00  0.00     0.029 A 
ATOM     41  N   UNL A   1      41.347  27.056  29.289  1.00  0.00    -0.354 N 
ATOM     42  C   UNL A   1      41.784  30.206  32.209  1.00  0.00     0.074 A 
ATOM     43  C   UNL A   1      40.639  31.090  32.201  1.00  0.00     0.031 C 
ATOM     44  C   UNL A   1      40.377  25.972  27.589  1.00  0.00     0.029 A 
ATOM     45  C   UNL A   1      41.592  26.040  28.395  1.00  0.00     0.049 A 
ATOM     46  H   UNL A   1      41.980  27.317  29.996  1.00  0.00     0.167 HD
ATOM     47  C   UNL A   1      42.863  30.364  33.013  1.00  0.00     0.034 A 
ATOM     48  C   UNL A   1      42.680  25.262  28.229  1.00  0.00     0.034 A 
ATOM     49  C   UNL A   1      43.983  29.464  33.040  1.00  0.00     0.049 A 
ATOM     50  C   UNL A   1      43.852  25.437  29.155  1.00  0.00     0.074 A 
ATOM     51  C   UNL A   1      45.081  29.482  33.882  1.00  0.00     0.029 A 
ATOM     52  N   UNL A   1      44.161  28.394  32.177  1.00  0.00    -0.354 N 
ATOM     53  N   UNL A   1      44.005  26.290  30.139  1.00  0.00    -0.248 NA
ATOM     54  C   UNL A   1      44.987  24.521  28.973  1.00  0.00     0.031 C 
ATOM     55  C   UNL A   1      45.939  28.444  33.505  1.00  0.00     0.029 A 
ATOM     56  C   UNL A   1      45.358  27.754  32.454  1.00  0.00     0.049 A 
ATOM     57  H   UNL A   1      43.528  28.127  31.472  1.00  0.00     0.167 HD
ATOM     58  C   UNL A   1      45.235  25.993  30.714  1.00  0.00     0.074 A 
ATOM     59  C   UNL A   1      45.776  24.867  29.981  1.00  0.00     0.031 C 
ATOM     60  C   UNL A   1      45.865  26.606  31.746  1.00  0.00     0.034 A 
BRANCH  47  61
ATOM     61  C   UNL A   1      42.863  31.535  33.962  1.00  0.00     0.023 A 
ATOM     62  C   UNL A   1      43.371  32.780  33.535  1.00  0.00     0.012 A 
ATOM     63  C   UNL A   1      42.314  31.421  35.254  1.00  0.00     0.148 A 
ATOM     64  C   UNL A   1      43.370  33.881  34.391  1.00  0.00     0.002 A 
ATOM     65  C   UNL A   1      42.272  32.535  36.085  1.00  0.00     0.091 A 
ATOM     66  F   UNL A   1      41.855  30.226  35.651  1.00  0.00    -0.205 F 
ATOM     67  C   UNL A   1      42.812  33.761  35.660  1.00  0.00     0.022 A 
BRANCH  65  68
ATOM     68  S   UNL A   1      41.501  32.506  37.706  1.00  0.00     0.127 S 
ATOM     69  O   UNL A   1      42.293  31.485  38.391  1.00  0.00    -0.237 OA
ATOM     70  O   UNL A   1      41.728  33.872  38.179  1.00  0.00    -0.237 OA
ATOM     71  O   UNL A   1      40.103  32.165  37.481  1.00  0.00    -0.744 OA
ENDBRANCH  65  68
ENDBRANCH  47  61
BRANCH  48  72
ATOM     72  C   UNL A   1      42.688  24.213  27.170  1.00  0.00     0.023 A 
ATOM     73  C   UNL A   1      43.352  24.458  25.953  1.00  0.00     0.012 A 
ATOM     74  C   UNL A   1      42.068  22.965  27.376  1.00  0.00     0.148 A 
ATOM     75  C   UNL A   1      43.373  23.490  24.947  1.00  0.00     0.002 A 
ATOM     76  C   UNL A   1      42.142  21.985  26.393  1.00  0.00     0.091 A 
ATOM     77  F   UNL A   1      41.433  22.756  28.538  1.00  0.00    -0.205 F 
ATOM     78  C   UNL A   1      42.778  22.252  25.171  1.00  0.00     0.022 A 
BRANCH  76  79
ATOM     79  S   UNL A   1      41.525  20.317  26.648  1.00  0.00     0.127 S 
ATOM     80  O   UNL A   1      42.267  19.902  27.836  1.00  0.00    -0.237 OA
ATOM     81  O   UNL A   1      40.098  20.554  26.863  1.00  0.00    -0.237 OA
ATOM     82  O   UNL A   1      41.835  19.591  25.423  1.00  0.00    -0.744 OA
ENDBRANCH  76  79
ENDBRANCH  48  72
BRANCH  60  83
ATOM     83  C   UNL A   1      47.200  26.056  32.178  1.00  0.00     0.023 A 
ATOM     84  C   UNL A   1      48.382  26.510  31.560  1.00  0.00     0.012 A 
ATOM     85  C   UNL A   1      47.285  25.146  33.251  1.00  0.00     0.148 A 
ATOM     86  C   UNL A   1      49.626  26.042  31.982  1.00  0.00     0.002 A 
ATOM     87  C   UNL A   1      48.531  24.725  33.700  1.00  0.00     0.091 A 
ATOM     88  F   UNL A   1      46.148  24.714  33.814  1.00  0.00    -0.205 F 
ATOM     89  C   UNL A   1      49.701  25.161  33.058  1.00  0.00     0.022 A 
BRANCH  87  90
ATOM     90  S   UNL A   1      48.731  23.670  35.140  1.00  0.00     0.127 S 
ATOM     91  O   UNL A   1      48.085  22.436  34.697  1.00  0.00    -0.237 OA
ATOM     92  O   UNL A   1      50.187  23.587  35.261  1.00  0.00    -0.237 OA
ATOM     93  O   UNL A   1      48.070  24.359  36.240  1.00  0.00    -0.744 OA
ENDBRANCH  87  90
ENDBRANCH  60  83
ENDBRANCH  34  35
ENDBRANCH  26  29
ENDBRANCH  24  25
ENDBRANCH  23  24
ENDBRANCH   1  23
TORSDOF 19
ENDMDL
MODEL 3
REMARK VINA RESULT:     -10.6      5.571     10.156
REMARK SMILES C[C@@](O)(c1ccc(Cl)cc1Cl)[C@@H](F)C(=O)NCCCCCCNC(=O)c1ccc(-c2c3nc(c(-c4cccc(S(=O)(=O)[O-])c4F)c4ccc([nH]4)c(-c4cccc(S(=O)(=O)[O-])c4F)c4nc(c(-c5cccc(S(=O)(=O)[O-])c5F)c5ccc2[nH]5)C=C4)C=C3)cc1
REMARK SMILES IDX 20 1 19 2 18 3 17 4 16 5 14 6 15 7 12 9 13 10 2 11 1 12 3 13
REMARK SMILES IDX 4 15 5 16 10 17 6 18 9 19 11 20 7 21 8 22 21 23 22 24 23 25
REMARK SMILES IDX 24 26 25 28 26 29 27 30 88 31 28 32 87 33 29 34 30 35 31 36
REMARK SMILES IDX 81 37 32 38 86 39 80 40 82 41 33 42 85 43 79 44 78 45 34 47
REMARK SMILES IDX 66 48 46 49 65 50 47 51 50 52 64 53 83 54 48 55 49 56 63 58
REMARK SMILES IDX 84 59 51 60 35 61 36 62 44 63 37 64 39 65 45 66 38 67 40 68
REMARK SMILES IDX 41 69 42 70 43 71 67 72 68 73 76 74 69 75 71 76 77 77 70 78
REMARK SMILES IDX 72 79 73 80 74 81 75 82 52 83 53 84 61 85 54 86 56 87 62 88
REMARK SMILES IDX 55 89 57 90 58 91 59 92 60 93
REMARK H PARENT 16 8 3 14 23 27 82 46 50 57
REMARK Flexibility Score: inf
ROOT
ATOM      1  C   UNL A   1      32.448  27.694  23.560  1.00  0.00     0.002 C 
ENDROOT
BRANCH   1   2
ATOM      2  C   UNL A   1      30.945  27.458  23.419  1.00  0.00     0.002 C 
BRANCH   2   3
ATOM      3  C   UNL A   1      30.353  26.490  24.442  1.00  0.00     0.021 C 
BRANCH   3   4
ATOM      4  C   UNL A   1      31.039  26.520  25.812  1.00  0.00     0.116 C 
BRANCH   4   5
ATOM      5  N   UNL A   1      30.634  25.363  26.592  1.00  0.00    -0.353 N 
ATOM      6  C   UNL A   1      31.196  24.125  26.700  1.00  0.00     0.257 C 
ATOM      7  O   UNL A   1      30.526  23.264  27.282  1.00  0.00    -0.272 OA
ATOM      8  H   UNL A   1      29.820  25.495  27.132  1.00  0.00     0.163 HD
BRANCH   6   9
ATOM      9  C   UNL A   1      32.576  23.785  26.119  1.00  0.00     0.291 C 
ATOM     10  F   UNL A   1      33.437  24.844  26.219  1.00  0.00    -0.233 F 
BRANCH   9  11
ATOM     11  C   UNL A   1      32.566  23.229  24.654  1.00  0.00     0.128 C 
ATOM     12  C   UNL A   1      33.411  24.141  23.750  1.00  0.00     0.051 C 
BRANCH  11  13
ATOM     13  O   UNL A   1      31.208  23.197  24.190  1.00  0.00    -0.382 OA
ATOM     14  H   UNL A   1      30.611  23.411  24.924  1.00  0.00     0.212 HD
ENDBRANCH  11  13
BRANCH  11  15
ATOM     15  C   UNL A   1      33.109  21.792  24.493  1.00  0.00     0.005 A 
ATOM     16  C   UNL A   1      32.306  20.774  23.935  1.00  0.00     0.010 A 
ATOM     17  C   UNL A   1      34.394  21.403  24.958  1.00  0.00     0.048 A 
ATOM     18  C   UNL A   1      32.725  19.439  23.903  1.00  0.00     0.021 A 
ATOM     19  C   UNL A   1      34.794  20.060  24.957  1.00  0.00     0.041 A 
ATOM     20  Cl  UNL A   1      35.587  22.516  25.553  1.00  0.00    -0.084 Cl
ATOM     21  C   UNL A   1      33.956  19.086  24.439  1.00  0.00     0.042 A 
ATOM     22  Cl  UNL A   1      34.446  17.437  24.451  1.00  0.00    -0.084 Cl
ENDBRANCH  11  15
ENDBRANCH   9  11
ENDBRANCH   6   9
ENDBRANCH   4   5
ENDBRANCH   3   4
ENDBRANCH   2   3
ENDBRANCH   1   2
BRANCH   1  23
ATOM     23  C   UNL A   1      32.852  29.144  23.838  1.00  0.00     0.021 C 
BRANCH  23  24
ATOM     24  C   UNL A   1      33.381  29.402  25.247  1.00  0.00     0.116 C 
BRANCH  24  25
ATOM     25  N   UNL A   1      32.835  30.627  25.813  1.00  0.00    -0.352 N 
ATOM     26  C   UNL A   1      33.244  31.324  26.919  1.00  0.00     0.251 C 
ATOM     27  H   UNL A   1      32.064  31.008  25.334  1.00  0.00     0.163 HD
ATOM     28  O   UNL A   1      32.524  32.199  27.402  1.00  0.00    -0.269 OA
BRANCH  26  29
ATOM     29  C   UNL A   1      34.549  31.013  27.534  1.00  0.00     0.039 A 
ATOM     30  C   UNL A   1      35.502  32.025  27.661  1.00  0.00     0.014 A 
ATOM     31  C   UNL A   1      34.824  29.720  27.988  1.00  0.00     0.014 A 
ATOM     32  C   UNL A   1      36.714  31.752  28.298  1.00  0.00     0.010 A 
ATOM     33  C   UNL A   1      35.999  29.470  28.689  1.00  0.00     0.010 A 
ATOM     34  C   UNL A   1      36.959  30.482  28.847  1.00  0.00    -0.014 A 
BRANCH  34  35
ATOM     35  C   UNL A   1      38.205  30.196  29.604  1.00  0.00     0.031 A 
ATOM     36  C   UNL A   1      39.239  29.263  29.037  1.00  0.00     0.074 A 
ATOM     37  C   UNL A   1      38.359  30.705  30.841  1.00  0.00     0.049 A 
ATOM     38  N   UNL A   1      40.355  28.845  29.576  1.00  0.00    -0.248 NA
ATOM     39  C   UNL A   1      38.973  28.702  27.701  1.00  0.00     0.031 C 
ATOM     40  C   UNL A   1      37.388  31.556  31.533  1.00  0.00     0.029 A 
ATOM     41  N   UNL A   1      39.375  30.554  31.752  1.00  0.00    -0.354 N 
ATOM     42  C   UNL A   1      40.904  27.950  28.667  1.00  0.00     0.074 A 
ATOM     43  C   UNL A   1      39.983  27.858  27.556  1.00  0.00     0.031 C 
ATOM     44  C   UNL A   1      37.853  31.850  32.757  1.00  0.00     0.029 A 
ATOM     45  C   UNL A   1      39.136  31.183  32.952  1.00  0.00     0.049 A 
ATOM     46  H   UNL A   1      40.196  30.045  31.564  1.00  0.00     0.167 HD
ATOM     47  C   UNL A   1      42.083  27.285  28.737  1.00  0.00     0.034 A 
ATOM     48  C   UNL A   1      39.860  31.206  34.089  1.00  0.00     0.034 A 
ATOM     49  C   UNL A   1      43.010  27.406  29.830  1.00  0.00     0.049 A 
ATOM     50  C   UNL A   1      41.179  30.484  34.130  1.00  0.00     0.074 A 
ATOM     51  C   UNL A   1      44.270  26.849  29.953  1.00  0.00     0.029 A 
ATOM     52  N   UNL A   1      42.773  28.119  30.994  1.00  0.00    -0.354 N 
ATOM     53  N   UNL A   1      41.761  29.776  33.193  1.00  0.00    -0.248 NA
ATOM     54  C   UNL A   1      41.959  30.593  35.371  1.00  0.00     0.031 C 
ATOM     55  C   UNL A   1      44.780  27.197  31.208  1.00  0.00     0.029 A 
ATOM     56  C   UNL A   1      43.856  28.004  31.850  1.00  0.00     0.049 A 
ATOM     57  H   UNL A   1      41.956  28.634  31.184  1.00  0.00     0.167 HD
ATOM     58  C   UNL A   1      42.987  29.383  33.717  1.00  0.00     0.074 A 
ATOM     59  C   UNL A   1      43.072  29.951  35.046  1.00  0.00     0.031 C 
ATOM     60  C   UNL A   1      43.948  28.611  33.153  1.00  0.00     0.034 A 
BRANCH  47  61
ATOM     61  C   UNL A   1      42.455  26.396  27.579  1.00  0.00     0.023 A 
ATOM     62  C   UNL A   1      43.267  26.901  26.542  1.00  0.00     0.012 A 
ATOM     63  C   UNL A   1      42.048  25.047  27.541  1.00  0.00     0.148 A 
ATOM     64  C   UNL A   1      43.635  26.093  25.467  1.00  0.00     0.002 A 
ATOM     65  C   UNL A   1      42.458  24.234  26.490  1.00  0.00     0.091 A 
ATOM     66  F   UNL A   1      41.259  24.589  28.522  1.00  0.00    -0.205 F 
ATOM     67  C   UNL A   1      43.240  24.759  25.447  1.00  0.00     0.022 A 
BRANCH  65  68
ATOM     68  S   UNL A   1      42.071  22.483  26.413  1.00  0.00     0.127 S 
ATOM     69  O   UNL A   1      42.744  22.086  25.177  1.00  0.00    -0.237 OA
ATOM     70  O   UNL A   1      42.695  21.976  27.636  1.00  0.00    -0.237 OA
ATOM     71  O   UNL A   1      40.618  22.392  26.390  1.00  0.00    -0.744 OA
ENDBRANCH  65  68
ENDBRANCH  47  61
BRANCH  48  72
ATOM     72  C   UNL A   1      39.370  31.980  35.265  1.00  0.00     0.023 A 
ATOM     73  C   UNL A   1      38.508  31.365  36.193  1.00  0.00     0.012 A 
ATOM     74  C   UNL A   1      39.782  33.309  35.484  1.00  0.00     0.148 A 
ATOM     75  C   UNL A   1      38.038  32.071  37.301  1.00  0.00     0.002 A 
ATOM     76  C   UNL A   1      39.355  33.987  36.620  1.00  0.00     0.091 A 
ATOM     77  F   UNL A   1      40.595  33.879  34.583  1.00  0.00    -0.205 F 
ATOM     78  C   UNL A   1      38.469  33.377  37.521  1.00  0.00     0.022 A 
BRANCH  76  79
ATOM     79  S   UNL A   1      39.968  35.619  37.054  1.00  0.00     0.127 S 
ATOM     80  O   UNL A   1      41.393  35.363  37.247  1.00  0.00    -0.237 OA
ATOM     81  O   UNL A   1      39.635  36.393  35.858  1.00  0.00    -0.237 OA
ATOM     82  O   UNL A   1      39.229  36.013  38.247  1.00  0.00    -0.744 OA
ENDBRANCH  76  79
ENDBRANCH  48  72
BRANCH  60  83
ATOM     83  C   UNL A   1      45.201  28.357  33.953  1.00  0.00     0.023 A 
ATOM     84  C   UNL A   1      46.283  29.254  33.869  1.00  0.00     0.012 A 
ATOM     85  C   UNL A   1      45.270  27.268  34.844  1.00  0.00     0.148 A 
ATOM     86  C   UNL A   1      47.429  29.054  34.639  1.00  0.00     0.002 A 
ATOM     87  C   UNL A   1      46.394  27.105  35.646  1.00  0.00     0.091 A 
ATOM     88  F   UNL A   1      44.236  26.416  34.895  1.00  0.00    -0.205 F 
ATOM     89  C   UNL A   1      47.479  27.988  35.534  1.00  0.00     0.022 A 
BRANCH  87  90
ATOM     90  S   UNL A   1      46.508  25.821  36.898  1.00  0.00     0.127 S 
ATOM     91  O   UNL A   1      46.328  24.610  36.099  1.00  0.00    -0.237 OA
ATOM     92  O   UNL A   1      47.862  26.015  37.415  1.00  0.00    -0.237 OA
ATOM     93  O   UNL A   1      45.447  26.098  37.857  1.00  0.00    -0.744 OA
ENDBRANCH  87  90
ENDBRANCH  60  83
ENDBRANCH  34  35
ENDBRANCH  26  29
ENDBRANCH  24  25
ENDBRANCH  23  24
ENDBRANCH   1  23
TORSDOF 19
ENDMDL
