MODEL 1
REMARK VINA RESULT:     -11.7      0.000      0.000
REMARK SMILES CC(C)[C@H]1CC[C@@H](C)/C(=C/c2ccc(NC(=O)CCC(=O)NCCCCCCNC(=O)c3ccc(-c4c5nc(c(-c6cccc(S(=O)(=O)[O-])c6F)c6ccc([nH]6)c(-c6cccc(S(=O)(=O)[O-])c6F)c6nc(c(-c7cccc(S(=O)(=O)[O-])c7F)c7ccc4[nH]7)C=C6)C=C5)cc3)cc2)C1=O
REMARK SMILES IDX 24 1 23 2 22 3 20 4 21 5 19 7 18 8 16 9 15 10 17 12 14 13
REMARK SMILES IDX 11 14 12 15 96 16 13 17 95 18 10 19 4 20 5 21 97 22 6 23
REMARK SMILES IDX 9 24 98 25 7 26 8 27 2 28 1 29 3 30 25 31 26 32 27 33 28 34
REMARK SMILES IDX 29 35 30 36 31 38 32 39 33 40 94 41 34 42 93 43 35 44 36 45
REMARK SMILES IDX 37 46 87 47 38 48 92 49 86 50 88 51 39 52 91 53 85 54 84 55
REMARK SMILES IDX 40 57 72 58 52 59 71 60 53 61 56 62 70 63 89 64 54 65 55 66
REMARK SMILES IDX 69 68 90 69 57 70 41 71 42 72 50 73 43 74 45 75 51 76 44 77
REMARK SMILES IDX 46 78 47 79 48 80 49 81 73 82 74 83 82 84 75 85 77 86 83 87
REMARK SMILES IDX 76 88 78 89 79 90 80 91 81 92 58 93 59 94 67 95 60 96 62 97
REMARK SMILES IDX 68 98 61 99 63 100 64 101 65 102 66 103
REMARK H PARENT 22 6 15 11 29 37 88 56 56 67
REMARK Flexibility Score: inf
ROOT
ATOM      1  C   UNL A   1      35.619  20.125  24.927  1.00  0.00     0.021 C 
ENDROOT
BRANCH   1   2
ATOM      2  C   UNL A   1      34.503  19.145  25.277  1.00  0.00     0.116 C 
BRANCH   2   3
ATOM      3  N   UNL A   1      34.481  17.985  24.403  1.00  0.00    -0.356 N 
ATOM      4  C   UNL A   1      33.571  17.626  23.457  1.00  0.00     0.220 C 
ATOM      5  O   UNL A   1      33.811  16.651  22.743  1.00  0.00    -0.275 OA
ATOM      6  H   UNL A   1      35.238  17.366  24.512  1.00  0.00     0.163 HD
BRANCH   4   7
ATOM      7  C   UNL A   1      32.306  18.433  23.274  1.00  0.00     0.110 C 
BRANCH   7   8
ATOM      8  C   UNL A   1      32.474  19.948  23.277  1.00  0.00     0.110 C 
BRANCH   8   9
ATOM      9  C   UNL A   1      31.975  20.680  22.050  1.00  0.00     0.224 C 
ATOM     10  N   UNL A   1      31.867  22.039  21.993  1.00  0.00    -0.326 N 
ATOM     11  H   UNL A   1      31.412  22.389  21.193  1.00  0.00     0.169 HD
ATOM     12  O   UNL A   1      31.719  20.044  21.023  1.00  0.00    -0.275 OA
BRANCH  10  13
ATOM     13  C   UNL A   1      32.308  23.009  22.899  1.00  0.00     0.041 A 
ATOM     14  C   UNL A   1      32.852  25.014  24.772  1.00  0.00    -0.025 A 
ATOM     15  C   UNL A   1      33.372  25.094  23.477  1.00  0.00     0.010 A 
ATOM     16  C   UNL A   1      32.074  23.911  25.130  1.00  0.00     0.010 A 
ATOM     17  C   UNL A   1      33.102  24.092  22.545  1.00  0.00     0.027 A 
ATOM     18  C   UNL A   1      31.867  22.881  24.218  1.00  0.00     0.027 A 
BRANCH  14  19
ATOM     19  C   UNL A   1      33.173  26.081  25.720  1.00  0.00     0.015 C 
ATOM     20  C   UNL A   1      31.288  28.825  24.344  1.00  0.00     0.063 C 
ATOM     21  C   UNL A   1      31.584  29.932  25.374  1.00  0.00     0.013 C 
ATOM     22  C   UNL A   1      31.215  27.500  25.100  1.00  0.00     0.162 C 
ATOM     23  C   UNL A   1      32.813  29.617  26.242  1.00  0.00     0.009 C 
ATOM     24  C   UNL A   1      32.436  27.188  25.909  1.00  0.00    -0.001 C 
ATOM     25  O   UNL A   1      30.252  26.741  25.091  1.00  0.00    -0.294 OA
ATOM     26  C   UNL A   1      32.742  28.243  26.933  1.00  0.00     0.020 C 
ATOM     27  C   UNL A   1      31.699  28.189  28.061  1.00  0.00     0.013 C 
BRANCH  20  28
ATOM     28  C   UNL A   1      30.044  29.054  23.435  1.00  0.00    -0.007 C 
ATOM     29  C   UNL A   1      29.389  30.429  23.580  1.00  0.00     0.008 C 
ATOM     30  C   UNL A   1      30.400  28.810  21.963  1.00  0.00     0.008 C 
ENDBRANCH  20  28
ENDBRANCH  14  19
ENDBRANCH  10  13
ENDBRANCH   8   9
ENDBRANCH   7   8
ENDBRANCH   4   7
ENDBRANCH   2   3
ENDBRANCH   1   2
BRANCH   1  31
ATOM     31  C   UNL A   1      35.170  21.576  24.727  1.00  0.00     0.002 C 
BRANCH  31  32
ATOM     32  C   UNL A   1      36.135  22.432  23.909  1.00  0.00     0.002 C 
BRANCH  32  33
ATOM     33  C   UNL A   1      36.651  23.673  24.635  1.00  0.00     0.021 C 
BRANCH  33  34
ATOM     34  C   UNL A   1      37.122  23.420  26.062  1.00  0.00     0.116 C 
BRANCH  34  35
ATOM     35  N   UNL A   1      38.190  22.437  26.119  1.00  0.00    -0.352 N 
ATOM     36  C   UNL A   1      39.521  22.650  26.387  1.00  0.00     0.251 C 
ATOM     37  H   UNL A   1      37.929  21.504  25.945  1.00  0.00     0.163 HD
ATOM     38  O   UNL A   1      40.344  21.766  26.214  1.00  0.00    -0.269 OA
BRANCH  36  39
ATOM     39  C   UNL A   1      39.929  23.981  26.878  1.00  0.00     0.039 A 
ATOM     40  C   UNL A   1      40.284  24.965  25.956  1.00  0.00     0.014 A 
ATOM     41  C   UNL A   1      39.923  24.253  28.251  1.00  0.00     0.014 A 
ATOM     42  C   UNL A   1      40.622  26.237  26.416  1.00  0.00     0.010 A 
ATOM     43  C   UNL A   1      40.173  25.544  28.697  1.00  0.00     0.010 A 
ATOM     44  C   UNL A   1      40.563  26.538  27.788  1.00  0.00    -0.014 A 
BRANCH  44  45
ATOM     45  C   UNL A   1      40.970  27.874  28.286  1.00  0.00     0.031 A 
ATOM     46  C   UNL A   1      42.425  28.264  28.277  1.00  0.00     0.074 A 
ATOM     47  C   UNL A   1      40.041  28.719  28.773  1.00  0.00     0.049 A 
ATOM     48  N   UNL A   1      42.976  29.395  28.629  1.00  0.00    -0.248 NA
ATOM     49  C   UNL A   1      43.392  27.240  27.841  1.00  0.00     0.031 C 
ATOM     50  C   UNL A   1      38.614  28.420  28.913  1.00  0.00     0.029 A 
ATOM     51  N   UNL A   1      40.160  30.001  29.246  1.00  0.00    -0.354 N 
ATOM     52  C   UNL A   1      44.347  29.210  28.488  1.00  0.00     0.074 A 
ATOM     53  C   UNL A   1      44.549  27.842  28.069  1.00  0.00     0.031 C 
ATOM     54  C   UNL A   1      37.988  29.495  29.417  1.00  0.00     0.029 A 
ATOM     55  C   UNL A   1      38.968  30.550  29.654  1.00  0.00     0.049 A 
ATOM     56  H   UNL A   1      41.018  30.481  29.289  1.00  0.00     0.167 HD
ATOM     57  C   UNL A   1      45.347  30.106  28.653  1.00  0.00     0.034 A 
ATOM     58  C   UNL A   1      38.699  31.772  30.154  1.00  0.00     0.034 A 
ATOM     59  C   UNL A   1      45.135  31.476  29.033  1.00  0.00     0.049 A 
ATOM     60  C   UNL A   1      39.819  32.768  30.277  1.00  0.00     0.074 A 
ATOM     61  C   UNL A   1      46.067  32.491  29.155  1.00  0.00     0.029 A 
ATOM     62  N   UNL A   1      43.903  32.020  29.362  1.00  0.00    -0.354 N 
ATOM     63  N   UNL A   1      41.090  32.622  29.987  1.00  0.00    -0.248 NA
ATOM     64  C   UNL A   1      39.462  34.113  30.747  1.00  0.00     0.031 C 
ATOM     65  C   UNL A   1      45.402  33.642  29.588  1.00  0.00     0.029 A 
ATOM     66  C   UNL A   1      44.049  33.356  29.692  1.00  0.00     0.049 A 
ATOM     67  H   UNL A   1      43.050  31.528  29.362  1.00  0.00     0.167 HD
ATOM     68  C   UNL A   1      41.674  33.866  30.196  1.00  0.00     0.074 A 
ATOM     69  C   UNL A   1      40.612  34.757  30.617  1.00  0.00     0.031 C 
ATOM     70  C   UNL A   1      42.973  34.238  30.062  1.00  0.00     0.034 A 
BRANCH  57  71
ATOM     71  C   UNL A   1      46.755  29.640  28.380  1.00  0.00     0.023 A 
ATOM     72  C   UNL A   1      47.260  29.670  27.063  1.00  0.00     0.012 A 
ATOM     73  C   UNL A   1      47.591  29.210  29.429  1.00  0.00     0.148 A 
ATOM     74  C   UNL A   1      48.557  29.237  26.787  1.00  0.00     0.002 A 
ATOM     75  C   UNL A   1      48.899  28.829  29.154  1.00  0.00     0.091 A 
ATOM     76  F   UNL A   1      47.088  29.166  30.670  1.00  0.00    -0.205 F 
ATOM     77  C   UNL A   1      49.379  28.829  27.833  1.00  0.00     0.022 A 
BRANCH  75  78
ATOM     78  S   UNL A   1      50.065  28.368  30.439  1.00  0.00     0.127 S 
ATOM     79  O   UNL A   1      51.346  28.615  29.778  1.00  0.00    -0.237 OA
ATOM     80  O   UNL A   1      49.735  29.314  31.505  1.00  0.00    -0.237 OA
ATOM     81  O   UNL A   1      49.785  26.974  30.756  1.00  0.00    -0.744 OA
ENDBRANCH  75  78
ENDBRANCH  57  71
BRANCH  58  82
ATOM     82  C   UNL A   1      37.298  32.145  30.502  1.00  0.00     0.023 A 
ATOM     83  C   UNL A   1      36.820  31.915  31.808  1.00  0.00     0.012 A 
ATOM     84  C   UNL A   1      36.446  32.741  29.555  1.00  0.00     0.148 A 
ATOM     85  C   UNL A   1      35.505  32.232  32.151  1.00  0.00     0.002 A 
ATOM     86  C   UNL A   1      35.155  33.108  29.919  1.00  0.00     0.091 A 
ATOM     87  F   UNL A   1      36.918  32.947  28.317  1.00  0.00    -0.205 F 
ATOM     88  C   UNL A   1      34.676  32.837  31.210  1.00  0.00     0.022 A 
BRANCH  86  89
ATOM     89  S   UNL A   1      34.062  34.009  28.814  1.00  0.00     0.127 S 
ATOM     90  O   UNL A   1      33.531  32.935  27.978  1.00  0.00    -0.237 OA
ATOM     91  O   UNL A   1      33.103  34.593  29.752  1.00  0.00    -0.237 OA
ATOM     92  O   UNL A   1      34.904  34.983  28.133  1.00  0.00    -0.744 OA
ENDBRANCH  86  89
ENDBRANCH  58  82
BRANCH  70  93
ATOM     93  C   UNL A   1      43.310  35.684  30.317  1.00  0.00     0.023 A 
ATOM     94  C   UNL A   1      43.802  36.089  31.573  1.00  0.00     0.012 A 
ATOM     95  C   UNL A   1      43.183  36.635  29.284  1.00  0.00     0.148 A 
ATOM     96  C   UNL A   1      44.114  37.426  31.813  1.00  0.00     0.002 A 
ATOM     97  C   UNL A   1      43.550  37.955  29.515  1.00  0.00     0.091 A 
ATOM     98  F   UNL A   1      42.696  36.235  28.100  1.00  0.00    -0.205 F 
ATOM     99  C   UNL A   1      43.999  38.356  30.782  1.00  0.00     0.022 A 
BRANCH  97 100
ATOM    100  S   UNL A   1      43.533  39.193  28.213  1.00  0.00     0.127 S 
ATOM    101  O   UNL A   1      42.105  39.474  28.089  1.00  0.00    -0.237 OA
ATOM    102  O   UNL A   1      44.319  40.276  28.805  1.00  0.00    -0.237 OA
ATOM    103  O   UNL A   1      44.153  38.564  27.055  1.00  0.00    -0.744 OA
ENDBRANCH  97 100
ENDBRANCH  70  93
ENDBRANCH  44  45
ENDBRANCH  36  39
ENDBRANCH  34  35
ENDBRANCH  33  34
ENDBRANCH  32  33
ENDBRANCH  31  32
ENDBRANCH   1  31
TORSDOF 21
ENDMDL
MODEL 2
REMARK VINA RESULT:     -11.5      1.746      2.002
REMARK SMILES CC(C)[C@H]1CC[C@@H](C)/C(=C/c2ccc(NC(=O)CCC(=O)NCCCCCCNC(=O)c3ccc(-c4c5nc(c(-c6cccc(S(=O)(=O)[O-])c6F)c6ccc([nH]6)c(-c6cccc(S(=O)(=O)[O-])c6F)c6nc(c(-c7cccc(S(=O)(=O)[O-])c7F)c7ccc4[nH]7)C=C6)C=C5)cc3)cc2)C1=O
REMARK SMILES IDX 24 1 23 2 22 3 20 4 21 5 19 7 18 8 16 9 15 10 17 12 14 13
REMARK SMILES IDX 11 14 12 15 96 16 13 17 95 18 10 19 4 20 5 21 97 22 6 23
REMARK SMILES IDX 9 24 98 25 7 26 8 27 2 28 1 29 3 30 25 31 26 32 27 33 28 34
REMARK SMILES IDX 29 35 30 36 31 38 32 39 33 40 94 41 34 42 93 43 35 44 36 45
REMARK SMILES IDX 37 46 87 47 38 48 92 49 86 50 88 51 39 52 91 53 85 54 84 55
REMARK SMILES IDX 40 57 72 58 52 59 71 60 53 61 56 62 70 63 89 64 54 65 55 66
REMARK SMILES IDX 69 68 90 69 57 70 41 71 42 72 50 73 43 74 45 75 51 76 44 77
REMARK SMILES IDX 46 78 47 79 48 80 49 81 73 82 74 83 82 84 75 85 77 86 83 87
REMARK SMILES IDX 76 88 78 89 79 90 80 91 81 92 58 93 59 94 67 95 60 96 62 97
REMARK SMILES IDX 68 98 61 99 63 100 64 101 65 102 66 103
REMARK H PARENT 22 6 15 11 29 37 88 56 56 67
REMARK Flexibility Score: inf
ROOT
ATOM      1  C   UNL A   1      35.654  20.176  24.953  1.00  0.00     0.021 C 
ENDROOT
BRANCH   1   2
ATOM      2  C   UNL A   1      34.512  19.211  25.261  1.00  0.00     0.116 C 
BRANCH   2   3
ATOM      3  N   UNL A   1      34.521  18.039  24.403  1.00  0.00    -0.356 N 
ATOM      4  C   UNL A   1      33.612  17.633  23.475  1.00  0.00     0.220 C 
ATOM      5  O   UNL A   1      33.879  16.658  22.770  1.00  0.00    -0.275 OA
ATOM      6  H   UNL A   1      35.303  17.450  24.509  1.00  0.00     0.163 HD
BRANCH   4   7
ATOM      7  C   UNL A   1      32.315  18.390  23.300  1.00  0.00     0.110 C 
BRANCH   7   8
ATOM      8  C   UNL A   1      32.416  19.909  23.350  1.00  0.00     0.110 C 
BRANCH   8   9
ATOM      9  C   UNL A   1      31.995  20.650  22.100  1.00  0.00     0.224 C 
ATOM     10  N   UNL A   1      31.916  22.011  22.037  1.00  0.00    -0.326 N 
ATOM     11  H   UNL A   1      31.510  22.370  21.215  1.00  0.00     0.169 HD
ATOM     12  O   UNL A   1      31.781  20.019  21.060  1.00  0.00    -0.275 OA
BRANCH  10  13
ATOM     13  C   UNL A   1      32.328  22.973  22.965  1.00  0.00     0.041 A 
ATOM     14  C   UNL A   1      32.812  24.974  24.860  1.00  0.00    -0.025 A 
ATOM     15  C   UNL A   1      33.421  25.025  23.603  1.00  0.00     0.010 A 
ATOM     16  C   UNL A   1      31.975  23.900  25.170  1.00  0.00     0.010 A 
ATOM     17  C   UNL A   1      33.181  24.025  22.660  1.00  0.00     0.027 A 
ATOM     18  C   UNL A   1      31.794  22.871  24.252  1.00  0.00     0.027 A 
BRANCH  14  19
ATOM     19  C   UNL A   1      33.105  26.036  25.821  1.00  0.00     0.015 C 
ATOM     20  C   UNL A   1      31.376  28.821  24.327  1.00  0.00     0.063 C 
ATOM     21  C   UNL A   1      31.640  29.925  25.368  1.00  0.00     0.013 C 
ATOM     22  C   UNL A   1      31.224  27.502  25.082  1.00  0.00     0.162 C 
ATOM     23  C   UNL A   1      32.808  29.583  26.309  1.00  0.00     0.009 C 
ATOM     24  C   UNL A   1      32.388  27.163  25.962  1.00  0.00    -0.001 C 
ATOM     25  O   UNL A   1      30.244  26.768  25.019  1.00  0.00    -0.294 OA
ATOM     26  C   UNL A   1      32.661  28.216  26.999  1.00  0.00     0.020 C 
ATOM     27  C   UNL A   1      31.552  28.194  28.064  1.00  0.00     0.013 C 
BRANCH  20  28
ATOM     28  C   UNL A   1      30.194  29.078  23.345  1.00  0.00    -0.007 C 
ATOM     29  C   UNL A   1      29.415  30.369  23.605  1.00  0.00     0.008 C 
ATOM     30  C   UNL A   1      30.685  29.059  21.893  1.00  0.00     0.008 C 
ENDBRANCH  20  28
ENDBRANCH  14  19
ENDBRANCH  10  13
ENDBRANCH   8   9
ENDBRANCH   7   8
ENDBRANCH   4   7
ENDBRANCH   2   3
ENDBRANCH   1   2
BRANCH   1  31
ATOM     31  C   UNL A   1      35.244  21.645  24.817  1.00  0.00     0.002 C 
BRANCH  31  32
ATOM     32  C   UNL A   1      36.214  22.503  24.007  1.00  0.00     0.002 C 
BRANCH  32  33
ATOM     33  C   UNL A   1      36.792  23.695  24.767  1.00  0.00     0.021 C 
BRANCH  33  34
ATOM     34  C   UNL A   1      37.358  23.355  26.140  1.00  0.00     0.116 C 
BRANCH  34  35
ATOM     35  N   UNL A   1      38.474  22.428  26.057  1.00  0.00    -0.352 N 
ATOM     36  C   UNL A   1      39.806  22.690  26.267  1.00  0.00     0.251 C 
ATOM     37  H   UNL A   1      38.248  21.500  25.821  1.00  0.00     0.163 HD
ATOM     38  O   UNL A   1      40.659  21.866  25.976  1.00  0.00    -0.269 OA
BRANCH  36  39
ATOM     39  C   UNL A   1      40.179  23.997  26.842  1.00  0.00     0.039 A 
ATOM     40  C   UNL A   1      40.413  25.073  25.987  1.00  0.00     0.014 A 
ATOM     41  C   UNL A   1      40.258  24.153  28.230  1.00  0.00     0.014 A 
ATOM     42  C   UNL A   1      40.717  26.320  26.531  1.00  0.00     0.010 A 
ATOM     43  C   UNL A   1      40.472  25.416  28.769  1.00  0.00     0.010 A 
ATOM     44  C   UNL A   1      40.742  26.503  27.924  1.00  0.00    -0.014 A 
BRANCH  44  45
ATOM     45  C   UNL A   1      41.113  27.815  28.507  1.00  0.00     0.031 A 
ATOM     46  C   UNL A   1      42.566  28.175  28.671  1.00  0.00     0.074 A 
ATOM     47  C   UNL A   1      40.150  28.663  28.916  1.00  0.00     0.049 A 
ATOM     48  N   UNL A   1      43.094  29.284  29.119  1.00  0.00    -0.248 NA
ATOM     49  C   UNL A   1      43.559  27.146  28.312  1.00  0.00     0.031 C 
ATOM     50  C   UNL A   1      38.712  28.388  28.888  1.00  0.00     0.029 A 
ATOM     51  N   UNL A   1      40.237  29.927  29.440  1.00  0.00    -0.354 N 
ATOM     52  C   UNL A   1      44.468  29.076  29.124  1.00  0.00     0.074 A 
ATOM     53  C   UNL A   1      44.693  27.717  28.686  1.00  0.00     0.031 C 
ATOM     54  C   UNL A   1      38.052  29.460  29.354  1.00  0.00     0.029 A 
ATOM     55  C   UNL A   1      39.016  30.488  29.731  1.00  0.00     0.049 A 
ATOM     56  H   UNL A   1      41.093  30.389  29.593  1.00  0.00     0.167 HD
ATOM     57  C   UNL A   1      45.459  29.947  29.427  1.00  0.00     0.034 A 
ATOM     58  C   UNL A   1      38.713  31.699  30.238  1.00  0.00     0.034 A 
ATOM     59  C   UNL A   1      45.229  31.308  29.826  1.00  0.00     0.049 A 
ATOM     60  C   UNL A   1      39.830  32.669  30.516  1.00  0.00     0.074 A 
ATOM     61  C   UNL A   1      46.158  32.300  30.082  1.00  0.00     0.029 A 
ATOM     62  N   UNL A   1      43.977  31.866  30.034  1.00  0.00    -0.354 N 
ATOM     63  N   UNL A   1      41.123  32.506  30.363  1.00  0.00    -0.248 NA
ATOM     64  C   UNL A   1      39.445  34.005  30.987  1.00  0.00     0.031 C 
ATOM     65  C   UNL A   1      45.468  33.451  30.476  1.00  0.00     0.029 A 
ATOM     66  C   UNL A   1      44.108  33.189  30.420  1.00  0.00     0.049 A 
ATOM     67  H   UNL A   1      43.121  31.392  29.924  1.00  0.00     0.167 HD
ATOM     68  C   UNL A   1      41.700  33.731  30.676  1.00  0.00     0.074 A 
ATOM     69  C   UNL A   1      40.613  34.630  31.006  1.00  0.00     0.031 C 
ATOM     70  C   UNL A   1      43.012  34.081  30.698  1.00  0.00     0.034 A 
BRANCH  57  71
ATOM     71  C   UNL A   1      46.880  29.460  29.297  1.00  0.00     0.023 A 
ATOM     72  C   UNL A   1      47.541  28.919  30.420  1.00  0.00     0.012 A 
ATOM     73  C   UNL A   1      47.549  29.501  28.058  1.00  0.00     0.148 A 
ATOM     74  C   UNL A   1      48.858  28.469  30.323  1.00  0.00     0.002 A 
ATOM     75  C   UNL A   1      48.842  29.003  27.957  1.00  0.00     0.091 A 
ATOM     76  F   UNL A   1      46.914  30.038  27.007  1.00  0.00    -0.205 F 
ATOM     77  C   UNL A   1      49.503  28.500  29.091  1.00  0.00     0.022 A 
BRANCH  75  78
ATOM     78  S   UNL A   1      49.730  28.919  26.399  1.00  0.00     0.127 S 
ATOM     79  O   UNL A   1      50.130  30.313  26.211  1.00  0.00    -0.237 OA
ATOM     80  O   UNL A   1      50.829  28.007  26.722  1.00  0.00    -0.237 OA
ATOM     81  O   UNL A   1      48.782  28.405  25.422  1.00  0.00    -0.744 OA
ENDBRANCH  75  78
ENDBRANCH  57  71
BRANCH  58  82
ATOM     82  C   UNL A   1      37.289  32.089  30.441  1.00  0.00     0.023 A 
ATOM     83  C   UNL A   1      36.713  31.980  31.723  1.00  0.00     0.012 A 
ATOM     84  C   UNL A   1      36.510  32.584  29.379  1.00  0.00     0.148 A 
ATOM     85  C   UNL A   1      35.375  32.316  31.933  1.00  0.00     0.002 A 
ATOM     86  C   UNL A   1      35.194  32.971  29.606  1.00  0.00     0.091 A 
ATOM     87  F   UNL A   1      37.075  32.675  28.167  1.00  0.00    -0.205 F 
ATOM     88  C   UNL A   1      34.619  32.820  30.878  1.00  0.00     0.022 A 
BRANCH  86  89
ATOM     89  S   UNL A   1      34.186  33.751  28.340  1.00  0.00     0.127 S 
ATOM     90  O   UNL A   1      33.491  32.603  27.764  1.00  0.00    -0.237 OA
ATOM     91  O   UNL A   1      33.347  34.646  29.136  1.00  0.00    -0.237 OA
ATOM     92  O   UNL A   1      35.121  34.432  27.456  1.00  0.00    -0.744 OA
ENDBRANCH  86  89
ENDBRANCH  58  82
BRANCH  70  93
ATOM     93  C   UNL A   1      43.342  35.511  31.035  1.00  0.00     0.023 A 
ATOM     94  C   UNL A   1      43.541  36.456  30.010  1.00  0.00     0.012 A 
ATOM     95  C   UNL A   1      43.405  35.927  32.381  1.00  0.00     0.148 A 
ATOM     96  C   UNL A   1      43.849  37.781  30.318  1.00  0.00     0.002 A 
ATOM     97  C   UNL A   1      43.655  37.260  32.679  1.00  0.00     0.091 A 
ATOM     98  F   UNL A   1      43.230  35.010  33.344  1.00  0.00    -0.205 F 
ATOM     99  C   UNL A   1      43.895  38.185  31.651  1.00  0.00     0.022 A 
BRANCH  97 100
ATOM    100  S   UNL A   1      43.626  37.885  34.363  1.00  0.00     0.127 S 
ATOM    101  O   UNL A   1      42.437  37.230  34.903  1.00  0.00    -0.237 OA
ATOM    102  O   UNL A   1      44.894  37.389  34.899  1.00  0.00    -0.237 OA
ATOM    103  O   UNL A   1      43.548  39.336  34.249  1.00  0.00    -0.744 OA
ENDBRANCH  97 100
ENDBRANCH  70  93
ENDBRANCH  44  45
ENDBRANCH  36  39
ENDBRANCH  34  35
ENDBRANCH  33  34
ENDBRANCH  32  33
ENDBRANCH  31  32
ENDBRANCH   1  31
TORSDOF 21
ENDMDL
MODEL 3
REMARK VINA RESULT:     -11.2      5.006      9.867
REMARK SMILES CC(C)[C@H]1CC[C@@H](C)/C(=C/c2ccc(NC(=O)CCC(=O)NCCCCCCNC(=O)c3ccc(-c4c5nc(c(-c6cccc(S(=O)(=O)[O-])c6F)c6ccc([nH]6)c(-c6cccc(S(=O)(=O)[O-])c6F)c6nc(c(-c7cccc(S(=O)(=O)[O-])c7F)c7ccc4[nH]7)C=C6)C=C5)cc3)cc2)C1=O
REMARK SMILES IDX 24 1 23 2 22 3 20 4 21 5 19 7 18 8 16 9 15 10 17 12 14 13
REMARK SMILES IDX 11 14 12 15 96 16 13 17 95 18 10 19 4 20 5 21 97 22 6 23
REMARK SMILES IDX 9 24 98 25 7 26 8 27 2 28 1 29 3 30 25 31 26 32 27 33 28 34
REMARK SMILES IDX 29 35 30 36 31 38 32 39 33 40 94 41 34 42 93 43 35 44 36 45
REMARK SMILES IDX 37 46 87 47 38 48 92 49 86 50 88 51 39 52 91 53 85 54 84 55
REMARK SMILES IDX 40 57 72 58 52 59 71 60 53 61 56 62 70 63 89 64 54 65 55 66
REMARK SMILES IDX 69 68 90 69 57 70 41 71 42 72 50 73 43 74 45 75 51 76 44 77
REMARK SMILES IDX 46 78 47 79 48 80 49 81 73 82 74 83 82 84 75 85 77 86 83 87
REMARK SMILES IDX 76 88 78 89 79 90 80 91 81 92 58 93 59 94 67 95 60 96 62 97
REMARK SMILES IDX 68 98 61 99 63 100 64 101 65 102 66 103
REMARK H PARENT 22 6 15 11 29 37 88 56 56 67
REMARK Flexibility Score: inf
ROOT
ATOM      1  C   UNL A   1      33.985  28.483  26.222  1.00  0.00     0.021 C 
ENDROOT
BRANCH   1   2
ATOM      2  C   UNL A   1      32.826  27.689  25.627  1.00  0.00     0.116 C 
BRANCH   2   3
ATOM      3  N   UNL A   1      33.112  27.192  24.292  1.00  0.00    -0.356 N 
ATOM      4  C   UNL A   1      32.798  27.723  23.079  1.00  0.00     0.220 C 
ATOM      5  O   UNL A   1      33.246  27.189  22.063  1.00  0.00    -0.275 OA
ATOM      6  H   UNL A   1      33.609  26.343  24.261  1.00  0.00     0.163 HD
BRANCH   4   7
ATOM      7  C   UNL A   1      31.939  28.965  22.993  1.00  0.00     0.110 C 
BRANCH   7   8
ATOM      8  C   UNL A   1      30.726  29.003  23.914  1.00  0.00     0.110 C 
BRANCH   8   9
ATOM      9  C   UNL A   1      29.430  28.474  23.339  1.00  0.00     0.224 C 
ATOM     10  N   UNL A   1      29.093  27.152  23.369  1.00  0.00    -0.326 N 
ATOM     11  H   UNL A   1      28.289  26.913  22.853  1.00  0.00     0.169 HD
ATOM     12  O   UNL A   1      28.597  29.264  22.884  1.00  0.00    -0.275 OA
BRANCH  10  13
ATOM     13  C   UNL A   1      29.717  26.086  24.025  1.00  0.00     0.041 A 
ATOM     14  C   UNL A   1      30.746  23.746  25.162  1.00  0.00    -0.025 A 
ATOM     15  C   UNL A   1      30.258  24.774  25.974  1.00  0.00     0.010 A 
ATOM     16  C   UNL A   1      30.735  23.907  23.775  1.00  0.00     0.010 A 
ATOM     17  C   UNL A   1      29.748  25.941  25.406  1.00  0.00     0.027 A 
ATOM     18  C   UNL A   1      30.290  25.101  23.217  1.00  0.00     0.027 A 
BRANCH  14  19
ATOM     19  C   UNL A   1      31.285  22.547  25.803  1.00  0.00     0.015 C 
ATOM     20  C   UNL A   1      34.396  22.151  24.031  1.00  0.00     0.063 C 
ATOM     21  C   UNL A   1      34.988  20.920  24.743  1.00  0.00     0.013 C 
ATOM     22  C   UNL A   1      33.636  22.967  25.074  1.00  0.00     0.162 C 
ATOM     23  C   UNL A   1      33.930  20.130  25.532  1.00  0.00     0.009 C 
ATOM     24  C   UNL A   1      32.581  22.194  25.805  1.00  0.00    -0.001 C 
ATOM     25  O   UNL A   1      33.853  24.145  25.336  1.00  0.00    -0.294 OA
ATOM     26  C   UNL A   1      33.130  20.995  26.523  1.00  0.00     0.020 C 
ATOM     27  C   UNL A   1      33.963  21.451  27.733  1.00  0.00     0.013 C 
BRANCH  20  28
ATOM     28  C   UNL A   1      35.405  23.022  23.223  1.00  0.00    -0.007 C 
ATOM     29  C   UNL A   1      34.974  24.475  23.016  1.00  0.00     0.008 C 
ATOM     30  C   UNL A   1      36.792  22.986  23.877  1.00  0.00     0.008 C 
ENDBRANCH  20  28
ENDBRANCH  14  19
ENDBRANCH  10  13
ENDBRANCH   8   9
ENDBRANCH   7   8
ENDBRANCH   4   7
ENDBRANCH   2   3
ENDBRANCH   1   2
BRANCH   1  31
ATOM     31  C   UNL A   1      33.588  29.778  26.937  1.00  0.00     0.002 C 
BRANCH  31  32
ATOM     32  C   UNL A   1      32.091  30.074  26.928  1.00  0.00     0.002 C 
BRANCH  32  33
ATOM     33  C   UNL A   1      31.739  31.561  26.922  1.00  0.00     0.021 C 
BRANCH  33  34
ATOM     34  C   UNL A   1      32.943  32.495  26.925  1.00  0.00     0.116 C 
BRANCH  34  35
ATOM     35  N   UNL A   1      32.656  33.754  27.592  1.00  0.00    -0.352 N 
ATOM     36  C   UNL A   1      33.263  34.276  28.708  1.00  0.00     0.251 C 
ATOM     37  H   UNL A   1      31.939  34.299  27.196  1.00  0.00     0.163 HD
ATOM     38  O   UNL A   1      32.796  35.250  29.277  1.00  0.00    -0.269 OA
BRANCH  36  39
ATOM     39  C   UNL A   1      34.487  33.621  29.208  1.00  0.00     0.039 A 
ATOM     40  C   UNL A   1      35.731  34.119  28.820  1.00  0.00     0.014 A 
ATOM     41  C   UNL A   1      34.392  32.537  30.088  1.00  0.00     0.014 A 
ATOM     42  C   UNL A   1      36.888  33.532  29.330  1.00  0.00     0.010 A 
ATOM     43  C   UNL A   1      35.543  32.015  30.663  1.00  0.00     0.010 A 
ATOM     44  C   UNL A   1      36.803  32.481  30.260  1.00  0.00    -0.014 A 
BRANCH  44  45
ATOM     45  C   UNL A   1      38.030  31.821  30.767  1.00  0.00     0.031 A 
ATOM     46  C   UNL A   1      38.602  32.228  32.099  1.00  0.00     0.074 A 
ATOM     47  C   UNL A   1      38.644  30.883  30.019  1.00  0.00     0.049 A 
ATOM     48  N   UNL A   1      39.638  31.744  32.733  1.00  0.00    -0.248 NA
ATOM     49  C   UNL A   1      37.942  33.343  32.801  1.00  0.00     0.031 C 
ATOM     50  C   UNL A   1      38.233  30.468  28.676  1.00  0.00     0.029 A 
ATOM     51  N   UNL A   1      39.749  30.114  30.282  1.00  0.00    -0.354 N 
ATOM     52  C   UNL A   1      39.770  32.512  33.885  1.00  0.00     0.074 A 
ATOM     53  C   UNL A   1      38.743  33.527  33.838  1.00  0.00     0.031 C 
ATOM     54  C   UNL A   1      39.062  29.505  28.242  1.00  0.00     0.029 A 
ATOM     55  C   UNL A   1      40.072  29.249  29.264  1.00  0.00     0.049 A 
ATOM     56  H   UNL A   1      40.261  30.176  31.121  1.00  0.00     0.167 HD
ATOM     57  C   UNL A   1      40.642  32.364  34.909  1.00  0.00     0.034 A 
ATOM     58  C   UNL A   1      41.068  28.347  29.172  1.00  0.00     0.034 A 
ATOM     59  C   UNL A   1      41.637  31.328  34.965  1.00  0.00     0.049 A 
ATOM     60  C   UNL A   1      41.991  28.163  30.347  1.00  0.00     0.074 A 
ATOM     61  C   UNL A   1      42.521  31.037  35.988  1.00  0.00     0.029 A 
ATOM     62  N   UNL A   1      41.884  30.419  33.949  1.00  0.00    -0.354 N 
ATOM     63  N   UNL A   1      42.000  28.795  31.496  1.00  0.00    -0.248 NA
ATOM     64  C   UNL A   1      43.007  27.109  30.232  1.00  0.00     0.031 C 
ATOM     65  C   UNL A   1      43.324  29.969  35.577  1.00  0.00     0.029 A 
ATOM     66  C   UNL A   1      42.910  29.566  34.317  1.00  0.00     0.049 A 
ATOM     67  H   UNL A   1      41.401  30.384  33.092  1.00  0.00     0.167 HD
ATOM     68  C   UNL A   1      42.991  28.186  32.258  1.00  0.00     0.074 A 
ATOM     69  C   UNL A   1      43.544  27.122  31.444  1.00  0.00     0.031 C 
ATOM     70  C   UNL A   1      43.413  28.483  33.513  1.00  0.00     0.034 A 
BRANCH  57  71
ATOM     71  C   UNL A   1      40.526  33.321  36.068  1.00  0.00     0.023 A 
ATOM     72  C   UNL A   1      41.145  34.587  35.996  1.00  0.00     0.012 A 
ATOM     73  C   UNL A   1      39.774  32.987  37.211  1.00  0.00     0.148 A 
ATOM     74  C   UNL A   1      41.057  35.485  37.060  1.00  0.00     0.002 A 
ATOM     75  C   UNL A   1      39.647  33.907  38.244  1.00  0.00     0.091 A 
ATOM     76  F   UNL A   1      39.211  31.772  37.273  1.00  0.00    -0.205 F 
ATOM     77  C   UNL A   1      40.298  35.150  38.177  1.00  0.00     0.022 A 
BRANCH  75  78
ATOM     78  S   UNL A   1      38.623  33.607  39.689  1.00  0.00     0.127 S 
ATOM     79  O   UNL A   1      39.350  32.521  40.345  1.00  0.00    -0.237 OA
ATOM     80  O   UNL A   1      38.690  34.893  40.384  1.00  0.00    -0.237 OA
ATOM     81  O   UNL A   1      37.303  33.258  39.183  1.00  0.00    -0.744 OA
ENDBRANCH  75  78
ENDBRANCH  57  71
BRANCH  58  82
ATOM     82  C   UNL A   1      41.196  27.495  27.955  1.00  0.00     0.023 A 
ATOM     83  C   UNL A   1      41.775  28.030  26.788  1.00  0.00     0.012 A 
ATOM     84  C   UNL A   1      40.763  26.156  27.955  1.00  0.00     0.148 A 
ATOM     85  C   UNL A   1      41.883  27.261  25.629  1.00  0.00     0.002 A 
ATOM     86  C   UNL A   1      40.926  25.376  26.815  1.00  0.00     0.091 A 
ATOM     87  F   UNL A   1      40.210  25.667  29.073  1.00  0.00    -0.205 F 
ATOM     88  C   UNL A   1      41.467  25.932  25.645  1.00  0.00     0.022 A 
BRANCH  86  89
ATOM     89  S   UNL A   1      40.540  23.622  26.784  1.00  0.00     0.127 S 
ATOM     90  O   UNL A   1      40.922  23.209  28.131  1.00  0.00    -0.237 OA
ATOM     91  O   UNL A   1      39.100  23.637  26.527  1.00  0.00    -0.237 OA
ATOM     92  O   UNL A   1      41.336  23.063  25.701  1.00  0.00    -0.744 OA
ENDBRANCH  86  89
ENDBRANCH  58  82
BRANCH  70  93
ATOM     93  C   UNL A   1      44.488  27.610  34.108  1.00  0.00     0.023 A 
ATOM     94  C   UNL A   1      45.845  27.966  33.980  1.00  0.00     0.012 A 
ATOM     95  C   UNL A   1      44.141  26.457  34.841  1.00  0.00     0.148 A 
ATOM     96  C   UNL A   1      46.842  27.161  34.528  1.00  0.00     0.002 A 
ATOM     97  C   UNL A   1      45.138  25.692  35.432  1.00  0.00     0.091 A 
ATOM     98  F   UNL A   1      42.846  26.125  34.938  1.00  0.00    -0.205 F 
ATOM     99  C   UNL A   1      46.489  26.031  35.262  1.00  0.00     0.022 A 
BRANCH  97 100
ATOM    100  S   UNL A   1      44.765  24.283  36.483  1.00  0.00     0.127 S 
ATOM    101  O   UNL A   1      46.101  23.845  36.878  1.00  0.00    -0.237 OA
ATOM    102  O   UNL A   1      43.981  24.895  37.556  1.00  0.00    -0.237 OA
ATOM    103  O   UNL A   1      44.018  23.350  35.649  1.00  0.00    -0.744 OA
ENDBRANCH  97 100
ENDBRANCH  70  93
ENDBRANCH  44  45
ENDBRANCH  36  39
ENDBRANCH  34  35
ENDBRANCH  33  34
ENDBRANCH  32  33
ENDBRANCH  31  32
ENDBRANCH   1  31
TORSDOF 21
ENDMDL
