MODEL 1
REMARK VINA RESULT:     -11.5      0.000      0.000
REMARK SMILES CC(C)OC(=O)c1c(NC(=O)[C@H]2[C@@H](C(=O)NCCCCCCNC(=O)c3ccc(-c4c5nc(c(-c6cccc(S(=O)(=O)[O-])c6F)c6ccc([nH]6)c(-c6cccc(S(=O)(=O)[O-])c6F)c6nc(c(-c7cccc(S(=O)(=O)[O-])c7F)c7ccc4[nH]7)C=C6)C=C5)cc3)[C@@H]3C=C[C@H]2CC3)sc2c1CCC2
REMARK SMILES IDX 18 1 17 2 16 3 14 4 15 5 13 7 12 8 92 9 89 10 91 11 93 12
REMARK SMILES IDX 90 13 94 14 10 15 9 16 11 18 8 19 7 20 97 21 95 22 96 23
REMARK SMILES IDX 98 24 100 25 99 26 5 27 6 28 4 29 2 30 1 31 3 32 19 33 20 34
REMARK SMILES IDX 21 35 22 36 23 37 24 38 25 40 26 41 27 42 88 43 28 44 87 45
REMARK SMILES IDX 29 46 30 47 31 48 81 49 32 50 86 51 80 52 82 53 33 54 85 55
REMARK SMILES IDX 79 56 78 57 34 59 66 60 46 61 65 62 47 63 50 64 64 65 83 66
REMARK SMILES IDX 48 67 49 68 63 70 84 71 51 72 35 73 36 74 44 75 37 76 39 77
REMARK SMILES IDX 45 78 38 79 40 80 41 81 42 82 43 83 67 84 68 85 76 86 69 87
REMARK SMILES IDX 71 88 77 89 70 90 72 91 73 92 74 93 75 94 52 95 53 96 61 97
REMARK SMILES IDX 54 98 56 99 62 100 55 101 57 102 58 103 59 104 60 105
REMARK H PARENT 16 6 9 17 23 39 82 58 50 69
REMARK Flexibility Score: inf
ROOT
ATOM      1  C   UNL A   1      34.094  29.648  27.362  1.00  0.00     0.021 C 
ENDROOT
BRANCH   1   2
ATOM      2  C   UNL A   1      33.244  28.465  26.919  1.00  0.00     0.116 C 
BRANCH   2   3
ATOM      3  N   UNL A   1      33.983  27.513  26.114  1.00  0.00    -0.356 N 
ATOM      4  C   UNL A   1      33.635  26.359  25.490  1.00  0.00     0.224 C 
ATOM      5  O   UNL A   1      34.577  25.593  25.242  1.00  0.00    -0.275 OA
ATOM      6  H   UNL A   1      34.930  27.753  25.996  1.00  0.00     0.163 HD
BRANCH   4   7
ATOM      7  C   UNL A   1      32.203  25.921  25.145  1.00  0.00     0.098 C 
ATOM      8  C   UNL A   1      32.090  24.952  23.887  1.00  0.00     0.099 C 
ATOM      9  C   UNL A   1      30.990  25.514  22.922  1.00  0.00     0.025 C 
ATOM     10  C   UNL A   1      31.048  26.956  25.051  1.00  0.00     0.025 C 
ATOM     11  C   UNL A   1      29.695  25.489  23.701  1.00  0.00    -0.027 C 
ATOM     12  C   UNL A   1      31.303  26.975  22.552  1.00  0.00     0.009 C 
ATOM     13  C   UNL A   1      29.738  26.214  24.825  1.00  0.00    -0.027 C 
ATOM     14  C   UNL A   1      31.259  27.849  23.811  1.00  0.00     0.009 C 
BRANCH   8  15
ATOM     15  C   UNL A   1      33.321  24.575  23.055  1.00  0.00     0.229 C 
ATOM     16  N   UNL A   1      33.915  23.327  23.153  1.00  0.00    -0.317 N 
ATOM     17  H   UNL A   1      34.878  23.285  22.948  1.00  0.00     0.170 HD
ATOM     18  O   UNL A   1      33.747  25.305  22.153  1.00  0.00    -0.274 OA
BRANCH  16  19
ATOM     19  C   UNL A   1      33.305  22.130  23.506  1.00  0.00     0.110 A 
ATOM     20  C   UNL A   1      33.549  21.376  24.658  1.00  0.00     0.098 A 
ATOM     21  C   UNL A   1      33.122  20.035  24.405  1.00  0.00    -0.017 A 
ATOM     22  S   UNL A   1      32.089  21.408  22.536  1.00  0.00    -0.122 S 
ATOM     23  C   UNL A   1      32.443  19.930  23.222  1.00  0.00     0.011 A 
ATOM     24  C   UNL A   1      33.245  18.699  25.042  1.00  0.00     0.038 C 
ATOM     25  C   UNL A   1      32.132  18.554  22.788  1.00  0.00     0.047 C 
ATOM     26  C   UNL A   1      32.895  17.726  23.866  1.00  0.00     0.010 C 
BRANCH  20  27
ATOM     27  C   UNL A   1      34.258  21.923  25.806  1.00  0.00     0.341 C 
ATOM     28  O   UNL A   1      33.731  22.739  26.561  1.00  0.00    -0.246 OA
BRANCH  27  29
ATOM     29  O   UNL A   1      35.517  21.432  25.964  1.00  0.00    -0.459 OA
BRANCH  29  30
ATOM     30  C   UNL A   1      36.386  21.339  24.810  1.00  0.00     0.170 C 
ATOM     31  C   UNL A   1      37.150  22.620  24.474  1.00  0.00     0.052 C 
ATOM     32  C   UNL A   1      37.299  20.124  24.937  1.00  0.00     0.052 C 
ENDBRANCH  29  30
ENDBRANCH  27  29
ENDBRANCH  20  27
ENDBRANCH  16  19
ENDBRANCH   8  15
ENDBRANCH   4   7
ENDBRANCH   2   3
ENDBRANCH   1   2
BRANCH   1  33
ATOM     33  C   UNL A   1      33.309  30.926  27.647  1.00  0.00     0.002 C 
BRANCH  33  34
ATOM     34  C   UNL A   1      34.122  32.226  27.741  1.00  0.00     0.002 C 
BRANCH  34  35
ATOM     35  C   UNL A   1      35.650  32.117  27.856  1.00  0.00     0.021 C 
BRANCH  35  36
ATOM     36  C   UNL A   1      36.361  33.375  28.329  1.00  0.00     0.116 C 
BRANCH  36  37
ATOM     37  N   UNL A   1      36.224  33.594  29.770  1.00  0.00    -0.352 N 
ATOM     38  C   UNL A   1      36.790  32.881  30.811  1.00  0.00     0.251 C 
ATOM     39  H   UNL A   1      35.652  34.351  30.034  1.00  0.00     0.163 HD
ATOM     40  O   UNL A   1      36.300  32.927  31.935  1.00  0.00    -0.269 OA
BRANCH  38  41
ATOM     41  C   UNL A   1      37.990  32.067  30.550  1.00  0.00     0.039 A 
ATOM     42  C   UNL A   1      39.272  32.620  30.552  1.00  0.00     0.014 A 
ATOM     43  C   UNL A   1      37.809  30.707  30.326  1.00  0.00     0.014 A 
ATOM     44  C   UNL A   1      40.366  31.770  30.406  1.00  0.00     0.010 A 
ATOM     45  C   UNL A   1      38.878  29.857  30.399  1.00  0.00     0.010 A 
ATOM     46  C   UNL A   1      40.159  30.381  30.352  1.00  0.00    -0.014 A 
BRANCH  46  47
ATOM     47  C   UNL A   1      41.277  29.446  30.343  1.00  0.00     0.031 A 
ATOM     48  C   UNL A   1      41.738  29.046  31.696  1.00  0.00     0.074 A 
ATOM     49  C   UNL A   1      41.732  28.843  29.223  1.00  0.00     0.049 A 
ATOM     50  N   UNL A   1      42.817  29.430  32.293  1.00  0.00    -0.248 NA
ATOM     51  C   UNL A   1      40.818  28.285  32.555  1.00  0.00     0.031 C 
ATOM     52  C   UNL A   1      41.168  28.897  27.865  1.00  0.00     0.029 A 
ATOM     53  N   UNL A   1      42.731  27.929  29.087  1.00  0.00    -0.354 N 
ATOM     54  C   UNL A   1      42.839  28.733  33.498  1.00  0.00     0.074 A 
ATOM     55  C   UNL A   1      41.499  28.253  33.703  1.00  0.00     0.031 C 
ATOM     56  C   UNL A   1      41.654  27.873  27.131  1.00  0.00     0.029 A 
ATOM     57  C   UNL A   1      42.696  27.216  27.892  1.00  0.00     0.049 A 
ATOM     58  H   UNL A   1      43.420  27.784  29.776  1.00  0.00     0.167 HD
ATOM     59  C   UNL A   1      44.021  28.368  34.066  1.00  0.00     0.034 A 
ATOM     60  C   UNL A   1      43.451  26.140  27.566  1.00  0.00     0.034 A 
ATOM     61  C   UNL A   1      45.128  29.061  33.449  1.00  0.00     0.049 A 
ATOM     62  C   UNL A   1      44.640  26.169  28.445  1.00  0.00     0.074 A 
ATOM     63  C   UNL A   1      45.478  30.383  33.261  1.00  0.00     0.029 A 
ATOM     64  N   UNL A   1      45.873  28.337  32.549  1.00  0.00    -0.354 N 
ATOM     65  N   UNL A   1      45.555  27.094  28.382  1.00  0.00    -0.248 NA
ATOM     66  C   UNL A   1      44.596  25.412  29.683  1.00  0.00     0.031 C 
ATOM     67  C   UNL A   1      46.061  30.426  31.958  1.00  0.00     0.029 A 
ATOM     68  C   UNL A   1      46.102  29.125  31.454  1.00  0.00     0.049 A 
ATOM     69  H   UNL A   1      46.188  27.412  32.672  1.00  0.00     0.167 HD
ATOM     70  C   UNL A   1      45.864  27.356  29.711  1.00  0.00     0.074 A 
ATOM     71  C   UNL A   1      45.344  26.208  30.451  1.00  0.00     0.031 C 
ATOM     72  C   UNL A   1      46.240  28.608  30.109  1.00  0.00     0.034 A 
BRANCH  59  73
ATOM     73  C   UNL A   1      44.253  27.105  34.872  1.00  0.00     0.023 A 
ATOM     74  C   UNL A   1      44.958  27.246  36.090  1.00  0.00     0.012 A 
ATOM     75  C   UNL A   1      44.086  25.789  34.383  1.00  0.00     0.148 A 
ATOM     76  C   UNL A   1      45.533  26.150  36.741  1.00  0.00     0.002 A 
ATOM     77  C   UNL A   1      44.591  24.693  35.076  1.00  0.00     0.091 A 
ATOM     78  F   UNL A   1      43.555  25.577  33.179  1.00  0.00    -0.205 F 
ATOM     79  C   UNL A   1      45.348  24.871  36.236  1.00  0.00     0.022 A 
BRANCH  77  80
ATOM     80  S   UNL A   1      44.341  23.012  34.491  1.00  0.00     0.127 S 
ATOM     81  O   UNL A   1      45.217  22.975  33.324  1.00  0.00    -0.237 OA
ATOM     82  O   UNL A   1      44.799  22.227  35.638  1.00  0.00    -0.237 OA
ATOM     83  O   UNL A   1      42.913  22.896  34.223  1.00  0.00    -0.744 OA
ENDBRANCH  77  80
ENDBRANCH  59  73
BRANCH  60  84
ATOM     84  C   UNL A   1      43.128  24.963  26.729  1.00  0.00     0.023 A 
ATOM     85  C   UNL A   1      44.040  24.541  25.740  1.00  0.00     0.012 A 
ATOM     86  C   UNL A   1      42.087  24.082  27.097  1.00  0.00     0.148 A 
ATOM     87  C   UNL A   1      43.949  23.265  25.171  1.00  0.00     0.002 A 
ATOM     88  C   UNL A   1      42.001  22.814  26.528  1.00  0.00     0.091 A 
ATOM     89  F   UNL A   1      41.245  24.451  28.071  1.00  0.00    -0.205 F 
ATOM     90  C   UNL A   1      42.938  22.397  25.574  1.00  0.00     0.022 A 
BRANCH  88  91
ATOM     91  S   UNL A   1      40.751  21.621  27.028  1.00  0.00     0.127 S 
ATOM     92  O   UNL A   1      39.514  22.370  26.810  1.00  0.00    -0.237 OA
ATOM     93  O   UNL A   1      40.981  20.529  26.086  1.00  0.00    -0.237 OA
ATOM     94  O   UNL A   1      41.030  21.314  28.426  1.00  0.00    -0.744 OA
ENDBRANCH  88  91
ENDBRANCH  60  84
BRANCH  72  95
ATOM     95  C   UNL A   1      46.601  29.613  29.043  1.00  0.00     0.023 A 
ATOM     96  C   UNL A   1      47.901  29.729  28.509  1.00  0.00     0.012 A 
ATOM     97  C   UNL A   1      45.558  30.344  28.450  1.00  0.00     0.148 A 
ATOM     98  C   UNL A   1      48.158  30.574  27.424  1.00  0.00     0.002 A 
ATOM     99  C   UNL A   1      45.806  31.144  27.342  1.00  0.00     0.091 A 
ATOM    100  F   UNL A   1      44.327  30.222  28.969  1.00  0.00    -0.205 F 
ATOM    101  C   UNL A   1      47.107  31.270  26.831  1.00  0.00     0.022 A 
BRANCH  99 102
ATOM    102  S   UNL A   1      44.474  31.963  26.464  1.00  0.00     0.127 S 
ATOM    103  O   UNL A   1      44.001  32.927  27.455  1.00  0.00    -0.237 OA
ATOM    104  O   UNL A   1      45.168  32.553  25.317  1.00  0.00    -0.237 OA
ATOM    105  O   UNL A   1      43.526  30.914  26.106  1.00  0.00    -0.744 OA
ENDBRANCH  99 102
ENDBRANCH  72  95
ENDBRANCH  46  47
ENDBRANCH  38  41
ENDBRANCH  36  37
ENDBRANCH  35  36
ENDBRANCH  34  35
ENDBRANCH  33  34
ENDBRANCH   1  33
TORSDOF 21
ENDMDL
MODEL 2
REMARK VINA RESULT:     -10.9      1.665      1.999
REMARK SMILES CC(C)OC(=O)c1c(NC(=O)[C@H]2[C@@H](C(=O)NCCCCCCNC(=O)c3ccc(-c4c5nc(c(-c6cccc(S(=O)(=O)[O-])c6F)c6ccc([nH]6)c(-c6cccc(S(=O)(=O)[O-])c6F)c6nc(c(-c7cccc(S(=O)(=O)[O-])c7F)c7ccc4[nH]7)C=C6)C=C5)cc3)[C@@H]3C=C[C@H]2CC3)sc2c1CCC2
REMARK SMILES IDX 18 1 17 2 16 3 14 4 15 5 13 7 12 8 92 9 89 10 91 11 93 12
REMARK SMILES IDX 90 13 94 14 10 15 9 16 11 18 8 19 7 20 97 21 95 22 96 23
REMARK SMILES IDX 98 24 100 25 99 26 5 27 6 28 4 29 2 30 1 31 3 32 19 33 20 34
REMARK SMILES IDX 21 35 22 36 23 37 24 38 25 40 26 41 27 42 88 43 28 44 87 45
REMARK SMILES IDX 29 46 30 47 31 48 81 49 32 50 86 51 80 52 82 53 33 54 85 55
REMARK SMILES IDX 79 56 78 57 34 59 66 60 46 61 65 62 47 63 50 64 64 65 83 66
REMARK SMILES IDX 48 67 49 68 63 70 84 71 51 72 35 73 36 74 44 75 37 76 39 77
REMARK SMILES IDX 45 78 38 79 40 80 41 81 42 82 43 83 67 84 68 85 76 86 69 87
REMARK SMILES IDX 71 88 77 89 70 90 72 91 73 92 74 93 75 94 52 95 53 96 61 97
REMARK SMILES IDX 54 98 56 99 62 100 55 101 57 102 58 103 59 104 60 105
REMARK H PARENT 16 6 9 17 23 39 82 58 50 69
REMARK Flexibility Score: inf
ROOT
ATOM      1  C   UNL A   1      32.225  29.521  26.749  1.00  0.00     0.021 C 
ENDROOT
BRANCH   1   2
ATOM      2  C   UNL A   1      32.884  29.332  25.389  1.00  0.00     0.116 C 
BRANCH   2   3
ATOM      3  N   UNL A   1      33.684  28.126  25.316  1.00  0.00    -0.356 N 
ATOM      4  C   UNL A   1      33.370  26.806  25.273  1.00  0.00     0.224 C 
ATOM      5  O   UNL A   1      34.277  26.040  25.626  1.00  0.00    -0.275 OA
ATOM      6  H   UNL A   1      34.652  28.300  25.294  1.00  0.00     0.163 HD
BRANCH   4   7
ATOM      7  C   UNL A   1      32.000  26.221  24.898  1.00  0.00     0.098 C 
ATOM      8  C   UNL A   1      32.048  25.061  23.809  1.00  0.00     0.099 C 
ATOM      9  C   UNL A   1      31.003  25.386  22.687  1.00  0.00     0.025 C 
ATOM     10  C   UNL A   1      30.800  27.146  24.551  1.00  0.00     0.025 C 
ATOM     11  C   UNL A   1      29.651  25.395  23.361  1.00  0.00    -0.027 C 
ATOM     12  C   UNL A   1      31.264  26.788  22.108  1.00  0.00     0.009 C 
ATOM     13  C   UNL A   1      29.558  26.289  24.352  1.00  0.00    -0.027 C 
ATOM     14  C   UNL A   1      31.065  27.844  23.201  1.00  0.00     0.009 C 
BRANCH   8  15
ATOM     15  C   UNL A   1      33.364  24.643  23.144  1.00  0.00     0.229 C 
ATOM     16  N   UNL A   1      33.921  23.391  23.347  1.00  0.00    -0.317 N 
ATOM     17  H   UNL A   1      34.900  23.330  23.262  1.00  0.00     0.170 HD
ATOM     18  O   UNL A   1      33.909  25.341  22.281  1.00  0.00    -0.274 OA
BRANCH  16  19
ATOM     19  C   UNL A   1      33.252  22.213  23.655  1.00  0.00     0.110 A 
ATOM     20  C   UNL A   1      33.315  21.506  24.860  1.00  0.00     0.098 A 
ATOM     21  C   UNL A   1      32.916  20.158  24.602  1.00  0.00    -0.017 A 
ATOM     22  S   UNL A   1      32.183  21.457  22.546  1.00  0.00    -0.122 S 
ATOM     23  C   UNL A   1      32.416  20.007  23.337  1.00  0.00     0.011 A 
ATOM     24  C   UNL A   1      32.928  18.849  25.304  1.00  0.00     0.038 C 
ATOM     25  C   UNL A   1      32.157  18.615  22.919  1.00  0.00     0.047 C 
ATOM     26  C   UNL A   1      32.744  17.829  24.130  1.00  0.00     0.010 C 
BRANCH  20  27
ATOM     27  C   UNL A   1      33.854  22.097  26.077  1.00  0.00     0.341 C 
ATOM     28  O   UNL A   1      33.342  23.089  26.594  1.00  0.00    -0.246 OA
BRANCH  27  29
ATOM     29  O   UNL A   1      34.935  21.442  26.578  1.00  0.00    -0.459 OA
BRANCH  29  30
ATOM     30  C   UNL A   1      36.244  21.717  26.024  1.00  0.00     0.170 C 
ATOM     31  C   UNL A   1      36.623  20.867  24.811  1.00  0.00     0.052 C 
ATOM     32  C   UNL A   1      36.402  23.212  25.769  1.00  0.00     0.052 C 
ENDBRANCH  29  30
ENDBRANCH  27  29
ENDBRANCH  20  27
ENDBRANCH  16  19
ENDBRANCH   8  15
ENDBRANCH   4   7
ENDBRANCH   2   3
ENDBRANCH   1   2
BRANCH   1  33
ATOM     33  C   UNL A   1      32.209  30.961  27.254  1.00  0.00     0.002 C 
BRANCH  33  34
ATOM     34  C   UNL A   1      33.513  31.759  27.103  1.00  0.00     0.002 C 
BRANCH  34  35
ATOM     35  C   UNL A   1      34.590  31.594  28.186  1.00  0.00     0.021 C 
BRANCH  35  36
ATOM     36  C   UNL A   1      35.084  32.886  28.819  1.00  0.00     0.116 C 
BRANCH  36  37
ATOM     37  N   UNL A   1      34.945  32.892  30.276  1.00  0.00    -0.352 N 
ATOM     38  C   UNL A   1      35.586  32.098  31.209  1.00  0.00     0.251 C 
ATOM     39  H   UNL A   1      34.310  33.550  30.642  1.00  0.00     0.163 HD
ATOM     40  O   UNL A   1      35.109  31.945  32.328  1.00  0.00    -0.269 OA
BRANCH  38  41
ATOM     41  C   UNL A   1      36.852  31.442  30.838  1.00  0.00     0.039 A 
ATOM     42  C   UNL A   1      38.046  32.155  30.717  1.00  0.00     0.014 A 
ATOM     43  C   UNL A   1      36.830  30.067  30.638  1.00  0.00     0.014 A 
ATOM     44  C   UNL A   1      39.223  31.451  30.472  1.00  0.00     0.010 A 
ATOM     45  C   UNL A   1      38.002  29.362  30.613  1.00  0.00     0.010 A 
ATOM     46  C   UNL A   1      39.194  30.046  30.443  1.00  0.00    -0.014 A 
BRANCH  46  47
ATOM     47  C   UNL A   1      40.418  29.263  30.333  1.00  0.00     0.031 A 
ATOM     48  C   UNL A   1      41.023  28.904  31.639  1.00  0.00     0.074 A 
ATOM     49  C   UNL A   1      40.864  28.742  29.168  1.00  0.00     0.049 A 
ATOM     50  N   UNL A   1      42.084  29.412  32.169  1.00  0.00    -0.248 NA
ATOM     51  C   UNL A   1      40.271  28.016  32.540  1.00  0.00     0.031 C 
ATOM     52  C   UNL A   1      40.201  28.746  27.855  1.00  0.00     0.029 A 
ATOM     53  N   UNL A   1      41.959  27.967  28.939  1.00  0.00    -0.354 N 
ATOM     54  C   UNL A   1      42.282  28.704  33.352  1.00  0.00     0.074 A 
ATOM     55  C   UNL A   1      41.032  28.053  33.637  1.00  0.00     0.031 C 
ATOM     56  C   UNL A   1      40.759  27.806  27.062  1.00  0.00     0.029 A 
ATOM     57  C   UNL A   1      41.928  27.276  27.731  1.00  0.00     0.049 A 
ATOM     58  H   UNL A   1      42.708  27.901  29.574  1.00  0.00     0.167 HD
ATOM     59  C   UNL A   1      43.538  28.484  33.826  1.00  0.00     0.034 A 
ATOM     60  C   UNL A   1      42.788  26.311  27.326  1.00  0.00     0.034 A 
ATOM     61  C   UNL A   1      44.501  29.324  33.152  1.00  0.00     0.049 A 
ATOM     62  C   UNL A   1      44.024  26.478  28.120  1.00  0.00     0.074 A 
ATOM     63  C   UNL A   1      44.666  30.683  32.974  1.00  0.00     0.029 A 
ATOM     64  N   UNL A   1      45.265  28.718  32.184  1.00  0.00    -0.354 N 
ATOM     65  N   UNL A   1      44.808  27.515  28.018  1.00  0.00    -0.248 NA
ATOM     66  C   UNL A   1      44.166  25.701  29.339  1.00  0.00     0.031 C 
ATOM     67  C   UNL A   1      45.142  30.823  31.635  1.00  0.00     0.029 A 
ATOM     68  C   UNL A   1      45.313  29.546  31.097  1.00  0.00     0.049 A 
ATOM     69  H   UNL A   1      45.703  27.839  32.261  1.00  0.00     0.167 HD
ATOM     70  C   UNL A   1      45.176  27.792  29.328  1.00  0.00     0.074 A 
ATOM     71  C   UNL A   1      44.861  26.573  30.073  1.00  0.00     0.031 C 
ATOM     72  C   UNL A   1      45.417  29.074  29.732  1.00  0.00     0.034 A 
BRANCH  59  73
ATOM     73  C   UNL A   1      43.987  27.248  34.581  1.00  0.00     0.023 A 
ATOM     74  C   UNL A   1      43.818  26.006  33.927  1.00  0.00     0.012 A 
ATOM     75  C   UNL A   1      44.281  27.204  35.963  1.00  0.00     0.148 A 
ATOM     76  C   UNL A   1      43.860  24.793  34.622  1.00  0.00     0.002 A 
ATOM     77  C   UNL A   1      44.400  25.992  36.636  1.00  0.00     0.091 A 
ATOM     78  F   UNL A   1      44.319  28.326  36.682  1.00  0.00    -0.205 F 
ATOM     79  C   UNL A   1      44.154  24.785  35.979  1.00  0.00     0.022 A 
BRANCH  77  80
ATOM     80  S   UNL A   1      44.824  25.922  38.382  1.00  0.00     0.127 S 
ATOM     81  O   UNL A   1      43.678  26.592  38.987  1.00  0.00    -0.237 OA
ATOM     82  O   UNL A   1      44.894  24.479  38.613  1.00  0.00    -0.237 OA
ATOM     83  O   UNL A   1      46.105  26.607  38.504  1.00  0.00    -0.744 OA
ENDBRANCH  77  80
ENDBRANCH  59  73
BRANCH  60  84
ATOM     84  C   UNL A   1      42.558  25.117  26.483  1.00  0.00     0.023 A 
ATOM     85  C   UNL A   1      43.350  24.912  25.335  1.00  0.00     0.012 A 
ATOM     86  C   UNL A   1      41.785  24.036  26.962  1.00  0.00     0.148 A 
ATOM     87  C   UNL A   1      43.408  23.660  24.712  1.00  0.00     0.002 A 
ATOM     88  C   UNL A   1      41.846  22.792  26.339  1.00  0.00     0.091 A 
ATOM     89  F   UNL A   1      41.068  24.203  28.082  1.00  0.00    -0.205 F 
ATOM     90  C   UNL A   1      42.667  22.597  25.221  1.00  0.00     0.022 A 
BRANCH  88  91
ATOM     91  S   UNL A   1      40.953  21.361  26.964  1.00  0.00     0.127 S 
ATOM     92  O   UNL A   1      39.811  21.298  26.054  1.00  0.00    -0.237 OA
ATOM     93  O   UNL A   1      41.935  20.294  26.790  1.00  0.00    -0.237 OA
ATOM     94  O   UNL A   1      40.607  21.679  28.344  1.00  0.00    -0.744 OA
ENDBRANCH  88  91
ENDBRANCH  60  84
BRANCH  72  95
ATOM     95  C   UNL A   1      45.570  30.135  28.669  1.00  0.00     0.023 A 
ATOM     96  C   UNL A   1      44.473  30.830  28.117  1.00  0.00     0.012 A 
ATOM     97  C   UNL A   1      46.870  30.555  28.343  1.00  0.00     0.148 A 
ATOM     98  C   UNL A   1      44.670  31.903  27.242  1.00  0.00     0.002 A 
ATOM     99  C   UNL A   1      47.064  31.651  27.513  1.00  0.00     0.091 A 
ATOM    100  F   UNL A   1      47.903  29.885  28.877  1.00  0.00    -0.205 F 
ATOM    101  C   UNL A   1      45.967  32.323  26.952  1.00  0.00     0.022 A 
BRANCH  99 102
ATOM    102  S   UNL A   1      48.702  32.313  27.206  1.00  0.00     0.127 S 
ATOM    103  O   UNL A   1      49.350  31.209  26.500  1.00  0.00    -0.237 OA
ATOM    104  O   UNL A   1      48.418  33.486  26.377  1.00  0.00    -0.237 OA
ATOM    105  O   UNL A   1      49.257  32.632  28.515  1.00  0.00    -0.744 OA
ENDBRANCH  99 102
ENDBRANCH  72  95
ENDBRANCH  46  47
ENDBRANCH  38  41
ENDBRANCH  36  37
ENDBRANCH  35  36
ENDBRANCH  34  35
ENDBRANCH  33  34
ENDBRANCH   1  33
TORSDOF 21
ENDMDL
MODEL 3
REMARK VINA RESULT:     -10.8      1.838      2.180
REMARK SMILES CC(C)OC(=O)c1c(NC(=O)[C@H]2[C@@H](C(=O)NCCCCCCNC(=O)c3ccc(-c4c5nc(c(-c6cccc(S(=O)(=O)[O-])c6F)c6ccc([nH]6)c(-c6cccc(S(=O)(=O)[O-])c6F)c6nc(c(-c7cccc(S(=O)(=O)[O-])c7F)c7ccc4[nH]7)C=C6)C=C5)cc3)[C@@H]3C=C[C@H]2CC3)sc2c1CCC2
REMARK SMILES IDX 18 1 17 2 16 3 14 4 15 5 13 7 12 8 92 9 89 10 91 11 93 12
REMARK SMILES IDX 90 13 94 14 10 15 9 16 11 18 8 19 7 20 97 21 95 22 96 23
REMARK SMILES IDX 98 24 100 25 99 26 5 27 6 28 4 29 2 30 1 31 3 32 19 33 20 34
REMARK SMILES IDX 21 35 22 36 23 37 24 38 25 40 26 41 27 42 88 43 28 44 87 45
REMARK SMILES IDX 29 46 30 47 31 48 81 49 32 50 86 51 80 52 82 53 33 54 85 55
REMARK SMILES IDX 79 56 78 57 34 59 66 60 46 61 65 62 47 63 50 64 64 65 83 66
REMARK SMILES IDX 48 67 49 68 63 70 84 71 51 72 35 73 36 74 44 75 37 76 39 77
REMARK SMILES IDX 45 78 38 79 40 80 41 81 42 82 43 83 67 84 68 85 76 86 69 87
REMARK SMILES IDX 71 88 77 89 70 90 72 91 73 92 74 93 75 94 52 95 53 96 61 97
REMARK SMILES IDX 54 98 56 99 62 100 55 101 57 102 58 103 59 104 60 105
REMARK H PARENT 16 6 9 17 23 39 82 58 50 69
REMARK Flexibility Score: inf
ROOT
ATOM      1  C   UNL A   1      33.842  29.779  27.246  1.00  0.00     0.021 C 
ENDROOT
BRANCH   1   2
ATOM      2  C   UNL A   1      33.244  29.172  25.984  1.00  0.00     0.116 C 
BRANCH   2   3
ATOM      3  N   UNL A   1      34.010  28.047  25.485  1.00  0.00    -0.356 N 
ATOM      4  C   UNL A   1      33.686  26.763  25.188  1.00  0.00     0.224 C 
ATOM      5  O   UNL A   1      34.638  25.970  25.181  1.00  0.00    -0.275 OA
ATOM      6  H   UNL A   1      34.959  28.258  25.331  1.00  0.00     0.163 HD
BRANCH   4   7
ATOM      7  C   UNL A   1      32.266  26.230  24.938  1.00  0.00     0.098 C 
ATOM      8  C   UNL A   1      32.166  25.108  23.814  1.00  0.00     0.099 C 
ATOM      9  C   UNL A   1      31.023  25.501  22.817  1.00  0.00     0.025 C 
ATOM     10  C   UNL A   1      31.067  27.200  24.747  1.00  0.00     0.025 C 
ATOM     11  C   UNL A   1      29.747  25.525  23.627  1.00  0.00    -0.027 C 
ATOM     12  C   UNL A   1      31.267  26.915  22.259  1.00  0.00     0.009 C 
ATOM     13  C   UNL A   1      29.785  26.386  24.650  1.00  0.00    -0.027 C 
ATOM     14  C   UNL A   1      31.214  27.937  23.400  1.00  0.00     0.009 C 
BRANCH   8  15
ATOM     15  C   UNL A   1      33.393  24.676  23.003  1.00  0.00     0.229 C 
ATOM     16  N   UNL A   1      33.957  23.419  23.143  1.00  0.00    -0.317 N 
ATOM     17  H   UNL A   1      34.919  23.347  22.947  1.00  0.00     0.170 HD
ATOM     18  O   UNL A   1      33.844  25.369  22.084  1.00  0.00    -0.274 OA
BRANCH  16  19
ATOM     19  C   UNL A   1      33.316  22.247  23.526  1.00  0.00     0.110 A 
ATOM     20  C   UNL A   1      33.497  21.548  24.724  1.00  0.00     0.098 A 
ATOM     21  C   UNL A   1      33.065  20.201  24.518  1.00  0.00    -0.017 A 
ATOM     22  S   UNL A   1      32.134  21.492  22.539  1.00  0.00    -0.122 S 
ATOM     23  C   UNL A   1      32.437  20.046  23.312  1.00  0.00     0.011 A 
ATOM     24  C   UNL A   1      33.140  18.898  25.225  1.00  0.00     0.038 C 
ATOM     25  C   UNL A   1      32.127  18.653  22.933  1.00  0.00     0.047 C 
ATOM     26  C   UNL A   1      32.830  17.871  24.084  1.00  0.00     0.010 C 
BRANCH  20  27
ATOM     27  C   UNL A   1      34.162  22.143  25.875  1.00  0.00     0.341 C 
ATOM     28  O   UNL A   1      33.769  23.198  26.373  1.00  0.00    -0.246 OA
BRANCH  27  29
ATOM     29  O   UNL A   1      35.215  21.420  26.341  1.00  0.00    -0.459 OA
BRANCH  29  30
ATOM     30  C   UNL A   1      36.543  21.709  25.841  1.00  0.00     0.170 C 
ATOM     31  C   UNL A   1      37.064  20.726  24.792  1.00  0.00     0.052 C 
ATOM     32  C   UNL A   1      36.627  23.161  25.383  1.00  0.00     0.052 C 
ENDBRANCH  29  30
ENDBRANCH  27  29
ENDBRANCH  20  27
ENDBRANCH  16  19
ENDBRANCH   8  15
ENDBRANCH   4   7
ENDBRANCH   2   3
ENDBRANCH   1   2
BRANCH   1  33
ATOM     33  C   UNL A   1      33.328  31.175  27.587  1.00  0.00     0.002 C 
BRANCH  33  34
ATOM     34  C   UNL A   1      34.378  32.293  27.673  1.00  0.00     0.002 C 
BRANCH  34  35
ATOM     35  C   UNL A   1      35.839  31.894  27.934  1.00  0.00     0.021 C 
BRANCH  35  36
ATOM     36  C   UNL A   1      36.657  32.898  28.731  1.00  0.00     0.116 C 
BRANCH  36  37
ATOM     37  N   UNL A   1      36.327  32.892  30.157  1.00  0.00    -0.352 N 
ATOM     38  C   UNL A   1      36.787  32.043  31.147  1.00  0.00     0.251 C 
ATOM     39  H   UNL A   1      35.692  33.584  30.452  1.00  0.00     0.163 HD
ATOM     40  O   UNL A   1      36.157  31.906  32.190  1.00  0.00    -0.269 OA
BRANCH  38  41
ATOM     41  C   UNL A   1      38.046  31.310  30.931  1.00  0.00     0.039 A 
ATOM     42  C   UNL A   1      39.290  31.942  30.997  1.00  0.00     0.014 A 
ATOM     43  C   UNL A   1      37.962  29.945  30.685  1.00  0.00     0.014 A 
ATOM     44  C   UNL A   1      40.441  31.164  30.892  1.00  0.00     0.010 A 
ATOM     45  C   UNL A   1      39.078  29.162  30.796  1.00  0.00     0.010 A 
ATOM     46  C   UNL A   1      40.325  29.766  30.812  1.00  0.00    -0.014 A 
BRANCH  46  47
ATOM     47  C   UNL A   1      41.498  28.902  30.844  1.00  0.00     0.031 A 
ATOM     48  C   UNL A   1      42.025  28.651  32.208  1.00  0.00     0.074 A 
ATOM     49  C   UNL A   1      41.956  28.232  29.763  1.00  0.00     0.049 A 
ATOM     50  N   UNL A   1      43.095  29.150  32.731  1.00  0.00    -0.248 NA
ATOM     51  C   UNL A   1      41.181  27.914  33.161  1.00  0.00     0.031 C 
ATOM     52  C   UNL A   1      41.349  28.133  28.427  1.00  0.00     0.029 A 
ATOM     53  N   UNL A   1      43.006  27.372  29.670  1.00  0.00    -0.354 N 
ATOM     54  C   UNL A   1      43.198  28.564  33.990  1.00  0.00     0.074 A 
ATOM     55  C   UNL A   1      41.897  28.024  34.283  1.00  0.00     0.031 C 
ATOM     56  C   UNL A   1      41.876  27.080  27.766  1.00  0.00     0.029 A 
ATOM     57  C   UNL A   1      42.980  26.557  28.542  1.00  0.00     0.049 A 
ATOM     58  H   UNL A   1      43.723  27.330  30.344  1.00  0.00     0.167 HD
ATOM     59  C   UNL A   1      44.417  28.321  34.544  1.00  0.00     0.034 A 
ATOM     60  C   UNL A   1      43.791  25.504  28.283  1.00  0.00     0.034 A 
ATOM     61  C   UNL A   1      45.459  29.023  33.831  1.00  0.00     0.049 A 
ATOM     62  C   UNL A   1      45.002  25.681  29.112  1.00  0.00     0.074 A 
ATOM     63  C   UNL A   1      45.719  30.342  33.518  1.00  0.00     0.029 A 
ATOM     64  N   UNL A   1      46.221  28.270  32.970  1.00  0.00    -0.354 N 
ATOM     65  N   UNL A   1      45.855  26.651  28.938  1.00  0.00    -0.248 NA
ATOM     66  C   UNL A   1      45.044  25.034  30.411  1.00  0.00     0.031 C 
ATOM     67  C   UNL A   1      46.258  30.307  32.196  1.00  0.00     0.029 A 
ATOM     68  C   UNL A   1      46.366  28.971  31.804  1.00  0.00     0.049 A 
ATOM     69  H   UNL A   1      46.597  27.380  33.160  1.00  0.00     0.167 HD
ATOM     70  C   UNL A   1      46.187  27.046  30.228  1.00  0.00     0.074 A 
ATOM     71  C   UNL A   1      45.763  25.937  31.082  1.00  0.00     0.031 C 
ATOM     72  C   UNL A   1      46.495  28.348  30.503  1.00  0.00     0.034 A 
BRANCH  59  73
ATOM     73  C   UNL A   1      44.753  27.150  35.446  1.00  0.00     0.023 A 
ATOM     74  C   UNL A   1      44.566  25.856  34.906  1.00  0.00     0.012 A 
ATOM     75  C   UNL A   1      44.953  27.233  36.843  1.00  0.00     0.148 A 
ATOM     76  C   UNL A   1      44.502  24.719  35.719  1.00  0.00     0.002 A 
ATOM     77  C   UNL A   1      44.967  26.091  37.638  1.00  0.00     0.091 A 
ATOM     78  F   UNL A   1      45.000  28.419  37.449  1.00  0.00    -0.205 F 
ATOM     79  C   UNL A   1      44.705  24.836  37.087  1.00  0.00     0.022 A 
BRANCH  77  80
ATOM     80  S   UNL A   1      45.272  26.180  39.408  1.00  0.00     0.127 S 
ATOM     81  O   UNL A   1      46.266  27.247  39.479  1.00  0.00    -0.237 OA
ATOM     82  O   UNL A   1      43.947  26.529  39.920  1.00  0.00    -0.237 OA
ATOM     83  O   UNL A   1      45.730  24.852  39.796  1.00  0.00    -0.744 OA
ENDBRANCH  77  80
ENDBRANCH  59  73
BRANCH  60  84
ATOM     84  C   UNL A   1      43.518  24.240  27.561  1.00  0.00     0.023 A 
ATOM     85  C   UNL A   1      42.212  23.710  27.557  1.00  0.00     0.012 A 
ATOM     86  C   UNL A   1      44.452  23.724  26.635  1.00  0.00     0.148 A 
ATOM     87  C   UNL A   1      41.833  22.732  26.629  1.00  0.00     0.002 A 
ATOM     88  C   UNL A   1      44.070  22.752  25.714  1.00  0.00     0.091 A 
ATOM     89  F   UNL A   1      45.681  24.256  26.595  1.00  0.00    -0.205 F 
ATOM     90  C   UNL A   1      42.757  22.263  25.700  1.00  0.00     0.022 A 
BRANCH  88  91
ATOM     91  S   UNL A   1      45.194  22.129  24.455  1.00  0.00     0.127 S 
ATOM     92  O   UNL A   1      45.646  23.364  23.817  1.00  0.00    -0.237 OA
ATOM     93  O   UNL A   1      46.204  21.450  25.262  1.00  0.00    -0.237 OA
ATOM     94  O   UNL A   1      44.390  21.267  23.596  1.00  0.00    -0.744 OA
ENDBRANCH  88  91
ENDBRANCH  60  84
BRANCH  72  95
ATOM     95  C   UNL A   1      46.759  29.276  29.343  1.00  0.00     0.023 A 
ATOM     96  C   UNL A   1      48.001  29.335  28.677  1.00  0.00     0.012 A 
ATOM     97  C   UNL A   1      45.671  29.986  28.810  1.00  0.00     0.148 A 
ATOM     98  C   UNL A   1      48.158  30.103  27.519  1.00  0.00     0.002 A 
ATOM     99  C   UNL A   1      45.816  30.709  27.633  1.00  0.00     0.091 A 
ATOM    100  F   UNL A   1      44.496  29.920  29.455  1.00  0.00    -0.205 F 
ATOM    101  C   UNL A   1      47.060  30.778  26.989  1.00  0.00     0.022 A 
BRANCH  99 102
ATOM    102  S   UNL A   1      44.412  31.493  26.839  1.00  0.00     0.127 S 
ATOM    103  O   UNL A   1      45.026  32.099  25.660  1.00  0.00    -0.237 OA
ATOM    104  O   UNL A   1      43.534  30.354  26.555  1.00  0.00    -0.237 OA
ATOM    105  O   UNL A   1      43.870  32.429  27.816  1.00  0.00    -0.744 OA
ENDBRANCH  99 102
ENDBRANCH  72  95
ENDBRANCH  46  47
ENDBRANCH  38  41
ENDBRANCH  36  37
ENDBRANCH  35  36
ENDBRANCH  34  35
ENDBRANCH  33  34
ENDBRANCH   1  33
TORSDOF 21
ENDMDL
