MODEL 1
REMARK VINA RESULT:      -9.0      0.000      0.000
REMARK SMILES O=C(/C=C/c1ccc(S(=O)(=O)Nc2ccc3c(c2)OCCO3)cc1)NCCCCCCNC(=O)c1ccc(-c2c3nc(c(-c4cccc(S(=O)(=O)[O-])c4F)c4ccc([nH]4)c(-c4cccc(S(=O)(=O)[O-])c4F)c4nc(c(-c5cccc(S(=O)(=O)[O-])c5F)c5ccc2[nH]5)C=C4)C=C3)cc1
REMARK SMILES IDX 28 1 27 2 26 3 25 4 1 5 2 6 3 8 4 9 5 10 6 11 24 12 7 13
REMARK SMILES IDX 23 14 8 15 9 16 10 17 11 18 12 19 13 21 14 22 18 23 15 24
REMARK SMILES IDX 17 25 16 26 19 27 22 28 20 29 21 30 29 31 30 32 31 33 32 34
REMARK SMILES IDX 33 35 34 37 35 38 36 39 97 40 37 41 96 42 38 43 39 44 40 45
REMARK SMILES IDX 90 46 41 47 95 48 89 49 91 50 42 51 94 52 88 53 87 54 43 56
REMARK SMILES IDX 75 57 55 58 74 59 56 60 59 61 73 62 92 63 57 64 58 65 72 67
REMARK SMILES IDX 93 68 60 69 44 70 45 71 53 72 46 73 48 74 54 75 47 76 49 77
REMARK SMILES IDX 50 78 51 79 52 80 76 81 77 82 85 83 78 84 80 85 86 86 79 87
REMARK SMILES IDX 81 88 82 89 83 90 84 91 61 92 62 93 70 94 63 95 65 96 71 97
REMARK SMILES IDX 64 98 66 99 67 100 68 101 69 102
REMARK H PARENT 25 7 12 20 32 36 91 55 59 66
REMARK Flexibility Score: inf
ROOT
ATOM      1  C   UNL A   1      44.682  23.856  25.524  1.00  0.00     0.002 C 
ENDROOT
BRANCH   1   2
ATOM      2  C   UNL A   1      46.084  24.005  24.919  1.00  0.00     0.021 C 
BRANCH   2   3
ATOM      3  C   UNL A   1      46.959  25.058  25.599  1.00  0.00     0.116 C 
BRANCH   3   4
ATOM      4  N   UNL A   1      46.549  25.294  26.973  1.00  0.00    -0.353 N 
ATOM      5  O   UNL A   1      48.494  24.540  27.933  1.00  0.00    -0.270 OA
ATOM      6  C   UNL A   1      47.352  24.975  28.033  1.00  0.00     0.243 C 
ATOM      7  H   UNL A   1      45.667  25.696  27.146  1.00  0.00     0.163 HD
BRANCH   6   8
ATOM      8  C   UNL A   1      46.805  25.243  29.389  1.00  0.00     0.072 C 
ATOM      9  C   UNL A   1      45.554  24.990  29.811  1.00  0.00     0.014 C 
BRANCH   9  10
ATOM     10  C   UNL A   1      45.056  25.214  31.188  1.00  0.00    -0.025 A 
ATOM     11  C   UNL A   1      44.614  24.113  31.938  1.00  0.00     0.009 A 
ATOM     12  C   UNL A   1      45.013  26.476  31.802  1.00  0.00     0.009 A 
ATOM     13  C   UNL A   1      44.076  24.278  33.224  1.00  0.00     0.023 A 
ATOM     14  C   UNL A   1      44.525  26.640  33.108  1.00  0.00     0.023 A 
ATOM     15  C   UNL A   1      44.005  25.550  33.801  1.00  0.00     0.087 A 
BRANCH  15  16
ATOM     16  S   UNL A   1      43.233  25.723  35.403  1.00  0.00     0.261 S 
ATOM     17  O   UNL A   1      43.060  24.375  35.931  1.00  0.00    -0.201 OA
ATOM     18  O   UNL A   1      43.981  26.702  36.148  1.00  0.00    -0.201 OA
BRANCH  16  19
ATOM     19  N   UNL A   1      41.623  26.330  35.232  1.00  0.00    -0.279 N 
ATOM     20  H   UNL A   1      40.838  25.753  35.365  1.00  0.00     0.180 HD
BRANCH  19  21
ATOM     21  C   UNL A   1      41.489  27.716  34.887  1.00  0.00     0.053 A 
ATOM     22  C   UNL A   1      41.199  28.015  33.550  1.00  0.00     0.031 A 
ATOM     23  C   UNL A   1      41.490  28.711  35.858  1.00  0.00     0.077 A 
ATOM     24  C   UNL A   1      40.679  29.264  33.223  1.00  0.00     0.052 A 
ATOM     25  C   UNL A   1      40.905  29.930  35.547  1.00  0.00     0.163 A 
ATOM     26  C   UNL A   1      40.445  30.175  34.247  1.00  0.00     0.161 A 
ATOM     27  O   UNL A   1      40.682  30.775  36.601  1.00  0.00    -0.486 OA
ATOM     28  O   UNL A   1      39.636  31.247  33.963  1.00  0.00    -0.486 OA
ATOM     29  C   UNL A   1      39.771  31.841  36.294  1.00  0.00     0.271 C 
ATOM     30  C   UNL A   1      38.846  31.508  35.133  1.00  0.00     0.271 C 
ENDBRANCH  19  21
ENDBRANCH  16  19
ENDBRANCH  15  16
ENDBRANCH   9  10
ENDBRANCH   6   8
ENDBRANCH   3   4
ENDBRANCH   2   3
ENDBRANCH   1   2
BRANCH   1  31
ATOM     31  C   UNL A   1      44.088  22.445  25.470  1.00  0.00     0.002 C 
BRANCH  31  32
ATOM     32  C   UNL A   1      42.584  22.374  25.191  1.00  0.00     0.021 C 
BRANCH  32  33
ATOM     33  C   UNL A   1      41.716  22.019  26.395  1.00  0.00     0.116 C 
BRANCH  33  34
ATOM     34  N   UNL A   1      40.306  21.904  26.052  1.00  0.00    -0.352 N 
ATOM     35  C   UNL A   1      39.279  22.790  26.278  1.00  0.00     0.251 C 
ATOM     36  H   UNL A   1      40.049  21.071  25.593  1.00  0.00     0.163 HD
ATOM     37  O   UNL A   1      38.119  22.453  26.058  1.00  0.00    -0.269 OA
BRANCH  35  38
ATOM     38  C   UNL A   1      39.572  24.141  26.808  1.00  0.00     0.039 A 
ATOM     39  C   UNL A   1      39.330  24.404  28.160  1.00  0.00     0.014 A 
ATOM     40  C   UNL A   1      40.083  25.143  25.980  1.00  0.00     0.014 A 
ATOM     41  C   UNL A   1      39.666  25.652  28.695  1.00  0.00     0.010 A 
ATOM     42  C   UNL A   1      40.478  26.360  26.528  1.00  0.00     0.010 A 
ATOM     43  C   UNL A   1      40.277  26.629  27.891  1.00  0.00    -0.014 A 
BRANCH  43  44
ATOM     44  C   UNL A   1      40.734  27.923  28.458  1.00  0.00     0.031 A 
ATOM     45  C   UNL A   1      42.203  28.211  28.612  1.00  0.00     0.074 A 
ATOM     46  C   UNL A   1      39.825  28.802  28.928  1.00  0.00     0.049 A 
ATOM     47  N   UNL A   1      42.788  29.249  29.151  1.00  0.00    -0.248 NA
ATOM     48  C   UNL A   1      43.138  27.187  28.117  1.00  0.00     0.031 C 
ATOM     49  C   UNL A   1      38.373  28.607  28.909  1.00  0.00     0.029 A 
ATOM     50  N   UNL A   1      39.987  30.020  29.540  1.00  0.00    -0.354 N 
ATOM     51  C   UNL A   1      44.152  28.991  29.095  1.00  0.00     0.074 A 
ATOM     52  C   UNL A   1      44.308  27.683  28.495  1.00  0.00     0.031 C 
ATOM     53  C   UNL A   1      37.779  29.666  29.481  1.00  0.00     0.029 A 
ATOM     54  C   UNL A   1      38.804  30.601  29.934  1.00  0.00     0.049 A 
ATOM     55  H   UNL A   1      40.867  30.438  29.683  1.00  0.00     0.167 HD
ATOM     56  C   UNL A   1      45.184  29.781  29.479  1.00  0.00     0.034 A 
ATOM     57  C   UNL A   1      38.570  31.754  30.593  1.00  0.00     0.034 A 
ATOM     58  C   UNL A   1      45.027  31.099  30.032  1.00  0.00     0.049 A 
ATOM     59  C   UNL A   1      39.733  32.629  30.975  1.00  0.00     0.074 A 
ATOM     60  C   UNL A   1      46.012  32.012  30.369  1.00  0.00     0.029 A 
ATOM     61  N   UNL A   1      43.812  31.693  30.334  1.00  0.00    -0.354 N 
ATOM     62  N   UNL A   1      41.013  32.437  30.766  1.00  0.00    -0.248 NA
ATOM     63  C   UNL A   1      39.418  33.897  31.650  1.00  0.00     0.031 C 
ATOM     64  C   UNL A   1      45.391  33.152  30.893  1.00  0.00     0.029 A 
ATOM     65  C   UNL A   1      44.020  32.956  30.862  1.00  0.00     0.049 A 
ATOM     66  H   UNL A   1      42.930  31.277  30.195  1.00  0.00     0.167 HD
ATOM     67  C   UNL A   1      41.652  33.572  31.251  1.00  0.00     0.074 A 
ATOM     68  C   UNL A   1      40.617  34.457  31.745  1.00  0.00     0.031 C 
ATOM     69  C   UNL A   1      42.979  33.851  31.297  1.00  0.00     0.034 A 
BRANCH  56  70
ATOM     70  C   UNL A   1      46.581  29.264  29.259  1.00  0.00     0.023 A 
ATOM     71  C   UNL A   1      47.301  28.729  30.347  1.00  0.00     0.012 A 
ATOM     72  C   UNL A   1      47.156  29.242  27.973  1.00  0.00     0.148 A 
ATOM     73  C   UNL A   1      48.583  28.214  30.168  1.00  0.00     0.002 A 
ATOM     74  C   UNL A   1      48.418  28.687  27.794  1.00  0.00     0.091 A 
ATOM     75  F   UNL A   1      46.465  29.771  26.954  1.00  0.00    -0.205 F 
ATOM     76  C   UNL A   1      49.137  28.183  28.891  1.00  0.00     0.022 A 
BRANCH  74  77
ATOM     77  S   UNL A   1      49.188  28.528  26.178  1.00  0.00     0.127 S 
ATOM     78  O   UNL A   1      48.022  28.366  25.312  1.00  0.00    -0.237 OA
ATOM     79  O   UNL A   1      49.878  29.810  26.037  1.00  0.00    -0.237 OA
ATOM     80  O   UNL A   1      50.068  27.371  26.265  1.00  0.00    -0.744 OA
ENDBRANCH  74  77
ENDBRANCH  56  70
BRANCH  57  81
ATOM     81  C   UNL A   1      37.169  32.180  30.871  1.00  0.00     0.023 A 
ATOM     82  C   UNL A   1      36.621  31.948  32.148  1.00  0.00     0.012 A 
ATOM     83  C   UNL A   1      36.390  32.835  29.898  1.00  0.00     0.148 A 
ATOM     84  C   UNL A   1      35.311  32.332  32.440  1.00  0.00     0.002 A 
ATOM     85  C   UNL A   1      35.106  33.264  30.213  1.00  0.00     0.091 A 
ATOM     86  F   UNL A   1      36.925  33.035  28.685  1.00  0.00    -0.205 F 
ATOM     87  C   UNL A   1      34.558  32.998  31.478  1.00  0.00     0.022 A 
BRANCH  85  88
ATOM     88  S   UNL A   1      34.115  34.245  29.081  1.00  0.00     0.127 S 
ATOM     89  O   UNL A   1      35.107  35.166  28.533  1.00  0.00    -0.237 OA
ATOM     90  O   UNL A   1      33.632  33.229  28.144  1.00  0.00    -0.237 OA
ATOM     91  O   UNL A   1      33.070  34.849  29.897  1.00  0.00    -0.744 OA
ENDBRANCH  85  88
ENDBRANCH  57  81
BRANCH  69  92
ATOM     92  C   UNL A   1      43.396  35.179  31.872  1.00  0.00     0.023 A 
ATOM     93  C   UNL A   1      43.594  36.281  31.016  1.00  0.00     0.012 A 
ATOM     94  C   UNL A   1      43.514  35.354  33.265  1.00  0.00     0.148 A 
ATOM     95  C   UNL A   1      43.930  37.529  31.537  1.00  0.00     0.002 A 
ATOM     96  C   UNL A   1      43.803  36.612  33.779  1.00  0.00     0.091 A 
ATOM     97  F   UNL A   1      43.342  34.289  34.061  1.00  0.00    -0.205 F 
ATOM     98  C   UNL A   1      44.023  37.699  32.917  1.00  0.00     0.022 A 
BRANCH  96  99
ATOM     99  S   UNL A   1      43.849  36.944  35.545  1.00  0.00     0.127 S 
ATOM    100  O   UNL A   1      44.576  35.779  36.047  1.00  0.00    -0.237 OA
ATOM    101  O   UNL A   1      44.594  38.201  35.605  1.00  0.00    -0.237 OA
ATOM    102  O   UNL A   1      42.458  37.045  35.969  1.00  0.00    -0.744 OA
ENDBRANCH  96  99
ENDBRANCH  69  92
ENDBRANCH  43  44
ENDBRANCH  35  38
ENDBRANCH  33  34
ENDBRANCH  32  33
ENDBRANCH  31  32
ENDBRANCH   1  31
TORSDOF 20
ENDMDL
MODEL 2
REMARK VINA RESULT:      -8.9      3.117      8.239
REMARK SMILES O=C(/C=C/c1ccc(S(=O)(=O)Nc2ccc3c(c2)OCCO3)cc1)NCCCCCCNC(=O)c1ccc(-c2c3nc(c(-c4cccc(S(=O)(=O)[O-])c4F)c4ccc([nH]4)c(-c4cccc(S(=O)(=O)[O-])c4F)c4nc(c(-c5cccc(S(=O)(=O)[O-])c5F)c5ccc2[nH]5)C=C4)C=C3)cc1
REMARK SMILES IDX 28 1 27 2 26 3 25 4 1 5 2 6 3 8 4 9 5 10 6 11 24 12 7 13
REMARK SMILES IDX 23 14 8 15 9 16 10 17 11 18 12 19 13 21 14 22 18 23 15 24
REMARK SMILES IDX 17 25 16 26 19 27 22 28 20 29 21 30 29 31 30 32 31 33 32 34
REMARK SMILES IDX 33 35 34 37 35 38 36 39 97 40 37 41 96 42 38 43 39 44 40 45
REMARK SMILES IDX 90 46 41 47 95 48 89 49 91 50 42 51 94 52 88 53 87 54 43 56
REMARK SMILES IDX 75 57 55 58 74 59 56 60 59 61 73 62 92 63 57 64 58 65 72 67
REMARK SMILES IDX 93 68 60 69 44 70 45 71 53 72 46 73 48 74 54 75 47 76 49 77
REMARK SMILES IDX 50 78 51 79 52 80 76 81 77 82 85 83 78 84 80 85 86 86 79 87
REMARK SMILES IDX 81 88 82 89 83 90 84 91 61 92 62 93 70 94 63 95 65 96 71 97
REMARK SMILES IDX 64 98 66 99 67 100 68 101 69 102
REMARK H PARENT 25 7 12 20 32 36 91 55 59 66
REMARK Flexibility Score: inf
ROOT
ATOM      1  C   UNL A   1      44.407  21.032  25.484  1.00  0.00     0.002 C 
ENDROOT
BRANCH   1   2
ATOM      2  C   UNL A   1      43.393  21.885  26.257  1.00  0.00     0.021 C 
BRANCH   2   3
ATOM      3  C   UNL A   1      42.299  22.509  25.390  1.00  0.00     0.116 C 
BRANCH   3   4
ATOM      4  N   UNL A   1      41.511  23.479  26.132  1.00  0.00    -0.353 N 
ATOM      5  O   UNL A   1      42.524  25.338  25.240  1.00  0.00    -0.270 OA
ATOM      6  C   UNL A   1      41.724  24.825  26.015  1.00  0.00     0.243 C 
ATOM      7  H   UNL A   1      40.804  23.158  26.737  1.00  0.00     0.163 HD
BRANCH   6   8
ATOM      8  C   UNL A   1      40.867  25.710  26.848  1.00  0.00     0.072 C 
ATOM      9  C   UNL A   1      41.177  26.945  27.282  1.00  0.00     0.014 C 
BRANCH   9  10
ATOM     10  C   UNL A   1      40.276  27.826  28.061  1.00  0.00    -0.025 A 
ATOM     11  C   UNL A   1      40.187  27.646  29.450  1.00  0.00     0.009 A 
ATOM     12  C   UNL A   1      39.508  28.853  27.488  1.00  0.00     0.009 A 
ATOM     13  C   UNL A   1      39.302  28.414  30.226  1.00  0.00     0.023 A 
ATOM     14  C   UNL A   1      38.663  29.658  28.267  1.00  0.00     0.023 A 
ATOM     15  C   UNL A   1      38.517  29.405  29.628  1.00  0.00     0.087 A 
BRANCH  15  16
ATOM     16  S   UNL A   1      37.344  30.295  30.640  1.00  0.00     0.261 S 
ATOM     17  O   UNL A   1      37.004  31.512  29.914  1.00  0.00    -0.201 OA
ATOM     18  O   UNL A   1      36.311  29.371  31.030  1.00  0.00    -0.201 OA
BRANCH  16  19
ATOM     19  N   UNL A   1      38.104  30.855  32.089  1.00  0.00    -0.279 N 
ATOM     20  H   UNL A   1      38.924  30.436  32.436  1.00  0.00     0.180 HD
BRANCH  19  21
ATOM     21  C   UNL A   1      37.480  31.958  32.760  1.00  0.00     0.053 A 
ATOM     22  C   UNL A   1      38.272  33.086  33.004  1.00  0.00     0.031 A 
ATOM     23  C   UNL A   1      36.113  31.976  33.016  1.00  0.00     0.077 A 
ATOM     24  C   UNL A   1      37.663  34.306  33.283  1.00  0.00     0.052 A 
ATOM     25  C   UNL A   1      35.501  33.204  33.221  1.00  0.00     0.163 A 
ATOM     26  C   UNL A   1      36.274  34.370  33.288  1.00  0.00     0.161 A 
ATOM     27  O   UNL A   1      34.132  33.204  33.195  1.00  0.00    -0.486 OA
ATOM     28  O   UNL A   1      35.700  35.615  33.228  1.00  0.00    -0.486 OA
ATOM     29  C   UNL A   1      33.564  34.514  33.052  1.00  0.00     0.271 C 
ATOM     30  C   UNL A   1      34.525  35.504  32.410  1.00  0.00     0.271 C 
ENDBRANCH  19  21
ENDBRANCH  16  19
ENDBRANCH  15  16
ENDBRANCH   9  10
ENDBRANCH   6   8
ENDBRANCH   3   4
ENDBRANCH   2   3
ENDBRANCH   1   2
BRANCH   1  31
ATOM     31  C   UNL A   1      45.815  21.626  25.368  1.00  0.00     0.002 C 
BRANCH  31  32
ATOM     32  C   UNL A   1      45.916  22.926  24.566  1.00  0.00     0.021 C 
BRANCH  32  33
ATOM     33  C   UNL A   1      46.462  24.125  25.339  1.00  0.00     0.116 C 
BRANCH  33  34
ATOM     34  N   UNL A   1      47.196  25.050  24.488  1.00  0.00    -0.352 N 
ATOM     35  C   UNL A   1      47.244  26.423  24.533  1.00  0.00     0.251 C 
ATOM     36  H   UNL A   1      47.735  24.633  23.777  1.00  0.00     0.163 HD
ATOM     37  O   UNL A   1      47.796  27.047  23.630  1.00  0.00    -0.269 OA
BRANCH  35  38
ATOM     38  C   UNL A   1      46.611  27.149  25.657  1.00  0.00     0.039 A 
ATOM     39  C   UNL A   1      45.217  27.245  25.700  1.00  0.00     0.014 A 
ATOM     40  C   UNL A   1      47.385  27.730  26.664  1.00  0.00     0.014 A 
ATOM     41  C   UNL A   1      44.598  27.865  26.790  1.00  0.00     0.010 A 
ATOM     42  C   UNL A   1      46.766  28.288  27.780  1.00  0.00     0.010 A 
ATOM     43  C   UNL A   1      45.366  28.360  27.857  1.00  0.00    -0.014 A 
BRANCH  43  44
ATOM     44  C   UNL A   1      44.728  28.932  29.071  1.00  0.00     0.031 A 
ATOM     45  C   UNL A   1      44.315  30.378  29.105  1.00  0.00     0.074 A 
ATOM     46  C   UNL A   1      44.609  28.173  30.179  1.00  0.00     0.049 A 
ATOM     47  N   UNL A   1      43.813  31.069  30.095  1.00  0.00    -0.248 NA
ATOM     48  C   UNL A   1      44.515  31.158  27.872  1.00  0.00     0.031 C 
ATOM     49  C   UNL A   1      45.043  26.779  30.300  1.00  0.00     0.029 A 
ATOM     50  N   UNL A   1      44.118  28.475  31.425  1.00  0.00    -0.354 N 
ATOM     51  C   UNL A   1      43.671  32.368  29.622  1.00  0.00     0.074 A 
ATOM     52  C   UNL A   1      44.167  32.376  28.262  1.00  0.00     0.031 C 
ATOM     53  C   UNL A   1      44.797  26.348  31.547  1.00  0.00     0.029 A 
ATOM     54  C   UNL A   1      44.219  27.439  32.325  1.00  0.00     0.049 A 
ATOM     55  H   UNL A   1      43.730  29.351  31.653  1.00  0.00     0.167 HD
ATOM     56  C   UNL A   1      43.148  33.449  30.249  1.00  0.00     0.034 A 
ATOM     57  C   UNL A   1      43.889  27.375  33.631  1.00  0.00     0.034 A 
ATOM     58  C   UNL A   1      42.612  33.427  31.584  1.00  0.00     0.049 A 
ATOM     59  C   UNL A   1      43.275  28.580  34.291  1.00  0.00     0.074 A 
ATOM     60  C   UNL A   1      41.980  34.447  32.273  1.00  0.00     0.029 A 
ATOM     61  N   UNL A   1      42.650  32.333  32.435  1.00  0.00    -0.354 N 
ATOM     62  N   UNL A   1      43.001  29.754  33.774  1.00  0.00    -0.248 NA
ATOM     63  C   UNL A   1      42.892  28.441  35.703  1.00  0.00     0.031 C 
ATOM     64  C   UNL A   1      41.651  33.975  33.548  1.00  0.00     0.029 A 
ATOM     65  C   UNL A   1      42.059  32.655  33.645  1.00  0.00     0.049 A 
ATOM     66  H   UNL A   1      43.039  31.457  32.211  1.00  0.00     0.167 HD
ATOM     67  C   UNL A   1      42.383  30.479  34.786  1.00  0.00     0.074 A 
ATOM     68  C   UNL A   1      42.303  29.606  35.939  1.00  0.00     0.031 C 
ATOM     69  C   UNL A   1      41.935  31.759  34.766  1.00  0.00     0.034 A 
BRANCH  56  70
ATOM     70  C   UNL A   1      43.073  34.739  29.475  1.00  0.00     0.023 A 
ATOM     71  C   UNL A   1      41.862  35.102  28.850  1.00  0.00     0.012 A 
ATOM     72  C   UNL A   1      44.170  35.621  29.420  1.00  0.00     0.148 A 
ATOM     73  C   UNL A   1      41.753  36.304  28.154  1.00  0.00     0.002 A 
ATOM     74  C   UNL A   1      44.041  36.838  28.760  1.00  0.00     0.091 A 
ATOM     75  F   UNL A   1      45.318  35.252  30.003  1.00  0.00    -0.205 F 
ATOM     76  C   UNL A   1      42.837  37.177  28.118  1.00  0.00     0.022 A 
BRANCH  74  77
ATOM     77  S   UNL A   1      45.352  38.065  28.723  1.00  0.00     0.127 S 
ATOM     78  O   UNL A   1      45.633  38.240  30.146  1.00  0.00    -0.237 OA
ATOM     79  O   UNL A   1      46.402  37.373  27.975  1.00  0.00    -0.237 OA
ATOM     80  O   UNL A   1      44.793  39.229  28.048  1.00  0.00    -0.744 OA
ENDBRANCH  74  77
ENDBRANCH  56  70
BRANCH  57  81
ATOM     81  C   UNL A   1      44.068  26.100  34.381  1.00  0.00     0.023 A 
ATOM     82  C   UNL A   1      42.998  25.185  34.446  1.00  0.00     0.012 A 
ATOM     83  C   UNL A   1      45.288  25.774  35.003  1.00  0.00     0.148 A 
ATOM     84  C   UNL A   1      43.131  23.984  35.143  1.00  0.00     0.002 A 
ATOM     85  C   UNL A   1      45.432  24.551  35.648  1.00  0.00     0.091 A 
ATOM     86  F   UNL A   1      46.289  26.664  34.940  1.00  0.00    -0.205 F 
ATOM     87  C   UNL A   1      44.349  23.662  35.735  1.00  0.00     0.022 A 
BRANCH  85  88
ATOM     88  S   UNL A   1      47.002  23.998  36.322  1.00  0.00     0.127 S 
ATOM     89  O   UNL A   1      46.748  22.578  36.548  1.00  0.00    -0.237 OA
ATOM     90  O   UNL A   1      47.924  24.293  35.224  1.00  0.00    -0.237 OA
ATOM     91  O   UNL A   1      47.221  24.803  37.517  1.00  0.00    -0.744 OA
ENDBRANCH  85  88
ENDBRANCH  57  81
BRANCH  69  92
ATOM     92  C   UNL A   1      41.286  32.294  36.016  1.00  0.00     0.023 A 
ATOM     93  C   UNL A   1      42.013  33.143  36.874  1.00  0.00     0.012 A 
ATOM     94  C   UNL A   1      39.933  32.020  36.296  1.00  0.00     0.148 A 
ATOM     95  C   UNL A   1      41.411  33.687  38.007  1.00  0.00     0.002 A 
ATOM     96  C   UNL A   1      39.326  32.604  37.402  1.00  0.00     0.091 A 
ATOM     97  F   UNL A   1      39.263  31.194  35.479  1.00  0.00    -0.205 F 
ATOM     98  C   UNL A   1      40.066  33.429  38.265  1.00  0.00     0.022 A 
BRANCH  96  99
ATOM     99  S   UNL A   1      37.576  32.404  37.759  1.00  0.00     0.127 S 
ATOM    100  O   UNL A   1      37.415  33.250  38.940  1.00  0.00    -0.237 OA
ATOM    101  O   UNL A   1      36.950  32.926  36.544  1.00  0.00    -0.237 OA
ATOM    102  O   UNL A   1      37.373  30.978  37.977  1.00  0.00    -0.744 OA
ENDBRANCH  96  99
ENDBRANCH  69  92
ENDBRANCH  43  44
ENDBRANCH  35  38
ENDBRANCH  33  34
ENDBRANCH  32  33
ENDBRANCH  31  32
ENDBRANCH   1  31
TORSDOF 20
ENDMDL
MODEL 3
REMARK VINA RESULT:      -8.8      4.335      8.439
REMARK SMILES O=C(/C=C/c1ccc(S(=O)(=O)Nc2ccc3c(c2)OCCO3)cc1)NCCCCCCNC(=O)c1ccc(-c2c3nc(c(-c4cccc(S(=O)(=O)[O-])c4F)c4ccc([nH]4)c(-c4cccc(S(=O)(=O)[O-])c4F)c4nc(c(-c5cccc(S(=O)(=O)[O-])c5F)c5ccc2[nH]5)C=C4)C=C3)cc1
REMARK SMILES IDX 28 1 27 2 26 3 25 4 1 5 2 6 3 8 4 9 5 10 6 11 24 12 7 13
REMARK SMILES IDX 23 14 8 15 9 16 10 17 11 18 12 19 13 21 14 22 18 23 15 24
REMARK SMILES IDX 17 25 16 26 19 27 22 28 20 29 21 30 29 31 30 32 31 33 32 34
REMARK SMILES IDX 33 35 34 37 35 38 36 39 97 40 37 41 96 42 38 43 39 44 40 45
REMARK SMILES IDX 90 46 41 47 95 48 89 49 91 50 42 51 94 52 88 53 87 54 43 56
REMARK SMILES IDX 75 57 55 58 74 59 56 60 59 61 73 62 92 63 57 64 58 65 72 67
REMARK SMILES IDX 93 68 60 69 44 70 45 71 53 72 46 73 48 74 54 75 47 76 49 77
REMARK SMILES IDX 50 78 51 79 52 80 76 81 77 82 85 83 78 84 80 85 86 86 79 87
REMARK SMILES IDX 81 88 82 89 83 90 84 91 61 92 62 93 70 94 63 95 65 96 71 97
REMARK SMILES IDX 64 98 66 99 67 100 68 101 69 102
REMARK H PARENT 25 7 12 20 32 36 91 55 59 66
REMARK Flexibility Score: inf
ROOT
ATOM      1  C   UNL A   1      42.082  23.157  28.562  1.00  0.00     0.002 C 
ENDROOT
BRANCH   1   2
ATOM      2  C   UNL A   1      43.072  22.824  27.439  1.00  0.00     0.021 C 
BRANCH   2   3
ATOM      3  C   UNL A   1      42.551  21.817  26.413  1.00  0.00     0.116 C 
BRANCH   3   4
ATOM      4  N   UNL A   1      41.174  22.094  26.037  1.00  0.00    -0.353 N 
ATOM      5  O   UNL A   1      40.283  20.208  26.999  1.00  0.00    -0.270 OA
ATOM      6  C   UNL A   1      40.156  21.232  26.337  1.00  0.00     0.243 C 
ATOM      7  H   UNL A   1      40.970  22.926  25.552  1.00  0.00     0.163 HD
BRANCH   6   8
ATOM      8  C   UNL A   1      38.797  21.620  25.874  1.00  0.00     0.072 C 
ATOM      9  C   UNL A   1      38.420  22.829  25.424  1.00  0.00     0.014 C 
BRANCH   9  10
ATOM     10  C   UNL A   1      37.071  23.168  24.912  1.00  0.00    -0.025 A 
ATOM     11  C   UNL A   1      36.184  23.863  25.748  1.00  0.00     0.009 A 
ATOM     12  C   UNL A   1      36.627  22.843  23.621  1.00  0.00     0.009 A 
ATOM     13  C   UNL A   1      34.873  24.153  25.335  1.00  0.00     0.023 A 
ATOM     14  C   UNL A   1      35.337  23.179  23.184  1.00  0.00     0.023 A 
ATOM     15  C   UNL A   1      34.439  23.785  24.057  1.00  0.00     0.087 A 
BRANCH  15  16
ATOM     16  S   UNL A   1      32.738  24.098  23.608  1.00  0.00     0.261 S 
ATOM     17  O   UNL A   1      32.193  24.985  24.627  1.00  0.00    -0.201 OA
ATOM     18  O   UNL A   1      32.715  24.485  22.222  1.00  0.00    -0.201 OA
BRANCH  16  19
ATOM     19  N   UNL A   1      31.803  22.650  23.750  1.00  0.00    -0.279 N 
ATOM     20  H   UNL A   1      30.852  22.624  23.500  1.00  0.00     0.180 HD
BRANCH  19  21
ATOM     21  C   UNL A   1      32.482  21.490  24.250  1.00  0.00     0.053 A 
ATOM     22  C   UNL A   1      32.614  21.378  25.640  1.00  0.00     0.031 A 
ATOM     23  C   UNL A   1      32.854  20.446  23.411  1.00  0.00     0.077 A 
ATOM     24  C   UNL A   1      32.896  20.138  26.205  1.00  0.00     0.052 A 
ATOM     25  C   UNL A   1      33.063  19.195  23.974  1.00  0.00     0.163 A 
ATOM     26  C   UNL A   1      33.019  19.037  25.365  1.00  0.00     0.161 A 
ATOM     27  O   UNL A   1      33.156  18.149  23.095  1.00  0.00    -0.486 OA
ATOM     28  O   UNL A   1      32.960  17.793  25.943  1.00  0.00    -0.486 OA
ATOM     29  C   UNL A   1      33.012  16.865  23.720  1.00  0.00     0.271 C 
ATOM     30  C   UNL A   1      32.252  16.934  25.037  1.00  0.00     0.271 C 
ENDBRANCH  19  21
ENDBRANCH  16  19
ENDBRANCH  15  16
ENDBRANCH   9  10
ENDBRANCH   6   8
ENDBRANCH   3   4
ENDBRANCH   2   3
ENDBRANCH   1   2
BRANCH   1  31
ATOM     31  C   UNL A   1      41.646  24.624  28.642  1.00  0.00     0.002 C 
BRANCH  31  32
ATOM     32  C   UNL A   1      40.307  24.949  27.974  1.00  0.00     0.021 C 
BRANCH  32  33
ATOM     33  C   UNL A   1      40.397  25.836  26.735  1.00  0.00     0.116 C 
BRANCH  33  34
ATOM     34  N   UNL A   1      41.537  25.505  25.892  1.00  0.00    -0.352 N 
ATOM     35  C   UNL A   1      42.681  26.228  25.651  1.00  0.00     0.251 C 
ATOM     36  H   UNL A   1      41.480  24.639  25.427  1.00  0.00     0.163 HD
ATOM     37  O   UNL A   1      43.467  25.859  24.783  1.00  0.00    -0.269 OA
BRANCH  35  38
ATOM     38  C   UNL A   1      42.952  27.463  26.422  1.00  0.00     0.039 A 
ATOM     39  C   UNL A   1      42.440  28.678  25.955  1.00  0.00     0.014 A 
ATOM     40  C   UNL A   1      43.703  27.425  27.599  1.00  0.00     0.014 A 
ATOM     41  C   UNL A   1      42.626  29.843  26.706  1.00  0.00     0.010 A 
ATOM     42  C   UNL A   1      43.829  28.573  28.378  1.00  0.00     0.010 A 
ATOM     43  C   UNL A   1      43.291  29.793  27.942  1.00  0.00    -0.014 A 
BRANCH  43  44
ATOM     44  C   UNL A   1      43.412  30.997  28.804  1.00  0.00     0.031 A 
ATOM     45  C   UNL A   1      44.667  31.828  28.782  1.00  0.00     0.074 A 
ATOM     46  C   UNL A   1      42.430  31.287  29.683  1.00  0.00     0.049 A 
ATOM     47  N   UNL A   1      44.982  32.865  29.513  1.00  0.00    -0.248 NA
ATOM     48  C   UNL A   1      45.715  31.426  27.830  1.00  0.00     0.031 C 
ATOM     49  C   UNL A   1      41.197  30.515  29.858  1.00  0.00     0.029 A 
ATOM     50  N   UNL A   1      42.327  32.290  30.614  1.00  0.00    -0.354 N 
ATOM     51  C   UNL A   1      46.273  33.217  29.139  1.00  0.00     0.074 A 
ATOM     52  C   UNL A   1      46.695  32.265  28.134  1.00  0.00     0.031 C 
ATOM     53  C   UNL A   1      40.464  31.073  30.833  1.00  0.00     0.029 A 
ATOM     54  C   UNL A   1      41.183  32.222  31.375  1.00  0.00     0.049 A 
ATOM     55  H   UNL A   1      43.008  32.992  30.727  1.00  0.00     0.167 HD
ATOM     56  C   UNL A   1      47.029  34.257  29.569  1.00  0.00     0.034 A 
ATOM     57  C   UNL A   1      40.762  32.992  32.399  1.00  0.00     0.034 A 
ATOM     58  C   UNL A   1      46.590  35.229  30.533  1.00  0.00     0.049 A 
ATOM     59  C   UNL A   1      41.606  34.162  32.830  1.00  0.00     0.074 A 
ATOM     60  C   UNL A   1      47.247  36.367  30.966  1.00  0.00     0.029 A 
ATOM     61  N   UNL A   1      45.385  35.178  31.218  1.00  0.00    -0.354 N 
ATOM     62  N   UNL A   1      42.754  34.572  32.350  1.00  0.00    -0.248 NA
ATOM     63  C   UNL A   1      41.078  34.995  33.920  1.00  0.00     0.031 C 
ATOM     64  C   UNL A   1      46.447  36.995  31.928  1.00  0.00     0.029 A 
ATOM     65  C   UNL A   1      45.284  36.260  32.077  1.00  0.00     0.049 A 
ATOM     66  H   UNL A   1      44.704  34.476  31.110  1.00  0.00     0.167 HD
ATOM     67  C   UNL A   1      43.068  35.729  33.052  1.00  0.00     0.074 A 
ATOM     68  C   UNL A   1      41.979  35.966  33.977  1.00  0.00     0.031 C 
ATOM     69  C   UNL A   1      44.168  36.516  32.951  1.00  0.00     0.034 A 
BRANCH  56  70
ATOM     70  C   UNL A   1      48.392  34.432  28.953  1.00  0.00     0.023 A 
ATOM     71  C   UNL A   1      49.521  33.895  29.605  1.00  0.00     0.012 A 
ATOM     72  C   UNL A   1      48.552  35.064  27.704  1.00  0.00     0.148 A 
ATOM     73  C   UNL A   1      50.791  34.013  29.044  1.00  0.00     0.002 A 
ATOM     74  C   UNL A   1      49.815  35.141  27.129  1.00  0.00     0.091 A 
ATOM     75  F   UNL A   1      47.471  35.586  27.108  1.00  0.00    -0.205 F 
ATOM     76  C   UNL A   1      50.937  34.626  27.802  1.00  0.00     0.022 A 
BRANCH  74  77
ATOM     77  S   UNL A   1      50.099  35.841  25.499  1.00  0.00     0.127 S 
ATOM     78  O   UNL A   1      51.531  35.612  25.325  1.00  0.00    -0.237 OA
ATOM     79  O   UNL A   1      49.241  35.011  24.653  1.00  0.00    -0.237 OA
ATOM     80  O   UNL A   1      49.695  37.237  25.586  1.00  0.00    -0.744 OA
ENDBRANCH  74  77
ENDBRANCH  56  70
BRANCH  57  81
ATOM     81  C   UNL A   1      39.444  32.722  33.040  1.00  0.00     0.023 A 
ATOM     82  C   UNL A   1      39.388  31.878  34.167  1.00  0.00     0.012 A 
ATOM     83  C   UNL A   1      38.258  33.311  32.564  1.00  0.00     0.148 A 
ATOM     84  C   UNL A   1      38.170  31.602  34.788  1.00  0.00     0.002 A 
ATOM     85  C   UNL A   1      37.056  33.077  33.222  1.00  0.00     0.091 A 
ATOM     86  F   UNL A   1      38.330  34.101  31.483  1.00  0.00    -0.205 F 
ATOM     87  C   UNL A   1      37.007  32.208  34.324  1.00  0.00     0.022 A 
BRANCH  85  88
ATOM     88  S   UNL A   1      35.534  33.918  32.774  1.00  0.00     0.127 S 
ATOM     89  O   UNL A   1      34.632  33.497  33.843  1.00  0.00    -0.237 OA
ATOM     90  O   UNL A   1      35.938  35.324  32.826  1.00  0.00    -0.237 OA
ATOM     91  O   UNL A   1      35.201  33.442  31.438  1.00  0.00    -0.744 OA
ENDBRANCH  85  88
ENDBRANCH  57  81
BRANCH  69  92
ATOM     92  C   UNL A   1      44.244  37.731  33.838  1.00  0.00     0.023 A 
ATOM     93  C   UNL A   1      44.954  37.668  35.054  1.00  0.00     0.012 A 
ATOM     94  C   UNL A   1      43.681  38.956  33.429  1.00  0.00     0.148 A 
ATOM     95  C   UNL A   1      45.077  38.797  35.862  1.00  0.00     0.002 A 
ATOM     96  C   UNL A   1      43.849  40.089  34.216  1.00  0.00     0.091 A 
ATOM     97  F   UNL A   1      42.993  38.993  32.278  1.00  0.00    -0.205 F 
ATOM     98  C   UNL A   1      44.536  40.009  35.438  1.00  0.00     0.022 A 
BRANCH  96  99
ATOM     99  S   UNL A   1      43.269  41.712  33.705  1.00  0.00     0.127 S 
ATOM    100  O   UNL A   1      43.772  42.561  34.785  1.00  0.00    -0.237 OA
ATOM    101  O   UNL A   1      43.946  41.893  32.421  1.00  0.00    -0.237 OA
ATOM    102  O   UNL A   1      41.819  41.608  33.614  1.00  0.00    -0.744 OA
ENDBRANCH  96  99
ENDBRANCH  69  92
ENDBRANCH  43  44
ENDBRANCH  35  38
ENDBRANCH  33  34
ENDBRANCH  32  33
ENDBRANCH  31  32
ENDBRANCH   1  31
TORSDOF 20
ENDMDL
