MODEL 1
REMARK VINA RESULT:     -12.0      0.000      0.000
REMARK SMILES C[N@@H+]1CC[N@H+](Cc2ccc(C#CC(C)(C)O)s2)C[C@H]1C(=O)NCCCCCCNC(=O)c1ccc(-c2c3nc(c(-c4cccc(S(=O)(=O)[O-])c4F)c4ccc([nH]4)c(-c4cccc(S(=O)(=O)[O-])c4F)c4nc(c(-c5cccc(S(=O)(=O)[O-])c5F)c5ccc2[nH]5)C=C4)C=C3)cc1
REMARK SMILES IDX 24 1 23 2 22 3 20 4 21 5 19 7 1 8 2 9 3 10 4 12 18 13 5 14
REMARK SMILES IDX 6 16 7 17 8 18 17 19 9 20 10 21 11 22 12 23 13 24 14 25
REMARK SMILES IDX 15 26 16 27 25 29 26 30 27 31 28 32 29 33 30 34 31 36 32 37
REMARK SMILES IDX 33 38 94 39 34 40 93 41 35 42 36 43 37 44 87 45 38 46 92 47
REMARK SMILES IDX 86 48 88 49 39 50 91 51 85 52 84 53 40 55 72 56 52 57 71 58
REMARK SMILES IDX 53 59 56 60 70 61 89 62 54 63 55 64 69 66 90 67 57 68 41 69
REMARK SMILES IDX 42 70 50 71 43 72 45 73 51 74 44 75 46 76 47 77 48 78 49 79
REMARK SMILES IDX 73 80 74 81 82 82 75 83 77 84 83 85 76 86 78 87 79 88 80 89
REMARK SMILES IDX 81 90 58 91 59 92 67 93 60 94 62 95 68 96 61 97 63 98 64 99
REMARK SMILES IDX 65 100 66 101
REMARK H PARENT 22 6 2 11 5 15 16 28 29 35 88 54 56 65
REMARK Flexibility Score: inf
ROOT
ATOM      1  C   UNL A   1      32.069  27.285  27.018  1.00  0.00     0.021 C 
ENDROOT
BRANCH   1   2
ATOM      2  C   UNL A   1      31.104  26.540  26.104  1.00  0.00     0.116 C 
BRANCH   2   3
ATOM      3  N   UNL A   1      30.586  25.342  26.738  1.00  0.00    -0.351 N 
ATOM      4  C   UNL A   1      31.021  24.056  26.599  1.00  0.00     0.284 C 
ATOM      5  O   UNL A   1      30.419  23.171  27.213  1.00  0.00    -0.268 OA
ATOM      6  H   UNL A   1      29.823  25.474  27.346  1.00  0.00     0.163 HD
BRANCH   4   7
ATOM      7  C   UNL A   1      32.279  23.748  25.769  1.00  0.00     0.329 C 
ATOM      8  C   UNL A   1      33.507  22.589  27.533  1.00  0.00     0.333 C 
ATOM      9  N   UNL A   1      32.910  22.473  26.198  1.00  0.00    -0.318 N 
ATOM     10  C   UNL A   1      33.913  22.004  25.232  1.00  0.00     0.325 C 
ATOM     11  H   UNL A   1      32.163  21.780  26.238  1.00  0.00     0.348 HD
ATOM     12  C   UNL A   1      33.489  22.090  23.743  1.00  0.00     0.324 C 
ATOM     13  C   UNL A   1      31.867  23.813  24.268  1.00  0.00     0.339 C 
ATOM     14  N   UNL A   1      32.849  23.332  23.284  1.00  0.00    -0.320 N 
ATOM     15  H   UNL A   1      32.330  23.083  22.442  1.00  0.00     0.348 HD
BRANCH  14  16
ATOM     16  C   UNL A   1      33.748  24.361  22.746  1.00  0.00     0.310 C 
BRANCH  16  17
ATOM     17  C   UNL A   1      33.149  25.727  22.652  1.00  0.00     0.060 A 
ATOM     18  C   UNL A   1      33.560  26.897  23.260  1.00  0.00     0.022 A 
ATOM     19  S   UNL A   1      31.745  25.996  21.703  1.00  0.00    -0.126 S 
ATOM     20  C   UNL A   1      32.527  27.879  23.249  1.00  0.00     0.029 A 
ATOM     21  C   UNL A   1      31.436  27.460  22.522  1.00  0.00     0.077 A 
BRANCH  21  22
ATOM     22  C   UNL A   1      30.236  28.190  22.351  1.00  0.00    -0.053 C 
ATOM     23  C   UNL A   1      29.289  29.086  22.392  1.00  0.00    -0.063 C 
BRANCH  23  24
ATOM     24  C   UNL A   1      28.185  30.129  22.440  1.00  0.00     0.120 C 
ATOM     25  C   UNL A   1      28.473  31.131  23.556  1.00  0.00     0.056 C 
ATOM     26  C   UNL A   1      28.075  30.826  21.086  1.00  0.00     0.056 C 
BRANCH  24  27
ATOM     27  O   UNL A   1      26.957  29.468  22.732  1.00  0.00    -0.378 OA
ATOM     28  H   UNL A   1      26.508  29.238  21.904  1.00  0.00     0.212 HD
ENDBRANCH  24  27
ENDBRANCH  23  24
ENDBRANCH  21  22
ENDBRANCH  16  17
ENDBRANCH  14  16
ENDBRANCH   4   7
ENDBRANCH   2   3
ENDBRANCH   1   2
BRANCH   1  29
ATOM     29  C   UNL A   1      31.461  28.534  27.661  1.00  0.00     0.002 C 
BRANCH  29  30
ATOM     30  C   UNL A   1      31.884  29.867  27.027  1.00  0.00     0.002 C 
BRANCH  30  31
ATOM     31  C   UNL A   1      33.190  29.841  26.219  1.00  0.00     0.021 C 
BRANCH  31  32
ATOM     32  C   UNL A   1      34.418  30.160  27.054  1.00  0.00     0.116 C 
BRANCH  32  33
ATOM     33  N   UNL A   1      34.230  31.370  27.848  1.00  0.00    -0.352 N 
ATOM     34  C   UNL A   1      34.885  31.733  29.001  1.00  0.00     0.251 C 
ATOM     35  H   UNL A   1      33.551  32.003  27.520  1.00  0.00     0.163 HD
ATOM     36  O   UNL A   1      34.405  32.581  29.755  1.00  0.00    -0.269 OA
BRANCH  34  37
ATOM     37  C   UNL A   1      36.173  31.099  29.316  1.00  0.00     0.039 A 
ATOM     38  C   UNL A   1      36.272  29.714  29.475  1.00  0.00     0.014 A 
ATOM     39  C   UNL A   1      37.298  31.916  29.438  1.00  0.00     0.014 A 
ATOM     40  C   UNL A   1      37.525  29.151  29.691  1.00  0.00     0.010 A 
ATOM     41  C   UNL A   1      38.545  31.352  29.513  1.00  0.00     0.010 A 
ATOM     42  C   UNL A   1      38.660  29.976  29.693  1.00  0.00    -0.014 A 
BRANCH  42  43
ATOM     43  C   UNL A   1      40.000  29.399  29.717  1.00  0.00     0.031 A 
ATOM     44  C   UNL A   1      40.543  29.244  31.094  1.00  0.00     0.074 A 
ATOM     45  C   UNL A   1      40.564  28.846  28.620  1.00  0.00     0.049 A 
ATOM     46  N   UNL A   1      41.518  29.896  31.637  1.00  0.00    -0.248 NA
ATOM     47  C   UNL A   1      39.793  28.407  32.048  1.00  0.00     0.031 C 
ATOM     48  C   UNL A   1      39.943  28.673  27.298  1.00  0.00     0.029 A 
ATOM     49  N   UNL A   1      41.743  28.175  28.482  1.00  0.00    -0.354 N 
ATOM     50  C   UNL A   1      41.679  29.332  32.905  1.00  0.00     0.074 A 
ATOM     51  C   UNL A   1      40.455  28.637  33.185  1.00  0.00     0.031 C 
ATOM     52  C   UNL A   1      40.613  27.730  26.601  1.00  0.00     0.029 A 
ATOM     53  C   UNL A   1      41.802  27.366  27.347  1.00  0.00     0.049 A 
ATOM     54  H   UNL A   1      42.484  28.254  29.125  1.00  0.00     0.167 HD
ATOM     55  C   UNL A   1      42.924  29.200  33.446  1.00  0.00     0.034 A 
ATOM     56  C   UNL A   1      42.741  26.433  27.054  1.00  0.00     0.034 A 
ATOM     57  C   UNL A   1      43.877  29.971  32.683  1.00  0.00     0.049 A 
ATOM     58  C   UNL A   1      43.932  26.752  27.863  1.00  0.00     0.074 A 
ATOM     59  C   UNL A   1      44.145  31.300  32.449  1.00  0.00     0.029 A 
ATOM     60  N   UNL A   1      44.481  29.244  31.691  1.00  0.00    -0.354 N 
ATOM     61  N   UNL A   1      44.642  27.832  27.689  1.00  0.00    -0.248 NA
ATOM     62  C   UNL A   1      44.142  26.059  29.125  1.00  0.00     0.031 C 
ATOM     63  C   UNL A   1      44.720  31.349  31.143  1.00  0.00     0.029 A 
ATOM     64  C   UNL A   1      44.838  30.048  30.650  1.00  0.00     0.049 A 
ATOM     65  H   UNL A   1      44.637  28.272  31.724  1.00  0.00     0.167 HD
ATOM     66  C   UNL A   1      44.995  28.203  28.974  1.00  0.00     0.074 A 
ATOM     67  C   UNL A   1      44.837  26.994  29.777  1.00  0.00     0.031 C 
ATOM     68  C   UNL A   1      45.058  29.522  29.319  1.00  0.00     0.034 A 
BRANCH  55  69
ATOM     69  C   UNL A   1      43.424  28.016  34.274  1.00  0.00     0.023 A 
ATOM     70  C   UNL A   1      43.951  28.327  35.553  1.00  0.00     0.012 A 
ATOM     71  C   UNL A   1      43.711  26.724  33.778  1.00  0.00     0.148 A 
ATOM     72  C   UNL A   1      44.796  27.450  36.245  1.00  0.00     0.002 A 
ATOM     73  C   UNL A   1      44.510  25.833  34.491  1.00  0.00     0.091 A 
ATOM     74  F   UNL A   1      43.312  26.363  32.559  1.00  0.00    -0.205 F 
ATOM     75  C   UNL A   1      45.083  26.205  35.709  1.00  0.00     0.022 A 
BRANCH  73  76
ATOM     76  S   UNL A   1      44.906  24.196  33.857  1.00  0.00     0.127 S 
ATOM     77  O   UNL A   1      45.721  24.525  32.691  1.00  0.00    -0.237 OA
ATOM     78  O   UNL A   1      45.637  23.613  34.982  1.00  0.00    -0.237 OA
ATOM     79  O   UNL A   1      43.627  23.556  33.577  1.00  0.00    -0.744 OA
ENDBRANCH  73  76
ENDBRANCH  55  69
BRANCH  56  80
ATOM     80  C   UNL A   1      42.644  25.176  26.278  1.00  0.00     0.023 A 
ATOM     81  C   UNL A   1      43.622  24.867  25.311  1.00  0.00     0.012 A 
ATOM     82  C   UNL A   1      41.765  24.150  26.691  1.00  0.00     0.148 A 
ATOM     83  C   UNL A   1      43.746  23.569  24.800  1.00  0.00     0.002 A 
ATOM     84  C   UNL A   1      41.893  22.861  26.181  1.00  0.00     0.091 A 
ATOM     85  F   UNL A   1      40.866  24.424  27.645  1.00  0.00    -0.205 F 
ATOM     86  C   UNL A   1      42.893  22.564  25.245  1.00  0.00     0.022 A 
BRANCH  84  87
ATOM     87  S   UNL A   1      40.858  21.498  26.734  1.00  0.00     0.127 S 
ATOM     88  O   UNL A   1      39.568  21.840  26.135  1.00  0.00    -0.237 OA
ATOM     89  O   UNL A   1      41.526  20.346  26.132  1.00  0.00    -0.237 OA
ATOM     90  O   UNL A   1      40.879  21.544  28.190  1.00  0.00    -0.744 OA
ENDBRANCH  84  87
ENDBRANCH  56  80
BRANCH  68  91
ATOM     91  C   UNL A   1      45.194  30.522  28.209  1.00  0.00     0.023 A 
ATOM     92  C   UNL A   1      44.096  31.057  27.507  1.00  0.00     0.012 A 
ATOM     93  C   UNL A   1      46.479  31.031  27.963  1.00  0.00     0.148 A 
ATOM     94  C   UNL A   1      44.283  32.071  26.563  1.00  0.00     0.002 A 
ATOM     95  C   UNL A   1      46.655  32.071  27.063  1.00  0.00     0.091 A 
ATOM     96  F   UNL A   1      47.509  30.501  28.640  1.00  0.00    -0.205 F 
ATOM     97  C   UNL A   1      45.561  32.588  26.352  1.00  0.00     0.022 A 
BRANCH  95  98
ATOM     98  S   UNL A   1      48.253  32.853  26.850  1.00  0.00     0.127 S 
ATOM     99  O   UNL A   1      49.080  31.738  26.395  1.00  0.00    -0.237 OA
ATOM    100  O   UNL A   1      47.972  33.865  25.829  1.00  0.00    -0.237 OA
ATOM    101  O   UNL A   1      48.606  33.406  28.151  1.00  0.00    -0.744 OA
ENDBRANCH  95  98
ENDBRANCH  68  91
ENDBRANCH  42  43
ENDBRANCH  34  37
ENDBRANCH  32  33
ENDBRANCH  31  32
ENDBRANCH  30  31
ENDBRANCH  29  30
ENDBRANCH   1  29
TORSDOF 21
ENDMDL
MODEL 2
REMARK VINA RESULT:     -10.3      3.052      7.015
REMARK SMILES C[N@@H+]1CC[N@H+](Cc2ccc(C#CC(C)(C)O)s2)C[C@H]1C(=O)NCCCCCCNC(=O)c1ccc(-c2c3nc(c(-c4cccc(S(=O)(=O)[O-])c4F)c4ccc([nH]4)c(-c4cccc(S(=O)(=O)[O-])c4F)c4nc(c(-c5cccc(S(=O)(=O)[O-])c5F)c5ccc2[nH]5)C=C4)C=C3)cc1
REMARK SMILES IDX 24 1 23 2 22 3 20 4 21 5 19 7 1 8 2 9 3 10 4 12 18 13 5 14
REMARK SMILES IDX 6 16 7 17 8 18 17 19 9 20 10 21 11 22 12 23 13 24 14 25
REMARK SMILES IDX 15 26 16 27 25 29 26 30 27 31 28 32 29 33 30 34 31 36 32 37
REMARK SMILES IDX 33 38 94 39 34 40 93 41 35 42 36 43 37 44 87 45 38 46 92 47
REMARK SMILES IDX 86 48 88 49 39 50 91 51 85 52 84 53 40 55 72 56 52 57 71 58
REMARK SMILES IDX 53 59 56 60 70 61 89 62 54 63 55 64 69 66 90 67 57 68 41 69
REMARK SMILES IDX 42 70 50 71 43 72 45 73 51 74 44 75 46 76 47 77 48 78 49 79
REMARK SMILES IDX 73 80 74 81 82 82 75 83 77 84 83 85 76 86 78 87 79 88 80 89
REMARK SMILES IDX 81 90 58 91 59 92 67 93 60 94 62 95 68 96 61 97 63 98 64 99
REMARK SMILES IDX 65 100 66 101
REMARK H PARENT 22 6 2 11 5 15 16 28 29 35 88 54 56 65
REMARK Flexibility Score: inf
ROOT
ATOM      1  C   UNL A   1      32.754  27.205  25.909  1.00  0.00     0.021 C 
ENDROOT
BRANCH   1   2
ATOM      2  C   UNL A   1      33.359  25.807  25.891  1.00  0.00     0.116 C 
BRANCH   2   3
ATOM      3  N   UNL A   1      32.790  24.965  26.927  1.00  0.00    -0.351 N 
ATOM      4  C   UNL A   1      32.630  23.610  26.921  1.00  0.00     0.284 C 
ATOM      5  O   UNL A   1      32.093  23.086  27.902  1.00  0.00    -0.268 OA
ATOM      6  H   UNL A   1      32.479  25.431  27.736  1.00  0.00     0.163 HD
BRANCH   4   7
ATOM      7  C   UNL A   1      33.187  22.766  25.762  1.00  0.00     0.329 C 
ATOM      8  C   UNL A   1      35.545  23.265  26.153  1.00  0.00     0.333 C 
ATOM      9  N   UNL A   1      34.525  22.212  26.091  1.00  0.00    -0.318 N 
ATOM     10  C   UNL A   1      34.934  21.164  25.145  1.00  0.00     0.325 C 
ATOM     11  H   UNL A   1      34.443  21.788  27.015  1.00  0.00     0.348 HD
ATOM     12  C   UNL A   1      33.835  20.130  24.787  1.00  0.00     0.324 C 
ATOM     13  C   UNL A   1      32.100  21.710  25.399  1.00  0.00     0.339 C 
ATOM     14  N   UNL A   1      32.493  20.641  24.467  1.00  0.00    -0.320 N 
ATOM     15  H   UNL A   1      31.854  19.861  24.623  1.00  0.00     0.348 HD
BRANCH  14  16
ATOM     16  C   UNL A   1      32.229  20.921  23.051  1.00  0.00     0.310 C 
BRANCH  16  17
ATOM     17  C   UNL A   1      32.334  22.362  22.668  1.00  0.00     0.060 A 
ATOM     18  C   UNL A   1      33.447  23.072  22.264  1.00  0.00     0.022 A 
ATOM     19  S   UNL A   1      30.950  23.376  22.716  1.00  0.00    -0.126 S 
ATOM     20  C   UNL A   1      33.233  24.478  22.372  1.00  0.00     0.029 A 
ATOM     21  C   UNL A   1      31.934  24.768  22.722  1.00  0.00     0.077 A 
BRANCH  21  22
ATOM     22  C   UNL A   1      31.416  26.067  22.942  1.00  0.00    -0.053 C 
ATOM     23  C   UNL A   1      30.655  27.122  23.029  1.00  0.00    -0.063 C 
BRANCH  23  24
ATOM     24  C   UNL A   1      29.769  28.353  23.131  1.00  0.00     0.120 C 
ATOM     25  C   UNL A   1      30.000  29.253  21.919  1.00  0.00     0.056 C 
ATOM     26  C   UNL A   1      28.306  27.927  23.233  1.00  0.00     0.056 C 
BRANCH  24  27
ATOM     27  O   UNL A   1      30.135  29.073  24.304  1.00  0.00    -0.378 OA
ATOM     28  H   UNL A   1      30.743  29.791  24.066  1.00  0.00     0.212 HD
ENDBRANCH  24  27
ENDBRANCH  23  24
ENDBRANCH  21  22
ENDBRANCH  16  17
ENDBRANCH  14  16
ENDBRANCH   4   7
ENDBRANCH   2   3
ENDBRANCH   1   2
BRANCH   1  29
ATOM     29  C   UNL A   1      31.684  27.393  26.988  1.00  0.00     0.002 C 
BRANCH  29  30
ATOM     30  C   UNL A   1      31.630  28.794  27.617  1.00  0.00     0.002 C 
BRANCH  30  31
ATOM     31  C   UNL A   1      31.938  29.966  26.673  1.00  0.00     0.021 C 
BRANCH  31  32
ATOM     32  C   UNL A   1      33.065  30.854  27.170  1.00  0.00     0.116 C 
BRANCH  32  33
ATOM     33  N   UNL A   1      32.655  32.253  27.245  1.00  0.00    -0.352 N 
ATOM     34  C   UNL A   1      33.186  33.248  28.030  1.00  0.00     0.251 C 
ATOM     35  H   UNL A   1      31.907  32.517  26.661  1.00  0.00     0.163 HD
ATOM     36  O   UNL A   1      32.545  34.273  28.264  1.00  0.00    -0.269 OA
BRANCH  34  37
ATOM     37  C   UNL A   1      34.537  33.072  28.584  1.00  0.00     0.039 A 
ATOM     38  C   UNL A   1      34.732  32.439  29.815  1.00  0.00     0.014 A 
ATOM     39  C   UNL A   1      35.620  33.540  27.839  1.00  0.00     0.014 A 
ATOM     40  C   UNL A   1      36.032  32.221  30.259  1.00  0.00     0.010 A 
ATOM     41  C   UNL A   1      36.897  33.204  28.210  1.00  0.00     0.010 A 
ATOM     42  C   UNL A   1      37.110  32.594  29.442  1.00  0.00    -0.014 A 
BRANCH  42  43
ATOM     43  C   UNL A   1      38.473  32.202  29.785  1.00  0.00     0.031 A 
ATOM     44  C   UNL A   1      38.720  30.743  29.620  1.00  0.00     0.074 A 
ATOM     45  C   UNL A   1      39.453  33.112  29.987  1.00  0.00     0.049 A 
ATOM     46  N   UNL A   1      38.926  29.868  30.548  1.00  0.00    -0.248 NA
ATOM     47  C   UNL A   1      38.518  30.150  28.286  1.00  0.00     0.031 C 
ATOM     48  C   UNL A   1      39.348  34.572  29.840  1.00  0.00     0.029 A 
ATOM     49  N   UNL A   1      40.787  32.932  30.206  1.00  0.00    -0.354 N 
ATOM     50  C   UNL A   1      39.170  28.668  29.875  1.00  0.00     0.074 A 
ATOM     51  C   UNL A   1      38.651  28.848  28.549  1.00  0.00     0.031 C 
ATOM     52  C   UNL A   1      40.582  35.103  29.701  1.00  0.00     0.029 A 
ATOM     53  C   UNL A   1      41.561  34.058  29.926  1.00  0.00     0.049 A 
ATOM     54  H   UNL A   1      41.168  32.085  30.532  1.00  0.00     0.167 HD
ATOM     55  C   UNL A   1      40.081  27.778  30.364  1.00  0.00     0.034 A 
ATOM     56  C   UNL A   1      42.913  34.123  29.845  1.00  0.00     0.034 A 
ATOM     57  C   UNL A   1      40.440  28.134  31.717  1.00  0.00     0.049 A 
ATOM     58  C   UNL A   1      43.445  32.958  30.575  1.00  0.00     0.074 A 
ATOM     59  C   UNL A   1      39.832  28.155  32.951  1.00  0.00     0.029 A 
ATOM     60  N   UNL A   1      41.541  28.947  31.782  1.00  0.00    -0.354 N 
ATOM     61  N   UNL A   1      43.315  32.804  31.864  1.00  0.00    -0.248 NA
ATOM     62  C   UNL A   1      43.808  31.759  29.834  1.00  0.00     0.031 C 
ATOM     63  C   UNL A   1      40.473  29.205  33.674  1.00  0.00     0.029 A 
ATOM     64  C   UNL A   1      41.486  29.749  32.883  1.00  0.00     0.049 A 
ATOM     65  H   UNL A   1      42.274  28.951  31.124  1.00  0.00     0.167 HD
ATOM     66  C   UNL A   1      43.099  31.446  32.013  1.00  0.00     0.074 A 
ATOM     67  C   UNL A   1      43.605  30.842  30.784  1.00  0.00     0.031 C 
ATOM     68  C   UNL A   1      42.237  30.985  32.964  1.00  0.00     0.034 A 
BRANCH  55  69
ATOM     69  C   UNL A   1      41.057  26.942  29.535  1.00  0.00     0.023 A 
ATOM     70  C   UNL A   1      42.298  27.554  29.227  1.00  0.00     0.012 A 
ATOM     71  C   UNL A   1      40.727  25.787  28.790  1.00  0.00     0.148 A 
ATOM     72  C   UNL A   1      43.107  27.111  28.173  1.00  0.00     0.002 A 
ATOM     73  C   UNL A   1      41.559  25.317  27.776  1.00  0.00     0.091 A 
ATOM     74  F   UNL A   1      39.555  25.180  28.965  1.00  0.00    -0.205 F 
ATOM     75  C   UNL A   1      42.732  25.995  27.441  1.00  0.00     0.022 A 
BRANCH  73  76
ATOM     76  S   UNL A   1      41.138  23.864  26.800  1.00  0.00     0.127 S 
ATOM     77  O   UNL A   1      41.093  22.827  27.828  1.00  0.00    -0.237 OA
ATOM     78  O   UNL A   1      39.839  24.247  26.247  1.00  0.00    -0.237 OA
ATOM     79  O   UNL A   1      42.197  23.728  25.808  1.00  0.00    -0.744 OA
ENDBRANCH  73  76
ENDBRANCH  55  69
BRANCH  56  80
ATOM     80  C   UNL A   1      43.791  34.997  29.035  1.00  0.00     0.023 A 
ATOM     81  C   UNL A   1      44.346  36.162  29.604  1.00  0.00     0.012 A 
ATOM     82  C   UNL A   1      44.318  34.538  27.808  1.00  0.00     0.148 A 
ATOM     83  C   UNL A   1      45.417  36.824  28.991  1.00  0.00     0.002 A 
ATOM     84  C   UNL A   1      45.384  35.199  27.203  1.00  0.00     0.091 A 
ATOM     85  F   UNL A   1      43.829  33.405  27.286  1.00  0.00    -0.205 F 
ATOM     86  C   UNL A   1      45.945  36.336  27.800  1.00  0.00     0.022 A 
BRANCH  84  87
ATOM     87  S   UNL A   1      46.149  34.608  25.686  1.00  0.00     0.127 S 
ATOM     88  O   UNL A   1      47.085  35.689  25.383  1.00  0.00    -0.237 OA
ATOM     89  O   UNL A   1      46.773  33.362  26.125  1.00  0.00    -0.237 OA
ATOM     90  O   UNL A   1      45.065  34.460  24.723  1.00  0.00    -0.744 OA
ENDBRANCH  84  87
ENDBRANCH  56  80
BRANCH  68  91
ATOM     91  C   UNL A   1      41.905  31.904  34.103  1.00  0.00     0.023 A 
ATOM     92  C   UNL A   1      42.778  32.148  35.182  1.00  0.00     0.012 A 
ATOM     93  C   UNL A   1      40.715  32.642  34.003  1.00  0.00     0.148 A 
ATOM     94  C   UNL A   1      42.457  33.103  36.151  1.00  0.00     0.002 A 
ATOM     95  C   UNL A   1      40.425  33.623  34.938  1.00  0.00     0.091 A 
ATOM     96  F   UNL A   1      39.898  32.386  32.969  1.00  0.00    -0.205 F 
ATOM     97  C   UNL A   1      41.288  33.851  36.021  1.00  0.00     0.022 A 
BRANCH  95  98
ATOM     98  S   UNL A   1      39.001  34.694  34.746  1.00  0.00     0.127 S 
ATOM     99  O   UNL A   1      39.437  35.906  35.434  1.00  0.00    -0.237 OA
ATOM    100  O   UNL A   1      38.897  34.818  33.291  1.00  0.00    -0.237 OA
ATOM    101  O   UNL A   1      37.882  33.991  35.361  1.00  0.00    -0.744 OA
ENDBRANCH  95  98
ENDBRANCH  68  91
ENDBRANCH  42  43
ENDBRANCH  34  37
ENDBRANCH  32  33
ENDBRANCH  31  32
ENDBRANCH  30  31
ENDBRANCH  29  30
ENDBRANCH   1  29
TORSDOF 21
ENDMDL
MODEL 3
REMARK VINA RESULT:     -10.2      3.615      7.441
REMARK SMILES C[N@@H+]1CC[N@H+](Cc2ccc(C#CC(C)(C)O)s2)C[C@H]1C(=O)NCCCCCCNC(=O)c1ccc(-c2c3nc(c(-c4cccc(S(=O)(=O)[O-])c4F)c4ccc([nH]4)c(-c4cccc(S(=O)(=O)[O-])c4F)c4nc(c(-c5cccc(S(=O)(=O)[O-])c5F)c5ccc2[nH]5)C=C4)C=C3)cc1
REMARK SMILES IDX 24 1 23 2 22 3 20 4 21 5 19 7 1 8 2 9 3 10 4 12 18 13 5 14
REMARK SMILES IDX 6 16 7 17 8 18 17 19 9 20 10 21 11 22 12 23 13 24 14 25
REMARK SMILES IDX 15 26 16 27 25 29 26 30 27 31 28 32 29 33 30 34 31 36 32 37
REMARK SMILES IDX 33 38 94 39 34 40 93 41 35 42 36 43 37 44 87 45 38 46 92 47
REMARK SMILES IDX 86 48 88 49 39 50 91 51 85 52 84 53 40 55 72 56 52 57 71 58
REMARK SMILES IDX 53 59 56 60 70 61 89 62 54 63 55 64 69 66 90 67 57 68 41 69
REMARK SMILES IDX 42 70 50 71 43 72 45 73 51 74 44 75 46 76 47 77 48 78 49 79
REMARK SMILES IDX 73 80 74 81 82 82 75 83 77 84 83 85 76 86 78 87 79 88 80 89
REMARK SMILES IDX 81 90 58 91 59 92 67 93 60 94 62 95 68 96 61 97 63 98 64 99
REMARK SMILES IDX 65 100 66 101
REMARK H PARENT 22 6 2 11 5 15 16 28 29 35 88 54 56 65
REMARK Flexibility Score: inf
ROOT
ATOM      1  C   UNL A   1      37.810  21.035  25.028  1.00  0.00     0.021 C 
ENDROOT
BRANCH   1   2
ATOM      2  C   UNL A   1      36.330  21.324  24.804  1.00  0.00     0.116 C 
BRANCH   2   3
ATOM      3  N   UNL A   1      35.532  20.940  25.954  1.00  0.00    -0.351 N 
ATOM      4  C   UNL A   1      34.357  21.484  26.386  1.00  0.00     0.284 C 
ATOM      5  O   UNL A   1      33.848  21.023  27.413  1.00  0.00    -0.268 OA
ATOM      6  H   UNL A   1      35.883  20.194  26.491  1.00  0.00     0.163 HD
BRANCH   4   7
ATOM      7  C   UNL A   1      33.655  22.575  25.560  1.00  0.00     0.329 C 
ATOM      8  C   UNL A   1      32.064  21.103  24.435  1.00  0.00     0.333 C 
ATOM      9  N   UNL A   1      32.223  22.248  25.339  1.00  0.00    -0.318 N 
ATOM     10  C   UNL A   1      31.467  23.402  24.833  1.00  0.00     0.325 C 
ATOM     11  H   UNL A   1      31.840  21.995  26.250  1.00  0.00     0.348 HD
ATOM     12  C   UNL A   1      31.759  24.748  25.546  1.00  0.00     0.324 C 
ATOM     13  C   UNL A   1      33.924  23.934  26.273  1.00  0.00     0.339 C 
ATOM     14  N   UNL A   1      33.165  25.101  25.794  1.00  0.00    -0.320 N 
ATOM     15  H   UNL A   1      33.152  25.780  26.555  1.00  0.00     0.348 HD
BRANCH  14  16
ATOM     16  C   UNL A   1      33.828  25.889  24.748  1.00  0.00     0.310 C 
BRANCH  16  17
ATOM     17  C   UNL A   1      33.253  27.251  24.532  1.00  0.00     0.060 A 
ATOM     18  C   UNL A   1      33.460  28.405  25.262  1.00  0.00     0.022 A 
ATOM     19  S   UNL A   1      32.159  27.536  23.241  1.00  0.00    -0.126 S 
ATOM     20  C   UNL A   1      32.452  29.376  24.995  1.00  0.00     0.029 A 
ATOM     21  C   UNL A   1      31.610  28.970  23.985  1.00  0.00     0.077 A 
BRANCH  21  22
ATOM     22  C   UNL A   1      30.490  29.693  23.511  1.00  0.00    -0.053 C 
ATOM     23  C   UNL A   1      29.311  30.056  23.088  1.00  0.00    -0.063 C 
BRANCH  23  24
ATOM     24  C   UNL A   1      27.937  30.479  22.593  1.00  0.00     0.120 C 
ATOM     25  C   UNL A   1      27.447  31.676  23.404  1.00  0.00     0.056 C 
ATOM     26  C   UNL A   1      28.004  30.809  21.104  1.00  0.00     0.056 C 
BRANCH  24  27
ATOM     27  O   UNL A   1      27.035  29.396  22.797  1.00  0.00    -0.378 OA
ATOM     28  H   UNL A   1      26.256  29.513  22.231  1.00  0.00     0.212 HD
ENDBRANCH  24  27
ENDBRANCH  23  24
ENDBRANCH  21  22
ENDBRANCH  16  17
ENDBRANCH  14  16
ENDBRANCH   4   7
ENDBRANCH   2   3
ENDBRANCH   1   2
BRANCH   1  29
ATOM     29  C   UNL A   1      38.489  22.027  25.976  1.00  0.00     0.002 C 
BRANCH  29  30
ATOM     30  C   UNL A   1      38.226  23.509  25.668  1.00  0.00     0.002 C 
BRANCH  30  31
ATOM     31  C   UNL A   1      38.359  24.475  26.854  1.00  0.00     0.021 C 
BRANCH  31  32
ATOM     32  C   UNL A   1      39.751  24.491  27.460  1.00  0.00     0.116 C 
BRANCH  32  33
ATOM     33  N   UNL A   1      40.787  24.412  26.434  1.00  0.00    -0.352 N 
ATOM     34  C   UNL A   1      41.577  25.429  25.953  1.00  0.00     0.251 C 
ATOM     35  H   UNL A   1      40.938  23.524  26.039  1.00  0.00     0.163 HD
ATOM     36  O   UNL A   1      42.149  25.318  24.868  1.00  0.00    -0.269 OA
BRANCH  34  37
ATOM     37  C   UNL A   1      41.732  26.650  26.757  1.00  0.00     0.039 A 
ATOM     38  C   UNL A   1      41.114  27.844  26.377  1.00  0.00     0.014 A 
ATOM     39  C   UNL A   1      42.503  26.580  27.918  1.00  0.00     0.014 A 
ATOM     40  C   UNL A   1      41.222  28.950  27.212  1.00  0.00     0.010 A 
ATOM     41  C   UNL A   1      42.496  27.626  28.804  1.00  0.00     0.010 A 
ATOM     42  C   UNL A   1      41.902  28.828  28.433  1.00  0.00    -0.014 A 
BRANCH  42  43
ATOM     43  C   UNL A   1      41.864  29.905  29.417  1.00  0.00     0.031 A 
ATOM     44  C   UNL A   1      40.482  30.264  29.836  1.00  0.00     0.074 A 
ATOM     45  C   UNL A   1      42.978  30.342  30.048  1.00  0.00     0.049 A 
ATOM     46  N   UNL A   1      39.836  31.353  29.577  1.00  0.00    -0.248 NA
ATOM     47  C   UNL A   1      39.644  29.214  30.444  1.00  0.00     0.031 C 
ATOM     48  C   UNL A   1      44.339  29.800  29.916  1.00  0.00     0.029 A 
ATOM     49  N   UNL A   1      43.118  31.249  31.056  1.00  0.00    -0.354 N 
ATOM     50  C   UNL A   1      38.618  31.227  30.248  1.00  0.00     0.074 A 
ATOM     51  C   UNL A   1      38.461  29.827  30.522  1.00  0.00     0.031 C 
ATOM     52  C   UNL A   1      45.083  30.181  30.976  1.00  0.00     0.029 A 
ATOM     53  C   UNL A   1      44.316  31.130  31.760  1.00  0.00     0.049 A 
ATOM     54  H   UNL A   1      42.435  31.925  31.269  1.00  0.00     0.167 HD
ATOM     55  C   UNL A   1      38.030  32.319  30.818  1.00  0.00     0.034 A 
ATOM     56  C   UNL A   1      44.645  31.737  32.926  1.00  0.00     0.034 A 
ATOM     57  C   UNL A   1      38.673  33.524  30.351  1.00  0.00     0.049 A 
ATOM     58  C   UNL A   1      43.754  32.903  33.071  1.00  0.00     0.074 A 
ATOM     59  C   UNL A   1      38.774  34.223  29.170  1.00  0.00     0.029 A 
ATOM     60  N   UNL A   1      39.696  33.935  31.165  1.00  0.00    -0.354 N 
ATOM     61  N   UNL A   1      43.795  33.934  32.274  1.00  0.00    -0.248 NA
ATOM     62  C   UNL A   1      42.549  32.782  33.879  1.00  0.00     0.031 C 
ATOM     63  C   UNL A   1      40.040  34.880  29.222  1.00  0.00     0.029 A 
ATOM     64  C   UNL A   1      40.642  34.609  30.453  1.00  0.00     0.049 A 
ATOM     65  H   UNL A   1      39.742  33.767  32.135  1.00  0.00     0.167 HD
ATOM     66  C   UNL A   1      42.466  34.290  32.128  1.00  0.00     0.074 A 
ATOM     67  C   UNL A   1      41.783  33.690  33.270  1.00  0.00     0.031 C 
ATOM     68  C   UNL A   1      42.002  34.748  30.929  1.00  0.00     0.034 A 
BRANCH  55  69
ATOM     69  C   UNL A   1      37.287  32.347  32.154  1.00  0.00     0.023 A 
ATOM     70  C   UNL A   1      36.019  32.981  32.151  1.00  0.00     0.012 A 
ATOM     71  C   UNL A   1      37.863  32.107  33.423  1.00  0.00     0.148 A 
ATOM     72  C   UNL A   1      35.412  33.442  33.326  1.00  0.00     0.002 A 
ATOM     73  C   UNL A   1      37.233  32.521  34.595  1.00  0.00     0.091 A 
ATOM     74  F   UNL A   1      39.079  31.573  33.525  1.00  0.00    -0.205 F 
ATOM     75  C   UNL A   1      36.025  33.220  34.549  1.00  0.00     0.022 A 
BRANCH  73  76
ATOM     76  S   UNL A   1      37.968  32.247  36.215  1.00  0.00     0.127 S 
ATOM     77  O   UNL A   1      37.953  30.790  36.298  1.00  0.00    -0.237 OA
ATOM     78  O   UNL A   1      39.291  32.847  36.044  1.00  0.00    -0.237 OA
ATOM     79  O   UNL A   1      37.111  32.945  37.165  1.00  0.00    -0.744 OA
ENDBRANCH  73  76
ENDBRANCH  55  69
BRANCH  56  80
ATOM     80  C   UNL A   1      45.534  31.299  34.026  1.00  0.00     0.023 A 
ATOM     81  C   UNL A   1      46.739  31.988  34.276  1.00  0.00     0.012 A 
ATOM     82  C   UNL A   1      45.063  30.399  35.007  1.00  0.00     0.148 A 
ATOM     83  C   UNL A   1      47.430  31.817  35.482  1.00  0.00     0.002 A 
ATOM     84  C   UNL A   1      45.754  30.233  36.205  1.00  0.00     0.091 A 
ATOM     85  F   UNL A   1      43.895  29.778  34.798  1.00  0.00    -0.205 F 
ATOM     86  C   UNL A   1      46.932  30.952  36.451  1.00  0.00     0.022 A 
BRANCH  84  87
ATOM     87  S   UNL A   1      45.155  29.166  37.524  1.00  0.00     0.127 S 
ATOM     88  O   UNL A   1      45.148  27.858  36.870  1.00  0.00    -0.237 OA
ATOM     89  O   UNL A   1      46.187  29.335  38.544  1.00  0.00    -0.237 OA
ATOM     90  O   UNL A   1      43.835  29.670  37.878  1.00  0.00    -0.744 OA
ENDBRANCH  84  87
ENDBRANCH  56  80
BRANCH  68  91
ATOM     91  C   UNL A   1      43.010  35.283  29.955  1.00  0.00     0.023 A 
ATOM     92  C   UNL A   1      43.599  36.557  30.069  1.00  0.00     0.012 A 
ATOM     93  C   UNL A   1      43.467  34.403  28.961  1.00  0.00     0.148 A 
ATOM     94  C   UNL A   1      44.616  36.950  29.194  1.00  0.00     0.002 A 
ATOM     95  C   UNL A   1      44.509  34.777  28.127  1.00  0.00     0.091 A 
ATOM     96  F   UNL A   1      42.885  33.197  28.868  1.00  0.00    -0.205 F 
ATOM     97  C   UNL A   1      45.081  36.054  28.232  1.00  0.00     0.022 A 
BRANCH  95  98
ATOM     98  S   UNL A   1      45.225  33.619  26.962  1.00  0.00     0.127 S 
ATOM     99  O   UNL A   1      44.558  33.989  25.716  1.00  0.00    -0.237 OA
ATOM    100  O   UNL A   1      46.648  33.956  27.020  1.00  0.00    -0.237 OA
ATOM    101  O   UNL A   1      44.911  32.290  27.471  1.00  0.00    -0.744 OA
ENDBRANCH  95  98
ENDBRANCH  68  91
ENDBRANCH  42  43
ENDBRANCH  34  37
ENDBRANCH  32  33
ENDBRANCH  31  32
ENDBRANCH  30  31
ENDBRANCH  29  30
ENDBRANCH   1  29
TORSDOF 21
ENDMDL
