MODEL 1
REMARK VINA RESULT:     -11.3      0.000      0.000
REMARK SMILES O=C(NCCCCCCNC(=O)[C@@H]1CCCC[C@@H]1C(=O)Nc1ccccc1C(=O)N1CCN(c2ccc(F)cc2)CC1)c1ccc(-c2c3nc(c(-c4cccc(S(=O)(=O)[O-])c4F)c4ccc([nH]4)c(-c4cccc(S(=O)(=O)[O-])c4F)c4nc(c(-c5cccc(S(=O)(=O)[O-])c5F)c5ccc2[nH]5)C=C4)C=C3)cc1
REMARK SMILES IDX 7 1 6 2 5 3 4 4 3 5 1 6 2 7 43 9 44 10 105 11 45 12 104 13
REMARK SMILES IDX 46 14 47 15 48 16 98 17 49 18 103 19 97 20 99 21 50 22
REMARK SMILES IDX 102 23 96 24 95 25 51 27 83 28 63 29 82 30 64 31 67 32 81 33
REMARK SMILES IDX 100 34 65 35 66 36 80 38 101 39 68 40 52 41 53 42 61 43
REMARK SMILES IDX 54 44 56 45 62 46 55 47 57 48 58 49 59 50 60 51 84 52 85 53
REMARK SMILES IDX 93 54 86 55 88 56 94 57 87 58 89 59 90 60 91 61 92 62 69 63
REMARK SMILES IDX 70 64 78 65 71 66 73 67 79 68 72 69 74 70 75 71 76 72 77 73
REMARK SMILES IDX 8 74 9 75 10 76 11 77 12 79 13 80 14 81 18 82 15 83 17 84
REMARK SMILES IDX 16 85 19 86 20 87 21 88 22 90 23 91 27 92 24 93 26 94 25 95
REMARK SMILES IDX 28 96 29 97 30 98 31 99 42 100 32 101 41 102 33 103 34 104
REMARK SMILES IDX 35 105 40 106 36 107 39 108 37 109 38 110
REMARK H PARENT 3 8 99 26 67 37 10 78 21 89
REMARK Flexibility Score: inf
ROOT
ATOM      1  C   UNL A   1      39.761  22.245  26.545  1.00  0.00     0.002 C 
ENDROOT
BRANCH   1   2
ATOM      2  C   UNL A   1      40.691  21.236  27.213  1.00  0.00     0.002 C 
BRANCH   2   3
ATOM      3  C   UNL A   1      40.942  19.932  26.459  1.00  0.00     0.021 C 
BRANCH   3   4
ATOM      4  C   UNL A   1      42.297  19.295  26.710  1.00  0.00     0.116 C 
BRANCH   4   5
ATOM      5  N   UNL A   1      43.056  19.047  25.497  1.00  0.00    -0.352 N 
ATOM      6  O   UNL A   1      44.405  19.579  23.767  1.00  0.00    -0.269 OA
ATOM      7  C   UNL A   1      43.872  19.919  24.816  1.00  0.00     0.251 C 
ATOM      8  H   UNL A   1      42.977  18.143  25.116  1.00  0.00     0.163 HD
BRANCH   7   9
ATOM      9  C   UNL A   1      44.041  21.289  25.349  1.00  0.00     0.039 A 
ATOM     10  C   UNL A   1      43.474  22.382  24.689  1.00  0.00     0.014 A 
ATOM     11  C   UNL A   1      44.844  21.477  26.474  1.00  0.00     0.014 A 
ATOM     12  C   UNL A   1      43.836  23.670  25.060  1.00  0.00     0.010 A 
ATOM     13  C   UNL A   1      45.133  22.774  26.901  1.00  0.00     0.010 A 
ATOM     14  C   UNL A   1      44.664  23.879  26.174  1.00  0.00    -0.014 A 
BRANCH  14  15
ATOM     15  C   UNL A   1      44.982  25.262  26.608  1.00  0.00     0.031 A 
ATOM     16  C   UNL A   1      43.930  26.147  27.215  1.00  0.00     0.074 A 
ATOM     17  C   UNL A   1      46.233  25.721  26.420  1.00  0.00     0.049 A 
ATOM     18  N   UNL A   1      44.022  27.399  27.582  1.00  0.00    -0.248 NA
ATOM     19  C   UNL A   1      42.597  25.558  27.429  1.00  0.00     0.031 C 
ATOM     20  C   UNL A   1      47.323  24.957  25.809  1.00  0.00     0.029 A 
ATOM     21  N   UNL A   1      46.799  26.936  26.708  1.00  0.00    -0.354 N 
ATOM     22  C   UNL A   1      42.754  27.767  28.015  1.00  0.00     0.074 A 
ATOM     23  C   UNL A   1      41.907  26.601  27.873  1.00  0.00     0.031 C 
ATOM     24  C   UNL A   1      48.430  25.712  25.781  1.00  0.00     0.029 A 
ATOM     25  C   UNL A   1      48.112  27.032  26.312  1.00  0.00     0.049 A 
ATOM     26  H   UNL A   1      46.313  27.667  27.153  1.00  0.00     0.167 HD
ATOM     27  C   UNL A   1      42.338  28.963  28.497  1.00  0.00     0.034 A 
ATOM     28  C   UNL A   1      48.963  28.075  26.345  1.00  0.00     0.034 A 
ATOM     29  C   UNL A   1      43.204  30.099  28.680  1.00  0.00     0.049 A 
ATOM     30  C   UNL A   1      48.489  29.376  26.920  1.00  0.00     0.074 A 
ATOM     31  C   UNL A   1      42.896  31.337  29.216  1.00  0.00     0.029 A 
ATOM     32  N   UNL A   1      44.546  30.136  28.333  1.00  0.00    -0.354 N 
ATOM     33  N   UNL A   1      47.312  29.671  27.419  1.00  0.00    -0.248 NA
ATOM     34  C   UNL A   1      49.458  30.477  26.961  1.00  0.00     0.031 C 
ATOM     35  C   UNL A   1      44.051  32.125  29.187  1.00  0.00     0.029 A 
ATOM     36  C   UNL A   1      45.082  31.375  28.643  1.00  0.00     0.049 A 
ATOM     37  H   UNL A   1      45.045  29.392  27.926  1.00  0.00     0.167 HD
ATOM     38  C   UNL A   1      47.405  30.987  27.853  1.00  0.00     0.074 A 
ATOM     39  C   UNL A   1      48.760  31.423  27.579  1.00  0.00     0.031 C 
ATOM     40  C   UNL A   1      46.448  31.770  28.409  1.00  0.00     0.034 A 
BRANCH  27  41
ATOM     41  C   UNL A   1      40.893  29.097  28.898  1.00  0.00     0.023 A 
ATOM     42  C   UNL A   1      39.907  29.252  27.904  1.00  0.00     0.012 A 
ATOM     43  C   UNL A   1      40.502  29.010  30.249  1.00  0.00     0.148 A 
ATOM     44  C   UNL A   1      38.558  29.345  28.247  1.00  0.00     0.002 A 
ATOM     45  C   UNL A   1      39.152  29.068  30.581  1.00  0.00     0.091 A 
ATOM     46  F   UNL A   1      41.453  28.890  31.186  1.00  0.00    -0.205 F 
ATOM     47  C   UNL A   1      38.180  29.243  29.583  1.00  0.00     0.022 A 
BRANCH  45  48
ATOM     48  S   UNL A   1      38.573  28.876  32.272  1.00  0.00     0.127 S 
ATOM     49  O   UNL A   1      39.197  30.023  32.930  1.00  0.00    -0.237 OA
ATOM     50  O   UNL A   1      37.121  28.978  32.121  1.00  0.00    -0.237 OA
ATOM     51  O   UNL A   1      39.042  27.566  32.701  1.00  0.00    -0.744 OA
ENDBRANCH  45  48
ENDBRANCH  27  41
BRANCH  28  52
ATOM     52  C   UNL A   1      50.356  27.889  25.855  1.00  0.00     0.023 A 
ATOM     53  C   UNL A   1      51.388  27.652  26.782  1.00  0.00     0.012 A 
ATOM     54  C   UNL A   1      50.643  27.839  24.476  1.00  0.00     0.148 A 
ATOM     55  C   UNL A   1      52.684  27.374  26.345  1.00  0.00     0.002 A 
ATOM     56  C   UNL A   1      51.922  27.501  24.047  1.00  0.00     0.091 A 
ATOM     57  F   UNL A   1      49.650  28.082  23.610  1.00  0.00    -0.205 F 
ATOM     58  C   UNL A   1      52.946  27.282  24.980  1.00  0.00     0.022 A 
BRANCH  56  59
ATOM     59  S   UNL A   1      52.302  27.201  22.317  1.00  0.00     0.127 S 
ATOM     60  O   UNL A   1      52.644  28.542  21.850  1.00  0.00    -0.237 OA
ATOM     61  O   UNL A   1      53.430  26.273  22.410  1.00  0.00    -0.237 OA
ATOM     62  O   UNL A   1      51.095  26.617  21.749  1.00  0.00    -0.744 OA
ENDBRANCH  56  59
ENDBRANCH  28  52
BRANCH  40  63
ATOM     63  C   UNL A   1      46.836  33.175  28.779  1.00  0.00     0.023 A 
ATOM     64  C   UNL A   1      47.415  33.427  30.038  1.00  0.00     0.012 A 
ATOM     65  C   UNL A   1      46.694  34.227  27.855  1.00  0.00     0.148 A 
ATOM     66  C   UNL A   1      47.829  34.713  30.379  1.00  0.00     0.002 A 
ATOM     67  C   UNL A   1      47.147  35.499  28.187  1.00  0.00     0.091 A 
ATOM     68  F   UNL A   1      46.117  33.969  26.671  1.00  0.00    -0.205 F 
ATOM     69  C   UNL A   1      47.707  35.745  29.452  1.00  0.00     0.022 A 
BRANCH  67  70
ATOM     70  S   UNL A   1      47.106  36.864  27.020  1.00  0.00     0.127 S 
ATOM     71  O   UNL A   1      45.674  36.985  26.753  1.00  0.00    -0.237 OA
ATOM     72  O   UNL A   1      47.676  37.962  27.801  1.00  0.00    -0.237 OA
ATOM     73  O   UNL A   1      47.923  36.444  25.889  1.00  0.00    -0.744 OA
ENDBRANCH  67  70
ENDBRANCH  40  63
ENDBRANCH  14  15
ENDBRANCH   7   9
ENDBRANCH   4   5
ENDBRANCH   3   4
ENDBRANCH   2   3
ENDBRANCH   1   2
BRANCH   1  74
ATOM     74  C   UNL A   1      38.828  21.674  25.472  1.00  0.00     0.021 C 
BRANCH  74  75
ATOM     75  C   UNL A   1      37.347  21.692  25.829  1.00  0.00     0.116 C 
BRANCH  75  76
ATOM     76  N   UNL A   1      36.849  23.033  26.012  1.00  0.00    -0.356 N 
ATOM     77  C   UNL A   1      35.635  23.554  25.722  1.00  0.00     0.223 C 
ATOM     78  H   UNL A   1      37.491  23.665  26.408  1.00  0.00     0.163 HD
ATOM     79  O   UNL A   1      35.553  24.783  25.752  1.00  0.00    -0.275 OA
BRANCH  77  80
ATOM     80  C   UNL A   1      34.500  22.682  25.199  1.00  0.00     0.091 C 
ATOM     81  C   UNL A   1      34.190  23.075  23.734  1.00  0.00     0.014 C 
ATOM     82  C   UNL A   1      33.255  22.398  26.073  1.00  0.00     0.091 C 
ATOM     83  C   UNL A   1      33.184  22.165  23.041  1.00  0.00     0.001 C 
ATOM     84  C   UNL A   1      32.388  21.363  25.282  1.00  0.00     0.014 C 
ATOM     85  C   UNL A   1      31.969  21.872  23.901  1.00  0.00     0.001 C 
BRANCH  82  86
ATOM     86  C   UNL A   1      32.278  23.457  26.651  1.00  0.00     0.228 C 
ATOM     87  O   UNL A   1      31.892  23.335  27.824  1.00  0.00    -0.274 OA
ATOM     88  N   UNL A   1      32.189  24.728  26.180  1.00  0.00    -0.325 N 
ATOM     89  H   UNL A   1      32.726  25.354  26.717  1.00  0.00     0.169 HD
BRANCH  88  90
ATOM     90  C   UNL A   1      31.524  25.380  25.118  1.00  0.00     0.054 A 
ATOM     91  C   UNL A   1      30.475  24.601  24.574  1.00  0.00     0.027 A 
ATOM     92  C   UNL A   1      31.779  26.622  24.514  1.00  0.00     0.063 A 
ATOM     93  C   UNL A   1      29.631  25.080  23.569  1.00  0.00     0.002 A 
ATOM     94  C   UNL A   1      30.874  27.132  23.555  1.00  0.00     0.016 A 
ATOM     95  C   UNL A   1      29.801  26.370  23.093  1.00  0.00     0.001 A 
BRANCH  92  96
ATOM     96  C   UNL A   1      33.070  27.359  24.540  1.00  0.00     0.256 C 
ATOM     97  O   UNL A   1      34.043  26.970  23.911  1.00  0.00    -0.269 OA
ATOM     98  N   UNL A   1      33.160  28.319  25.530  1.00  0.00    -0.335 N 
ATOM     99  C   UNL A   1      33.339  29.693  25.121  1.00  0.00     0.141 C 
ATOM    100  C   UNL A   1      33.871  28.026  26.778  1.00  0.00     0.141 C 
ATOM    101  C   UNL A   1      32.657  30.575  26.162  1.00  0.00     0.138 C 
ATOM    102  C   UNL A   1      33.612  29.073  27.903  1.00  0.00     0.138 C 
ATOM    103  N   UNL A   1      33.407  30.453  27.419  1.00  0.00    -0.368 N 
BRANCH 103 104
ATOM    104  C   UNL A   1      34.193  31.555  27.685  1.00  0.00     0.037 A 
ATOM    105  C   UNL A   1      35.575  31.358  27.890  1.00  0.00     0.029 A 
ATOM    106  C   UNL A   1      33.665  32.824  27.922  1.00  0.00     0.029 A 
ATOM    107  C   UNL A   1      36.394  32.370  28.378  1.00  0.00     0.041 A 
ATOM    108  C   UNL A   1      34.484  33.846  28.415  1.00  0.00     0.041 A 
ATOM    109  C   UNL A   1      35.836  33.606  28.649  1.00  0.00     0.123 A 
ATOM    110  F   UNL A   1      36.603  34.577  29.160  1.00  0.00    -0.207 F 
ENDBRANCH 103 104
ENDBRANCH  92  96
ENDBRANCH  88  90
ENDBRANCH  82  86
ENDBRANCH  77  80
ENDBRANCH  75  76
ENDBRANCH  74  75
ENDBRANCH   1  74
TORSDOF 20
ENDMDL
MODEL 2
REMARK VINA RESULT:     -11.2      5.586     12.171
REMARK SMILES O=C(NCCCCCCNC(=O)[C@@H]1CCCC[C@@H]1C(=O)Nc1ccccc1C(=O)N1CCN(c2ccc(F)cc2)CC1)c1ccc(-c2c3nc(c(-c4cccc(S(=O)(=O)[O-])c4F)c4ccc([nH]4)c(-c4cccc(S(=O)(=O)[O-])c4F)c4nc(c(-c5cccc(S(=O)(=O)[O-])c5F)c5ccc2[nH]5)C=C4)C=C3)cc1
REMARK SMILES IDX 7 1 6 2 5 3 4 4 3 5 1 6 2 7 43 9 44 10 105 11 45 12 104 13
REMARK SMILES IDX 46 14 47 15 48 16 98 17 49 18 103 19 97 20 99 21 50 22
REMARK SMILES IDX 102 23 96 24 95 25 51 27 83 28 63 29 82 30 64 31 67 32 81 33
REMARK SMILES IDX 100 34 65 35 66 36 80 38 101 39 68 40 52 41 53 42 61 43
REMARK SMILES IDX 54 44 56 45 62 46 55 47 57 48 58 49 59 50 60 51 84 52 85 53
REMARK SMILES IDX 93 54 86 55 88 56 94 57 87 58 89 59 90 60 91 61 92 62 69 63
REMARK SMILES IDX 70 64 78 65 71 66 73 67 79 68 72 69 74 70 75 71 76 72 77 73
REMARK SMILES IDX 8 74 9 75 10 76 11 77 12 79 13 80 14 81 18 82 15 83 17 84
REMARK SMILES IDX 16 85 19 86 20 87 21 88 22 90 23 91 27 92 24 93 26 94 25 95
REMARK SMILES IDX 28 96 29 97 30 98 31 99 42 100 32 101 41 102 33 103 34 104
REMARK SMILES IDX 35 105 40 106 36 107 39 108 37 109 38 110
REMARK H PARENT 3 8 99 26 67 37 10 78 21 89
REMARK Flexibility Score: inf
ROOT
ATOM      1  C   UNL A   1      35.736  30.661  28.146  1.00  0.00     0.002 C 
ENDROOT
BRANCH   1   2
ATOM      2  C   UNL A   1      35.635  32.177  28.009  1.00  0.00     0.002 C 
BRANCH   2   3
ATOM      3  C   UNL A   1      34.231  32.776  28.044  1.00  0.00     0.021 C 
BRANCH   3   4
ATOM      4  C   UNL A   1      34.178  34.293  27.990  1.00  0.00     0.116 C 
BRANCH   4   5
ATOM      5  N   UNL A   1      33.183  34.872  28.874  1.00  0.00    -0.352 N 
ATOM      6  O   UNL A   1      32.268  35.425  30.863  1.00  0.00    -0.269 OA
ATOM      7  C   UNL A   1      33.217  34.957  30.246  1.00  0.00     0.251 C 
ATOM      8  H   UNL A   1      32.385  35.250  28.438  1.00  0.00     0.163 HD
BRANCH   7   9
ATOM      9  C   UNL A   1      34.397  34.418  30.957  1.00  0.00     0.039 A 
ATOM     10  C   UNL A   1      35.643  35.038  30.837  1.00  0.00     0.014 A 
ATOM     11  C   UNL A   1      34.259  33.234  31.683  1.00  0.00     0.014 A 
ATOM     12  C   UNL A   1      36.779  34.393  31.309  1.00  0.00     0.010 A 
ATOM     13  C   UNL A   1      35.392  32.634  32.236  1.00  0.00     0.010 A 
ATOM     14  C   UNL A   1      36.663  33.188  32.020  1.00  0.00    -0.014 A 
BRANCH  14  15
ATOM     15  C   UNL A   1      37.875  32.547  32.587  1.00  0.00     0.031 A 
ATOM     16  C   UNL A   1      38.598  31.458  31.844  1.00  0.00     0.074 A 
ATOM     17  C   UNL A   1      38.302  32.942  33.801  1.00  0.00     0.049 A 
ATOM     18  N   UNL A   1      39.626  30.747  32.226  1.00  0.00    -0.248 NA
ATOM     19  C   UNL A   1      38.096  31.112  30.503  1.00  0.00     0.031 C 
ATOM     20  C   UNL A   1      37.655  33.967  34.624  1.00  0.00     0.029 A 
ATOM     21  N   UNL A   1      39.364  32.527  34.561  1.00  0.00    -0.354 N 
ATOM     22  C   UNL A   1      39.863  29.834  31.205  1.00  0.00     0.074 A 
ATOM     23  C   UNL A   1      38.872  30.086  30.180  1.00  0.00     0.031 C 
ATOM     24  C   UNL A   1      38.340  34.113  35.766  1.00  0.00     0.029 A 
ATOM     25  C   UNL A   1      39.435  33.151  35.784  1.00  0.00     0.049 A 
ATOM     26  H   UNL A   1      40.011  31.849  34.261  1.00  0.00     0.167 HD
ATOM     27  C   UNL A   1      40.823  28.882  31.127  1.00  0.00     0.034 A 
ATOM     28  C   UNL A   1      40.270  32.953  36.822  1.00  0.00     0.034 A 
ATOM     29  C   UNL A   1      41.833  28.676  32.133  1.00  0.00     0.049 A 
ATOM     30  C   UNL A   1      41.350  31.921  36.693  1.00  0.00     0.074 A 
ATOM     31  C   UNL A   1      42.886  27.779  32.122  1.00  0.00     0.029 A 
ATOM     32  N   UNL A   1      41.915  29.376  33.328  1.00  0.00    -0.354 N 
ATOM     33  N   UNL A   1      41.619  31.138  35.675  1.00  0.00    -0.248 NA
ATOM     34  C   UNL A   1      42.254  31.758  37.837  1.00  0.00     0.031 C 
ATOM     35  C   UNL A   1      43.603  27.933  33.315  1.00  0.00     0.029 A 
ATOM     36  C   UNL A   1      43.001  28.933  34.063  1.00  0.00     0.049 A 
ATOM     37  H   UNL A   1      41.293  30.084  33.611  1.00  0.00     0.167 HD
ATOM     38  C   UNL A   1      42.736  30.403  36.048  1.00  0.00     0.074 A 
ATOM     39  C   UNL A   1      43.107  30.852  37.375  1.00  0.00     0.031 C 
ATOM     40  C   UNL A   1      43.384  29.430  35.361  1.00  0.00     0.034 A 
BRANCH  27  41
ATOM     41  C   UNL A   1      40.856  28.014  29.897  1.00  0.00     0.023 A 
ATOM     42  C   UNL A   1      39.982  26.913  29.799  1.00  0.00     0.012 A 
ATOM     43  C   UNL A   1      41.706  28.318  28.815  1.00  0.00     0.148 A 
ATOM     44  C   UNL A   1      39.969  26.113  28.657  1.00  0.00     0.002 A 
ATOM     45  C   UNL A   1      41.662  27.536  27.664  1.00  0.00     0.091 A 
ATOM     46  F   UNL A   1      42.551  29.351  28.933  1.00  0.00    -0.205 F 
ATOM     47  C   UNL A   1      40.801  26.430  27.586  1.00  0.00     0.022 A 
BRANCH  45  48
ATOM     48  S   UNL A   1      42.651  27.916  26.212  1.00  0.00     0.127 S 
ATOM     49  O   UNL A   1      43.923  27.277  26.545  1.00  0.00    -0.237 OA
ATOM     50  O   UNL A   1      41.903  27.257  25.140  1.00  0.00    -0.237 OA
ATOM     51  O   UNL A   1      42.675  29.369  26.122  1.00  0.00    -0.744 OA
ENDBRANCH  45  48
ENDBRANCH  27  41
BRANCH  28  52
ATOM     52  C   UNL A   1      40.126  33.797  38.039  1.00  0.00     0.023 A 
ATOM     53  C   UNL A   1      40.779  35.042  38.099  1.00  0.00     0.012 A 
ATOM     54  C   UNL A   1      39.261  33.422  39.087  1.00  0.00     0.148 A 
ATOM     55  C   UNL A   1      40.580  35.896  39.183  1.00  0.00     0.002 A 
ATOM     56  C   UNL A   1      39.019  34.304  40.134  1.00  0.00     0.091 A 
ATOM     57  F   UNL A   1      38.660  32.226  39.019  1.00  0.00    -0.205 F 
ATOM     58  C   UNL A   1      39.689  35.536  40.191  1.00  0.00     0.022 A 
BRANCH  56  59
ATOM     59  S   UNL A   1      37.766  33.986  41.381  1.00  0.00     0.127 S 
ATOM     60  O   UNL A   1      38.467  33.077  42.284  1.00  0.00    -0.237 OA
ATOM     61  O   UNL A   1      37.527  35.326  41.920  1.00  0.00    -0.237 OA
ATOM     62  O   UNL A   1      36.634  33.422  40.661  1.00  0.00    -0.744 OA
ENDBRANCH  56  59
ENDBRANCH  28  52
BRANCH  40  63
ATOM     63  C   UNL A   1      44.576  28.796  36.022  1.00  0.00     0.023 A 
ATOM     64  C   UNL A   1      45.865  29.297  35.759  1.00  0.00     0.012 A 
ATOM     65  C   UNL A   1      44.411  27.756  36.957  1.00  0.00     0.148 A 
ATOM     66  C   UNL A   1      46.978  28.757  36.402  1.00  0.00     0.002 A 
ATOM     67  C   UNL A   1      45.520  27.250  37.624  1.00  0.00     0.091 A 
ATOM     68  F   UNL A   1      43.176  27.278  37.174  1.00  0.00    -0.205 F 
ATOM     69  C   UNL A   1      46.805  27.744  37.342  1.00  0.00     0.022 A 
BRANCH  67  70
ATOM     70  S   UNL A   1      45.377  26.006  38.912  1.00  0.00     0.127 S 
ATOM     71  O   UNL A   1      44.393  26.614  39.806  1.00  0.00    -0.237 OA
ATOM     72  O   UNL A   1      44.891  24.841  38.170  1.00  0.00    -0.237 OA
ATOM     73  O   UNL A   1      46.716  25.850  39.464  1.00  0.00    -0.744 OA
ENDBRANCH  67  70
ENDBRANCH  40  63
ENDBRANCH  14  15
ENDBRANCH   7   9
ENDBRANCH   4   5
ENDBRANCH   3   4
ENDBRANCH   2   3
ENDBRANCH   1   2
BRANCH   1  74
ATOM     74  C   UNL A   1      34.934  29.850  27.122  1.00  0.00     0.021 C 
BRANCH  74  75
ATOM     75  C   UNL A   1      33.483  30.283  26.950  1.00  0.00     0.116 C 
BRANCH  75  76
ATOM     76  N   UNL A   1      32.569  29.393  27.620  1.00  0.00    -0.356 N 
ATOM     77  C   UNL A   1      31.965  28.270  27.168  1.00  0.00     0.223 C 
ATOM     78  H   UNL A   1      32.351  29.640  28.547  1.00  0.00     0.163 HD
ATOM     79  O   UNL A   1      31.043  27.835  27.861  1.00  0.00    -0.275 OA
BRANCH  77  80
ATOM     80  C   UNL A   1      32.276  27.698  25.790  1.00  0.00     0.091 C 
ATOM     81  C   UNL A   1      31.135  28.074  24.814  1.00  0.00     0.014 C 
ATOM     82  C   UNL A   1      32.814  26.256  25.637  1.00  0.00     0.091 C 
ATOM     83  C   UNL A   1      31.406  27.703  23.361  1.00  0.00     0.001 C 
ATOM     84  C   UNL A   1      33.157  26.073  24.121  1.00  0.00     0.014 C 
ATOM     85  C   UNL A   1      31.948  26.294  23.209  1.00  0.00     0.001 C 
BRANCH  82  86
ATOM     86  C   UNL A   1      32.103  24.956  26.099  1.00  0.00     0.228 C 
ATOM     87  O   UNL A   1      31.668  24.894  27.260  1.00  0.00    -0.274 OA
ATOM     88  N   UNL A   1      31.494  24.094  25.245  1.00  0.00    -0.325 N 
ATOM     89  H   UNL A   1      30.525  24.258  25.189  1.00  0.00     0.169 HD
BRANCH  88  90
ATOM     90  C   UNL A   1      31.894  23.022  24.416  1.00  0.00     0.054 A 
ATOM     91  C   UNL A   1      30.978  22.779  23.364  1.00  0.00     0.027 A 
ATOM     92  C   UNL A   1      32.999  22.163  24.514  1.00  0.00     0.063 A 
ATOM     93  C   UNL A   1      31.213  21.820  22.376  1.00  0.00     0.002 A 
ATOM     94  C   UNL A   1      33.271  21.250  23.469  1.00  0.00     0.016 A 
ATOM     95  C   UNL A   1      32.389  21.087  22.401  1.00  0.00     0.001 A 
BRANCH  92  96
ATOM     96  C   UNL A   1      33.780  21.878  25.747  1.00  0.00     0.256 C 
ATOM     97  O   UNL A   1      33.235  21.723  26.829  1.00  0.00    -0.269 OA
ATOM     98  N   UNL A   1      35.141  22.088  25.623  1.00  0.00    -0.335 N 
ATOM     99  C   UNL A   1      36.017  20.954  25.807  1.00  0.00     0.141 C 
ATOM    100  C   UNL A   1      35.744  23.327  26.123  1.00  0.00     0.141 C 
ATOM    101  C   UNL A   1      37.237  21.167  24.918  1.00  0.00     0.138 C 
ATOM    102  C   UNL A   1      37.205  23.553  25.629  1.00  0.00     0.138 C 
ATOM    103  N   UNL A   1      37.987  22.313  25.447  1.00  0.00    -0.368 N 
BRANCH 103 104
ATOM    104  C   UNL A   1      39.129  21.943  26.126  1.00  0.00     0.037 A 
ATOM    105  C   UNL A   1      39.761  22.900  26.947  1.00  0.00     0.029 A 
ATOM    106  C   UNL A   1      39.777  20.726  25.911  1.00  0.00     0.029 A 
ATOM    107  C   UNL A   1      41.025  22.684  27.485  1.00  0.00     0.041 A 
ATOM    108  C   UNL A   1      41.050  20.502  26.449  1.00  0.00     0.041 A 
ATOM    109  C   UNL A   1      41.665  21.486  27.219  1.00  0.00     0.123 A 
ATOM    110  F   UNL A   1      42.900  21.281  27.694  1.00  0.00    -0.207 F 
ENDBRANCH 103 104
ENDBRANCH  92  96
ENDBRANCH  88  90
ENDBRANCH  82  86
ENDBRANCH  77  80
ENDBRANCH  75  76
ENDBRANCH  74  75
ENDBRANCH   1  74
TORSDOF 20
ENDMDL
MODEL 3
REMARK VINA RESULT:     -10.7      1.765      2.115
REMARK SMILES O=C(NCCCCCCNC(=O)[C@@H]1CCCC[C@@H]1C(=O)Nc1ccccc1C(=O)N1CCN(c2ccc(F)cc2)CC1)c1ccc(-c2c3nc(c(-c4cccc(S(=O)(=O)[O-])c4F)c4ccc([nH]4)c(-c4cccc(S(=O)(=O)[O-])c4F)c4nc(c(-c5cccc(S(=O)(=O)[O-])c5F)c5ccc2[nH]5)C=C4)C=C3)cc1
REMARK SMILES IDX 7 1 6 2 5 3 4 4 3 5 1 6 2 7 43 9 44 10 105 11 45 12 104 13
REMARK SMILES IDX 46 14 47 15 48 16 98 17 49 18 103 19 97 20 99 21 50 22
REMARK SMILES IDX 102 23 96 24 95 25 51 27 83 28 63 29 82 30 64 31 67 32 81 33
REMARK SMILES IDX 100 34 65 35 66 36 80 38 101 39 68 40 52 41 53 42 61 43
REMARK SMILES IDX 54 44 56 45 62 46 55 47 57 48 58 49 59 50 60 51 84 52 85 53
REMARK SMILES IDX 93 54 86 55 88 56 94 57 87 58 89 59 90 60 91 61 92 62 69 63
REMARK SMILES IDX 70 64 78 65 71 66 73 67 79 68 72 69 74 70 75 71 76 72 77 73
REMARK SMILES IDX 8 74 9 75 10 76 11 77 12 79 13 80 14 81 18 82 15 83 17 84
REMARK SMILES IDX 16 85 19 86 20 87 21 88 22 90 23 91 27 92 24 93 26 94 25 95
REMARK SMILES IDX 28 96 29 97 30 98 31 99 42 100 32 101 41 102 33 103 34 104
REMARK SMILES IDX 35 105 40 106 36 107 39 108 37 109 38 110
REMARK H PARENT 3 8 99 26 67 37 10 78 21 89
REMARK Flexibility Score: inf
ROOT
ATOM      1  C   UNL A   1      38.904  22.363  26.086  1.00  0.00     0.002 C 
ENDROOT
BRANCH   1   2
ATOM      2  C   UNL A   1      40.284  21.856  26.496  1.00  0.00     0.002 C 
BRANCH   2   3
ATOM      3  C   UNL A   1      40.544  20.361  26.322  1.00  0.00     0.021 C 
BRANCH   3   4
ATOM      4  C   UNL A   1      41.951  19.909  26.671  1.00  0.00     0.116 C 
BRANCH   4   5
ATOM      5  N   UNL A   1      42.671  19.332  25.550  1.00  0.00    -0.352 N 
ATOM      6  O   UNL A   1      44.168  19.302  23.860  1.00  0.00    -0.269 OA
ATOM      7  C   UNL A   1      43.695  19.893  24.823  1.00  0.00     0.251 C 
ATOM      8  H   UNL A   1      42.392  18.429  25.276  1.00  0.00     0.163 HD
BRANCH   7   9
ATOM      9  C   UNL A   1      44.167  21.244  25.196  1.00  0.00     0.039 A 
ATOM     10  C   UNL A   1      44.963  21.430  26.330  1.00  0.00     0.014 A 
ATOM     11  C   UNL A   1      43.736  22.337  24.443  1.00  0.00     0.014 A 
ATOM     12  C   UNL A   1      45.197  22.716  26.799  1.00  0.00     0.010 A 
ATOM     13  C   UNL A   1      44.051  23.628  24.868  1.00  0.00     0.010 A 
ATOM     14  C   UNL A   1      44.750  23.828  26.068  1.00  0.00    -0.014 A 
BRANCH  14  15
ATOM     15  C   UNL A   1      45.073  25.198  26.539  1.00  0.00     0.031 A 
ATOM     16  C   UNL A   1      44.030  26.060  27.193  1.00  0.00     0.074 A 
ATOM     17  C   UNL A   1      46.318  25.668  26.340  1.00  0.00     0.049 A 
ATOM     18  N   UNL A   1      44.126  27.300  27.597  1.00  0.00    -0.248 NA
ATOM     19  C   UNL A   1      42.703  25.460  27.415  1.00  0.00     0.031 C 
ATOM     20  C   UNL A   1      47.399  24.927  25.684  1.00  0.00     0.029 A 
ATOM     21  N   UNL A   1      46.886  26.875  26.653  1.00  0.00    -0.354 N 
ATOM     22  C   UNL A   1      42.865  27.649  28.067  1.00  0.00     0.074 A 
ATOM     23  C   UNL A   1      42.020  26.485  27.905  1.00  0.00     0.031 C 
ATOM     24  C   UNL A   1      48.502  25.687  25.656  1.00  0.00     0.029 A 
ATOM     25  C   UNL A   1      48.190  26.989  26.235  1.00  0.00     0.049 A 
ATOM     26  H   UNL A   1      46.406  27.590  27.130  1.00  0.00     0.167 HD
ATOM     27  C   UNL A   1      42.456  28.828  28.594  1.00  0.00     0.034 A 
ATOM     28  C   UNL A   1      49.039  28.033  26.283  1.00  0.00     0.034 A 
ATOM     29  C   UNL A   1      43.321  29.962  28.794  1.00  0.00     0.049 A 
ATOM     30  C   UNL A   1      48.572  29.314  26.908  1.00  0.00     0.074 A 
ATOM     31  C   UNL A   1      43.019  31.181  29.375  1.00  0.00     0.029 A 
ATOM     32  N   UNL A   1      44.656  30.015  28.422  1.00  0.00    -0.354 N 
ATOM     33  N   UNL A   1      47.405  29.589  27.439  1.00  0.00    -0.248 NA
ATOM     34  C   UNL A   1      49.538  30.417  26.963  1.00  0.00     0.031 C 
ATOM     35  C   UNL A   1      44.172  31.975  29.347  1.00  0.00     0.029 A 
ATOM     36  C   UNL A   1      45.194  31.245  28.759  1.00  0.00     0.049 A 
ATOM     37  H   UNL A   1      45.149  29.285  27.982  1.00  0.00     0.167 HD
ATOM     38  C   UNL A   1      47.501  30.892  27.911  1.00  0.00     0.074 A 
ATOM     39  C   UNL A   1      48.849  31.340  27.624  1.00  0.00     0.031 C 
ATOM     40  C   UNL A   1      46.553  31.653  28.511  1.00  0.00     0.034 A 
BRANCH  27  41
ATOM     41  C   UNL A   1      41.018  28.944  29.027  1.00  0.00     0.023 A 
ATOM     42  C   UNL A   1      40.004  29.040  28.055  1.00  0.00     0.012 A 
ATOM     43  C   UNL A   1      40.664  28.900  30.391  1.00  0.00     0.148 A 
ATOM     44  C   UNL A   1      38.662  29.115  28.429  1.00  0.00     0.002 A 
ATOM     45  C   UNL A   1      39.322  28.939  30.756  1.00  0.00     0.091 A 
ATOM     46  F   UNL A   1      41.641  28.836  31.306  1.00  0.00    -0.205 F 
ATOM     47  C   UNL A   1      38.321  29.055  29.778  1.00  0.00     0.022 A 
BRANCH  45  48
ATOM     48  S   UNL A   1      38.791  28.797  32.467  1.00  0.00     0.127 S 
ATOM     49  O   UNL A   1      37.403  28.366  32.311  1.00  0.00    -0.237 OA
ATOM     50  O   UNL A   1      39.690  27.768  32.992  1.00  0.00    -0.237 OA
ATOM     51  O   UNL A   1      38.983  30.117  33.049  1.00  0.00    -0.744 OA
ENDBRANCH  45  48
ENDBRANCH  27  41
BRANCH  28  52
ATOM     52  C   UNL A   1      50.422  27.868  25.760  1.00  0.00     0.023 A 
ATOM     53  C   UNL A   1      50.691  28.165  24.411  1.00  0.00     0.012 A 
ATOM     54  C   UNL A   1      51.488  27.524  26.615  1.00  0.00     0.148 A 
ATOM     55  C   UNL A   1      51.995  28.115  23.920  1.00  0.00     0.002 A 
ATOM     56  C   UNL A   1      52.792  27.538  26.135  1.00  0.00     0.091 A 
ATOM     57  F   UNL A   1      51.210  27.231  27.893  1.00  0.00    -0.205 F 
ATOM     58  C   UNL A   1      53.046  27.819  24.784  1.00  0.00     0.022 A 
BRANCH  56  59
ATOM     59  S   UNL A   1      54.212  27.329  27.216  1.00  0.00     0.127 S 
ATOM     60  O   UNL A   1      54.083  25.928  27.611  1.00  0.00    -0.237 OA
ATOM     61  O   UNL A   1      55.327  27.615  26.312  1.00  0.00    -0.237 OA
ATOM     62  O   UNL A   1      54.039  28.309  28.279  1.00  0.00    -0.744 OA
ENDBRANCH  56  59
ENDBRANCH  28  52
BRANCH  40  63
ATOM     63  C   UNL A   1      46.944  33.047  28.916  1.00  0.00     0.023 A 
ATOM     64  C   UNL A   1      46.729  34.116  28.025  1.00  0.00     0.012 A 
ATOM     65  C   UNL A   1      47.453  33.306  30.203  1.00  0.00     0.148 A 
ATOM     66  C   UNL A   1      47.036  35.422  28.402  1.00  0.00     0.002 A 
ATOM     67  C   UNL A   1      47.719  34.615  30.586  1.00  0.00     0.091 A 
ATOM     68  F   UNL A   1      47.673  32.269  31.026  1.00  0.00    -0.205 F 
ATOM     69  C   UNL A   1      47.519  35.674  29.684  1.00  0.00     0.022 A 
BRANCH  67  70
ATOM     70  S   UNL A   1      48.260  35.035  32.247  1.00  0.00     0.127 S 
ATOM     71  O   UNL A   1      47.724  33.920  33.026  1.00  0.00    -0.237 OA
ATOM     72  O   UNL A   1      49.718  35.040  32.110  1.00  0.00    -0.237 OA
ATOM     73  O   UNL A   1      47.680  36.340  32.535  1.00  0.00    -0.744 OA
ENDBRANCH  67  70
ENDBRANCH  40  63
ENDBRANCH  14  15
ENDBRANCH   7   9
ENDBRANCH   4   5
ENDBRANCH   3   4
ENDBRANCH   2   3
ENDBRANCH   1   2
BRANCH   1  74
ATOM     74  C   UNL A   1      38.039  21.366  25.308  1.00  0.00     0.021 C 
BRANCH  74  75
ATOM     75  C   UNL A   1      36.536  21.599  25.409  1.00  0.00     0.116 C 
BRANCH  75  76
ATOM     76  N   UNL A   1      36.223  22.944  25.823  1.00  0.00    -0.356 N 
ATOM     77  C   UNL A   1      35.114  23.685  25.593  1.00  0.00     0.223 C 
ATOM     78  H   UNL A   1      36.921  23.390  26.354  1.00  0.00     0.163 HD
ATOM     79  O   UNL A   1      35.205  24.886  25.852  1.00  0.00    -0.275 OA
BRANCH  77  80
ATOM     80  C   UNL A   1      33.902  23.103  24.876  1.00  0.00     0.091 C 
ATOM     81  C   UNL A   1      33.705  23.841  23.529  1.00  0.00     0.014 C 
ATOM     82  C   UNL A   1      32.597  22.801  25.648  1.00  0.00     0.091 C 
ATOM     83  C   UNL A   1      32.625  23.242  22.639  1.00  0.00     0.001 C 
ATOM     84  C   UNL A   1      31.642  22.084  24.637  1.00  0.00     0.014 C 
ATOM     85  C   UNL A   1      31.348  22.930  23.397  1.00  0.00     0.001 C 
BRANCH  82  86
ATOM     86  C   UNL A   1      31.735  23.827  26.432  1.00  0.00     0.228 C 
ATOM     87  O   UNL A   1      31.451  23.587  27.616  1.00  0.00    -0.274 OA
ATOM     88  N   UNL A   1      31.674  25.147  26.118  1.00  0.00    -0.325 N 
ATOM     89  H   UNL A   1      32.291  25.682  26.667  1.00  0.00     0.169 HD
BRANCH  88  90
ATOM     90  C   UNL A   1      30.954  25.948  25.204  1.00  0.00     0.054 A 
ATOM     91  C   UNL A   1      29.777  25.313  24.737  1.00  0.00     0.027 A 
ATOM     92  C   UNL A   1      31.253  27.212  24.674  1.00  0.00     0.063 A 
ATOM     93  C   UNL A   1      28.870  25.953  23.888  1.00  0.00     0.002 A 
ATOM     94  C   UNL A   1      30.294  27.883  23.881  1.00  0.00     0.016 A 
ATOM     95  C   UNL A   1      29.104  27.262  23.499  1.00  0.00     0.001 A 
BRANCH  92  96
ATOM     96  C   UNL A   1      32.602  27.832  24.594  1.00  0.00     0.256 C 
ATOM     97  O   UNL A   1      33.455  27.413  23.825  1.00  0.00    -0.269 OA
ATOM     98  N   UNL A   1      32.897  28.696  25.631  1.00  0.00    -0.335 N 
ATOM     99  C   UNL A   1      33.157  30.079  25.302  1.00  0.00     0.141 C 
ATOM    100  C   UNL A   1      33.715  28.243  26.759  1.00  0.00     0.141 C 
ATOM    101  C   UNL A   1      32.687  30.928  26.477  1.00  0.00     0.138 C 
ATOM    102  C   UNL A   1      33.688  29.213  27.979  1.00  0.00     0.138 C 
ATOM    103  N   UNL A   1      33.561  30.640  27.621  1.00  0.00    -0.368 N 
BRANCH 103 104
ATOM    104  C   UNL A   1      34.474  31.645  27.867  1.00  0.00     0.037 A 
ATOM    105  C   UNL A   1      35.830  31.292  28.028  1.00  0.00     0.029 A 
ATOM    106  C   UNL A   1      34.099  32.963  28.126  1.00  0.00     0.029 A 
ATOM    107  C   UNL A   1      36.773  32.202  28.494  1.00  0.00     0.041 A 
ATOM    108  C   UNL A   1      35.043  33.884  28.596  1.00  0.00     0.041 A 
ATOM    109  C   UNL A   1      36.365  33.491  28.786  1.00  0.00     0.123 A 
ATOM    110  F   UNL A   1      37.252  34.367  29.277  1.00  0.00    -0.207 F 
ENDBRANCH 103 104
ENDBRANCH  92  96
ENDBRANCH  88  90
ENDBRANCH  82  86
ENDBRANCH  77  80
ENDBRANCH  75  76
ENDBRANCH  74  75
ENDBRANCH   1  74
TORSDOF 20
ENDMDL
