MODEL 1
REMARK VINA RESULT:     -10.0      0.000      0.000
REMARK SMILES CC(C)[C@@H](C[NH+](C)C)C(=O)NCCCCCCNC(=O)c1ccc(-c2c3nc(c(-c4cccc(S(=O)(=O)[O-])c4F)c4ccc([nH]4)c(-c4cccc(S(=O)(=O)[O-])c4F)c4nc(c(-c5cccc(S(=O)(=O)[O-])c5F)c5ccc2[nH]5)C=C4)C=C3)cc1
REMARK SMILES IDX 15 1 14 2 13 3 12 4 11 5 9 6 10 7 4 9 2 10 1 11 3 12 5 13
REMARK SMILES IDX 6 14 7 15 8 16 16 18 17 19 18 20 19 21 20 23 21 24 22 25
REMARK SMILES IDX 83 26 23 27 82 28 24 29 25 30 26 31 76 32 27 33 81 34 75 35
REMARK SMILES IDX 77 36 28 37 80 38 74 39 73 40 29 42 61 43 41 44 60 45 42 46
REMARK SMILES IDX 45 47 59 48 78 49 43 50 44 51 58 53 79 54 46 55 30 56 31 57
REMARK SMILES IDX 39 58 32 59 34 60 40 61 33 62 35 63 36 64 37 65 38 66 62 67
REMARK SMILES IDX 63 68 71 69 64 70 66 71 72 72 65 73 67 74 68 75 69 76 70 77
REMARK SMILES IDX 47 78 48 79 56 80 49 81 51 82 57 83 50 84 52 85 53 86 54 87
REMARK SMILES IDX 55 88
REMARK H PARENT 11 8 6 17 18 22 77 41 45 52
REMARK Flexibility Score: inf
ROOT
ATOM      1  C   UNL A   1      36.417  23.066  23.462  1.00  0.00     0.002 C 
ENDROOT
BRANCH   1   2
ATOM      2  C   UNL A   1      34.966  23.476  23.733  1.00  0.00     0.002 C 
BRANCH   2   3
ATOM      3  C   UNL A   1      34.737  24.360  24.958  1.00  0.00     0.021 C 
BRANCH   3   4
ATOM      4  C   UNL A   1      33.967  25.647  24.695  1.00  0.00     0.116 C 
BRANCH   4   5
ATOM      5  N   UNL A   1      33.007  25.959  25.730  1.00  0.00    -0.356 N 
ATOM      6  C   UNL A   1      32.034  26.910  25.734  1.00  0.00     0.229 C 
ATOM      7  O   UNL A   1      31.221  26.882  26.665  1.00  0.00    -0.275 OA
ATOM      8  H   UNL A   1      33.065  25.408  26.543  1.00  0.00     0.163 HD
BRANCH   6   9
ATOM      9  C   UNL A   1      31.940  28.016  24.671  1.00  0.00     0.136 C 
BRANCH   9  10
ATOM     10  C   UNL A   1      30.559  28.109  23.970  1.00  0.00     0.001 C 
ATOM     11  C   UNL A   1      30.117  29.564  23.768  1.00  0.00     0.008 C 
ATOM     12  C   UNL A   1      30.582  27.421  22.595  1.00  0.00     0.008 C 
ENDBRANCH   9  10
BRANCH   9  13
ATOM     13  C   UNL A   1      32.656  29.321  25.125  1.00  0.00     0.275 C 
BRANCH  13  14
ATOM     14  N   UNL A   1      32.873  29.584  26.559  1.00  0.00    -0.339 N 
ATOM     15  C   UNL A   1      34.299  29.467  26.894  1.00  0.00     0.332 C 
ATOM     16  C   UNL A   1      32.408  30.904  26.991  1.00  0.00     0.332 C 
ATOM     17  H   UNL A   1      32.320  28.882  27.052  1.00  0.00     0.347 HD
ENDBRANCH  13  14
ENDBRANCH   9  13
ENDBRANCH   6   9
ENDBRANCH   4   5
ENDBRANCH   3   4
ENDBRANCH   2   3
ENDBRANCH   1   2
BRANCH   1  18
ATOM     18  C   UNL A   1      36.872  21.734  24.067  1.00  0.00     0.021 C 
BRANCH  18  19
ATOM     19  C   UNL A   1      37.255  21.765  25.545  1.00  0.00     0.116 C 
BRANCH  19  20
ATOM     20  N   UNL A   1      38.303  20.815  25.872  1.00  0.00    -0.352 N 
ATOM     21  C   UNL A   1      39.574  21.028  26.343  1.00  0.00     0.251 C 
ATOM     22  H   UNL A   1      38.065  19.870  25.734  1.00  0.00     0.163 HD
ATOM     23  O   UNL A   1      40.356  20.081  26.413  1.00  0.00    -0.269 OA
BRANCH  21  24
ATOM     24  C   UNL A   1      40.018  22.380  26.748  1.00  0.00     0.039 A 
ATOM     25  C   UNL A   1      40.995  22.489  27.742  1.00  0.00     0.014 A 
ATOM     26  C   UNL A   1      39.462  23.534  26.188  1.00  0.00     0.014 A 
ATOM     27  C   UNL A   1      41.451  23.750  28.136  1.00  0.00     0.010 A 
ATOM     28  C   UNL A   1      39.962  24.790  26.537  1.00  0.00     0.010 A 
ATOM     29  C   UNL A   1      40.959  24.911  27.517  1.00  0.00    -0.014 A 
BRANCH  29  30
ATOM     30  C   UNL A   1      41.511  26.246  27.862  1.00  0.00     0.031 A 
ATOM     31  C   UNL A   1      42.913  26.629  27.473  1.00  0.00     0.074 A 
ATOM     32  C   UNL A   1      40.762  27.098  28.592  1.00  0.00     0.049 A 
ATOM     33  N   UNL A   1      43.550  27.751  27.691  1.00  0.00    -0.248 NA
ATOM     34  C   UNL A   1      43.712  25.613  26.769  1.00  0.00     0.031 C 
ATOM     35  C   UNL A   1      39.422  26.811  29.109  1.00  0.00     0.029 A 
ATOM     36  N   UNL A   1      41.028  28.366  29.043  1.00  0.00    -0.354 N 
ATOM     37  C   UNL A   1      44.829  27.569  27.179  1.00  0.00     0.074 A 
ATOM     38  C   UNL A   1      44.889  26.216  26.668  1.00  0.00     0.031 C 
ATOM     39  C   UNL A   1      38.981  27.874  29.801  1.00  0.00     0.029 A 
ATOM     40  C   UNL A   1      40.010  28.909  29.793  1.00  0.00     0.049 A 
ATOM     41  H   UNL A   1      41.867  28.842  28.850  1.00  0.00     0.167 HD
ATOM     42  C   UNL A   1      45.851  28.456  27.111  1.00  0.00     0.034 A 
ATOM     43  C   UNL A   1      39.913  30.106  30.403  1.00  0.00     0.034 A 
ATOM     44  C   UNL A   1      45.776  29.814  27.581  1.00  0.00     0.049 A 
ATOM     45  C   UNL A   1      41.040  31.093  30.262  1.00  0.00     0.074 A 
ATOM     46  C   UNL A   1      46.724  30.818  27.471  1.00  0.00     0.029 A 
ATOM     47  N   UNL A   1      44.695  30.360  28.256  1.00  0.00    -0.354 N 
ATOM     48  N   UNL A   1      42.173  30.963  29.617  1.00  0.00    -0.248 NA
ATOM     49  C   UNL A   1      40.856  32.406  30.897  1.00  0.00     0.031 C 
ATOM     50  C   UNL A   1      46.222  31.966  28.096  1.00  0.00     0.029 A 
ATOM     51  C   UNL A   1      44.955  31.682  28.580  1.00  0.00     0.049 A 
ATOM     52  H   UNL A   1      43.865  29.879  28.475  1.00  0.00     0.167 HD
ATOM     53  C   UNL A   1      42.827  32.183  29.746  1.00  0.00     0.074 A 
ATOM     54  C   UNL A   1      41.946  33.049  30.503  1.00  0.00     0.031 C 
ATOM     55  C   UNL A   1      44.053  32.548  29.296  1.00  0.00     0.034 A 
BRANCH  42  56
ATOM     56  C   UNL A   1      47.127  28.005  26.446  1.00  0.00     0.023 A 
ATOM     57  C   UNL A   1      48.166  27.471  27.235  1.00  0.00     0.012 A 
ATOM     58  C   UNL A   1      47.275  28.047  25.045  1.00  0.00     0.148 A 
ATOM     59  C   UNL A   1      49.347  27.018  26.646  1.00  0.00     0.002 A 
ATOM     60  C   UNL A   1      48.439  27.555  24.462  1.00  0.00     0.091 A 
ATOM     61  F   UNL A   1      46.287  28.577  24.312  1.00  0.00    -0.205 F 
ATOM     62  C   UNL A   1      49.477  27.050  25.261  1.00  0.00     0.022 A 
BRANCH  60  63
ATOM     63  S   UNL A   1      48.672  27.484  22.682  1.00  0.00     0.127 S 
ATOM     64  O   UNL A   1      49.998  28.084  22.535  1.00  0.00    -0.237 OA
ATOM     65  O   UNL A   1      48.626  26.042  22.422  1.00  0.00    -0.237 OA
ATOM     66  O   UNL A   1      47.574  28.239  22.103  1.00  0.00    -0.744 OA
ENDBRANCH  60  63
ENDBRANCH  42  56
BRANCH  43  67
ATOM     67  C   UNL A   1      38.667  30.465  31.136  1.00  0.00     0.023 A 
ATOM     68  C   UNL A   1      38.530  30.091  32.488  1.00  0.00     0.012 A 
ATOM     69  C   UNL A   1      37.639  31.204  30.521  1.00  0.00     0.148 A 
ATOM     70  C   UNL A   1      37.378  30.420  33.204  1.00  0.00     0.002 A 
ATOM     71  C   UNL A   1      36.519  31.577  31.255  1.00  0.00     0.091 A 
ATOM     72  F   UNL A   1      37.782  31.538  29.230  1.00  0.00    -0.205 F 
ATOM     73  C   UNL A   1      36.379  31.172  32.591  1.00  0.00     0.022 A 
BRANCH  71  74
ATOM     74  S   UNL A   1      35.251  32.659  30.586  1.00  0.00     0.127 S 
ATOM     75  O   UNL A   1      36.007  33.881  30.324  1.00  0.00    -0.237 OA
ATOM     76  O   UNL A   1      34.826  31.929  29.391  1.00  0.00    -0.237 OA
ATOM     77  O   UNL A   1      34.232  32.752  31.622  1.00  0.00    -0.744 OA
ENDBRANCH  71  74
ENDBRANCH  43  67
BRANCH  55  78
ATOM     78  C   UNL A   1      44.515  33.949  29.603  1.00  0.00     0.023 A 
ATOM     79  C   UNL A   1      45.111  34.227  30.850  1.00  0.00     0.012 A 
ATOM     80  C   UNL A   1      44.406  34.976  28.646  1.00  0.00     0.148 A 
ATOM     81  C   UNL A   1      45.555  35.514  31.154  1.00  0.00     0.002 A 
ATOM     82  C   UNL A   1      44.893  36.245  28.938  1.00  0.00     0.091 A 
ATOM     83  F   UNL A   1      43.817  34.700  27.474  1.00  0.00    -0.205 F 
ATOM     84  C   UNL A   1      45.456  36.519  30.195  1.00  0.00     0.022 A 
BRANCH  82  85
ATOM     85  S   UNL A   1      44.888  37.573  27.728  1.00  0.00     0.127 S 
ATOM     86  O   UNL A   1      43.457  37.801  27.540  1.00  0.00    -0.237 OA
ATOM     87  O   UNL A   1      45.588  38.646  28.436  1.00  0.00    -0.237 OA
ATOM     88  O   UNL A   1      45.603  37.054  26.569  1.00  0.00    -0.744 OA
ENDBRANCH  82  85
ENDBRANCH  55  78
ENDBRANCH  29  30
ENDBRANCH  21  24
ENDBRANCH  19  20
ENDBRANCH  18  19
ENDBRANCH   1  18
TORSDOF 19
ENDMDL
MODEL 2
REMARK VINA RESULT:     -10.0      5.150     10.162
REMARK SMILES CC(C)[C@@H](C[NH+](C)C)C(=O)NCCCCCCNC(=O)c1ccc(-c2c3nc(c(-c4cccc(S(=O)(=O)[O-])c4F)c4ccc([nH]4)c(-c4cccc(S(=O)(=O)[O-])c4F)c4nc(c(-c5cccc(S(=O)(=O)[O-])c5F)c5ccc2[nH]5)C=C4)C=C3)cc1
REMARK SMILES IDX 15 1 14 2 13 3 12 4 11 5 9 6 10 7 4 9 2 10 1 11 3 12 5 13
REMARK SMILES IDX 6 14 7 15 8 16 16 18 17 19 18 20 19 21 20 23 21 24 22 25
REMARK SMILES IDX 83 26 23 27 82 28 24 29 25 30 26 31 76 32 27 33 81 34 75 35
REMARK SMILES IDX 77 36 28 37 80 38 74 39 73 40 29 42 61 43 41 44 60 45 42 46
REMARK SMILES IDX 45 47 59 48 78 49 43 50 44 51 58 53 79 54 46 55 30 56 31 57
REMARK SMILES IDX 39 58 32 59 34 60 40 61 33 62 35 63 36 64 37 65 38 66 62 67
REMARK SMILES IDX 63 68 71 69 64 70 66 71 72 72 65 73 67 74 68 75 69 76 70 77
REMARK SMILES IDX 47 78 48 79 56 80 49 81 51 82 57 83 50 84 52 85 53 86 54 87
REMARK SMILES IDX 55 88
REMARK H PARENT 11 8 6 17 18 22 77 41 45 52
REMARK Flexibility Score: inf
ROOT
ATOM      1  C   UNL A   1      31.620  27.379  26.099  1.00  0.00     0.002 C 
ENDROOT
BRANCH   1   2
ATOM      2  C   UNL A   1      30.995  25.982  26.170  1.00  0.00     0.002 C 
BRANCH   2   3
ATOM      3  C   UNL A   1      30.984  25.186  24.865  1.00  0.00     0.021 C 
BRANCH   3   4
ATOM      4  C   UNL A   1      31.032  23.673  25.028  1.00  0.00     0.116 C 
BRANCH   4   5
ATOM      5  N   UNL A   1      31.284  23.253  26.388  1.00  0.00    -0.356 N 
ATOM      6  C   UNL A   1      32.401  22.680  26.912  1.00  0.00     0.229 C 
ATOM      7  O   UNL A   1      32.449  22.560  28.143  1.00  0.00    -0.275 OA
ATOM      8  H   UNL A   1      30.546  23.402  27.022  1.00  0.00     0.163 HD
BRANCH   6   9
ATOM      9  C   UNL A   1      33.555  22.151  26.048  1.00  0.00     0.136 C 
BRANCH   9  10
ATOM     10  C   UNL A   1      34.844  23.012  26.111  1.00  0.00     0.001 C 
ATOM     11  C   UNL A   1      35.941  22.468  25.187  1.00  0.00     0.008 C 
ATOM     12  C   UNL A   1      34.563  24.470  25.713  1.00  0.00     0.008 C 
ENDBRANCH   9  10
BRANCH   9  13
ATOM     13  C   UNL A   1      33.668  20.600  26.114  1.00  0.00     0.275 C 
BRANCH  13  14
ATOM     14  N   UNL A   1      33.345  19.785  24.928  1.00  0.00    -0.339 N 
ATOM     15  C   UNL A   1      32.814  18.476  25.334  1.00  0.00     0.332 C 
ATOM     16  C   UNL A   1      32.374  20.414  24.029  1.00  0.00     0.332 C 
ATOM     17  H   UNL A   1      34.223  19.684  24.419  1.00  0.00     0.347 HD
ENDBRANCH  13  14
ENDBRANCH   9  13
ENDBRANCH   6   9
ENDBRANCH   4   5
ENDBRANCH   3   4
ENDBRANCH   2   3
ENDBRANCH   1   2
BRANCH   1  18
ATOM     18  C   UNL A   1      32.963  27.561  26.815  1.00  0.00     0.021 C 
BRANCH  18  19
ATOM     19  C   UNL A   1      33.956  28.507  26.146  1.00  0.00     0.116 C 
BRANCH  19  20
ATOM     20  N   UNL A   1      33.739  29.896  26.510  1.00  0.00    -0.352 N 
ATOM     21  C   UNL A   1      34.452  30.712  27.351  1.00  0.00     0.251 C 
ATOM     22  H   UNL A   1      32.957  30.319  26.086  1.00  0.00     0.163 HD
ATOM     23  O   UNL A   1      34.004  31.822  27.636  1.00  0.00    -0.269 OA
BRANCH  21  24
ATOM     24  C   UNL A   1      35.737  30.266  27.933  1.00  0.00     0.039 A 
ATOM     25  C   UNL A   1      35.731  29.725  29.222  1.00  0.00     0.014 A 
ATOM     26  C   UNL A   1      36.945  30.407  27.242  1.00  0.00     0.014 A 
ATOM     27  C   UNL A   1      36.924  29.277  29.795  1.00  0.00     0.010 A 
ATOM     28  C   UNL A   1      38.125  29.902  27.790  1.00  0.00     0.010 A 
ATOM     29  C   UNL A   1      38.128  29.336  29.074  1.00  0.00    -0.014 A 
BRANCH  29  30
ATOM     30  C   UNL A   1      39.380  28.771  29.640  1.00  0.00     0.031 A 
ATOM     31  C   UNL A   1      40.011  29.366  30.869  1.00  0.00     0.074 A 
ATOM     32  C   UNL A   1      39.990  27.753  28.999  1.00  0.00     0.049 A 
ATOM     33  N   UNL A   1      41.099  28.998  31.496  1.00  0.00    -0.248 NA
ATOM     34  C   UNL A   1      39.350  30.543  31.457  1.00  0.00     0.031 C 
ATOM     35  C   UNL A   1      39.529  27.147  27.748  1.00  0.00     0.029 A 
ATOM     36  N   UNL A   1      41.138  27.063  29.299  1.00  0.00    -0.354 N 
ATOM     37  C   UNL A   1      41.269  29.907  32.533  1.00  0.00     0.074 A 
ATOM     38  C   UNL A   1      40.191  30.867  32.431  1.00  0.00     0.031 C 
ATOM     39  C   UNL A   1      40.381  26.172  27.392  1.00  0.00     0.029 A 
ATOM     40  C   UNL A   1      41.456  26.096  28.375  1.00  0.00     0.049 A 
ATOM     41  H   UNL A   1      41.682  27.244  30.099  1.00  0.00     0.167 HD
ATOM     42  C   UNL A   1      42.218  29.926  33.500  1.00  0.00     0.034 A 
ATOM     43  C   UNL A   1      42.496  25.240  28.325  1.00  0.00     0.034 A 
ATOM     44  C   UNL A   1      43.264  28.947  33.625  1.00  0.00     0.049 A 
ATOM     45  C   UNL A   1      43.502  25.244  29.443  1.00  0.00     0.074 A 
ATOM     46  C   UNL A   1      44.215  28.824  34.624  1.00  0.00     0.029 A 
ATOM     47  N   UNL A   1      43.505  27.924  32.720  1.00  0.00    -0.354 N 
ATOM     48  N   UNL A   1      43.543  26.000  30.512  1.00  0.00    -0.248 NA
ATOM     49  C   UNL A   1      44.581  24.249  29.368  1.00  0.00     0.031 C 
ATOM     50  C   UNL A   1      45.041  27.738  34.313  1.00  0.00     0.029 A 
ATOM     51  C   UNL A   1      44.595  27.172  33.129  1.00  0.00     0.049 A 
ATOM     52  H   UNL A   1      42.980  27.757  31.905  1.00  0.00     0.167 HD
ATOM     53  C   UNL A   1      44.634  25.558  31.251  1.00  0.00     0.074 A 
ATOM     54  C   UNL A   1      45.207  24.445  30.521  1.00  0.00     0.031 C 
ATOM     55  C   UNL A   1      45.130  26.041  32.417  1.00  0.00     0.034 A 
BRANCH  42  56
ATOM     56  C   UNL A   1      42.131  31.010  34.545  1.00  0.00     0.023 A 
ATOM     57  C   UNL A   1      41.419  30.765  35.737  1.00  0.00     0.012 A 
ATOM     58  C   UNL A   1      42.800  32.239  34.380  1.00  0.00     0.148 A 
ATOM     59  C   UNL A   1      41.345  31.737  36.734  1.00  0.00     0.002 A 
ATOM     60  C   UNL A   1      42.756  33.188  35.397  1.00  0.00     0.091 A 
ATOM     61  F   UNL A   1      43.454  32.464  33.232  1.00  0.00    -0.205 F 
ATOM     62  C   UNL A   1      42.021  32.941  36.569  1.00  0.00     0.022 A 
BRANCH  60  63
ATOM     63  S   UNL A   1      43.655  34.740  35.310  1.00  0.00     0.127 S 
ATOM     64  O   UNL A   1      45.030  34.274  35.128  1.00  0.00    -0.237 OA
ATOM     65  O   UNL A   1      43.066  35.372  34.126  1.00  0.00    -0.237 OA
ATOM     66  O   UNL A   1      43.387  35.430  36.560  1.00  0.00    -0.744 OA
ENDBRANCH  60  63
ENDBRANCH  42  56
BRANCH  43  67
ATOM     67  C   UNL A   1      42.589  24.253  27.212  1.00  0.00     0.023 A 
ATOM     68  C   UNL A   1      43.330  24.582  26.060  1.00  0.00     0.012 A 
ATOM     69  C   UNL A   1      41.987  22.984  27.303  1.00  0.00     0.148 A 
ATOM     70  C   UNL A   1      43.443  23.675  25.005  1.00  0.00     0.002 A 
ATOM     71  C   UNL A   1      42.150  22.065  26.273  1.00  0.00     0.091 A 
ATOM     72  F   UNL A   1      41.274  22.696  28.402  1.00  0.00    -0.205 F 
ATOM     73  C   UNL A   1      42.863  22.414  25.116  1.00  0.00     0.022 A 
BRANCH  71  74
ATOM     74  S   UNL A   1      41.554  20.374  26.394  1.00  0.00     0.127 S 
ATOM     75  O   UNL A   1      42.275  19.724  25.303  1.00  0.00    -0.237 OA
ATOM     76  O   UNL A   1      41.991  19.993  27.737  1.00  0.00    -0.237 OA
ATOM     77  O   UNL A   1      40.108  20.459  26.238  1.00  0.00    -0.744 OA
ENDBRANCH  71  74
ENDBRANCH  43  67
BRANCH  55  78
ATOM     78  C   UNL A   1      46.351  25.363  32.984  1.00  0.00     0.023 A 
ATOM     79  C   UNL A   1      47.630  25.875  32.688  1.00  0.00     0.012 A 
ATOM     80  C   UNL A   1      46.233  24.255  33.844  1.00  0.00     0.148 A 
ATOM     81  C   UNL A   1      48.775  25.271  33.209  1.00  0.00     0.002 A 
ATOM     82  C   UNL A   1      47.375  23.686  34.397  1.00  0.00     0.091 A 
ATOM     83  F   UNL A   1      45.010  23.766  34.097  1.00  0.00    -0.205 F 
ATOM     84  C   UNL A   1      48.647  24.185  34.071  1.00  0.00     0.022 A 
BRANCH  82  85
ATOM     85  S   UNL A   1      47.295  22.343  35.587  1.00  0.00     0.127 S 
ATOM     86  O   UNL A   1      48.706  22.152  35.919  1.00  0.00    -0.237 OA
ATOM     87  O   UNL A   1      46.489  22.923  36.662  1.00  0.00    -0.237 OA
ATOM     88  O   UNL A   1      46.656  21.234  34.890  1.00  0.00    -0.744 OA
ENDBRANCH  82  85
ENDBRANCH  55  78
ENDBRANCH  29  30
ENDBRANCH  21  24
ENDBRANCH  19  20
ENDBRANCH  18  19
ENDBRANCH   1  18
TORSDOF 19
ENDMDL
MODEL 3
REMARK VINA RESULT:      -9.5      5.472     11.101
REMARK SMILES CC(C)[C@@H](C[NH+](C)C)C(=O)NCCCCCCNC(=O)c1ccc(-c2c3nc(c(-c4cccc(S(=O)(=O)[O-])c4F)c4ccc([nH]4)c(-c4cccc(S(=O)(=O)[O-])c4F)c4nc(c(-c5cccc(S(=O)(=O)[O-])c5F)c5ccc2[nH]5)C=C4)C=C3)cc1
REMARK SMILES IDX 15 1 14 2 13 3 12 4 11 5 9 6 10 7 4 9 2 10 1 11 3 12 5 13
REMARK SMILES IDX 6 14 7 15 8 16 16 18 17 19 18 20 19 21 20 23 21 24 22 25
REMARK SMILES IDX 83 26 23 27 82 28 24 29 25 30 26 31 76 32 27 33 81 34 75 35
REMARK SMILES IDX 77 36 28 37 80 38 74 39 73 40 29 42 61 43 41 44 60 45 42 46
REMARK SMILES IDX 45 47 59 48 78 49 43 50 44 51 58 53 79 54 46 55 30 56 31 57
REMARK SMILES IDX 39 58 32 59 34 60 40 61 33 62 35 63 36 64 37 65 38 66 62 67
REMARK SMILES IDX 63 68 71 69 64 70 66 71 72 72 65 73 67 74 68 75 69 76 70 77
REMARK SMILES IDX 47 78 48 79 56 80 49 81 51 82 57 83 50 84 52 85 53 86 54 87
REMARK SMILES IDX 55 88
REMARK H PARENT 11 8 6 17 18 22 77 41 45 52
REMARK Flexibility Score: inf
ROOT
ATOM      1  C   UNL A   1      37.329  33.175  28.747  1.00  0.00     0.002 C 
ENDROOT
BRANCH   1   2
ATOM      2  C   UNL A   1      38.172  34.253  29.436  1.00  0.00     0.002 C 
BRANCH   2   3
ATOM      3  C   UNL A   1      38.152  34.243  30.964  1.00  0.00     0.021 C 
BRANCH   3   4
ATOM      4  C   UNL A   1      39.521  34.267  31.630  1.00  0.00     0.116 C 
BRANCH   4   5
ATOM      5  N   UNL A   1      39.536  34.997  32.877  1.00  0.00    -0.356 N 
ATOM      6  C   UNL A   1      39.007  34.645  34.080  1.00  0.00     0.229 C 
ATOM      7  O   UNL A   1      39.289  35.357  35.052  1.00  0.00    -0.275 OA
ATOM      8  H   UNL A   1      39.991  35.870  32.854  1.00  0.00     0.163 HD
BRANCH   6   9
ATOM      9  C   UNL A   1      38.060  33.448  34.260  1.00  0.00     0.136 C 
BRANCH   9  10
ATOM     10  C   UNL A   1      38.425  32.520  35.448  1.00  0.00     0.001 C 
ATOM     11  C   UNL A   1      37.525  32.768  36.666  1.00  0.00     0.008 C 
ATOM     12  C   UNL A   1      38.303  31.038  35.058  1.00  0.00     0.008 C 
ENDBRANCH   9  10
BRANCH   9  13
ATOM     13  C   UNL A   1      36.572  33.844  34.028  1.00  0.00     0.275 C 
BRANCH  13  14
ATOM     14  N   UNL A   1      35.590  32.821  33.626  1.00  0.00    -0.339 N 
ATOM     15  C   UNL A   1      34.278  33.436  33.380  1.00  0.00     0.332 C 
ATOM     16  C   UNL A   1      35.978  32.074  32.427  1.00  0.00     0.332 C 
ATOM     17  H   UNL A   1      35.548  32.162  34.404  1.00  0.00     0.347 HD
ENDBRANCH  13  14
ENDBRANCH   9  13
ENDBRANCH   6   9
ENDBRANCH   4   5
ENDBRANCH   3   4
ENDBRANCH   2   3
ENDBRANCH   1   2
BRANCH   1  18
ATOM     18  C   UNL A   1      35.939  33.604  28.264  1.00  0.00     0.021 C 
BRANCH  18  19
ATOM     19  C   UNL A   1      34.754  32.944  28.965  1.00  0.00     0.116 C 
BRANCH  19  20
ATOM     20  N   UNL A   1      34.085  31.963  28.130  1.00  0.00    -0.352 N 
ATOM     21  C   UNL A   1      34.519  30.742  27.678  1.00  0.00     0.251 C 
ATOM     22  H   UNL A   1      33.177  32.212  27.843  1.00  0.00     0.163 HD
ATOM     23  O   UNL A   1      33.843  30.131  26.852  1.00  0.00    -0.269 OA
BRANCH  21  24
ATOM     24  C   UNL A   1      35.795  30.165  28.156  1.00  0.00     0.039 A 
ATOM     25  C   UNL A   1      36.876  30.117  27.270  1.00  0.00     0.014 A 
ATOM     26  C   UNL A   1      35.928  29.643  29.446  1.00  0.00     0.014 A 
ATOM     27  C   UNL A   1      38.101  29.595  27.693  1.00  0.00     0.010 A 
ATOM     28  C   UNL A   1      37.169  29.180  29.887  1.00  0.00     0.010 A 
ATOM     29  C   UNL A   1      38.267  29.148  29.014  1.00  0.00    -0.014 A 
BRANCH  29  30
ATOM     30  C   UNL A   1      39.593  28.685  29.497  1.00  0.00     0.031 A 
ATOM     31  C   UNL A   1      40.321  29.423  30.588  1.00  0.00     0.074 A 
ATOM     32  C   UNL A   1      40.177  27.626  28.900  1.00  0.00     0.049 A 
ATOM     33  N   UNL A   1      41.482  29.155  31.130  1.00  0.00    -0.248 NA
ATOM     34  C   UNL A   1      39.675  30.632  31.124  1.00  0.00     0.031 C 
ATOM     35  C   UNL A   1      39.616  26.881  27.770  1.00  0.00     0.029 A 
ATOM     36  N   UNL A   1      41.377  27.008  29.143  1.00  0.00    -0.354 N 
ATOM     37  C   UNL A   1      41.719  30.171  32.047  1.00  0.00     0.074 A 
ATOM     38  C   UNL A   1      40.596  31.081  31.966  1.00  0.00     0.031 C 
ATOM     39  C   UNL A   1      40.468  25.902  27.424  1.00  0.00     0.029 A 
ATOM     40  C   UNL A   1      41.641  25.961  28.290  1.00  0.00     0.049 A 
ATOM     41  H   UNL A   1      41.992  27.286  29.859  1.00  0.00     0.167 HD
ATOM     42  C   UNL A   1      42.760  30.319  32.902  1.00  0.00     0.034 A 
ATOM     43  C   UNL A   1      42.705  25.138  28.215  1.00  0.00     0.034 A 
ATOM     44  C   UNL A   1      43.854  29.391  33.011  1.00  0.00     0.049 A 
ATOM     45  C   UNL A   1      43.819  25.289  29.214  1.00  0.00     0.074 A 
ATOM     46  C   UNL A   1      44.906  29.402  33.912  1.00  0.00     0.029 A 
ATOM     47  N   UNL A   1      44.044  28.289  32.191  1.00  0.00    -0.354 N 
ATOM     48  N   UNL A   1      43.937  26.151  30.193  1.00  0.00    -0.248 NA
ATOM     49  C   UNL A   1      44.926  24.325  29.124  1.00  0.00     0.031 C 
ATOM     50  C   UNL A   1      45.741  28.316  33.624  1.00  0.00     0.029 A 
ATOM     51  C   UNL A   1      45.200  27.619  32.556  1.00  0.00     0.049 A 
ATOM     52  H   UNL A   1      43.445  28.023  31.457  1.00  0.00     0.167 HD
ATOM     53  C   UNL A   1      45.116  25.822  30.852  1.00  0.00     0.074 A 
ATOM     54  C   UNL A   1      45.657  24.658  30.179  1.00  0.00     0.031 C 
ATOM     55  C   UNL A   1      45.707  26.437  31.905  1.00  0.00     0.034 A 
BRANCH  42  56
ATOM     56  C   UNL A   1      42.735  31.501  33.838  1.00  0.00     0.023 A 
ATOM     57  C   UNL A   1      42.982  32.792  33.327  1.00  0.00     0.012 A 
ATOM     58  C   UNL A   1      42.407  31.349  35.200  1.00  0.00     0.148 A 
ATOM     59  C   UNL A   1      42.937  33.908  34.162  1.00  0.00     0.002 A 
ATOM     60  C   UNL A   1      42.323  32.471  36.017  1.00  0.00     0.091 A 
ATOM     61  F   UNL A   1      42.196  30.113  35.673  1.00  0.00    -0.205 F 
ATOM     62  C   UNL A   1      42.598  33.749  35.501  1.00  0.00     0.022 A 
BRANCH  60  63
ATOM     63  S   UNL A   1      41.821  32.378  37.739  1.00  0.00     0.127 S 
ATOM     64  O   UNL A   1      41.648  33.792  38.072  1.00  0.00    -0.237 OA
ATOM     65  O   UNL A   1      40.571  31.617  37.655  1.00  0.00    -0.237 OA
ATOM     66  O   UNL A   1      42.898  31.697  38.435  1.00  0.00    -0.744 OA
ENDBRANCH  60  63
ENDBRANCH  42  56
BRANCH  43  67
ATOM     67  C   UNL A   1      42.726  24.046  27.202  1.00  0.00     0.023 A 
ATOM     68  C   UNL A   1      43.381  24.257  25.973  1.00  0.00     0.012 A 
ATOM     69  C   UNL A   1      42.139  22.792  27.460  1.00  0.00     0.148 A 
ATOM     70  C   UNL A   1      43.425  23.251  25.007  1.00  0.00     0.002 A 
ATOM     71  C   UNL A   1      42.234  21.775  26.517  1.00  0.00     0.091 A 
ATOM     72  F   UNL A   1      41.507  22.615  28.630  1.00  0.00    -0.205 F 
ATOM     73  C   UNL A   1      42.862  22.007  25.283  1.00  0.00     0.022 A 
BRANCH  71  74
ATOM     74  S   UNL A   1      41.659  20.105  26.846  1.00  0.00     0.127 S 
ATOM     75  O   UNL A   1      40.306  20.347  27.342  1.00  0.00    -0.237 OA
ATOM     76  O   UNL A   1      41.729  19.492  25.519  1.00  0.00    -0.237 OA
ATOM     77  O   UNL A   1      42.600  19.552  27.810  1.00  0.00    -0.744 OA
ENDBRANCH  71  74
ENDBRANCH  43  67
BRANCH  55  78
ATOM     78  C   UNL A   1      47.007  25.861  32.404  1.00  0.00     0.023 A 
ATOM     79  C   UNL A   1      48.223  26.306  31.848  1.00  0.00     0.012 A 
ATOM     80  C   UNL A   1      47.030  24.918  33.450  1.00  0.00     0.148 A 
ATOM     81  C   UNL A   1      49.440  25.794  32.300  1.00  0.00     0.002 A 
ATOM     82  C   UNL A   1      48.248  24.447  33.928  1.00  0.00     0.091 A 
ATOM     83  F   UNL A   1      45.863  24.489  33.953  1.00  0.00    -0.205 F 
ATOM     84  C   UNL A   1      49.452  24.874  33.345  1.00  0.00     0.022 A 
BRANCH  82  85
ATOM     85  S   UNL A   1      48.358  23.330  35.331  1.00  0.00     0.127 S 
ATOM     86  O   UNL A   1      47.726  24.116  36.389  1.00  0.00    -0.237 OA
ATOM     87  O   UNL A   1      47.578  22.179  34.878  1.00  0.00    -0.237 OA
ATOM     88  O   UNL A   1      49.779  23.059  35.510  1.00  0.00    -0.744 OA
ENDBRANCH  82  85
ENDBRANCH  55  78
ENDBRANCH  29  30
ENDBRANCH  21  24
ENDBRANCH  19  20
ENDBRANCH  18  19
ENDBRANCH   1  18
TORSDOF 19
ENDMDL
