MODEL 1
REMARK VINA RESULT:     -11.0      0.000      0.000
REMARK SMILES Cc1nn(CC(=O)NC(C)(C)C)c(C)c1S(=O)(=O)N1CCC[C@@H](C(=O)NCCCCCCNC(=O)c2ccc(-c3c4nc(c(-c5cccc(S(=O)(=O)[O-])c5F)c5ccc([nH]5)c(-c5cccc(S(=O)(=O)[O-])c5F)c5nc(c(-c6cccc(S(=O)(=O)[O-])c6F)c6ccc3[nH]6)C=C5)C=C4)cc2)C1
REMARK SMILES IDX 28 1 27 2 26 3 24 4 25 5 23 7 19 8 20 9 99 10 21 11 22 12
REMARK SMILES IDX 16 13 17 14 18 15 15 16 1 17 2 18 3 19 4 20 13 21 14 22 5 23
REMARK SMILES IDX 6 24 7 25 8 26 9 28 10 29 11 30 12 31 29 32 30 33 31 34
REMARK SMILES IDX 32 35 33 36 34 37 35 39 36 40 37 41 98 42 38 43 97 44 39 45
REMARK SMILES IDX 40 46 41 47 91 48 42 49 96 50 90 51 92 52 43 53 95 54 89 55
REMARK SMILES IDX 88 56 44 58 76 59 56 60 75 61 57 62 60 63 74 64 93 65 58 66
REMARK SMILES IDX 59 67 73 69 94 70 61 71 45 72 46 73 54 74 47 75 49 76 55 77
REMARK SMILES IDX 48 78 50 79 51 80 52 81 53 82 77 83 78 84 86 85 79 86 81 87
REMARK SMILES IDX 87 88 80 89 82 90 83 91 84 92 85 93 62 94 63 95 71 96 64 97
REMARK SMILES IDX 66 98 72 99 65 100 67 101 68 102 69 103 70 104
REMARK H PARENT 26 6 8 27 33 38 92 57 60 68
REMARK Flexibility Score: inf
ROOT
ATOM      1  C   UNL A   1      36.542  20.173  24.952  1.00  0.00     0.021 C 
ENDROOT
BRANCH   1   2
ATOM      2  C   UNL A   1      35.027  20.326  25.085  1.00  0.00     0.116 C 
BRANCH   2   3
ATOM      3  N   UNL A   1      34.682  21.089  26.266  1.00  0.00    -0.356 N 
ATOM      4  C   UNL A   1      34.041  22.285  26.370  1.00  0.00     0.224 C 
ATOM      5  O   UNL A   1      33.870  22.737  27.504  1.00  0.00    -0.275 OA
ATOM      6  H   UNL A   1      34.949  20.681  27.121  1.00  0.00     0.163 HD
BRANCH   4   7
ATOM      7  C   UNL A   1      33.511  22.978  25.118  1.00  0.00     0.093 C 
ATOM      8  N   UNL A   1      31.845  24.778  24.451  1.00  0.00    -0.197 NA
ATOM      9  C   UNL A   1      32.837  25.401  23.545  1.00  0.00     0.102 C 
ATOM     10  C   UNL A   1      32.292  23.826  25.502  1.00  0.00     0.116 C 
ATOM     11  C   UNL A   1      33.958  24.454  23.176  1.00  0.00     0.018 C 
ATOM     12  C   UNL A   1      34.571  23.825  24.414  1.00  0.00     0.016 C 
BRANCH   8  13
ATOM     13  S   UNL A   1      30.576  25.807  24.900  1.00  0.00     0.246 S 
ATOM     14  O   UNL A   1      30.223  25.502  26.273  1.00  0.00    -0.207 OA
ATOM     15  O   UNL A   1      29.567  25.745  23.858  1.00  0.00    -0.207 OA
BRANCH  13  16
ATOM     16  C   UNL A   1      30.971  27.492  24.984  1.00  0.00     0.126 A 
ATOM     17  C   UNL A   1      29.841  28.761  22.918  1.00  0.00     0.070 C 
ATOM     18  C   UNL A   1      30.715  28.573  24.099  1.00  0.00     0.080 A 
ATOM     19  N   UNL A   1      31.441  29.647  24.444  1.00  0.00    -0.176 NA
ATOM     20  N   UNL A   1      32.147  29.261  25.512  1.00  0.00    -0.259 N 
ATOM     21  C   UNL A   1      31.744  28.047  26.004  1.00  0.00     0.056 A 
ATOM     22  C   UNL A   1      32.191  27.480  27.305  1.00  0.00     0.068 C 
BRANCH  20  23
ATOM     23  C   UNL A   1      33.190  30.130  26.014  1.00  0.00     0.244 C 
BRANCH  23  24
ATOM     24  C   UNL A   1      32.726  31.201  26.974  1.00  0.00     0.242 C 
ATOM     25  O   UNL A   1      31.552  31.598  26.929  1.00  0.00    -0.273 OA
ATOM     26  N   UNL A   1      33.439  31.661  28.037  1.00  0.00    -0.350 N 
ATOM     27  H   UNL A   1      32.854  32.148  28.663  1.00  0.00     0.164 HD
BRANCH  26  28
ATOM     28  C   UNL A   1      34.834  31.649  28.533  1.00  0.00     0.032 C 
ATOM     29  C   UNL A   1      35.621  32.735  27.782  1.00  0.00     0.034 C 
ATOM     30  C   UNL A   1      34.784  32.004  30.031  1.00  0.00     0.034 C 
ATOM     31  C   UNL A   1      35.590  30.331  28.423  1.00  0.00     0.034 C 
ENDBRANCH  26  28
ENDBRANCH  23  24
ENDBRANCH  20  23
ENDBRANCH  13  16
ENDBRANCH   8  13
ENDBRANCH   4   7
ENDBRANCH   2   3
ENDBRANCH   1   2
BRANCH   1  32
ATOM     32  C   UNL A   1      37.273  21.466  24.571  1.00  0.00     0.002 C 
BRANCH  32  33
ATOM     33  C   UNL A   1      38.126  22.106  25.675  1.00  0.00     0.002 C 
BRANCH  33  34
ATOM     34  C   UNL A   1      37.866  23.590  25.976  1.00  0.00     0.021 C 
BRANCH  34  35
ATOM     35  C   UNL A   1      38.963  24.274  26.781  1.00  0.00     0.116 C 
BRANCH  35  36
ATOM     36  N   UNL A   1      40.156  24.536  25.974  1.00  0.00    -0.352 N 
ATOM     37  C   UNL A   1      40.928  25.678  25.912  1.00  0.00     0.251 C 
ATOM     38  H   UNL A   1      40.447  23.795  25.395  1.00  0.00     0.163 HD
ATOM     39  O   UNL A   1      41.653  25.889  24.945  1.00  0.00    -0.269 OA
BRANCH  37  40
ATOM     40  C   UNL A   1      40.872  26.638  27.027  1.00  0.00     0.039 A 
ATOM     41  C   UNL A   1      41.183  26.261  28.337  1.00  0.00     0.014 A 
ATOM     42  C   UNL A   1      40.521  27.948  26.730  1.00  0.00     0.014 A 
ATOM     43  C   UNL A   1      41.218  27.239  29.328  1.00  0.00     0.010 A 
ATOM     44  C   UNL A   1      40.728  28.931  27.660  1.00  0.00     0.010 A 
ATOM     45  C   UNL A   1      41.002  28.579  28.976  1.00  0.00    -0.014 A 
BRANCH  45  46
ATOM     46  C   UNL A   1      41.143  29.655  29.950  1.00  0.00     0.031 A 
ATOM     47  C   UNL A   1      39.865  30.192  30.483  1.00  0.00     0.074 A 
ATOM     48  C   UNL A   1      42.330  29.954  30.521  1.00  0.00     0.049 A 
ATOM     49  N   UNL A   1      39.345  31.356  30.272  1.00  0.00    -0.248 NA
ATOM     50  C   UNL A   1      38.983  29.273  31.219  1.00  0.00     0.031 C 
ATOM     51  C   UNL A   1      43.614  29.259  30.339  1.00  0.00     0.029 A 
ATOM     52  N   UNL A   1      42.606  30.831  31.524  1.00  0.00    -0.354 N 
ATOM     53  C   UNL A   1      38.204  31.404  31.071  1.00  0.00     0.074 A 
ATOM     54  C   UNL A   1      37.907  30.039  31.409  1.00  0.00     0.031 C 
ATOM     55  C   UNL A   1      44.425  29.536  31.380  1.00  0.00     0.029 A 
ATOM     56  C   UNL A   1      43.802  30.567  32.184  1.00  0.00     0.049 A 
ATOM     57  H   UNL A   1      42.015  31.581  31.761  1.00  0.00     0.167 HD
ATOM     58  C   UNL A   1      37.788  32.578  31.631  1.00  0.00     0.034 A 
ATOM     59  C   UNL A   1      44.230  31.125  33.339  1.00  0.00     0.034 A 
ATOM     60  C   UNL A   1      38.472  33.702  31.029  1.00  0.00     0.049 A 
ATOM     61  C   UNL A   1      43.484  32.390  33.512  1.00  0.00     0.074 A 
ATOM     62  C   UNL A   1      38.626  34.202  29.752  1.00  0.00     0.029 A 
ATOM     63  N   UNL A   1      39.461  34.286  31.786  1.00  0.00    -0.354 N 
ATOM     64  N   UNL A   1      43.611  33.417  32.717  1.00  0.00    -0.248 NA
ATOM     65  C   UNL A   1      42.285  32.380  34.333  1.00  0.00     0.031 C 
ATOM     66  C   UNL A   1      39.962  34.702  29.709  1.00  0.00     0.029 A 
ATOM     67  C   UNL A   1      40.530  34.538  30.975  1.00  0.00     0.049 A 
ATOM     68  H   UNL A   1      39.406  34.488  32.748  1.00  0.00     0.167 HD
ATOM     69  C   UNL A   1      42.321  33.914  32.593  1.00  0.00     0.074 A 
ATOM     70  C   UNL A   1      41.587  33.335  33.716  1.00  0.00     0.031 C 
ATOM     71  C   UNL A   1      41.904  34.497  31.429  1.00  0.00     0.034 A 
BRANCH  58  72
ATOM     72  C   UNL A   1      37.122  32.731  32.995  1.00  0.00     0.023 A 
ATOM     73  C   UNL A   1      36.041  33.645  33.069  1.00  0.00     0.012 A 
ATOM     74  C   UNL A   1      37.664  32.302  34.228  1.00  0.00     0.148 A 
ATOM     75  C   UNL A   1      35.618  34.198  34.282  1.00  0.00     0.002 A 
ATOM     76  C   UNL A   1      37.197  32.807  35.438  1.00  0.00     0.091 A 
ATOM     77  F   UNL A   1      38.714  31.484  34.261  1.00  0.00    -0.205 F 
ATOM     78  C   UNL A   1      36.204  33.786  35.469  1.00  0.00     0.022 A 
BRANCH  76  79
ATOM     79  S   UNL A   1      37.895  32.279  37.010  1.00  0.00     0.127 S 
ATOM     80  O   UNL A   1      36.965  32.886  37.957  1.00  0.00    -0.237 OA
ATOM     81  O   UNL A   1      37.810  30.822  36.900  1.00  0.00    -0.237 OA
ATOM     82  O   UNL A   1      39.258  32.796  37.031  1.00  0.00    -0.744 OA
ENDBRANCH  76  79
ENDBRANCH  58  72
BRANCH  59  83
ATOM     83  C   UNL A   1      45.084  30.555  34.406  1.00  0.00     0.023 A 
ATOM     84  C   UNL A   1      46.132  31.328  34.941  1.00  0.00     0.012 A 
ATOM     85  C   UNL A   1      44.709  29.373  35.085  1.00  0.00     0.148 A 
ATOM     86  C   UNL A   1      46.758  30.961  36.137  1.00  0.00     0.002 A 
ATOM     87  C   UNL A   1      45.339  29.008  36.272  1.00  0.00     0.091 A 
ATOM     88  F   UNL A   1      43.676  28.658  34.617  1.00  0.00    -0.205 F 
ATOM     89  C   UNL A   1      46.357  29.808  36.806  1.00  0.00     0.022 A 
BRANCH  87  90
ATOM     90  S   UNL A   1      44.855  27.546  37.204  1.00  0.00     0.127 S 
ATOM     91  O   UNL A   1      43.428  27.778  37.417  1.00  0.00    -0.237 OA
ATOM     92  O   UNL A   1      45.168  26.469  36.269  1.00  0.00    -0.237 OA
ATOM     93  O   UNL A   1      45.652  27.565  38.426  1.00  0.00    -0.744 OA
ENDBRANCH  87  90
ENDBRANCH  59  83
BRANCH  71  94
ATOM     94  C   UNL A   1      42.947  34.893  30.415  1.00  0.00     0.023 A 
ATOM     95  C   UNL A   1      43.666  36.103  30.499  1.00  0.00     0.012 A 
ATOM     96  C   UNL A   1      43.332  33.939  29.458  1.00  0.00     0.148 A 
ATOM     97  C   UNL A   1      44.731  36.365  29.632  1.00  0.00     0.002 A 
ATOM     98  C   UNL A   1      44.422  34.182  28.631  1.00  0.00     0.091 A 
ATOM     99  F   UNL A   1      42.641  32.791  29.392  1.00  0.00    -0.205 F 
ATOM    100  C   UNL A   1      45.118  35.399  28.708  1.00  0.00     0.022 A 
BRANCH  98 101
ATOM    101  S   UNL A   1      45.047  32.923  27.515  1.00  0.00     0.127 S 
ATOM    102  O   UNL A   1      44.011  32.885  26.486  1.00  0.00    -0.237 OA
ATOM    103  O   UNL A   1      46.323  33.493  27.079  1.00  0.00    -0.237 OA
ATOM    104  O   UNL A   1      45.182  31.713  28.317  1.00  0.00    -0.744 OA
ENDBRANCH  98 101
ENDBRANCH  71  94
ENDBRANCH  45  46
ENDBRANCH  37  40
ENDBRANCH  35  36
ENDBRANCH  34  35
ENDBRANCH  33  34
ENDBRANCH  32  33
ENDBRANCH   1  32
TORSDOF 21
ENDMDL
MODEL 2
REMARK VINA RESULT:     -10.1      5.095     12.885
REMARK SMILES Cc1nn(CC(=O)NC(C)(C)C)c(C)c1S(=O)(=O)N1CCC[C@@H](C(=O)NCCCCCCNC(=O)c2ccc(-c3c4nc(c(-c5cccc(S(=O)(=O)[O-])c5F)c5ccc([nH]5)c(-c5cccc(S(=O)(=O)[O-])c5F)c5nc(c(-c6cccc(S(=O)(=O)[O-])c6F)c6ccc3[nH]6)C=C5)C=C4)cc2)C1
REMARK SMILES IDX 28 1 27 2 26 3 24 4 25 5 23 7 19 8 20 9 99 10 21 11 22 12
REMARK SMILES IDX 16 13 17 14 18 15 15 16 1 17 2 18 3 19 4 20 13 21 14 22 5 23
REMARK SMILES IDX 6 24 7 25 8 26 9 28 10 29 11 30 12 31 29 32 30 33 31 34
REMARK SMILES IDX 32 35 33 36 34 37 35 39 36 40 37 41 98 42 38 43 97 44 39 45
REMARK SMILES IDX 40 46 41 47 91 48 42 49 96 50 90 51 92 52 43 53 95 54 89 55
REMARK SMILES IDX 88 56 44 58 76 59 56 60 75 61 57 62 60 63 74 64 93 65 58 66
REMARK SMILES IDX 59 67 73 69 94 70 61 71 45 72 46 73 54 74 47 75 49 76 55 77
REMARK SMILES IDX 48 78 50 79 51 80 52 81 53 82 77 83 78 84 86 85 79 86 81 87
REMARK SMILES IDX 87 88 80 89 82 90 83 91 84 92 85 93 62 94 63 95 71 96 64 97
REMARK SMILES IDX 66 98 72 99 65 100 67 101 68 102 69 103 70 104
REMARK H PARENT 26 6 8 27 33 38 92 57 60 68
REMARK Flexibility Score: inf
ROOT
ATOM      1  C   UNL A   1      35.907  33.731  34.170  1.00  0.00     0.021 C 
ENDROOT
BRANCH   1   2
ATOM      2  C   UNL A   1      37.074  33.798  35.154  1.00  0.00     0.116 C 
BRANCH   2   3
ATOM      3  N   UNL A   1      37.433  32.478  35.628  1.00  0.00    -0.356 N 
ATOM      4  C   UNL A   1      37.796  32.073  36.876  1.00  0.00     0.224 C 
ATOM      5  O   UNL A   1      38.066  30.879  37.026  1.00  0.00    -0.275 OA
ATOM      6  H   UNL A   1      37.410  31.768  34.947  1.00  0.00     0.163 HD
BRANCH   4   7
ATOM      7  C   UNL A   1      37.796  33.069  38.032  1.00  0.00     0.093 C 
ATOM      8  N   UNL A   1      36.854  33.321  40.379  1.00  0.00    -0.197 NA
ATOM      9  C   UNL A   1      38.168  33.776  40.889  1.00  0.00     0.102 C 
ATOM     10  C   UNL A   1      36.766  32.615  39.074  1.00  0.00     0.116 C 
ATOM     11  C   UNL A   1      39.078  34.267  39.784  1.00  0.00     0.018 C 
ATOM     12  C   UNL A   1      39.176  33.248  38.664  1.00  0.00     0.016 C 
BRANCH   8  13
ATOM     13  S   UNL A   1      35.805  32.751  41.581  1.00  0.00     0.246 S 
ATOM     14  O   UNL A   1      35.076  31.622  41.036  1.00  0.00    -0.207 OA
ATOM     15  O   UNL A   1      35.085  33.892  42.117  1.00  0.00    -0.207 OA
BRANCH  13  16
ATOM     16  C   UNL A   1      36.567  32.061  42.976  1.00  0.00     0.126 A 
ATOM     17  C   UNL A   1      35.595  33.232  45.176  1.00  0.00     0.070 C 
ATOM     18  C   UNL A   1      36.491  32.383  44.358  1.00  0.00     0.080 A 
ATOM     19  N   UNL A   1      37.461  31.757  45.041  1.00  0.00    -0.176 NA
ATOM     20  N   UNL A   1      38.141  31.063  44.124  1.00  0.00    -0.259 N 
ATOM     21  C   UNL A   1      37.518  31.042  42.903  1.00  0.00     0.056 A 
ATOM     22  C   UNL A   1      37.924  30.169  41.769  1.00  0.00     0.068 C 
BRANCH  20  23
ATOM     23  C   UNL A   1      39.385  30.428  44.506  1.00  0.00     0.244 C 
BRANCH  23  24
ATOM     24  C   UNL A   1      40.308  31.279  45.347  1.00  0.00     0.242 C 
ATOM     25  O   UNL A   1      41.028  32.127  44.800  1.00  0.00    -0.273 OA
ATOM     26  N   UNL A   1      40.300  31.334  46.706  1.00  0.00    -0.350 N 
ATOM     27  H   UNL A   1      40.787  32.130  47.023  1.00  0.00     0.164 HD
BRANCH  26  28
ATOM     28  C   UNL A   1      39.777  30.554  47.851  1.00  0.00     0.032 C 
ATOM     29  C   UNL A   1      39.709  29.076  47.434  1.00  0.00     0.034 C 
ATOM     30  C   UNL A   1      40.786  30.709  49.003  1.00  0.00     0.034 C 
ATOM     31  C   UNL A   1      38.419  30.971  48.402  1.00  0.00     0.034 C 
ENDBRANCH  26  28
ENDBRANCH  23  24
ENDBRANCH  20  23
ENDBRANCH  13  16
ENDBRANCH   8  13
ENDBRANCH   4   7
ENDBRANCH   2   3
ENDBRANCH   1   2
BRANCH   1  32
ATOM     32  C   UNL A   1      34.930  34.908  34.272  1.00  0.00     0.002 C 
BRANCH  32  33
ATOM     33  C   UNL A   1      34.777  35.766  33.008  1.00  0.00     0.002 C 
BRANCH  33  34
ATOM     34  C   UNL A   1      33.346  36.003  32.504  1.00  0.00     0.021 C 
BRANCH  34  35
ATOM     35  C   UNL A   1      33.257  36.660  31.133  1.00  0.00     0.116 C 
BRANCH  35  36
ATOM     36  N   UNL A   1      32.546  35.821  30.166  1.00  0.00    -0.352 N 
ATOM     37  C   UNL A   1      33.052  34.864  29.311  1.00  0.00     0.251 C 
ATOM     38  H   UNL A   1      31.572  35.958  30.121  1.00  0.00     0.163 HD
ATOM     39  O   UNL A   1      32.419  34.516  28.319  1.00  0.00    -0.269 OA
BRANCH  37  40
ATOM     40  C   UNL A   1      34.364  34.265  29.607  1.00  0.00     0.039 A 
ATOM     41  C   UNL A   1      34.501  33.210  30.515  1.00  0.00     0.014 A 
ATOM     42  C   UNL A   1      35.468  34.766  28.931  1.00  0.00     0.014 A 
ATOM     43  C   UNL A   1      35.751  32.614  30.670  1.00  0.00     0.010 A 
ATOM     44  C   UNL A   1      36.647  34.070  28.949  1.00  0.00     0.010 A 
ATOM     45  C   UNL A   1      36.818  33.042  29.870  1.00  0.00    -0.014 A 
BRANCH  45  46
ATOM     46  C   UNL A   1      38.114  32.375  29.906  1.00  0.00     0.031 A 
ATOM     47  C   UNL A   1      38.113  30.973  29.415  1.00  0.00     0.074 A 
ATOM     48  C   UNL A   1      39.264  33.054  30.109  1.00  0.00     0.049 A 
ATOM     49  N   UNL A   1      38.290  29.893  30.102  1.00  0.00    -0.248 NA
ATOM     50  C   UNL A   1      37.720  30.730  28.018  1.00  0.00     0.031 C 
ATOM     51  C   UNL A   1      39.434  34.508  30.257  1.00  0.00     0.029 A 
ATOM     52  N   UNL A   1      40.548  32.609  30.048  1.00  0.00    -0.354 N 
ATOM     53  C   UNL A   1      38.298  28.856  29.171  1.00  0.00     0.074 A 
ATOM     54  C   UNL A   1      37.697  29.396  27.982  1.00  0.00     0.031 C 
ATOM     55  C   UNL A   1      40.713  34.840  29.986  1.00  0.00     0.029 A 
ATOM     56  C   UNL A   1      41.481  33.621  29.843  1.00  0.00     0.049 A 
ATOM     57  H   UNL A   1      40.794  31.660  30.140  1.00  0.00     0.167 HD
ATOM     58  C   UNL A   1      39.072  27.748  29.361  1.00  0.00     0.034 A 
ATOM     59  C   UNL A   1      42.788  33.466  29.530  1.00  0.00     0.034 A 
ATOM     60  C   UNL A   1      39.563  27.694  30.720  1.00  0.00     0.049 A 
ATOM     61  C   UNL A   1      43.170  32.095  29.932  1.00  0.00     0.074 A 
ATOM     62  C   UNL A   1      38.998  27.689  31.979  1.00  0.00     0.029 A 
ATOM     63  N   UNL A   1      40.887  28.020  30.902  1.00  0.00    -0.354 N 
ATOM     64  N   UNL A   1      43.196  31.686  31.171  1.00  0.00    -0.248 NA
ATOM     65  C   UNL A   1      43.136  31.045  28.928  1.00  0.00     0.031 C 
ATOM     66  C   UNL A   1      39.894  28.447  32.791  1.00  0.00     0.029 A 
ATOM     67  C   UNL A   1      40.985  28.821  32.002  1.00  0.00     0.049 A 
ATOM     68  H   UNL A   1      41.635  27.725  30.334  1.00  0.00     0.167 HD
ATOM     69  C   UNL A   1      42.709  30.388  31.112  1.00  0.00     0.074 A 
ATOM     70  C   UNL A   1      42.832  30.005  29.708  1.00  0.00     0.031 C 
ATOM     71  C   UNL A   1      41.976  29.867  32.143  1.00  0.00     0.034 A 
BRANCH  58  72
ATOM     72  C   UNL A   1      39.770  26.946  28.265  1.00  0.00     0.023 A 
ATOM     73  C   UNL A   1      39.598  25.540  28.309  1.00  0.00     0.012 A 
ATOM     74  C   UNL A   1      40.798  27.425  27.422  1.00  0.00     0.148 A 
ATOM     75  C   UNL A   1      40.478  24.664  27.664  1.00  0.00     0.002 A 
ATOM     76  C   UNL A   1      41.632  26.552  26.731  1.00  0.00     0.091 A 
ATOM     77  F   UNL A   1      41.069  28.727  27.353  1.00  0.00    -0.205 F 
ATOM     78  C   UNL A   1      41.505  25.171  26.882  1.00  0.00     0.022 A 
BRANCH  76  79
ATOM     79  S   UNL A   1      42.956  27.155  25.672  1.00  0.00     0.127 S 
ATOM     80  O   UNL A   1      43.712  27.987  26.602  1.00  0.00    -0.237 OA
ATOM     81  O   UNL A   1      43.611  25.909  25.275  1.00  0.00    -0.237 OA
ATOM     82  O   UNL A   1      42.297  27.857  24.577  1.00  0.00    -0.744 OA
ENDBRANCH  76  79
ENDBRANCH  58  72
BRANCH  59  83
ATOM     83  C   UNL A   1      43.679  34.336  28.730  1.00  0.00     0.023 A 
ATOM     84  C   UNL A   1      43.572  34.333  27.327  1.00  0.00     0.012 A 
ATOM     85  C   UNL A   1      44.437  35.361  29.342  1.00  0.00     0.148 A 
ATOM     86  C   UNL A   1      44.163  35.340  26.557  1.00  0.00     0.002 A 
ATOM     87  C   UNL A   1      45.030  36.359  28.573  1.00  0.00     0.091 A 
ATOM     88  F   UNL A   1      44.500  35.408  30.680  1.00  0.00    -0.205 F 
ATOM     89  C   UNL A   1      44.884  36.357  27.179  1.00  0.00     0.022 A 
BRANCH  87  90
ATOM     90  S   UNL A   1      45.953  37.717  29.310  1.00  0.00     0.127 S 
ATOM     91  O   UNL A   1      44.916  38.415  30.068  1.00  0.00    -0.237 OA
ATOM     92  O   UNL A   1      46.938  37.012  30.125  1.00  0.00    -0.237 OA
ATOM     93  O   UNL A   1      46.498  38.486  28.196  1.00  0.00    -0.744 OA
ENDBRANCH  87  90
ENDBRANCH  59  83
BRANCH  71  94
ATOM     94  C   UNL A   1      41.992  30.590  33.466  1.00  0.00     0.023 A 
ATOM     95  C   UNL A   1      41.036  31.570  33.806  1.00  0.00     0.012 A 
ATOM     96  C   UNL A   1      42.884  30.140  34.454  1.00  0.00     0.148 A 
ATOM     97  C   UNL A   1      40.988  32.106  35.096  1.00  0.00     0.002 A 
ATOM     98  C   UNL A   1      42.802  30.639  35.747  1.00  0.00     0.091 A 
ATOM     99  F   UNL A   1      43.785  29.205  34.116  1.00  0.00    -0.205 F 
ATOM    100  C   UNL A   1      41.861  31.630  36.070  1.00  0.00     0.022 A 
BRANCH  98 101
ATOM    101  S   UNL A   1      43.809  29.969  37.073  1.00  0.00     0.127 S 
ATOM    102  O   UNL A   1      43.318  30.708  38.233  1.00  0.00    -0.237 OA
ATOM    103  O   UNL A   1      43.452  28.550  37.055  1.00  0.00    -0.237 OA
ATOM    104  O   UNL A   1      45.192  30.236  36.696  1.00  0.00    -0.744 OA
ENDBRANCH  98 101
ENDBRANCH  71  94
ENDBRANCH  45  46
ENDBRANCH  37  40
ENDBRANCH  35  36
ENDBRANCH  34  35
ENDBRANCH  33  34
ENDBRANCH  32  33
ENDBRANCH   1  32
TORSDOF 21
ENDMDL
MODEL 3
REMARK VINA RESULT:      -9.8      4.405     11.493
REMARK SMILES Cc1nn(CC(=O)NC(C)(C)C)c(C)c1S(=O)(=O)N1CCC[C@@H](C(=O)NCCCCCCNC(=O)c2ccc(-c3c4nc(c(-c5cccc(S(=O)(=O)[O-])c5F)c5ccc([nH]5)c(-c5cccc(S(=O)(=O)[O-])c5F)c5nc(c(-c6cccc(S(=O)(=O)[O-])c6F)c6ccc3[nH]6)C=C5)C=C4)cc2)C1
REMARK SMILES IDX 28 1 27 2 26 3 24 4 25 5 23 7 19 8 20 9 99 10 21 11 22 12
REMARK SMILES IDX 16 13 17 14 18 15 15 16 1 17 2 18 3 19 4 20 13 21 14 22 5 23
REMARK SMILES IDX 6 24 7 25 8 26 9 28 10 29 11 30 12 31 29 32 30 33 31 34
REMARK SMILES IDX 32 35 33 36 34 37 35 39 36 40 37 41 98 42 38 43 97 44 39 45
REMARK SMILES IDX 40 46 41 47 91 48 42 49 96 50 90 51 92 52 43 53 95 54 89 55
REMARK SMILES IDX 88 56 44 58 76 59 56 60 75 61 57 62 60 63 74 64 93 65 58 66
REMARK SMILES IDX 59 67 73 69 94 70 61 71 45 72 46 73 54 74 47 75 49 76 55 77
REMARK SMILES IDX 48 78 50 79 51 80 52 81 53 82 77 83 78 84 86 85 79 86 81 87
REMARK SMILES IDX 87 88 80 89 82 90 83 91 84 92 85 93 62 94 63 95 71 96 64 97
REMARK SMILES IDX 66 98 72 99 65 100 67 101 68 102 69 103 70 104
REMARK H PARENT 26 6 8 27 33 38 92 57 60 68
REMARK Flexibility Score: inf
ROOT
ATOM      1  C   UNL A   1      36.404  31.301  32.364  1.00  0.00     0.021 C 
ENDROOT
BRANCH   1   2
ATOM      2  C   UNL A   1      37.191  31.942  33.508  1.00  0.00     0.116 C 
BRANCH   2   3
ATOM      3  N   UNL A   1      37.544  30.960  34.512  1.00  0.00    -0.356 N 
ATOM      4  C   UNL A   1      38.324  31.092  35.619  1.00  0.00     0.224 C 
ATOM      5  O   UNL A   1      38.481  30.092  36.323  1.00  0.00    -0.275 OA
ATOM      6  H   UNL A   1      37.163  30.063  34.373  1.00  0.00     0.163 HD
BRANCH   4   7
ATOM      7  C   UNL A   1      38.909  32.455  35.982  1.00  0.00     0.093 C 
ATOM      8  N   UNL A   1      39.896  33.677  37.980  1.00  0.00    -0.197 NA
ATOM      9  C   UNL A   1      41.019  34.178  37.155  1.00  0.00     0.102 C 
ATOM     10  C   UNL A   1      39.077  32.531  37.504  1.00  0.00     0.116 C 
ATOM     11  C   UNL A   1      40.718  34.122  35.673  1.00  0.00     0.018 C 
ATOM     12  C   UNL A   1      40.229  32.744  35.267  1.00  0.00     0.016 C 
BRANCH   8  13
ATOM     13  S   UNL A   1      40.193  33.710  39.647  1.00  0.00     0.246 S 
ATOM     14  O   UNL A   1      41.234  34.689  39.892  1.00  0.00    -0.207 OA
ATOM     15  O   UNL A   1      40.363  32.339  40.094  1.00  0.00    -0.207 OA
BRANCH  13  16
ATOM     16  C   UNL A   1      38.892  34.299  40.629  1.00  0.00     0.126 A 
ATOM     17  C   UNL A   1      39.620  36.616  41.751  1.00  0.00     0.070 C 
ATOM     18  C   UNL A   1      38.792  35.413  41.505  1.00  0.00     0.080 A 
ATOM     19  N   UNL A   1      37.686  35.321  42.258  1.00  0.00    -0.176 NA
ATOM     20  N   UNL A   1      37.102  34.180  41.882  1.00  0.00    -0.259 N 
ATOM     21  C   UNL A   1      37.672  33.636  40.760  1.00  0.00     0.056 A 
ATOM     22  C   UNL A   1      37.092  32.501  39.992  1.00  0.00     0.068 C 
BRANCH  20  23
ATOM     23  C   UNL A   1      35.979  33.681  42.649  1.00  0.00     0.244 C 
BRANCH  23  24
ATOM     24  C   UNL A   1      36.221  33.560  44.136  1.00  0.00     0.242 C 
ATOM     25  O   UNL A   1      35.548  34.242  44.924  1.00  0.00    -0.273 OA
ATOM     26  N   UNL A   1      37.003  32.618  44.728  1.00  0.00    -0.350 N 
ATOM     27  H   UNL A   1      36.808  32.561  45.691  1.00  0.00     0.164 HD
BRANCH  26  28
ATOM     28  C   UNL A   1      38.060  31.650  44.353  1.00  0.00     0.032 C 
ATOM     29  C   UNL A   1      38.422  30.828  45.601  1.00  0.00     0.034 C 
ATOM     30  C   UNL A   1      37.459  30.715  43.287  1.00  0.00     0.034 C 
ATOM     31  C   UNL A   1      39.337  32.227  43.757  1.00  0.00     0.034 C 
ENDBRANCH  26  28
ENDBRANCH  23  24
ENDBRANCH  20  23
ENDBRANCH  13  16
ENDBRANCH   8  13
ENDBRANCH   4   7
ENDBRANCH   2   3
ENDBRANCH   1   2
BRANCH   1  32
ATOM     32  C   UNL A   1      35.171  32.100  31.925  1.00  0.00     0.002 C 
BRANCH  32  33
ATOM     33  C   UNL A   1      35.402  33.591  31.645  1.00  0.00     0.002 C 
BRANCH  33  34
ATOM     34  C   UNL A   1      34.571  34.218  30.515  1.00  0.00     0.021 C 
BRANCH  34  35
ATOM     35  C   UNL A   1      35.083  33.923  29.112  1.00  0.00     0.116 C 
BRANCH  35  36
ATOM     36  N   UNL A   1      34.287  32.893  28.442  1.00  0.00    -0.352 N 
ATOM     37  C   UNL A   1      34.684  31.658  27.973  1.00  0.00     0.251 C 
ATOM     38  H   UNL A   1      33.336  33.111  28.309  1.00  0.00     0.163 HD
ATOM     39  O   UNL A   1      34.023  31.071  27.122  1.00  0.00    -0.269 OA
BRANCH  37  40
ATOM     40  C   UNL A   1      35.914  31.053  28.510  1.00  0.00     0.039 A 
ATOM     41  C   UNL A   1      35.986  29.692  28.823  1.00  0.00     0.014 A 
ATOM     42  C   UNL A   1      37.019  31.878  28.675  1.00  0.00     0.014 A 
ATOM     43  C   UNL A   1      37.210  29.158  29.224  1.00  0.00     0.010 A 
ATOM     44  C   UNL A   1      38.251  31.324  28.893  1.00  0.00     0.010 A 
ATOM     45  C   UNL A   1      38.343  29.981  29.242  1.00  0.00    -0.014 A 
BRANCH  45  46
ATOM     46  C   UNL A   1      39.669  29.449  29.539  1.00  0.00     0.031 A 
ATOM     47  C   UNL A   1      40.057  29.493  30.972  1.00  0.00     0.074 A 
ATOM     48  C   UNL A   1      40.370  28.731  28.636  1.00  0.00     0.049 A 
ATOM     49  N   UNL A   1      40.966  30.229  31.523  1.00  0.00    -0.248 NA
ATOM     50  C   UNL A   1      39.239  28.740  31.934  1.00  0.00     0.031 C 
ATOM     51  C   UNL A   1      39.941  28.313  27.292  1.00  0.00     0.029 A 
ATOM     52  N   UNL A   1      41.547  28.066  28.792  1.00  0.00    -0.354 N 
ATOM     53  C   UNL A   1      41.010  29.827  32.858  1.00  0.00     0.074 A 
ATOM     54  C   UNL A   1      39.781  29.120  33.093  1.00  0.00     0.031 C 
ATOM     55  C   UNL A   1      40.686  27.263  26.890  1.00  0.00     0.029 A 
ATOM     56  C   UNL A   1      41.755  27.067  27.846  1.00  0.00     0.049 A 
ATOM     57  H   UNL A   1      42.191  28.272  29.508  1.00  0.00     0.167 HD
ATOM     58  C   UNL A   1      42.182  29.847  33.557  1.00  0.00     0.034 A 
ATOM     59  C   UNL A   1      42.713  26.113  27.873  1.00  0.00     0.034 A 
ATOM     60  C   UNL A   1      43.190  30.604  32.847  1.00  0.00     0.049 A 
ATOM     61  C   UNL A   1      43.783  26.599  28.771  1.00  0.00     0.074 A 
ATOM     62  C   UNL A   1      43.300  31.887  32.351  1.00  0.00     0.029 A 
ATOM     63  N   UNL A   1      44.171  29.871  32.221  1.00  0.00    -0.354 N 
ATOM     64  N   UNL A   1      44.524  27.641  28.513  1.00  0.00    -0.248 NA
ATOM     65  C   UNL A   1      43.768  26.171  30.159  1.00  0.00     0.031 C 
ATOM     66  C   UNL A   1      44.035  31.752  31.135  1.00  0.00     0.029 A 
ATOM     67  C   UNL A   1      44.386  30.409  30.985  1.00  0.00     0.049 A 
ATOM     68  H   UNL A   1      44.638  29.092  32.601  1.00  0.00     0.167 HD
ATOM     69  C   UNL A   1      44.676  28.266  29.744  1.00  0.00     0.074 A 
ATOM     70  C   UNL A   1      44.321  27.245  30.727  1.00  0.00     0.031 C 
ATOM     71  C   UNL A   1      44.777  29.626  29.831  1.00  0.00     0.034 A 
BRANCH  58  72
ATOM     72  C   UNL A   1      42.596  28.848  34.635  1.00  0.00     0.023 A 
ATOM     73  C   UNL A   1      43.157  29.395  35.817  1.00  0.00     0.012 A 
ATOM     74  C   UNL A   1      42.764  27.458  34.448  1.00  0.00     0.148 A 
ATOM     75  C   UNL A   1      43.947  28.634  36.684  1.00  0.00     0.002 A 
ATOM     76  C   UNL A   1      43.498  26.691  35.348  1.00  0.00     0.091 A 
ATOM     77  F   UNL A   1      42.318  26.861  33.344  1.00  0.00    -0.205 F 
ATOM     78  C   UNL A   1      44.127  27.280  36.444  1.00  0.00     0.022 A 
BRANCH  76  79
ATOM     79  S   UNL A   1      43.732  24.923  35.105  1.00  0.00     0.127 S 
ATOM     80  O   UNL A   1      44.799  24.640  36.059  1.00  0.00    -0.237 OA
ATOM     81  O   UNL A   1      42.416  24.396  35.468  1.00  0.00    -0.237 OA
ATOM     82  O   UNL A   1      44.072  24.759  33.697  1.00  0.00    -0.744 OA
ENDBRANCH  76  79
ENDBRANCH  58  72
BRANCH  59  83
ATOM     83  C   UNL A   1      42.688  24.731  27.345  1.00  0.00     0.023 A 
ATOM     84  C   UNL A   1      41.476  24.013  27.341  1.00  0.00     0.012 A 
ATOM     85  C   UNL A   1      43.774  24.215  26.601  1.00  0.00     0.148 A 
ATOM     86  C   UNL A   1      41.335  22.843  26.587  1.00  0.00     0.002 A 
ATOM     87  C   UNL A   1      43.632  23.047  25.857  1.00  0.00     0.091 A 
ATOM     88  F   UNL A   1      44.914  24.917  26.551  1.00  0.00    -0.205 F 
ATOM     89  C   UNL A   1      42.408  22.365  25.839  1.00  0.00     0.022 A 
BRANCH  87  90
ATOM     90  S   UNL A   1      44.966  22.384  24.847  1.00  0.00     0.127 S 
ATOM     91  O   UNL A   1      44.360  21.173  24.297  1.00  0.00    -0.237 OA
ATOM     92  O   UNL A   1      45.179  23.456  23.879  1.00  0.00    -0.237 OA
ATOM     93  O   UNL A   1      46.077  22.134  25.759  1.00  0.00    -0.744 OA
ENDBRANCH  87  90
ENDBRANCH  59  83
BRANCH  71  94
ATOM     94  C   UNL A   1      45.058  30.404  28.570  1.00  0.00     0.023 A 
ATOM     95  C   UNL A   1      44.031  30.893  27.736  1.00  0.00     0.012 A 
ATOM     96  C   UNL A   1      46.383  30.799  28.320  1.00  0.00     0.148 A 
ATOM     97  C   UNL A   1      44.324  31.740  26.663  1.00  0.00     0.002 A 
ATOM     98  C   UNL A   1      46.664  31.679  27.283  1.00  0.00     0.091 A 
ATOM     99  F   UNL A   1      47.348  30.328  29.124  1.00  0.00    -0.205 F 
ATOM    100  C   UNL A   1      45.638  32.144  26.445  1.00  0.00     0.022 A 
BRANCH  98 101
ATOM    101  S   UNL A   1      48.316  32.337  27.037  1.00  0.00     0.127 S 
ATOM    102  O   UNL A   1      48.584  32.974  28.324  1.00  0.00    -0.237 OA
ATOM    103  O   UNL A   1      49.101  31.130  26.776  1.00  0.00    -0.237 OA
ATOM    104  O   UNL A   1      48.219  33.239  25.896  1.00  0.00    -0.744 OA
ENDBRANCH  98 101
ENDBRANCH  71  94
ENDBRANCH  45  46
ENDBRANCH  37  40
ENDBRANCH  35  36
ENDBRANCH  34  35
ENDBRANCH  33  34
ENDBRANCH  32  33
ENDBRANCH   1  32
TORSDOF 21
ENDMDL
