MODEL 1
REMARK VINA RESULT:     -12.0      0.000      0.000
REMARK SMILES Cc1cc(OC(F)(F)F)cc2c1O[C@@H](C(F)(F)F)C(C(=O)NCCCCCCNC(=O)c1ccc(-c3c4nc(c(-c5cccc(S(=O)(=O)[O-])c5F)c5ccc([nH]5)c(-c5cccc(S(=O)(=O)[O-])c5F)c5nc(c(-c6cccc(S(=O)(=O)[O-])c6F)c6ccc3[nH]6)C=C5)C=C4)cc1)=C2
REMARK SMILES IDX 26 1 25 2 24 3 23 4 22 5 20 6 21 7 19 9 1 10 2 11 3 12 12 13
REMARK SMILES IDX 4 14 11 15 13 16 10 17 95 18 14 19 5 20 6 21 7 22 8 23 9 24
REMARK SMILES IDX 15 25 16 26 17 27 18 28 27 29 28 30 29 31 30 32 31 34 32 35
REMARK SMILES IDX 33 36 94 37 34 38 93 39 35 40 36 41 37 42 87 43 38 44 92 45
REMARK SMILES IDX 86 46 88 47 39 48 91 49 85 50 84 51 40 53 72 54 52 55 71 56
REMARK SMILES IDX 53 57 56 58 70 59 89 60 54 61 55 62 69 64 90 65 57 66 41 67
REMARK SMILES IDX 42 68 50 69 43 70 45 71 51 72 44 73 46 74 47 75 48 76 49 77
REMARK SMILES IDX 73 78 74 79 82 80 75 81 77 82 83 83 76 84 78 85 79 86 80 87
REMARK SMILES IDX 81 88 58 89 59 90 67 91 60 92 62 93 68 94 61 95 63 96 64 97
REMARK SMILES IDX 65 98 66 99
REMARK H PARENT 22 8 29 33 88 52 56 63
REMARK Flexibility Score: inf
ROOT
ATOM      1  C   UNL A   1      31.023  28.163  25.191  1.00  0.00     0.002 C 
ENDROOT
BRANCH   1   2
ATOM      2  C   UNL A   1      30.689  29.117  24.038  1.00  0.00     0.002 C 
BRANCH   2   3
ATOM      3  C   UNL A   1      31.110  28.633  22.649  1.00  0.00     0.021 C 
BRANCH   3   4
ATOM      4  C   UNL A   1      30.734  27.181  22.360  1.00  0.00     0.116 C 
BRANCH   4   5
ATOM      5  N   UNL A   1      31.746  26.513  21.559  1.00  0.00    -0.352 N 
ATOM      6  C   UNL A   1      32.579  25.453  21.682  1.00  0.00     0.251 C 
ATOM      7  O   UNL A   1      33.275  25.215  20.688  1.00  0.00    -0.270 OA
ATOM      8  H   UNL A   1      31.855  26.952  20.684  1.00  0.00     0.163 HD
BRANCH   6   9
ATOM      9  C   UNL A   1      32.708  24.584  22.892  1.00  0.00     0.067 C 
ATOM     10  C   UNL A   1      32.601  22.489  27.569  1.00  0.00     0.048 C 
ATOM     11  C   UNL A   1      32.893  21.976  26.185  1.00  0.00    -0.005 A 
ATOM     12  C   UNL A   1      33.294  20.648  25.988  1.00  0.00     0.054 A 
ATOM     13  C   UNL A   1      32.806  22.830  25.079  1.00  0.00     0.131 A 
ATOM     14  C   UNL A   1      33.575  20.173  24.704  1.00  0.00     0.130 A 
ATOM     15  C   UNL A   1      33.072  22.369  23.790  1.00  0.00     0.021 A 
ATOM     16  O   UNL A   1      32.409  24.110  25.324  1.00  0.00    -0.475 OA
ATOM     17  C   UNL A   1      33.458  21.039  23.610  1.00  0.00     0.058 A 
ATOM     18  C   UNL A   1      32.904  23.272  22.657  1.00  0.00     0.025 C 
ATOM     19  C   UNL A   1      32.694  25.097  24.304  1.00  0.00     0.314 C 
BRANCH  14  20
ATOM     20  O   UNL A   1      33.965  18.903  24.384  1.00  0.00    -0.406 OA
BRANCH  20  21
ATOM     21  C   UNL A   1      32.960  17.989  23.983  1.00  0.00     0.573 C 
ATOM     22  F   UNL A   1      32.275  18.449  22.914  1.00  0.00    -0.132 F 
ATOM     23  F   UNL A   1      33.483  16.777  23.699  1.00  0.00    -0.132 F 
ATOM     24  F   UNL A   1      32.085  17.835  25.003  1.00  0.00    -0.132 F 
ENDBRANCH  20  21
ENDBRANCH  14  20
BRANCH  19  25
ATOM     25  C   UNL A   1      33.972  25.869  24.672  1.00  0.00     0.429 C 
ATOM     26  F   UNL A   1      34.031  27.044  23.999  1.00  0.00    -0.167 F 
ATOM     27  F   UNL A   1      34.047  26.151  25.993  1.00  0.00    -0.167 F 
ATOM     28  F   UNL A   1      35.099  25.189  24.360  1.00  0.00    -0.167 F 
ENDBRANCH  19  25
ENDBRANCH   6   9
ENDBRANCH   4   5
ENDBRANCH   3   4
ENDBRANCH   2   3
ENDBRANCH   1   2
BRANCH   1  29
ATOM     29  C   UNL A   1      31.820  28.784  26.342  1.00  0.00     0.021 C 
BRANCH  29  30
ATOM     30  C   UNL A   1      32.967  29.686  25.898  1.00  0.00     0.116 C 
BRANCH  30  31
ATOM     31  N   UNL A   1      32.670  31.086  26.154  1.00  0.00    -0.352 N 
ATOM     32  C   UNL A   1      33.196  31.908  27.119  1.00  0.00     0.251 C 
ATOM     33  H   UNL A   1      32.004  31.498  25.558  1.00  0.00     0.163 HD
ATOM     34  O   UNL A   1      32.678  32.987  27.372  1.00  0.00    -0.269 OA
BRANCH  32  35
ATOM     35  C   UNL A   1      34.399  31.464  27.850  1.00  0.00     0.039 A 
ATOM     36  C   UNL A   1      34.442  30.170  28.371  1.00  0.00     0.014 A 
ATOM     37  C   UNL A   1      35.481  32.336  28.008  1.00  0.00     0.014 A 
ATOM     38  C   UNL A   1      35.596  29.732  29.022  1.00  0.00     0.010 A 
ATOM     39  C   UNL A   1      36.648  31.881  28.612  1.00  0.00     0.010 A 
ATOM     40  C   UNL A   1      36.709  30.581  29.135  1.00  0.00    -0.014 A 
BRANCH  40  41
ATOM     41  C   UNL A   1      37.937  30.138  29.835  1.00  0.00     0.031 A 
ATOM     42  C   UNL A   1      38.231  30.654  31.215  1.00  0.00     0.074 A 
ATOM     43  C   UNL A   1      38.805  29.319  29.213  1.00  0.00     0.049 A 
ATOM     44  N   UNL A   1      39.259  30.404  31.981  1.00  0.00    -0.248 NA
ATOM     45  C   UNL A   1      37.250  31.580  31.809  1.00  0.00     0.031 C 
ATOM     46  C   UNL A   1      38.652  28.796  27.854  1.00  0.00     0.029 A 
ATOM     47  N   UNL A   1      40.000  28.795  29.638  1.00  0.00    -0.354 N 
ATOM     48  C   UNL A   1      39.061  31.154  33.134  1.00  0.00     0.074 A 
ATOM     49  C   UNL A   1      37.830  31.891  32.959  1.00  0.00     0.031 C 
ATOM     50  C   UNL A   1      39.710  28.022  27.560  1.00  0.00     0.029 A 
ATOM     51  C   UNL A   1      40.623  28.006  28.700  1.00  0.00     0.049 A 
ATOM     52  H   UNL A   1      40.377  28.969  30.531  1.00  0.00     0.167 HD
ATOM     53  C   UNL A   1      39.819  31.196  34.252  1.00  0.00     0.034 A 
ATOM     54  C   UNL A   1      41.794  27.342  28.755  1.00  0.00     0.034 A 
ATOM     55  C   UNL A   1      41.016  30.426  34.444  1.00  0.00     0.049 A 
ATOM     56  C   UNL A   1      42.610  27.394  30.017  1.00  0.00     0.074 A 
ATOM     57  C   UNL A   1      41.813  30.352  35.572  1.00  0.00     0.029 A 
ATOM     58  N   UNL A   1      41.587  29.601  33.490  1.00  0.00    -0.354 N 
ATOM     59  N   UNL A   1      42.343  28.012  31.142  1.00  0.00    -0.248 NA
ATOM     60  C   UNL A   1      43.871  26.638  30.033  1.00  0.00     0.031 C 
ATOM     61  C   UNL A   1      42.873  29.485  35.297  1.00  0.00     0.029 A 
ATOM     62  C   UNL A   1      42.728  29.014  34.001  1.00  0.00     0.049 A 
ATOM     63  H   UNL A   1      41.233  29.456  32.583  1.00  0.00     0.167 HD
ATOM     64  C   UNL A   1      43.385  27.699  32.006  1.00  0.00     0.074 A 
ATOM     65  C   UNL A   1      44.285  26.827  31.279  1.00  0.00     0.031 C 
ATOM     66  C   UNL A   1      43.584  28.108  33.283  1.00  0.00     0.034 A 
BRANCH  53  67
ATOM     67  C   UNL A   1      39.342  32.042  35.397  1.00  0.00     0.023 A 
ATOM     68  C   UNL A   1      38.498  31.466  36.366  1.00  0.00     0.012 A 
ATOM     69  C   UNL A   1      39.808  33.359  35.571  1.00  0.00     0.148 A 
ATOM     70  C   UNL A   1      38.118  32.190  37.493  1.00  0.00     0.002 A 
ATOM     71  C   UNL A   1      39.448  34.065  36.712  1.00  0.00     0.091 A 
ATOM     72  F   UNL A   1      40.599  33.886  34.626  1.00  0.00    -0.205 F 
ATOM     73  C   UNL A   1      38.601  33.484  37.672  1.00  0.00     0.022 A 
BRANCH  71  74
ATOM     74  S   UNL A   1      40.056  35.717  37.068  1.00  0.00     0.127 S 
ATOM     75  O   UNL A   1      41.495  35.483  37.186  1.00  0.00    -0.237 OA
ATOM     76  O   UNL A   1      39.653  36.454  35.871  1.00  0.00    -0.237 OA
ATOM     77  O   UNL A   1      39.398  36.135  38.298  1.00  0.00    -0.744 OA
ENDBRANCH  71  74
ENDBRANCH  53  67
BRANCH  54  78
ATOM     78  C   UNL A   1      42.219  26.505  27.601  1.00  0.00     0.023 A 
ATOM     79  C   UNL A   1      43.057  27.068  26.619  1.00  0.00     0.012 A 
ATOM     80  C   UNL A   1      41.846  25.151  27.499  1.00  0.00     0.148 A 
ATOM     81  C   UNL A   1      43.507  26.300  25.546  1.00  0.00     0.002 A 
ATOM     82  C   UNL A   1      42.328  24.382  26.446  1.00  0.00     0.091 A 
ATOM     83  F   UNL A   1      41.046  24.642  28.445  1.00  0.00    -0.205 F 
ATOM     84  C   UNL A   1      43.150  24.956  25.463  1.00  0.00     0.022 A 
BRANCH  82  85
ATOM     85  S   UNL A   1      42.006  22.620  26.304  1.00  0.00     0.127 S 
ATOM     86  O   UNL A   1      42.610  22.106  27.532  1.00  0.00    -0.237 OA
ATOM     87  O   UNL A   1      40.544  22.586  26.274  1.00  0.00    -0.237 OA
ATOM     88  O   UNL A   1      42.647  22.197  25.067  1.00  0.00    -0.744 OA
ENDBRANCH  82  85
ENDBRANCH  54  78
BRANCH  66  89
ATOM     89  C   UNL A   1      44.808  27.620  34.004  1.00  0.00     0.023 A 
ATOM     90  C   UNL A   1      45.966  28.422  34.016  1.00  0.00     0.012 A 
ATOM     91  C   UNL A   1      44.761  26.450  34.787  1.00  0.00     0.148 A 
ATOM     92  C   UNL A   1      47.062  28.064  34.799  1.00  0.00     0.002 A 
ATOM     93  C   UNL A   1      45.844  26.118  35.591  1.00  0.00     0.091 A 
ATOM     94  F   UNL A   1      43.647  25.704  34.752  1.00  0.00    -0.205 F 
ATOM     95  C   UNL A   1      46.996  26.922  35.595  1.00  0.00     0.022 A 
BRANCH  93  96
ATOM     96  S   UNL A   1      45.827  24.714  36.710  1.00  0.00     0.127 S 
ATOM     97  O   UNL A   1      45.743  23.591  35.777  1.00  0.00    -0.237 OA
ATOM     98  O   UNL A   1      47.114  24.847  37.391  1.00  0.00    -0.237 OA
ATOM     99  O   UNL A   1      44.663  24.893  37.567  1.00  0.00    -0.744 OA
ENDBRANCH  93  96
ENDBRANCH  66  89
ENDBRANCH  40  41
ENDBRANCH  32  35
ENDBRANCH  30  31
ENDBRANCH  29  30
ENDBRANCH   1  29
TORSDOF 19
ENDMDL
MODEL 2
REMARK VINA RESULT:     -11.9      1.848      7.609
REMARK SMILES Cc1cc(OC(F)(F)F)cc2c1O[C@@H](C(F)(F)F)C(C(=O)NCCCCCCNC(=O)c1ccc(-c3c4nc(c(-c5cccc(S(=O)(=O)[O-])c5F)c5ccc([nH]5)c(-c5cccc(S(=O)(=O)[O-])c5F)c5nc(c(-c6cccc(S(=O)(=O)[O-])c6F)c6ccc3[nH]6)C=C5)C=C4)cc1)=C2
REMARK SMILES IDX 26 1 25 2 24 3 23 4 22 5 20 6 21 7 19 9 1 10 2 11 3 12 12 13
REMARK SMILES IDX 4 14 11 15 13 16 10 17 95 18 14 19 5 20 6 21 7 22 8 23 9 24
REMARK SMILES IDX 15 25 16 26 17 27 18 28 27 29 28 30 29 31 30 32 31 34 32 35
REMARK SMILES IDX 33 36 94 37 34 38 93 39 35 40 36 41 37 42 87 43 38 44 92 45
REMARK SMILES IDX 86 46 88 47 39 48 91 49 85 50 84 51 40 53 72 54 52 55 71 56
REMARK SMILES IDX 53 57 56 58 70 59 89 60 54 61 55 62 69 64 90 65 57 66 41 67
REMARK SMILES IDX 42 68 50 69 43 70 45 71 51 72 44 73 46 74 47 75 48 76 49 77
REMARK SMILES IDX 73 78 74 79 82 80 75 81 77 82 83 83 76 84 78 85 79 86 80 87
REMARK SMILES IDX 81 88 58 89 59 90 67 91 60 92 62 93 68 94 61 95 63 96 64 97
REMARK SMILES IDX 65 98 66 99
REMARK H PARENT 22 8 29 33 88 52 56 63
REMARK Flexibility Score: inf
ROOT
ATOM      1  C   UNL A   1      32.294  27.725  22.895  1.00  0.00     0.002 C 
ENDROOT
BRANCH   1   2
ATOM      2  C   UNL A   1      31.050  27.499  23.763  1.00  0.00     0.002 C 
BRANCH   2   3
ATOM      3  C   UNL A   1      30.081  26.435  23.246  1.00  0.00     0.021 C 
BRANCH   3   4
ATOM      4  C   UNL A   1      30.408  25.018  23.715  1.00  0.00     0.116 C 
BRANCH   4   5
ATOM      5  N   UNL A   1      30.545  24.948  25.160  1.00  0.00    -0.352 N 
ATOM      6  C   UNL A   1      31.319  24.298  26.060  1.00  0.00     0.251 C 
ATOM      7  O   UNL A   1      31.101  24.585  27.244  1.00  0.00    -0.270 OA
ATOM      8  H   UNL A   1      29.895  25.538  25.609  1.00  0.00     0.163 HD
BRANCH   6   9
ATOM      9  C   UNL A   1      32.380  23.296  25.732  1.00  0.00     0.067 C 
ATOM     10  C   UNL A   1      36.727  20.660  25.081  1.00  0.00     0.048 C 
ATOM     11  C   UNL A   1      35.263  20.324  25.002  1.00  0.00    -0.005 A 
ATOM     12  C   UNL A   1      34.846  19.043  24.618  1.00  0.00     0.054 A 
ATOM     13  C   UNL A   1      34.296  21.300  25.271  1.00  0.00     0.131 A 
ATOM     14  C   UNL A   1      33.486  18.732  24.535  1.00  0.00     0.130 A 
ATOM     15  C   UNL A   1      32.934  21.004  25.203  1.00  0.00     0.021 A 
ATOM     16  O   UNL A   1      34.753  22.529  25.642  1.00  0.00    -0.475 OA
ATOM     17  C   UNL A   1      32.536  19.717  24.833  1.00  0.00     0.058 A 
ATOM     18  C   UNL A   1      31.959  22.029  25.558  1.00  0.00     0.025 C 
ATOM     19  C   UNL A   1      33.829  23.638  25.532  1.00  0.00     0.314 C 
BRANCH  14  20
ATOM     20  O   UNL A   1      32.957  17.522  24.182  1.00  0.00    -0.406 OA
BRANCH  20  21
ATOM     21  C   UNL A   1      33.508  16.364  24.785  1.00  0.00     0.573 C 
ATOM     22  F   UNL A   1      34.780  16.158  24.382  1.00  0.00    -0.132 F 
ATOM     23  F   UNL A   1      33.466  16.446  26.132  1.00  0.00    -0.132 F 
ATOM     24  F   UNL A   1      32.773  15.292  24.411  1.00  0.00    -0.132 F 
ENDBRANCH  20  21
ENDBRANCH  14  20
BRANCH  19  25
ATOM     25  C   UNL A   1      34.089  24.402  24.224  1.00  0.00     0.429 C 
ATOM     26  F   UNL A   1      34.046  25.740  24.434  1.00  0.00    -0.167 F 
ATOM     27  F   UNL A   1      35.295  24.112  23.683  1.00  0.00    -0.167 F 
ATOM     28  F   UNL A   1      33.166  24.131  23.272  1.00  0.00    -0.167 F 
ENDBRANCH  19  25
ENDBRANCH   6   9
ENDBRANCH   4   5
ENDBRANCH   3   4
ENDBRANCH   2   3
ENDBRANCH   1   2
BRANCH   1  29
ATOM     29  C   UNL A   1      33.164  28.919  23.299  1.00  0.00     0.021 C 
BRANCH  29  30
ATOM     30  C   UNL A   1      33.334  29.092  24.805  1.00  0.00     0.116 C 
BRANCH  30  31
ATOM     31  N   UNL A   1      32.608  30.255  25.290  1.00  0.00    -0.352 N 
ATOM     32  C   UNL A   1      32.764  30.925  26.477  1.00  0.00     0.251 C 
ATOM     33  H   UNL A   1      31.914  30.607  24.688  1.00  0.00     0.163 HD
ATOM     34  O   UNL A   1      31.925  31.730  26.856  1.00  0.00    -0.269 OA
BRANCH  32  35
ATOM     35  C   UNL A   1      33.964  30.653  27.293  1.00  0.00     0.039 A 
ATOM     36  C   UNL A   1      34.218  29.348  27.718  1.00  0.00     0.014 A 
ATOM     37  C   UNL A   1      34.834  31.697  27.625  1.00  0.00     0.014 A 
ATOM     38  C   UNL A   1      35.376  29.080  28.450  1.00  0.00     0.010 A 
ATOM     39  C   UNL A   1      36.011  31.419  28.310  1.00  0.00     0.010 A 
ATOM     40  C   UNL A   1      36.284  30.111  28.739  1.00  0.00    -0.014 A 
BRANCH  40  41
ATOM     41  C   UNL A   1      37.511  29.848  29.526  1.00  0.00     0.031 A 
ATOM     42  C   UNL A   1      38.572  28.945  28.964  1.00  0.00     0.074 A 
ATOM     43  C   UNL A   1      37.645  30.376  30.757  1.00  0.00     0.049 A 
ATOM     44  N   UNL A   1      39.702  28.573  29.504  1.00  0.00    -0.248 NA
ATOM     45  C   UNL A   1      38.329  28.374  27.627  1.00  0.00     0.031 C 
ATOM     46  C   UNL A   1      36.657  31.223  31.428  1.00  0.00     0.029 A 
ATOM     47  N   UNL A   1      38.661  30.262  31.672  1.00  0.00    -0.354 N 
ATOM     48  C   UNL A   1      40.293  27.714  28.588  1.00  0.00     0.074 A 
ATOM     49  C   UNL A   1      39.388  27.593  27.468  1.00  0.00     0.031 C 
ATOM     50  C   UNL A   1      37.120  31.558  32.644  1.00  0.00     0.029 A 
ATOM     51  C   UNL A   1      38.426  30.936  32.846  1.00  0.00     0.049 A 
ATOM     52  H   UNL A   1      39.482  29.745  31.503  1.00  0.00     0.167 HD
ATOM     53  C   UNL A   1      41.500  27.108  28.659  1.00  0.00     0.034 A 
ATOM     54  C   UNL A   1      39.179  31.044  33.958  1.00  0.00     0.034 A 
ATOM     55  C   UNL A   1      42.419  27.266  29.750  1.00  0.00     0.049 A 
ATOM     56  C   UNL A   1      40.524  30.372  34.003  1.00  0.00     0.074 A 
ATOM     57  C   UNL A   1      43.695  26.745  29.876  1.00  0.00     0.029 A 
ATOM     58  N   UNL A   1      42.165  27.997  30.898  1.00  0.00    -0.354 N 
ATOM     59  N   UNL A   1      41.119  29.663  33.074  1.00  0.00    -0.248 NA
ATOM     60  C   UNL A   1      41.315  30.536  35.232  1.00  0.00     0.031 C 
ATOM     61  C   UNL A   1      44.210  27.158  31.106  1.00  0.00     0.029 A 
ATOM     62  C   UNL A   1      43.258  27.941  31.740  1.00  0.00     0.049 A 
ATOM     63  H   UNL A   1      41.330  28.484  31.085  1.00  0.00     0.167 HD
ATOM     64  C   UNL A   1      42.361  29.319  33.594  1.00  0.00     0.074 A 
ATOM     65  C   UNL A   1      42.440  29.906  34.916  1.00  0.00     0.031 C 
ATOM     66  C   UNL A   1      43.342  28.574  33.030  1.00  0.00     0.034 A 
BRANCH  53  67
ATOM     67  C   UNL A   1      41.940  26.275  27.489  1.00  0.00     0.023 A 
ATOM     68  C   UNL A   1      42.733  26.870  26.488  1.00  0.00     0.012 A 
ATOM     69  C   UNL A   1      41.666  24.896  27.434  1.00  0.00     0.148 A 
ATOM     70  C   UNL A   1      43.244  26.105  25.442  1.00  0.00     0.002 A 
ATOM     71  C   UNL A   1      42.203  24.133  26.404  1.00  0.00     0.091 A 
ATOM     72  F   UNL A   1      40.898  24.360  28.393  1.00  0.00    -0.205 F 
ATOM     73  C   UNL A   1      42.988  24.737  25.406  1.00  0.00     0.022 A 
BRANCH  71  74
ATOM     74  S   UNL A   1      41.981  22.355  26.290  1.00  0.00     0.127 S 
ATOM     75  O   UNL A   1      42.780  22.033  25.107  1.00  0.00    -0.237 OA
ATOM     76  O   UNL A   1      42.552  21.895  27.555  1.00  0.00    -0.237 OA
ATOM     77  O   UNL A   1      40.549  22.133  26.144  1.00  0.00    -0.744 OA
ENDBRANCH  71  74
ENDBRANCH  53  67
BRANCH  54  78
ATOM     78  C   UNL A   1      38.708  31.891  35.086  1.00  0.00     0.023 A 
ATOM     79  C   UNL A   1      38.669  33.290  34.923  1.00  0.00     0.012 A 
ATOM     80  C   UNL A   1      38.250  31.323  36.290  1.00  0.00     0.148 A 
ATOM     81  C   UNL A   1      38.194  34.110  35.945  1.00  0.00     0.002 A 
ATOM     82  C   UNL A   1      37.744  32.144  37.291  1.00  0.00     0.091 A 
ATOM     83  F   UNL A   1      38.301  29.990  36.420  1.00  0.00    -0.205 F 
ATOM     84  C   UNL A   1      37.725  33.538  37.125  1.00  0.00     0.022 A 
BRANCH  82  85
ATOM     85  S   UNL A   1      37.026  31.499  38.806  1.00  0.00     0.127 S 
ATOM     86  O   UNL A   1      38.079  31.781  39.780  1.00  0.00    -0.237 OA
ATOM     87  O   UNL A   1      35.824  32.322  38.941  1.00  0.00    -0.237 OA
ATOM     88  O   UNL A   1      36.768  30.088  38.554  1.00  0.00    -0.744 OA
ENDBRANCH  82  85
ENDBRANCH  54  78
BRANCH  66  89
ATOM     89  C   UNL A   1      44.603  28.346  33.813  1.00  0.00     0.023 A 
ATOM     90  C   UNL A   1      45.652  29.281  33.716  1.00  0.00     0.012 A 
ATOM     91  C   UNL A   1      44.686  27.298  34.750  1.00  0.00     0.148 A 
ATOM     92  C   UNL A   1      46.769  29.174  34.542  1.00  0.00     0.002 A 
ATOM     93  C   UNL A   1      45.787  27.217  35.593  1.00  0.00     0.091 A 
ATOM     94  F   UNL A   1      43.674  26.420  34.816  1.00  0.00    -0.205 F 
ATOM     95  C   UNL A   1      46.831  28.151  35.488  1.00  0.00     0.022 A 
BRANCH  93  96
ATOM     96  S   UNL A   1      45.923  25.988  36.895  1.00  0.00     0.127 S 
ATOM     97  O   UNL A   1      47.345  26.066  37.230  1.00  0.00    -0.237 OA
ATOM     98  O   UNL A   1      45.025  26.522  37.918  1.00  0.00    -0.237 OA
ATOM     99  O   UNL A   1      45.496  24.726  36.307  1.00  0.00    -0.744 OA
ENDBRANCH  93  96
ENDBRANCH  66  89
ENDBRANCH  40  41
ENDBRANCH  32  35
ENDBRANCH  30  31
ENDBRANCH  29  30
ENDBRANCH   1  29
TORSDOF 19
ENDMDL
MODEL 3
REMARK VINA RESULT:     -11.7      4.328      7.792
REMARK SMILES Cc1cc(OC(F)(F)F)cc2c1O[C@@H](C(F)(F)F)C(C(=O)NCCCCCCNC(=O)c1ccc(-c3c4nc(c(-c5cccc(S(=O)(=O)[O-])c5F)c5ccc([nH]5)c(-c5cccc(S(=O)(=O)[O-])c5F)c5nc(c(-c6cccc(S(=O)(=O)[O-])c6F)c6ccc3[nH]6)C=C5)C=C4)cc1)=C2
REMARK SMILES IDX 26 1 25 2 24 3 23 4 22 5 20 6 21 7 19 9 1 10 2 11 3 12 12 13
REMARK SMILES IDX 4 14 11 15 13 16 10 17 95 18 14 19 5 20 6 21 7 22 8 23 9 24
REMARK SMILES IDX 15 25 16 26 17 27 18 28 27 29 28 30 29 31 30 32 31 34 32 35
REMARK SMILES IDX 33 36 94 37 34 38 93 39 35 40 36 41 37 42 87 43 38 44 92 45
REMARK SMILES IDX 86 46 88 47 39 48 91 49 85 50 84 51 40 53 72 54 52 55 71 56
REMARK SMILES IDX 53 57 56 58 70 59 89 60 54 61 55 62 69 64 90 65 57 66 41 67
REMARK SMILES IDX 42 68 50 69 43 70 45 71 51 72 44 73 46 74 47 75 48 76 49 77
REMARK SMILES IDX 73 78 74 79 82 80 75 81 77 82 83 83 76 84 78 85 79 86 80 87
REMARK SMILES IDX 81 88 58 89 59 90 67 91 60 92 62 93 68 94 61 95 63 96 64 97
REMARK SMILES IDX 65 98 66 99
REMARK H PARENT 22 8 29 33 88 52 56 63
REMARK Flexibility Score: inf
ROOT
ATOM      1  C   UNL A   1      34.905  21.731  26.726  1.00  0.00     0.002 C 
ENDROOT
BRANCH   1   2
ATOM      2  C   UNL A   1      34.240  20.850  25.661  1.00  0.00     0.002 C 
BRANCH   2   3
ATOM      3  C   UNL A   1      32.790  21.209  25.331  1.00  0.00     0.021 C 
BRANCH   3   4
ATOM      4  C   UNL A   1      32.581  21.682  23.894  1.00  0.00     0.116 C 
BRANCH   4   5
ATOM      5  N   UNL A   1      33.774  22.315  23.357  1.00  0.00    -0.352 N 
ATOM      6  C   UNL A   1      34.189  23.567  23.053  1.00  0.00     0.251 C 
ATOM      7  O   UNL A   1      35.350  23.647  22.634  1.00  0.00    -0.270 OA
ATOM      8  H   UNL A   1      34.473  21.650  23.160  1.00  0.00     0.163 HD
BRANCH   6   9
ATOM      9  C   UNL A   1      33.371  24.812  23.187  1.00  0.00     0.067 C 
ATOM     10  C   UNL A   1      29.731  28.419  23.165  1.00  0.00     0.048 C 
ATOM     11  C   UNL A   1      31.075  28.275  23.825  1.00  0.00    -0.005 A 
ATOM     12  C   UNL A   1      31.603  29.317  24.599  1.00  0.00     0.054 A 
ATOM     13  C   UNL A   1      31.834  27.114  23.641  1.00  0.00     0.131 A 
ATOM     14  C   UNL A   1      32.856  29.188  25.205  1.00  0.00     0.130 A 
ATOM     15  C   UNL A   1      33.082  26.965  24.248  1.00  0.00     0.021 A 
ATOM     16  O   UNL A   1      31.274  26.130  22.882  1.00  0.00    -0.475 OA
ATOM     17  C   UNL A   1      33.587  28.007  25.028  1.00  0.00     0.058 A 
ATOM     18  C   UNL A   1      33.811  25.711  24.087  1.00  0.00     0.025 C 
ATOM     19  C   UNL A   1      32.164  25.121  22.348  1.00  0.00     0.314 C 
BRANCH  14  20
ATOM     20  O   UNL A   1      33.472  30.125  25.986  1.00  0.00    -0.406 OA
BRANCH  20  21
ATOM     21  C   UNL A   1      32.870  30.440  27.230  1.00  0.00     0.573 C 
ATOM     22  F   UNL A   1      32.144  29.404  27.701  1.00  0.00    -0.132 F 
ATOM     23  F   UNL A   1      33.796  30.799  28.145  1.00  0.00    -0.132 F 
ATOM     24  F   UNL A   1      32.034  31.488  27.052  1.00  0.00    -0.132 F 
ENDBRANCH  20  21
ENDBRANCH  14  20
BRANCH  19  25
ATOM     25  C   UNL A   1      32.520  25.462  20.891  1.00  0.00     0.429 C 
ATOM     26  F   UNL A   1      33.472  26.425  20.843  1.00  0.00    -0.167 F 
ATOM     27  F   UNL A   1      32.987  24.392  20.206  1.00  0.00    -0.167 F 
ATOM     28  F   UNL A   1      31.461  25.932  20.193  1.00  0.00    -0.167 F 
ENDBRANCH  19  25
ENDBRANCH   6   9
ENDBRANCH   4   5
ENDBRANCH   3   4
ENDBRANCH   2   3
ENDBRANCH   1   2
BRANCH   1  29
ATOM     29  C   UNL A   1      34.913  23.232  26.420  1.00  0.00     0.021 C 
BRANCH  29  30
ATOM     30  C   UNL A   1      36.306  23.846  26.327  1.00  0.00     0.116 C 
BRANCH  30  31
ATOM     31  N   UNL A   1      37.330  22.821  26.210  1.00  0.00    -0.352 N 
ATOM     32  C   UNL A   1      38.690  22.953  26.347  1.00  0.00     0.251 C 
ATOM     33  H   UNL A   1      37.007  21.915  26.006  1.00  0.00     0.163 HD
ATOM     34  O   UNL A   1      39.444  22.061  25.983  1.00  0.00    -0.269 OA
BRANCH  32  35
ATOM     35  C   UNL A   1      39.226  24.194  26.939  1.00  0.00     0.039 A 
ATOM     36  C   UNL A   1      39.887  25.110  26.120  1.00  0.00     0.014 A 
ATOM     37  C   UNL A   1      39.063  24.442  28.306  1.00  0.00     0.014 A 
ATOM     38  C   UNL A   1      40.354  26.306  26.668  1.00  0.00     0.010 A 
ATOM     39  C   UNL A   1      39.484  25.655  28.839  1.00  0.00     0.010 A 
ATOM     40  C   UNL A   1      40.144  26.590  28.027  1.00  0.00    -0.014 A 
BRANCH  40  41
ATOM     41  C   UNL A   1      40.645  27.847  28.629  1.00  0.00     0.031 A 
ATOM     42  C   UNL A   1      39.669  28.915  29.036  1.00  0.00     0.074 A 
ATOM     43  C   UNL A   1      41.970  28.047  28.761  1.00  0.00     0.049 A 
ATOM     44  N   UNL A   1      39.908  30.088  29.556  1.00  0.00    -0.248 NA
ATOM     45  C   UNL A   1      38.238  28.634  28.819  1.00  0.00     0.031 C 
ATOM     46  C   UNL A   1      43.014  27.105  28.353  1.00  0.00     0.029 A 
ATOM     47  N   UNL A   1      42.666  29.119  29.261  1.00  0.00    -0.354 N 
ATOM     48  C   UNL A   1      38.667  30.692  29.710  1.00  0.00     0.074 A 
ATOM     49  C   UNL A   1      37.676  29.771  29.203  1.00  0.00     0.031 C 
ATOM     50  C   UNL A   1      44.216  27.639  28.625  1.00  0.00     0.029 A 
ATOM     51  C   UNL A   1      44.031  28.964  29.209  1.00  0.00     0.049 A 
ATOM     52  H   UNL A   1      42.229  29.924  29.622  1.00  0.00     0.167 HD
ATOM     53  C   UNL A   1      38.378  31.894  30.258  1.00  0.00     0.034 A 
ATOM     54  C   UNL A   1      45.019  29.794  29.594  1.00  0.00     0.034 A 
ATOM     55  C   UNL A   1      39.358  32.788  30.805  1.00  0.00     0.049 A 
ATOM     56  C   UNL A   1      44.668  31.118  30.215  1.00  0.00     0.074 A 
ATOM     57  C   UNL A   1      39.151  33.997  31.444  1.00  0.00     0.029 A 
ATOM     58  N   UNL A   1      40.726  32.573  30.780  1.00  0.00    -0.354 N 
ATOM     59  N   UNL A   1      43.482  31.618  30.465  1.00  0.00    -0.248 NA
ATOM     60  C   UNL A   1      45.783  31.979  30.635  1.00  0.00     0.031 C 
ATOM     61  C   UNL A   1      40.397  34.518  31.800  1.00  0.00     0.029 A 
ATOM     62  C   UNL A   1      41.377  33.628  31.390  1.00  0.00     0.049 A 
ATOM     63  H   UNL A   1      41.167  31.787  30.385  1.00  0.00     0.167 HD
ATOM     64  C   UNL A   1      43.707  32.838  31.092  1.00  0.00     0.074 A 
ATOM     65  C   UNL A   1      45.143  32.998  31.196  1.00  0.00     0.031 C 
ATOM     66  C   UNL A   1      42.804  33.747  31.531  1.00  0.00     0.034 A 
BRANCH  53  67
ATOM     67  C   UNL A   1      36.933  32.288  30.371  1.00  0.00     0.023 A 
ATOM     68  C   UNL A   1      36.234  31.985  31.557  1.00  0.00     0.012 A 
ATOM     69  C   UNL A   1      36.303  33.042  29.363  1.00  0.00     0.148 A 
ATOM     70  C   UNL A   1      34.925  32.423  31.737  1.00  0.00     0.002 A 
ATOM     71  C   UNL A   1      35.007  33.500  29.562  1.00  0.00     0.091 A 
ATOM     72  F   UNL A   1      36.988  33.303  28.241  1.00  0.00    -0.205 F 
ATOM     73  C   UNL A   1      34.316  33.189  30.746  1.00  0.00     0.022 A 
BRANCH  71  74
ATOM     74  S   UNL A   1      34.148  34.538  28.375  1.00  0.00     0.127 S 
ATOM     75  O   UNL A   1      34.277  33.753  27.148  1.00  0.00    -0.237 OA
ATOM     76  O   UNL A   1      32.796  34.582  28.932  1.00  0.00    -0.237 OA
ATOM     77  O   UNL A   1      34.851  35.813  28.367  1.00  0.00    -0.744 OA
ENDBRANCH  71  74
ENDBRANCH  53  67
BRANCH  54  78
ATOM     78  C   UNL A   1      46.436  29.355  29.476  1.00  0.00     0.023 A 
ATOM     79  C   UNL A   1      47.030  28.661  30.548  1.00  0.00     0.012 A 
ATOM     80  C   UNL A   1      47.176  29.572  28.297  1.00  0.00     0.148 A 
ATOM     81  C   UNL A   1      48.342  28.200  30.453  1.00  0.00     0.002 A 
ATOM     82  C   UNL A   1      48.471  29.077  28.196  1.00  0.00     0.091 A 
ATOM     83  F   UNL A   1      46.587  30.237  27.294  1.00  0.00    -0.205 F 
ATOM     84  C   UNL A   1      49.060  28.401  29.276  1.00  0.00     0.022 A 
BRANCH  82  85
ATOM     85  S   UNL A   1      49.442  29.198  26.690  1.00  0.00     0.127 S 
ATOM     86  O   UNL A   1      48.536  28.613  25.703  1.00  0.00    -0.237 OA
ATOM     87  O   UNL A   1      49.631  30.644  26.573  1.00  0.00    -0.237 OA
ATOM     88  O   UNL A   1      50.663  28.446  26.942  1.00  0.00    -0.744 OA
ENDBRANCH  82  85
ENDBRANCH  54  78
BRANCH  66  89
ATOM     89  C   UNL A   1      43.315  35.001  32.182  1.00  0.00     0.023 A 
ATOM     90  C   UNL A   1      43.638  36.112  31.378  1.00  0.00     0.012 A 
ATOM     91  C   UNL A   1      43.331  35.127  33.584  1.00  0.00     0.148 A 
ATOM     92  C   UNL A   1      43.972  37.332  31.963  1.00  0.00     0.002 A 
ATOM     93  C   UNL A   1      43.630  36.355  34.160  1.00  0.00     0.091 A 
ATOM     94  F   UNL A   1      43.023  34.051  34.324  1.00  0.00    -0.205 F 
ATOM     95  C   UNL A   1      43.955  37.457  33.351  1.00  0.00     0.022 A 
BRANCH  93  96
ATOM     96  S   UNL A   1      43.558  36.639  35.932  1.00  0.00     0.127 S 
ATOM     97  O   UNL A   1      42.175  36.272  36.236  1.00  0.00    -0.237 OA
ATOM     98  O   UNL A   1      44.562  35.702  36.436  1.00  0.00    -0.237 OA
ATOM     99  O   UNL A   1      43.882  38.044  36.131  1.00  0.00    -0.744 OA
ENDBRANCH  93  96
ENDBRANCH  66  89
ENDBRANCH  40  41
ENDBRANCH  32  35
ENDBRANCH  30  31
ENDBRANCH  29  30
ENDBRANCH   1  29
TORSDOF 19
ENDMDL
