MODEL 1
REMARK VINA RESULT:     -11.3      0.000      0.000
REMARK SMILES C[C@@H]1C(=O)NC(=O)CN1C(=O)NC1(CC(=O)NCCCCCCNC(=O)c2ccc(-c3c4nc(c(-c5cccc(S(=O)(=O)[O-])c5F)c5ccc([nH]5)c(-c5cccc(S(=O)(=O)[O-])c5F)c5nc(c(-c6cccc(S(=O)(=O)[O-])c6F)c6ccc3[nH]6)C=C5)C=C4)cc2)CCC1
REMARK SMILES IDX 20 1 19 2 18 3 17 4 15 5 16 6 14 8 13 9 90 10 92 11 91 12
REMARK SMILES IDX 12 13 10 14 11 15 9 17 1 18 2 19 3 20 4 21 5 22 8 23 6 24
REMARK SMILES IDX 7 26 21 27 22 28 23 29 24 30 25 31 26 33 27 34 28 35 89 36
REMARK SMILES IDX 29 37 88 38 30 39 31 40 32 41 82 42 33 43 87 44 81 45 83 46
REMARK SMILES IDX 34 47 86 48 80 49 79 50 35 52 67 53 47 54 66 55 48 56 51 57
REMARK SMILES IDX 65 58 84 59 49 60 50 61 64 63 85 64 52 65 36 66 37 67 45 68
REMARK SMILES IDX 38 69 40 70 46 71 39 72 41 73 42 74 43 75 44 76 68 77 69 78
REMARK SMILES IDX 77 79 70 80 72 81 78 82 71 83 73 84 74 85 75 86 76 87 53 88
REMARK SMILES IDX 54 89 62 90 55 91 57 92 63 93 56 94 58 95 59 96 60 97 61 98
REMARK H PARENT 17 7 12 16 5 25 24 32 83 51 51 62
REMARK Flexibility Score: inf
ROOT
ATOM      1  C   UNL A   1      35.189  19.915  24.982  1.00  0.00     0.002 C 
ENDROOT
BRANCH   1   2
ATOM      2  C   UNL A   1      33.972  20.598  25.604  1.00  0.00     0.021 C 
BRANCH   2   3
ATOM      3  C   UNL A   1      34.322  21.405  26.843  1.00  0.00     0.116 C 
BRANCH   3   4
ATOM      4  N   UNL A   1      33.117  22.012  27.348  1.00  0.00    -0.356 N 
ATOM      5  C   UNL A   1      32.534  23.140  26.869  1.00  0.00     0.222 C 
ATOM      6  O   UNL A   1      31.770  23.780  27.588  1.00  0.00    -0.275 OA
ATOM      7  H   UNL A   1      32.676  21.570  28.109  1.00  0.00     0.163 HD
BRANCH   5   8
ATOM      8  C   UNL A   1      32.751  23.462  25.415  1.00  0.00     0.128 C 
BRANCH   8   9
ATOM      9  C   UNL A   1      33.657  24.637  25.071  1.00  0.00     0.051 C 
ATOM     10  C   UNL A   1      34.098  24.828  23.573  1.00  0.00     0.029 C 
ATOM     11  C   UNL A   1      35.180  24.315  25.319  1.00  0.00     0.029 C 
ATOM     12  C   UNL A   1      35.265  23.866  23.848  1.00  0.00     0.005 C 
BRANCH   9  13
ATOM     13  N   UNL A   1      33.242  25.912  25.692  1.00  0.00    -0.332 N 
ATOM     14  C   UNL A   1      32.211  26.773  25.538  1.00  0.00     0.318 C 
ATOM     15  O   UNL A   1      32.075  27.599  26.447  1.00  0.00    -0.249 OA
ATOM     16  H   UNL A   1      33.871  26.207  26.389  1.00  0.00     0.165 HD
BRANCH  14  17
ATOM     17  N   UNL A   1      31.347  26.742  24.481  1.00  0.00    -0.304 N 
ATOM     18  C   UNL A   1      30.269  24.797  23.332  1.00  0.00     0.042 C 
ATOM     19  C   UNL A   1      30.119  25.953  24.311  1.00  0.00     0.174 C 
ATOM     20  C   UNL A   1      28.948  26.851  23.860  1.00  0.00     0.249 C 
ATOM     21  O   UNL A   1      27.776  26.484  23.914  1.00  0.00    -0.272 OA
ATOM     22  N   UNL A   1      29.272  28.056  23.285  1.00  0.00    -0.293 N 
ATOM     23  C   UNL A   1      31.694  27.588  23.340  1.00  0.00     0.222 C 
ATOM     24  C   UNL A   1      30.530  28.493  22.947  1.00  0.00     0.246 C 
ATOM     25  H   UNL A   1      28.525  28.669  23.097  1.00  0.00     0.173 HD
ATOM     26  O   UNL A   1      30.665  29.465  22.205  1.00  0.00    -0.273 OA
ENDBRANCH  14  17
ENDBRANCH   9  13
ENDBRANCH   8   9
ENDBRANCH   5   8
ENDBRANCH   3   4
ENDBRANCH   2   3
ENDBRANCH   1   2
BRANCH   1  27
ATOM     27  C   UNL A   1      36.472  20.749  25.046  1.00  0.00     0.002 C 
BRANCH  27  28
ATOM     28  C   UNL A   1      37.761  19.931  24.935  1.00  0.00     0.021 C 
BRANCH  28  29
ATOM     29  C   UNL A   1      38.880  20.430  25.835  1.00  0.00     0.116 C 
BRANCH  29  30
ATOM     30  N   UNL A   1      39.896  19.408  26.012  1.00  0.00    -0.352 N 
ATOM     31  C   UNL A   1      41.250  19.582  26.112  1.00  0.00     0.251 C 
ATOM     32  H   UNL A   1      39.572  18.480  26.067  1.00  0.00     0.163 HD
ATOM     33  O   UNL A   1      42.015  18.639  25.970  1.00  0.00    -0.269 OA
BRANCH  31  34
ATOM     34  C   UNL A   1      41.754  20.938  26.392  1.00  0.00     0.039 A 
ATOM     35  C   UNL A   1      41.977  21.811  25.329  1.00  0.00     0.014 A 
ATOM     36  C   UNL A   1      41.967  21.346  27.715  1.00  0.00     0.014 A 
ATOM     37  C   UNL A   1      42.398  23.111  25.596  1.00  0.00     0.010 A 
ATOM     38  C   UNL A   1      42.297  22.665  27.981  1.00  0.00     0.010 A 
ATOM     39  C   UNL A   1      42.545  23.552  26.922  1.00  0.00    -0.014 A 
BRANCH  39  40
ATOM     40  C   UNL A   1      42.987  24.933  27.222  1.00  0.00     0.031 A 
ATOM     41  C   UNL A   1      42.026  25.911  27.837  1.00  0.00     0.074 A 
ATOM     42  C   UNL A   1      44.231  25.321  26.881  1.00  0.00     0.049 A 
ATOM     43  N   UNL A   1      42.217  27.165  28.155  1.00  0.00    -0.248 NA
ATOM     44  C   UNL A   1      40.659  25.429  28.105  1.00  0.00     0.031 C 
ATOM     45  C   UNL A   1      45.222  24.482  26.202  1.00  0.00     0.029 A 
ATOM     46  N   UNL A   1      44.866  26.525  27.038  1.00  0.00    -0.354 N 
ATOM     47  C   UNL A   1      40.993  27.627  28.623  1.00  0.00     0.074 A 
ATOM     48  C   UNL A   1      40.053  26.535  28.509  1.00  0.00     0.031 C 
ATOM     49  C   UNL A   1      46.344  25.194  26.014  1.00  0.00     0.029 A 
ATOM     50  C   UNL A   1      46.142  26.545  26.528  1.00  0.00     0.049 A 
ATOM     51  H   UNL A   1      44.448  27.302  27.477  1.00  0.00     0.167 HD
ATOM     52  C   UNL A   1      40.687  28.843  29.134  1.00  0.00     0.034 A 
ATOM     53  C   UNL A   1      47.045  27.544  26.476  1.00  0.00     0.034 A 
ATOM     54  C   UNL A   1      41.638  29.910  29.279  1.00  0.00     0.049 A 
ATOM     55  C   UNL A   1      46.693  28.873  27.085  1.00  0.00     0.074 A 
ATOM     56  C   UNL A   1      41.457  31.148  29.868  1.00  0.00     0.029 A 
ATOM     57  N   UNL A   1      42.946  29.871  28.821  1.00  0.00    -0.354 N 
ATOM     58  N   UNL A   1      45.581  29.242  27.673  1.00  0.00    -0.248 NA
ATOM     59  C   UNL A   1      47.732  29.911  27.057  1.00  0.00     0.031 C 
ATOM     60  C   UNL A   1      42.647  31.872  29.734  1.00  0.00     0.029 A 
ATOM     61  C   UNL A   1      43.580  31.069  29.097  1.00  0.00     0.049 A 
ATOM     62  H   UNL A   1      43.361  29.103  28.366  1.00  0.00     0.167 HD
ATOM     63  C   UNL A   1      45.797  30.541  28.117  1.00  0.00     0.074 A 
ATOM     64  C   UNL A   1      47.156  30.886  27.747  1.00  0.00     0.031 C 
ATOM     65  C   UNL A   1      44.948  31.378  28.762  1.00  0.00     0.034 A 
BRANCH  52  66
ATOM     66  C   UNL A   1      39.275  29.066  29.608  1.00  0.00     0.023 A 
ATOM     67  C   UNL A   1      38.900  28.670  30.908  1.00  0.00     0.012 A 
ATOM     68  C   UNL A   1      38.330  29.710  28.784  1.00  0.00     0.148 A 
ATOM     69  C   UNL A   1      37.599  28.872  31.367  1.00  0.00     0.002 A 
ATOM     70  C   UNL A   1      37.050  29.954  29.268  1.00  0.00     0.091 A 
ATOM     71  F   UNL A   1      38.696  30.060  27.543  1.00  0.00    -0.205 F 
ATOM     72  C   UNL A   1      36.678  29.522  30.551  1.00  0.00     0.022 A 
BRANCH  70  73
ATOM     73  S   UNL A   1      35.816  30.857  28.325  1.00  0.00     0.127 S 
ATOM     74  O   UNL A   1      36.554  32.062  27.951  1.00  0.00    -0.237 OA
ATOM     75  O   UNL A   1      35.544  29.939  27.219  1.00  0.00    -0.237 OA
ATOM     76  O   UNL A   1      34.694  31.069  29.230  1.00  0.00    -0.744 OA
ENDBRANCH  70  73
ENDBRANCH  52  66
BRANCH  53  77
ATOM     77  C   UNL A   1      48.386  27.300  25.877  1.00  0.00     0.023 A 
ATOM     78  C   UNL A   1      49.433  26.819  26.687  1.00  0.00     0.012 A 
ATOM     79  C   UNL A   1      48.620  27.508  24.504  1.00  0.00     0.148 A 
ATOM     80  C   UNL A   1      50.697  26.582  26.147  1.00  0.00     0.002 A 
ATOM     81  C   UNL A   1      49.865  27.217  23.961  1.00  0.00     0.091 A 
ATOM     82  F   UNL A   1      47.610  27.973  23.752  1.00  0.00    -0.205 F 
ATOM     83  C   UNL A   1      50.910  26.771  24.784  1.00  0.00     0.022 A 
BRANCH  81  84
ATOM     84  S   UNL A   1      50.192  27.301  22.197  1.00  0.00     0.127 S 
ATOM     85  O   UNL A   1      51.569  26.822  22.125  1.00  0.00    -0.237 OA
ATOM     86  O   UNL A   1      49.188  26.382  21.661  1.00  0.00    -0.237 OA
ATOM     87  O   UNL A   1      49.987  28.695  21.825  1.00  0.00    -0.744 OA
ENDBRANCH  81  84
ENDBRANCH  53  77
BRANCH  65  88
ATOM     88  C   UNL A   1      45.466  32.739  29.148  1.00  0.00     0.023 A 
ATOM     89  C   UNL A   1      46.118  32.921  30.383  1.00  0.00     0.012 A 
ATOM     90  C   UNL A   1      45.373  33.819  28.248  1.00  0.00     0.148 A 
ATOM     91  C   UNL A   1      46.637  34.166  30.732  1.00  0.00     0.002 A 
ATOM     92  C   UNL A   1      45.941  35.043  28.580  1.00  0.00     0.091 A 
ATOM     93  F   UNL A   1      44.735  33.629  27.084  1.00  0.00    -0.205 F 
ATOM     94  C   UNL A   1      46.561  35.223  29.827  1.00  0.00     0.022 A 
BRANCH  92  95
ATOM     95  S   UNL A   1      45.979  36.428  27.438  1.00  0.00     0.127 S 
ATOM     96  O   UNL A   1      44.587  36.873  27.463  1.00  0.00    -0.237 OA
ATOM     97  O   UNL A   1      46.923  37.338  28.088  1.00  0.00    -0.237 OA
ATOM     98  O   UNL A   1      46.438  35.889  26.165  1.00  0.00    -0.744 OA
ENDBRANCH  92  95
ENDBRANCH  65  88
ENDBRANCH  39  40
ENDBRANCH  31  34
ENDBRANCH  29  30
ENDBRANCH  28  29
ENDBRANCH  27  28
ENDBRANCH   1  27
TORSDOF 19
ENDMDL
MODEL 2
REMARK VINA RESULT:     -11.2      1.567      2.044
REMARK SMILES C[C@@H]1C(=O)NC(=O)CN1C(=O)NC1(CC(=O)NCCCCCCNC(=O)c2ccc(-c3c4nc(c(-c5cccc(S(=O)(=O)[O-])c5F)c5ccc([nH]5)c(-c5cccc(S(=O)(=O)[O-])c5F)c5nc(c(-c6cccc(S(=O)(=O)[O-])c6F)c6ccc3[nH]6)C=C5)C=C4)cc2)CCC1
REMARK SMILES IDX 20 1 19 2 18 3 17 4 15 5 16 6 14 8 13 9 90 10 92 11 91 12
REMARK SMILES IDX 12 13 10 14 11 15 9 17 1 18 2 19 3 20 4 21 5 22 8 23 6 24
REMARK SMILES IDX 7 26 21 27 22 28 23 29 24 30 25 31 26 33 27 34 28 35 89 36
REMARK SMILES IDX 29 37 88 38 30 39 31 40 32 41 82 42 33 43 87 44 81 45 83 46
REMARK SMILES IDX 34 47 86 48 80 49 79 50 35 52 67 53 47 54 66 55 48 56 51 57
REMARK SMILES IDX 65 58 84 59 49 60 50 61 64 63 85 64 52 65 36 66 37 67 45 68
REMARK SMILES IDX 38 69 40 70 46 71 39 72 41 73 42 74 43 75 44 76 68 77 69 78
REMARK SMILES IDX 77 79 70 80 72 81 78 82 71 83 73 84 74 85 75 86 76 87 53 88
REMARK SMILES IDX 54 89 62 90 55 91 57 92 63 93 56 94 58 95 59 96 60 97 61 98
REMARK H PARENT 17 7 12 16 5 25 24 32 83 51 51 62
REMARK Flexibility Score: inf
ROOT
ATOM      1  C   UNL A   1      35.956  20.842  25.362  1.00  0.00     0.002 C 
ENDROOT
BRANCH   1   2
ATOM      2  C   UNL A   1      34.871  19.872  24.895  1.00  0.00     0.021 C 
BRANCH   2   3
ATOM      3  C   UNL A   1      33.478  20.477  24.959  1.00  0.00     0.116 C 
BRANCH   3   4
ATOM      4  N   UNL A   1      33.400  21.321  26.124  1.00  0.00    -0.356 N 
ATOM      5  C   UNL A   1      33.259  22.671  26.119  1.00  0.00     0.222 C 
ATOM      6  O   UNL A   1      33.595  23.318  27.108  1.00  0.00    -0.275 OA
ATOM      7  H   UNL A   1      33.453  20.880  27.002  1.00  0.00     0.163 HD
BRANCH   5   8
ATOM      8  C   UNL A   1      32.554  23.285  24.940  1.00  0.00     0.128 C 
BRANCH   8   9
ATOM      9  C   UNL A   1      33.363  24.181  24.011  1.00  0.00     0.051 C 
ATOM     10  C   UNL A   1      32.731  24.591  22.630  1.00  0.00     0.029 C 
ATOM     11  C   UNL A   1      34.384  23.365  23.130  1.00  0.00     0.029 C 
ATOM     12  C   UNL A   1      33.294  23.285  22.044  1.00  0.00     0.005 C 
BRANCH   9  13
ATOM     13  N   UNL A   1      33.997  25.328  24.692  1.00  0.00    -0.332 N 
ATOM     14  C   UNL A   1      33.560  26.441  25.323  1.00  0.00     0.318 C 
ATOM     15  O   UNL A   1      34.408  27.026  26.006  1.00  0.00    -0.249 OA
ATOM     16  H   UNL A   1      34.980  25.268  24.684  1.00  0.00     0.165 HD
BRANCH  14  17
ATOM     17  N   UNL A   1      32.275  26.897  25.255  1.00  0.00    -0.304 N 
ATOM     18  C   UNL A   1      31.399  29.186  24.747  1.00  0.00     0.042 C 
ATOM     19  C   UNL A   1      31.655  27.771  24.249  1.00  0.00     0.174 C 
ATOM     20  C   UNL A   1      30.330  27.166  23.739  1.00  0.00     0.249 C 
ATOM     21  O   UNL A   1      29.773  27.563  22.718  1.00  0.00    -0.272 OA
ATOM     22  N   UNL A   1      29.727  26.224  24.537  1.00  0.00    -0.293 N 
ATOM     23  C   UNL A   1      31.387  26.490  26.343  1.00  0.00     0.222 C 
ATOM     24  C   UNL A   1      30.107  25.857  25.805  1.00  0.00     0.246 C 
ATOM     25  H   UNL A   1      28.942  25.766  24.160  1.00  0.00     0.173 HD
ATOM     26  O   UNL A   1      29.341  25.204  26.512  1.00  0.00    -0.273 OA
ENDBRANCH  14  17
ENDBRANCH   9  13
ENDBRANCH   8   9
ENDBRANCH   5   8
ENDBRANCH   3   4
ENDBRANCH   2   3
ENDBRANCH   1   2
BRANCH   1  27
ATOM     27  C   UNL A   1      37.274  20.721  24.590  1.00  0.00     0.002 C 
BRANCH  27  28
ATOM     28  C   UNL A   1      38.207  19.623  25.106  1.00  0.00     0.021 C 
BRANCH  28  29
ATOM     29  C   UNL A   1      39.289  20.134  26.043  1.00  0.00     0.116 C 
BRANCH  29  30
ATOM     30  N   UNL A   1      40.391  19.192  26.124  1.00  0.00    -0.352 N 
ATOM     31  C   UNL A   1      41.731  19.469  26.124  1.00  0.00     0.251 C 
ATOM     32  H   UNL A   1      40.144  18.241  26.189  1.00  0.00     0.163 HD
ATOM     33  O   UNL A   1      42.553  18.590  25.907  1.00  0.00    -0.269 OA
BRANCH  31  34
ATOM     34  C   UNL A   1      42.151  20.857  26.388  1.00  0.00     0.039 A 
ATOM     35  C   UNL A   1      42.442  21.240  27.696  1.00  0.00     0.014 A 
ATOM     36  C   UNL A   1      42.288  21.760  25.326  1.00  0.00     0.014 A 
ATOM     37  C   UNL A   1      42.893  22.535  27.939  1.00  0.00     0.010 A 
ATOM     38  C   UNL A   1      42.825  23.016  25.560  1.00  0.00     0.010 A 
ATOM     39  C   UNL A   1      43.103  23.426  26.872  1.00  0.00    -0.014 A 
BRANCH  39  40
ATOM     40  C   UNL A   1      43.589  24.804  27.114  1.00  0.00     0.031 A 
ATOM     41  C   UNL A   1      42.645  25.850  27.638  1.00  0.00     0.074 A 
ATOM     42  C   UNL A   1      44.860  25.124  26.803  1.00  0.00     0.049 A 
ATOM     43  N   UNL A   1      42.875  27.111  27.896  1.00  0.00    -0.248 NA
ATOM     44  C   UNL A   1      41.251  25.436  27.876  1.00  0.00     0.031 C 
ATOM     45  C   UNL A   1      45.841  24.212  26.210  1.00  0.00     0.029 A 
ATOM     46  N   UNL A   1      45.536  26.310  26.922  1.00  0.00    -0.354 N 
ATOM     47  C   UNL A   1      41.654  27.645  28.289  1.00  0.00     0.074 A 
ATOM     48  C   UNL A   1      40.676  26.585  28.196  1.00  0.00     0.031 C 
ATOM     49  C   UNL A   1      46.997  24.869  26.030  1.00  0.00     0.029 A 
ATOM     50  C   UNL A   1      46.831  26.253  26.463  1.00  0.00     0.049 A 
ATOM     51  H   UNL A   1      45.134  27.125  27.301  1.00  0.00     0.167 HD
ATOM     52  C   UNL A   1      41.378  28.898  28.721  1.00  0.00     0.034 A 
ATOM     53  C   UNL A   1      47.774  27.212  26.394  1.00  0.00     0.034 A 
ATOM     54  C   UNL A   1      42.365  29.934  28.847  1.00  0.00     0.049 A 
ATOM     55  C   UNL A   1      47.453  28.585  26.916  1.00  0.00     0.074 A 
ATOM     56  C   UNL A   1      42.212  31.209  29.361  1.00  0.00     0.029 A 
ATOM     57  N   UNL A   1      43.687  29.820  28.445  1.00  0.00    -0.354 N 
ATOM     58  N   UNL A   1      46.336  29.028  27.438  1.00  0.00    -0.248 NA
ATOM     59  C   UNL A   1      48.534  29.579  26.875  1.00  0.00     0.031 C 
ATOM     60  C   UNL A   1      43.434  31.877  29.236  1.00  0.00     0.029 A 
ATOM     61  C   UNL A   1      44.358  31.006  28.682  1.00  0.00     0.049 A 
ATOM     62  H   UNL A   1      44.088  29.012  28.049  1.00  0.00     0.167 HD
ATOM     63  C   UNL A   1      46.587  30.341  27.821  1.00  0.00     0.074 A 
ATOM     64  C   UNL A   1      47.972  30.612  27.488  1.00  0.00     0.031 C 
ATOM     65  C   UNL A   1      45.749  31.244  28.385  1.00  0.00     0.034 A 
BRANCH  52  66
ATOM     66  C   UNL A   1      39.959  29.201  29.125  1.00  0.00     0.023 A 
ATOM     67  C   UNL A   1      38.986  29.453  28.136  1.00  0.00     0.012 A 
ATOM     68  C   UNL A   1      39.576  29.190  30.481  1.00  0.00     0.148 A 
ATOM     69  C   UNL A   1      37.667  29.731  28.489  1.00  0.00     0.002 A 
ATOM     70  C   UNL A   1      38.248  29.418  30.822  1.00  0.00     0.091 A 
ATOM     71  F   UNL A   1      40.517  28.970  31.410  1.00  0.00    -0.205 F 
ATOM     72  C   UNL A   1      37.295  29.703  29.830  1.00  0.00     0.022 A 
BRANCH  70  73
ATOM     73  S   UNL A   1      37.654  29.322  32.514  1.00  0.00     0.127 S 
ATOM     74  O   UNL A   1      38.602  30.192  33.210  1.00  0.00    -0.237 OA
ATOM     75  O   UNL A   1      36.301  29.866  32.394  1.00  0.00    -0.237 OA
ATOM     76  O   UNL A   1      37.713  27.915  32.883  1.00  0.00    -0.744 OA
ENDBRANCH  70  73
ENDBRANCH  52  66
BRANCH  53  77
ATOM     77  C   UNL A   1      49.127  26.884  25.863  1.00  0.00     0.023 A 
ATOM     78  C   UNL A   1      50.010  26.109  26.640  1.00  0.00     0.012 A 
ATOM     79  C   UNL A   1      49.528  27.306  24.581  1.00  0.00     0.148 A 
ATOM     80  C   UNL A   1      51.280  25.788  26.162  1.00  0.00     0.002 A 
ATOM     81  C   UNL A   1      50.773  26.936  24.088  1.00  0.00     0.091 A 
ATOM     82  F   UNL A   1      48.673  28.048  23.861  1.00  0.00    -0.205 F 
ATOM     83  C   UNL A   1      51.658  26.193  24.884  1.00  0.00     0.022 A 
BRANCH  81  84
ATOM     84  S   UNL A   1      51.291  27.296  22.406  1.00  0.00     0.127 S 
ATOM     85  O   UNL A   1      52.564  26.587  22.327  1.00  0.00    -0.237 OA
ATOM     86  O   UNL A   1      50.204  26.706  21.624  1.00  0.00    -0.237 OA
ATOM     87  O   UNL A   1      51.370  28.749  22.321  1.00  0.00    -0.744 OA
ENDBRANCH  81  84
ENDBRANCH  53  77
BRANCH  65  88
ATOM     88  C   UNL A   1      46.307  32.602  28.719  1.00  0.00     0.023 A 
ATOM     89  C   UNL A   1      46.936  32.821  29.960  1.00  0.00     0.012 A 
ATOM     90  C   UNL A   1      46.274  33.640  27.766  1.00  0.00     0.148 A 
ATOM     91  C   UNL A   1      47.491  34.064  30.262  1.00  0.00     0.002 A 
ATOM     92  C   UNL A   1      46.877  34.858  28.053  1.00  0.00     0.091 A 
ATOM     93  F   UNL A   1      45.656  33.415  26.597  1.00  0.00    -0.205 F 
ATOM     94  C   UNL A   1      47.474  35.077  29.306  1.00  0.00     0.022 A 
BRANCH  92  95
ATOM     95  S   UNL A   1      46.992  36.184  26.848  1.00  0.00     0.127 S 
ATOM     96  O   UNL A   1      45.601  36.622  26.754  1.00  0.00    -0.237 OA
ATOM     97  O   UNL A   1      47.887  37.130  27.514  1.00  0.00    -0.237 OA
ATOM     98  O   UNL A   1      47.539  35.583  25.639  1.00  0.00    -0.744 OA
ENDBRANCH  92  95
ENDBRANCH  65  88
ENDBRANCH  39  40
ENDBRANCH  31  34
ENDBRANCH  29  30
ENDBRANCH  28  29
ENDBRANCH  27  28
ENDBRANCH   1  27
TORSDOF 19
ENDMDL
MODEL 3
REMARK VINA RESULT:     -11.1      5.085      8.905
REMARK SMILES C[C@@H]1C(=O)NC(=O)CN1C(=O)NC1(CC(=O)NCCCCCCNC(=O)c2ccc(-c3c4nc(c(-c5cccc(S(=O)(=O)[O-])c5F)c5ccc([nH]5)c(-c5cccc(S(=O)(=O)[O-])c5F)c5nc(c(-c6cccc(S(=O)(=O)[O-])c6F)c6ccc3[nH]6)C=C5)C=C4)cc2)CCC1
REMARK SMILES IDX 20 1 19 2 18 3 17 4 15 5 16 6 14 8 13 9 90 10 92 11 91 12
REMARK SMILES IDX 12 13 10 14 11 15 9 17 1 18 2 19 3 20 4 21 5 22 8 23 6 24
REMARK SMILES IDX 7 26 21 27 22 28 23 29 24 30 25 31 26 33 27 34 28 35 89 36
REMARK SMILES IDX 29 37 88 38 30 39 31 40 32 41 82 42 33 43 87 44 81 45 83 46
REMARK SMILES IDX 34 47 86 48 80 49 79 50 35 52 67 53 47 54 66 55 48 56 51 57
REMARK SMILES IDX 65 58 84 59 49 60 50 61 64 63 85 64 52 65 36 66 37 67 45 68
REMARK SMILES IDX 38 69 40 70 46 71 39 72 41 73 42 74 43 75 44 76 68 77 69 78
REMARK SMILES IDX 77 79 70 80 72 81 78 82 71 83 73 84 74 85 75 86 76 87 53 88
REMARK SMILES IDX 54 89 62 90 55 91 57 92 63 93 56 94 58 95 59 96 60 97 61 98
REMARK H PARENT 17 7 12 16 5 25 24 32 83 51 51 62
REMARK Flexibility Score: inf
ROOT
ATOM      1  C   UNL A   1      31.174  28.461  25.742  1.00  0.00     0.002 C 
ENDROOT
BRANCH   1   2
ATOM      2  C   UNL A   1      31.479  27.103  25.111  1.00  0.00     0.021 C 
BRANCH   2   3
ATOM      3  C   UNL A   1      30.223  26.355  24.694  1.00  0.00     0.116 C 
BRANCH   3   4
ATOM      4  N   UNL A   1      30.157  25.123  25.439  1.00  0.00    -0.356 N 
ATOM      5  C   UNL A   1      31.010  24.075  25.317  1.00  0.00     0.222 C 
ATOM      6  O   UNL A   1      30.653  22.958  25.683  1.00  0.00    -0.275 OA
ATOM      7  H   UNL A   1      29.429  25.033  26.095  1.00  0.00     0.163 HD
BRANCH   5   8
ATOM      8  C   UNL A   1      32.414  24.379  24.868  1.00  0.00     0.128 C 
BRANCH   8   9
ATOM      9  C   UNL A   1      32.845  23.891  23.491  1.00  0.00     0.051 C 
ATOM     10  C   UNL A   1      34.208  24.414  22.905  1.00  0.00     0.029 C 
ATOM     11  C   UNL A   1      32.196  24.730  22.326  1.00  0.00     0.029 C 
ATOM     12  C   UNL A   1      33.445  25.632  22.357  1.00  0.00     0.005 C 
BRANCH   9  13
ATOM     13  N   UNL A   1      32.682  22.435  23.296  1.00  0.00    -0.332 N 
ATOM     14  C   UNL A   1      33.083  21.321  23.947  1.00  0.00     0.318 C 
ATOM     15  O   UNL A   1      32.506  20.280  23.614  1.00  0.00    -0.249 OA
ATOM     16  H   UNL A   1      32.150  22.226  22.494  1.00  0.00     0.165 HD
BRANCH  14  17
ATOM     17  N   UNL A   1      34.034  21.314  24.927  1.00  0.00    -0.304 N 
ATOM     18  C   UNL A   1      36.267  20.187  25.002  1.00  0.00     0.042 C 
ATOM     19  C   UNL A   1      35.489  21.481  24.806  1.00  0.00     0.174 C 
ATOM     20  C   UNL A   1      36.005  22.539  25.803  1.00  0.00     0.249 C 
ATOM     21  O   UNL A   1      37.121  23.045  25.709  1.00  0.00    -0.272 OA
ATOM     22  N   UNL A   1      35.202  22.823  26.881  1.00  0.00    -0.293 N 
ATOM     23  C   UNL A   1      33.555  21.084  26.289  1.00  0.00     0.222 C 
ATOM     24  C   UNL A   1      34.048  22.171  27.240  1.00  0.00     0.246 C 
ATOM     25  H   UNL A   1      35.485  23.572  27.454  1.00  0.00     0.173 HD
ATOM     26  O   UNL A   1      33.567  22.343  28.359  1.00  0.00    -0.273 OA
ENDBRANCH  14  17
ENDBRANCH   9  13
ENDBRANCH   8   9
ENDBRANCH   5   8
ENDBRANCH   3   4
ENDBRANCH   2   3
ENDBRANCH   1   2
BRANCH   1  27
ATOM     27  C   UNL A   1      31.799  28.659  27.126  1.00  0.00     0.002 C 
BRANCH  27  28
ATOM     28  C   UNL A   1      33.240  28.154  27.244  1.00  0.00     0.021 C 
BRANCH  28  29
ATOM     29  C   UNL A   1      34.238  28.963  26.432  1.00  0.00     0.116 C 
BRANCH  29  30
ATOM     30  N   UNL A   1      34.093  30.382  26.699  1.00  0.00    -0.352 N 
ATOM     31  C   UNL A   1      34.761  31.131  27.630  1.00  0.00     0.251 C 
ATOM     32  H   UNL A   1      33.437  30.863  26.144  1.00  0.00     0.163 HD
ATOM     33  O   UNL A   1      34.353  32.237  27.955  1.00  0.00    -0.269 OA
BRANCH  31  34
ATOM     34  C   UNL A   1      35.982  30.562  28.229  1.00  0.00     0.039 A 
ATOM     35  C   UNL A   1      35.870  29.772  29.372  1.00  0.00     0.014 A 
ATOM     36  C   UNL A   1      37.226  30.789  27.629  1.00  0.00     0.014 A 
ATOM     37  C   UNL A   1      37.016  29.187  29.905  1.00  0.00     0.010 A 
ATOM     38  C   UNL A   1      38.348  30.131  28.108  1.00  0.00     0.010 A 
ATOM     39  C   UNL A   1      38.258  29.348  29.269  1.00  0.00    -0.014 A 
BRANCH  39  40
ATOM     40  C   UNL A   1      39.484  28.727  29.821  1.00  0.00     0.031 A 
ATOM     41  C   UNL A   1      40.112  29.287  31.067  1.00  0.00     0.074 A 
ATOM     42  C   UNL A   1      40.062  27.702  29.166  1.00  0.00     0.049 A 
ATOM     43  N   UNL A   1      41.192  28.897  31.692  1.00  0.00    -0.248 NA
ATOM     44  C   UNL A   1      39.462  30.461  31.676  1.00  0.00     0.031 C 
ATOM     45  C   UNL A   1      39.588  27.131  27.903  1.00  0.00     0.029 A 
ATOM     46  N   UNL A   1      41.185  26.974  29.460  1.00  0.00    -0.354 N 
ATOM     47  C   UNL A   1      41.367  29.792  32.739  1.00  0.00     0.074 A 
ATOM     48  C   UNL A   1      40.310  30.773  32.643  1.00  0.00     0.031 C 
ATOM     49  C   UNL A   1      40.407  26.132  27.539  1.00  0.00     0.029 A 
ATOM     50  C   UNL A   1      41.479  26.014  28.522  1.00  0.00     0.049 A 
ATOM     51  H   UNL A   1      41.729  27.124  30.268  1.00  0.00     0.167 HD
ATOM     52  C   UNL A   1      42.307  29.780  33.714  1.00  0.00     0.034 A 
ATOM     53  C   UNL A   1      42.503  25.140  28.460  1.00  0.00     0.034 A 
ATOM     54  C   UNL A   1      43.330  28.778  33.824  1.00  0.00     0.049 A 
ATOM     55  C   UNL A   1      43.511  25.123  29.576  1.00  0.00     0.074 A 
ATOM     56  C   UNL A   1      44.274  28.618  34.822  1.00  0.00     0.029 A 
ATOM     57  N   UNL A   1      43.554  27.772  32.897  1.00  0.00    -0.354 N 
ATOM     58  N   UNL A   1      43.567  25.874  30.648  1.00  0.00    -0.248 NA
ATOM     59  C   UNL A   1      44.574  24.112  29.493  1.00  0.00     0.031 C 
ATOM     60  C   UNL A   1      45.091  27.536  34.481  1.00  0.00     0.029 A 
ATOM     61  C   UNL A   1      44.631  26.997  33.289  1.00  0.00     0.049 A 
ATOM     62  H   UNL A   1      43.024  27.630  32.079  1.00  0.00     0.167 HD
ATOM     63  C   UNL A   1      44.648  25.406  31.386  1.00  0.00     0.074 A 
ATOM     64  C   UNL A   1      45.204  24.291  30.646  1.00  0.00     0.031 C 
ATOM     65  C   UNL A   1      45.144  25.863  32.563  1.00  0.00     0.034 A 
BRANCH  52  66
ATOM     66  C   UNL A   1      42.242  30.862  34.760  1.00  0.00     0.023 A 
ATOM     67  C   UNL A   1      41.538  30.636  35.961  1.00  0.00     0.012 A 
ATOM     68  C   UNL A   1      42.916  32.085  34.576  1.00  0.00     0.148 A 
ATOM     69  C   UNL A   1      41.470  31.623  36.943  1.00  0.00     0.002 A 
ATOM     70  C   UNL A   1      42.886  33.045  35.582  1.00  0.00     0.091 A 
ATOM     71  F   UNL A   1      43.561  32.292  33.420  1.00  0.00    -0.205 F 
ATOM     72  C   UNL A   1      42.152  32.822  36.758  1.00  0.00     0.022 A 
BRANCH  70  73
ATOM     73  S   UNL A   1      43.799  34.588  35.474  1.00  0.00     0.127 S 
ATOM     74  O   UNL A   1      45.182  34.117  35.534  1.00  0.00    -0.237 OA
ATOM     75  O   UNL A   1      43.384  35.098  34.167  1.00  0.00    -0.237 OA
ATOM     76  O   UNL A   1      43.364  35.392  36.607  1.00  0.00    -0.744 OA
ENDBRANCH  70  73
ENDBRANCH  52  66
BRANCH  53  77
ATOM     77  C   UNL A   1      42.586  24.175  27.329  1.00  0.00     0.023 A 
ATOM     78  C   UNL A   1      43.336  24.508  26.184  1.00  0.00     0.012 A 
ATOM     79  C   UNL A   1      41.957  22.917  27.397  1.00  0.00     0.148 A 
ATOM     80  C   UNL A   1      43.429  23.620  25.113  1.00  0.00     0.002 A 
ATOM     81  C   UNL A   1      42.101  22.013  26.351  1.00  0.00     0.091 A 
ATOM     82  F   UNL A   1      41.244  22.622  28.494  1.00  0.00    -0.205 F 
ATOM     83  C   UNL A   1      42.821  22.370  25.200  1.00  0.00     0.022 A 
BRANCH  81  84
ATOM     84  S   UNL A   1      41.467  20.335  26.432  1.00  0.00     0.127 S 
ATOM     85  O   UNL A   1      42.227  19.677  25.374  1.00  0.00    -0.237 OA
ATOM     86  O   UNL A   1      41.833  19.941  27.793  1.00  0.00    -0.237 OA
ATOM     87  O   UNL A   1      40.032  20.444  26.205  1.00  0.00    -0.744 OA
ENDBRANCH  81  84
ENDBRANCH  53  77
BRANCH  65  88
ATOM     88  C   UNL A   1      46.326  25.138  33.151  1.00  0.00     0.023 A 
ATOM     89  C   UNL A   1      47.631  25.611  32.916  1.00  0.00     0.012 A 
ATOM     90  C   UNL A   1      46.133  24.030  33.999  1.00  0.00     0.148 A 
ATOM     91  C   UNL A   1      48.729  24.971  33.489  1.00  0.00     0.002 A 
ATOM     92  C   UNL A   1      47.227  23.430  34.609  1.00  0.00     0.091 A 
ATOM     93  F   UNL A   1      44.883  23.585  34.196  1.00  0.00    -0.205 F 
ATOM     94  C   UNL A   1      48.528  23.891  34.344  1.00  0.00     0.022 A 
BRANCH  92  95
ATOM     95  S   UNL A   1      47.056  22.100  35.803  1.00  0.00     0.127 S 
ATOM     96  O   UNL A   1      48.449  21.843  36.164  1.00  0.00    -0.237 OA
ATOM     97  O   UNL A   1      46.258  22.729  36.855  1.00  0.00    -0.237 OA
ATOM     98  O   UNL A   1      46.384  21.014  35.102  1.00  0.00    -0.744 OA
ENDBRANCH  92  95
ENDBRANCH  65  88
ENDBRANCH  39  40
ENDBRANCH  31  34
ENDBRANCH  29  30
ENDBRANCH  28  29
ENDBRANCH  27  28
ENDBRANCH   1  27
TORSDOF 19
ENDMDL
