MODEL 1
REMARK VINA RESULT:     -10.9      0.000      0.000
REMARK SMILES O=C(NCCCCCCNC(=O)c1ccc(-c2c3nc(c(-c4cccc(S(=O)(=O)[O-])c4F)c4ccc([nH]4)c(-c4cccc(S(=O)(=O)[O-])c4F)c4nc(c(-c5cccc(S(=O)(=O)[O-])c5F)c5ccc2[nH]5)C=C4)C=C3)cc1)c1ccc(/[NH+]=C2\S[C@@H](Cc3ccc(F)cc3)C(=O)N2Cc2ccccc2)cc1
REMARK SMILES IDX 6 1 5 2 4 3 3 4 1 5 2 6 76 8 77 9 103 10 78 11 102 12 79 13
REMARK SMILES IDX 80 14 81 15 82 17 94 18 83 19 92 20 93 21 95 22 96 23 97 24
REMARK SMILES IDX 101 25 98 26 100 27 99 28 84 29 85 30 86 31 91 32 87 33
REMARK SMILES IDX 90 34 88 35 89 36 7 37 8 38 9 39 10 40 11 41 12 43 13 44
REMARK SMILES IDX 14 45 75 46 15 47 74 48 16 49 17 50 18 51 68 52 19 53 73 54
REMARK SMILES IDX 67 55 69 56 20 57 72 58 66 59 65 60 21 62 53 63 33 64 52 65
REMARK SMILES IDX 34 66 37 67 51 68 70 69 35 70 36 71 50 73 71 74 38 75 22 76
REMARK SMILES IDX 23 77 31 78 24 79 26 80 32 81 25 82 27 83 28 84 29 85 30 86
REMARK SMILES IDX 54 87 55 88 63 89 56 90 58 91 64 92 57 93 59 94 60 95 61 96
REMARK SMILES IDX 62 97 39 98 40 99 48 100 41 101 43 102 49 103 42 104 44 105
REMARK SMILES IDX 45 106 46 107 47 108
REMARK H PARENT 3 7 80 16 10 42 69 61 37 72
REMARK Flexibility Score: inf
ROOT
ATOM      1  C   UNL A   1      43.659  40.450  32.524  1.00  0.00     0.002 C 
ENDROOT
BRANCH   1   2
ATOM      2  C   UNL A   1      43.355  41.274  33.777  1.00  0.00     0.021 C 
BRANCH   2   3
ATOM      3  C   UNL A   1      42.419  42.460  33.564  1.00  0.00     0.116 C 
BRANCH   3   4
ATOM      4  N   UNL A   1      42.954  43.696  34.117  1.00  0.00    -0.352 N 
ATOM      5  O   UNL A   1      44.451  45.370  34.377  1.00  0.00    -0.269 OA
ATOM      6  C   UNL A   1      44.033  44.435  33.699  1.00  0.00     0.251 C 
ATOM      7  H   UNL A   1      42.474  44.051  34.901  1.00  0.00     0.163 HD
BRANCH   6   8
ATOM      8  C   UNL A   1      44.704  44.092  32.428  1.00  0.00     0.040 A 
ATOM      9  C   UNL A   1      45.879  43.341  32.438  1.00  0.00     0.018 A 
ATOM     10  C   UNL A   1      44.148  44.514  31.216  1.00  0.00     0.018 A 
ATOM     11  C   UNL A   1      46.556  43.119  31.244  1.00  0.00     0.052 A 
ATOM     12  C   UNL A   1      44.815  44.248  30.014  1.00  0.00     0.052 A 
ATOM     13  C   UNL A   1      46.045  43.586  30.028  1.00  0.00     0.125 A 
BRANCH  13  14
ATOM     14  N   UNL A   1      46.766  43.266  28.876  1.00  0.00    -0.235 N 
ATOM     15  C   UNL A   1      46.555  42.191  28.195  1.00  0.00     0.320 C 
ATOM     16  H   UNL A   1      47.466  43.887  28.570  1.00  0.00     0.313 HD
ATOM     17  S   UNL A   1      45.580  40.817  28.637  1.00  0.00    -0.022 SA
ATOM     18  N   UNL A   1      47.100  42.017  26.952  1.00  0.00    -0.186 N 
ATOM     19  C   UNL A   1      46.285  39.788  27.306  1.00  0.00     0.178 C 
ATOM     20  C   UNL A   1      46.913  40.790  26.347  1.00  0.00     0.324 C 
ATOM     21  O   UNL A   1      47.298  40.512  25.217  1.00  0.00    -0.245 OA
BRANCH  18  22
ATOM     22  C   UNL A   1      47.804  43.091  26.259  1.00  0.00     0.283 C 
BRANCH  22  23
ATOM     23  C   UNL A   1      46.959  43.779  25.204  1.00  0.00    -0.006 A 
ATOM     24  C   UNL A   1      45.844  44.552  25.555  1.00  0.00     0.008 A 
ATOM     25  C   UNL A   1      47.289  43.665  23.843  1.00  0.00     0.008 A 
ATOM     26  C   UNL A   1      45.089  45.195  24.569  1.00  0.00     0.000 A 
ATOM     27  C   UNL A   1      46.556  44.334  22.863  1.00  0.00     0.000 A 
ATOM     28  C   UNL A   1      45.453  45.097  23.227  1.00  0.00     0.000 A 
ENDBRANCH  22  23
ENDBRANCH  18  22
BRANCH  19  29
ATOM     29  C   UNL A   1      45.221  38.880  26.687  1.00  0.00     0.063 C 
BRANCH  29  30
ATOM     30  C   UNL A   1      43.868  39.537  26.502  1.00  0.00    -0.046 A 
ATOM     31  C   UNL A   1      42.724  38.940  27.056  1.00  0.00     0.007 A 
ATOM     32  C   UNL A   1      43.727  40.733  25.778  1.00  0.00     0.007 A 
ATOM     33  C   UNL A   1      41.471  39.538  26.914  1.00  0.00     0.039 A 
ATOM     34  C   UNL A   1      42.473  41.332  25.643  1.00  0.00     0.039 A 
ATOM     35  C   UNL A   1      41.357  40.732  26.217  1.00  0.00     0.123 A 
ATOM     36  F   UNL A   1      40.158  41.313  26.090  1.00  0.00    -0.207 F 
ENDBRANCH  29  30
ENDBRANCH  19  29
ENDBRANCH  13  14
ENDBRANCH   6   8
ENDBRANCH   3   4
ENDBRANCH   2   3
ENDBRANCH   1   2
BRANCH   1  37
ATOM     37  C   UNL A   1      43.700  38.933  32.722  1.00  0.00     0.002 C 
BRANCH  37  38
ATOM     38  C   UNL A   1      45.040  38.256  32.424  1.00  0.00     0.021 C 
BRANCH  38  39
ATOM     39  C   UNL A   1      45.174  37.642  31.034  1.00  0.00     0.116 C 
BRANCH  39  40
ATOM     40  N   UNL A   1      46.559  37.454  30.635  1.00  0.00    -0.352 N 
ATOM     41  C   UNL A   1      47.189  36.322  30.179  1.00  0.00     0.251 C 
ATOM     42  H   UNL A   1      47.128  38.254  30.701  1.00  0.00     0.163 HD
ATOM     43  O   UNL A   1      48.408  36.323  30.025  1.00  0.00    -0.269 OA
BRANCH  41  44
ATOM     44  C   UNL A   1      46.410  35.096  29.897  1.00  0.00     0.039 A 
ATOM     45  C   UNL A   1      45.692  35.017  28.700  1.00  0.00     0.014 A 
ATOM     46  C   UNL A   1      46.372  34.035  30.806  1.00  0.00     0.014 A 
ATOM     47  C   UNL A   1      44.986  33.851  28.387  1.00  0.00     0.010 A 
ATOM     48  C   UNL A   1      45.721  32.850  30.465  1.00  0.00     0.010 A 
ATOM     49  C   UNL A   1      45.019  32.747  29.254  1.00  0.00    -0.014 A 
BRANCH  49  50
ATOM     50  C   UNL A   1      44.341  31.471  28.905  1.00  0.00     0.031 A 
ATOM     51  C   UNL A   1      45.033  30.453  28.038  1.00  0.00     0.074 A 
ATOM     52  C   UNL A   1      43.067  31.266  29.296  1.00  0.00     0.049 A 
ATOM     53  N   UNL A   1      44.576  29.319  27.573  1.00  0.00    -0.248 NA
ATOM     54  C   UNL A   1      46.409  30.762  27.616  1.00  0.00     0.031 C 
ATOM     55  C   UNL A   1      42.259  32.210  30.071  1.00  0.00     0.029 A 
ATOM     56  N   UNL A   1      42.218  30.213  29.068  1.00  0.00    -0.354 N 
ATOM     57  C   UNL A   1      45.591  28.795  26.783  1.00  0.00     0.074 A 
ATOM     58  C   UNL A   1      46.678  29.750  26.803  1.00  0.00     0.031 C 
ATOM     59  C   UNL A   1      41.031  31.696  30.245  1.00  0.00     0.029 A 
ATOM     60  C   UNL A   1      40.954  30.400  29.579  1.00  0.00     0.049 A 
ATOM     61  H   UNL A   1      42.487  29.398  28.584  1.00  0.00     0.167 HD
ATOM     62  C   UNL A   1      45.630  27.611  26.126  1.00  0.00     0.034 A 
ATOM     63  C   UNL A   1      39.857  29.622  29.513  1.00  0.00     0.034 A 
ATOM     64  C   UNL A   1      44.569  26.640  26.145  1.00  0.00     0.049 A 
ATOM     65  C   UNL A   1      39.945  28.288  28.821  1.00  0.00     0.074 A 
ATOM     66  C   UNL A   1      44.546  25.380  25.575  1.00  0.00     0.029 A 
ATOM     67  N   UNL A   1      43.343  26.820  26.767  1.00  0.00    -0.354 N 
ATOM     68  N   UNL A   1      40.969  27.742  28.212  1.00  0.00    -0.248 NA
ATOM     69  C   UNL A   1      38.740  27.445  28.843  1.00  0.00     0.031 C 
ATOM     70  C   UNL A   1      43.301  24.800  25.845  1.00  0.00     0.029 A 
ATOM     71  C   UNL A   1      42.557  25.695  26.597  1.00  0.00     0.049 A 
ATOM     72  H   UNL A   1      43.073  27.629  27.258  1.00  0.00     0.167 HD
ATOM     73  C   UNL A   1      40.544  26.481  27.808  1.00  0.00     0.074 A 
ATOM     74  C   UNL A   1      39.177  26.335  28.263  1.00  0.00     0.031 C 
ATOM     75  C   UNL A   1      41.219  25.538  27.107  1.00  0.00     0.034 A 
BRANCH  62  76
ATOM     76  C   UNL A   1      46.894  27.264  25.382  1.00  0.00     0.023 A 
ATOM     77  C   UNL A   1      47.854  26.441  26.006  1.00  0.00     0.012 A 
ATOM     78  C   UNL A   1      47.104  27.688  24.056  1.00  0.00     0.148 A 
ATOM     79  C   UNL A   1      49.017  26.069  25.332  1.00  0.00     0.002 A 
ATOM     80  C   UNL A   1      48.246  27.280  23.376  1.00  0.00     0.091 A 
ATOM     81  F   UNL A   1      46.189  28.488  23.488  1.00  0.00    -0.205 F 
ATOM     82  C   UNL A   1      49.208  26.480  24.016  1.00  0.00     0.022 A 
BRANCH  80  83
ATOM     83  S   UNL A   1      48.551  27.693  21.655  1.00  0.00     0.127 S 
ATOM     84  O   UNL A   1      49.396  28.881  21.781  1.00  0.00    -0.237 OA
ATOM     85  O   UNL A   1      49.245  26.500  21.170  1.00  0.00    -0.237 OA
ATOM     86  O   UNL A   1      47.242  27.918  21.059  1.00  0.00    -0.744 OA
ENDBRANCH  80  83
ENDBRANCH  62  76
BRANCH  63  87
ATOM     87  C   UNL A   1      38.596  30.056  30.179  1.00  0.00     0.023 A 
ATOM     88  C   UNL A   1      38.371  29.708  31.525  1.00  0.00     0.012 A 
ATOM     89  C   UNL A   1      37.637  30.834  29.502  1.00  0.00     0.148 A 
ATOM     90  C   UNL A   1      37.197  30.098  32.174  1.00  0.00     0.002 A 
ATOM     91  C   UNL A   1      36.498  31.266  30.170  1.00  0.00     0.091 A 
ATOM     92  F   UNL A   1      37.861  31.143  28.216  1.00  0.00    -0.205 F 
ATOM     93  C   UNL A   1      36.267  30.884  31.501  1.00  0.00     0.022 A 
BRANCH  91  94
ATOM     94  S   UNL A   1      35.319  32.394  29.417  1.00  0.00     0.127 S 
ATOM     95  O   UNL A   1      34.432  32.693  30.538  1.00  0.00    -0.237 OA
ATOM     96  O   UNL A   1      36.179  33.502  28.998  1.00  0.00    -0.237 OA
ATOM     97  O   UNL A   1      34.725  31.653  28.312  1.00  0.00    -0.744 OA
ENDBRANCH  91  94
ENDBRANCH  63  87
BRANCH  75  98
ATOM     98  C   UNL A   1      40.507  24.244  26.808  1.00  0.00     0.023 A 
ATOM     99  C   UNL A   1      39.246  24.271  26.181  1.00  0.00     0.012 A 
ATOM    100  C   UNL A   1      41.120  23.005  27.080  1.00  0.00     0.148 A 
ATOM    101  C   UNL A   1      38.593  23.084  25.852  1.00  0.00     0.002 A 
ATOM    102  C   UNL A   1      40.483  21.827  26.708  1.00  0.00     0.091 A 
ATOM    103  F   UNL A   1      42.311  23.000  27.696  1.00  0.00    -0.205 F 
ATOM    104  C   UNL A   1      39.216  21.864  26.105  1.00  0.00     0.022 A 
BRANCH 102 105
ATOM    105  S   UNL A   1      41.251  20.216  26.911  1.00  0.00     0.127 S 
ATOM    106  O   UNL A   1      40.507  19.407  25.947  1.00  0.00    -0.237 OA
ATOM    107  O   UNL A   1      42.641  20.483  26.538  1.00  0.00    -0.237 OA
ATOM    108  O   UNL A   1      41.061  19.856  28.310  1.00  0.00    -0.744 OA
ENDBRANCH 102 105
ENDBRANCH  75  98
ENDBRANCH  49  50
ENDBRANCH  41  44
ENDBRANCH  39  40
ENDBRANCH  38  39
ENDBRANCH  37  38
ENDBRANCH   1  37
TORSDOF 21
ENDMDL
MODEL 2
REMARK VINA RESULT:     -10.5      1.527      3.231
REMARK SMILES O=C(NCCCCCCNC(=O)c1ccc(-c2c3nc(c(-c4cccc(S(=O)(=O)[O-])c4F)c4ccc([nH]4)c(-c4cccc(S(=O)(=O)[O-])c4F)c4nc(c(-c5cccc(S(=O)(=O)[O-])c5F)c5ccc2[nH]5)C=C4)C=C3)cc1)c1ccc(/[NH+]=C2\S[C@@H](Cc3ccc(F)cc3)C(=O)N2Cc2ccccc2)cc1
REMARK SMILES IDX 6 1 5 2 4 3 3 4 1 5 2 6 76 8 77 9 103 10 78 11 102 12 79 13
REMARK SMILES IDX 80 14 81 15 82 17 94 18 83 19 92 20 93 21 95 22 96 23 97 24
REMARK SMILES IDX 101 25 98 26 100 27 99 28 84 29 85 30 86 31 91 32 87 33
REMARK SMILES IDX 90 34 88 35 89 36 7 37 8 38 9 39 10 40 11 41 12 43 13 44
REMARK SMILES IDX 14 45 75 46 15 47 74 48 16 49 17 50 18 51 68 52 19 53 73 54
REMARK SMILES IDX 67 55 69 56 20 57 72 58 66 59 65 60 21 62 53 63 33 64 52 65
REMARK SMILES IDX 34 66 37 67 51 68 70 69 35 70 36 71 50 73 71 74 38 75 22 76
REMARK SMILES IDX 23 77 31 78 24 79 26 80 32 81 25 82 27 83 28 84 29 85 30 86
REMARK SMILES IDX 54 87 55 88 63 89 56 90 58 91 64 92 57 93 59 94 60 95 61 96
REMARK SMILES IDX 62 97 39 98 40 99 48 100 41 101 43 102 49 103 42 104 44 105
REMARK SMILES IDX 45 106 46 107 47 108
REMARK H PARENT 3 7 80 16 10 42 69 61 37 72
REMARK Flexibility Score: inf
ROOT
ATOM      1  C   UNL A   1      43.464  40.230  33.279  1.00  0.00     0.002 C 
ENDROOT
BRANCH   1   2
ATOM      2  C   UNL A   1      43.822  40.932  34.592  1.00  0.00     0.021 C 
BRANCH   2   3
ATOM      3  C   UNL A   1      43.683  42.451  34.575  1.00  0.00     0.116 C 
BRANCH   3   4
ATOM      4  N   UNL A   1      44.973  43.127  34.587  1.00  0.00    -0.352 N 
ATOM      5  O   UNL A   1      46.953  43.821  33.745  1.00  0.00    -0.269 OA
ATOM      6  C   UNL A   1      45.824  43.383  33.540  1.00  0.00     0.251 C 
ATOM      7  H   UNL A   1      45.276  43.444  35.468  1.00  0.00     0.163 HD
BRANCH   6   8
ATOM      8  C   UNL A   1      45.380  43.115  32.156  1.00  0.00     0.040 A 
ATOM      9  C   UNL A   1      44.592  44.048  31.482  1.00  0.00     0.018 A 
ATOM     10  C   UNL A   1      45.763  41.928  31.523  1.00  0.00     0.018 A 
ATOM     11  C   UNL A   1      44.092  43.735  30.224  1.00  0.00     0.052 A 
ATOM     12  C   UNL A   1      45.290  41.641  30.238  1.00  0.00     0.052 A 
ATOM     13  C   UNL A   1      44.417  42.525  29.600  1.00  0.00     0.125 A 
BRANCH  13  14
ATOM     14  N   UNL A   1      43.913  42.324  28.312  1.00  0.00    -0.235 N 
ATOM     15  C   UNL A   1      44.623  42.497  27.249  1.00  0.00     0.320 C 
ATOM     16  H   UNL A   1      42.977  42.037  28.212  1.00  0.00     0.313 HD
ATOM     17  S   UNL A   1      46.195  43.234  27.119  1.00  0.00    -0.022 SA
ATOM     18  N   UNL A   1      44.187  42.068  26.025  1.00  0.00    -0.186 N 
ATOM     19  C   UNL A   1      46.068  43.371  25.304  1.00  0.00     0.178 C 
ATOM     20  C   UNL A   1      44.959  42.398  24.929  1.00  0.00     0.324 C 
ATOM     21  O   UNL A   1      44.720  42.037  23.782  1.00  0.00    -0.245 OA
BRANCH  18  22
ATOM     22  C   UNL A   1      42.989  41.249  25.874  1.00  0.00     0.283 C 
BRANCH  22  23
ATOM     23  C   UNL A   1      43.088  39.906  26.573  1.00  0.00    -0.006 A 
ATOM     24  C   UNL A   1      44.261  39.143  26.518  1.00  0.00     0.008 A 
ATOM     25  C   UNL A   1      42.000  39.404  27.306  1.00  0.00     0.008 A 
ATOM     26  C   UNL A   1      44.340  37.916  27.185  1.00  0.00     0.000 A 
ATOM     27  C   UNL A   1      42.090  38.198  27.999  1.00  0.00     0.000 A 
ATOM     28  C   UNL A   1      43.261  37.451  27.936  1.00  0.00     0.000 A 
ENDBRANCH  22  23
ENDBRANCH  18  22
BRANCH  19  29
ATOM     29  C   UNL A   1      47.417  43.103  24.634  1.00  0.00     0.063 C 
BRANCH  29  30
ATOM     30  C   UNL A   1      47.548  43.675  23.237  1.00  0.00    -0.046 A 
ATOM     31  C   UNL A   1      47.269  45.033  23.013  1.00  0.00     0.007 A 
ATOM     32  C   UNL A   1      47.935  42.873  22.151  1.00  0.00     0.007 A 
ATOM     33  C   UNL A   1      47.401  45.585  21.738  1.00  0.00     0.039 A 
ATOM     34  C   UNL A   1      48.072  43.429  20.877  1.00  0.00     0.039 A 
ATOM     35  C   UNL A   1      47.809  44.781  20.683  1.00  0.00     0.123 A 
ATOM     36  F   UNL A   1      47.948  45.311  19.462  1.00  0.00    -0.207 F 
ENDBRANCH  29  30
ENDBRANCH  19  29
ENDBRANCH  13  14
ENDBRANCH   6   8
ENDBRANCH   3   4
ENDBRANCH   2   3
ENDBRANCH   1   2
BRANCH   1  37
ATOM     37  C   UNL A   1      43.593  38.705  33.286  1.00  0.00     0.002 C 
BRANCH  37  38
ATOM     38  C   UNL A   1      44.974  38.150  32.929  1.00  0.00     0.021 C 
BRANCH  38  39
ATOM     39  C   UNL A   1      45.114  37.590  31.517  1.00  0.00     0.116 C 
BRANCH  39  40
ATOM     40  N   UNL A   1      46.501  37.406  31.122  1.00  0.00    -0.352 N 
ATOM     41  C   UNL A   1      47.129  36.284  30.638  1.00  0.00     0.251 C 
ATOM     42  H   UNL A   1      47.073  38.202  31.213  1.00  0.00     0.163 HD
ATOM     43  O   UNL A   1      48.349  36.284  30.492  1.00  0.00    -0.269 OA
BRANCH  41  44
ATOM     44  C   UNL A   1      46.346  35.071  30.317  1.00  0.00     0.039 A 
ATOM     45  C   UNL A   1      45.688  35.001  29.086  1.00  0.00     0.014 A 
ATOM     46  C   UNL A   1      46.246  34.011  31.224  1.00  0.00     0.014 A 
ATOM     47  C   UNL A   1      44.980  33.847  28.739  1.00  0.00     0.010 A 
ATOM     48  C   UNL A   1      45.595  32.836  30.851  1.00  0.00     0.010 A 
ATOM     49  C   UNL A   1      44.953  32.743  29.606  1.00  0.00    -0.014 A 
BRANCH  49  50
ATOM     50  C   UNL A   1      44.274  31.477  29.224  1.00  0.00     0.031 A 
ATOM     51  C   UNL A   1      44.976  30.468  28.355  1.00  0.00     0.074 A 
ATOM     52  C   UNL A   1      42.991  31.275  29.586  1.00  0.00     0.049 A 
ATOM     53  N   UNL A   1      44.521  29.344  27.864  1.00  0.00    -0.248 NA
ATOM     54  C   UNL A   1      46.363  30.773  27.967  1.00  0.00     0.031 C 
ATOM     55  C   UNL A   1      42.173  32.213  30.358  1.00  0.00     0.029 A 
ATOM     56  N   UNL A   1      42.139  30.231  29.324  1.00  0.00    -0.354 N 
ATOM     57  C   UNL A   1      45.549  28.825  27.087  1.00  0.00     0.074 A 
ATOM     58  C   UNL A   1      46.641  29.772  27.143  1.00  0.00     0.031 C 
ATOM     59  C   UNL A   1      40.938  31.705  30.500  1.00  0.00     0.029 A 
ATOM     60  C   UNL A   1      40.867  30.420  29.813  1.00  0.00     0.049 A 
ATOM     61  H   UNL A   1      42.413  29.422  28.834  1.00  0.00     0.167 HD
ATOM     62  C   UNL A   1      45.593  27.651  26.412  1.00  0.00     0.034 A 
ATOM     63  C   UNL A   1      39.766  29.650  29.712  1.00  0.00     0.034 A 
ATOM     64  C   UNL A   1      44.525  26.687  26.395  1.00  0.00     0.049 A 
ATOM     65  C   UNL A   1      39.859  28.327  29.002  1.00  0.00     0.074 A 
ATOM     66  C   UNL A   1      44.505  25.436  25.805  1.00  0.00     0.029 A 
ATOM     67  N   UNL A   1      43.288  26.866  26.994  1.00  0.00    -0.354 N 
ATOM     68  N   UNL A   1      40.891  27.783  28.405  1.00  0.00    -0.248 NA
ATOM     69  C   UNL A   1      38.648  27.492  28.986  1.00  0.00     0.031 C 
ATOM     70  C   UNL A   1      43.252  24.861  26.041  1.00  0.00     0.029 A 
ATOM     71  C   UNL A   1      42.498  25.749  26.791  1.00  0.00     0.049 A 
ATOM     72  H   UNL A   1      43.014  27.670  27.492  1.00  0.00     0.167 HD
ATOM     73  C   UNL A   1      40.467  26.531  27.973  1.00  0.00     0.074 A 
ATOM     74  C   UNL A   1      39.090  26.388  28.398  1.00  0.00     0.031 C 
ATOM     75  C   UNL A   1      41.149  25.594  27.271  1.00  0.00     0.034 A 
BRANCH  62  76
ATOM     76  C   UNL A   1      46.870  27.307  25.689  1.00  0.00     0.023 A 
ATOM     77  C   UNL A   1      47.819  26.482  26.326  1.00  0.00     0.012 A 
ATOM     78  C   UNL A   1      47.102  27.735  24.368  1.00  0.00     0.148 A 
ATOM     79  C   UNL A   1      48.994  26.113  25.672  1.00  0.00     0.002 A 
ATOM     80  C   UNL A   1      48.256  27.329  23.706  1.00  0.00     0.091 A 
ATOM     81  F   UNL A   1      46.197  28.536  23.786  1.00  0.00    -0.205 F 
ATOM     82  C   UNL A   1      49.206  26.527  24.360  1.00  0.00     0.022 A 
BRANCH  80  83
ATOM     83  S   UNL A   1      48.589  27.747  21.992  1.00  0.00     0.127 S 
ATOM     84  O   UNL A   1      48.510  26.436  21.347  1.00  0.00    -0.237 OA
ATOM     85  O   UNL A   1      47.484  28.651  21.673  1.00  0.00    -0.237 OA
ATOM     86  O   UNL A   1      49.906  28.370  21.980  1.00  0.00    -0.744 OA
ENDBRANCH  80  83
ENDBRANCH  62  76
BRANCH  63  87
ATOM     87  C   UNL A   1      38.494  30.083  30.359  1.00  0.00     0.023 A 
ATOM     88  C   UNL A   1      38.226  29.690  31.685  1.00  0.00     0.012 A 
ATOM     89  C   UNL A   1      37.569  30.902  29.685  1.00  0.00     0.148 A 
ATOM     90  C   UNL A   1      37.042  30.077  32.316  1.00  0.00     0.002 A 
ATOM     91  C   UNL A   1      36.419  31.331  30.338  1.00  0.00     0.091 A 
ATOM     92  F   UNL A   1      37.834  31.255  28.419  1.00  0.00    -0.205 F 
ATOM     93  C   UNL A   1      36.144  30.905  31.647  1.00  0.00     0.022 A 
BRANCH  91  94
ATOM     94  S   UNL A   1      35.281  32.507  29.595  1.00  0.00     0.127 S 
ATOM     95  O   UNL A   1      34.368  32.781  30.702  1.00  0.00    -0.237 OA
ATOM     96  O   UNL A   1      36.171  33.614  29.242  1.00  0.00    -0.237 OA
ATOM     97  O   UNL A   1      34.706  31.818  28.448  1.00  0.00    -0.744 OA
ENDBRANCH  91  94
ENDBRANCH  63  87
BRANCH  75  98
ATOM     98  C   UNL A   1      40.435  24.310  26.939  1.00  0.00     0.023 A 
ATOM     99  C   UNL A   1      39.196  24.355  26.269  1.00  0.00     0.012 A 
ATOM    100  C   UNL A   1      41.026  23.063  27.221  1.00  0.00     0.148 A 
ATOM    101  C   UNL A   1      38.542  23.177  25.909  1.00  0.00     0.002 A 
ATOM    102  C   UNL A   1      40.390  21.894  26.818  1.00  0.00     0.091 A 
ATOM    103  F   UNL A   1      42.195  23.041  27.877  1.00  0.00    -0.205 F 
ATOM    104  C   UNL A   1      39.144  21.948  26.172  1.00  0.00     0.022 A 
BRANCH 102 105
ATOM    105  S   UNL A   1      41.135  20.274  27.034  1.00  0.00     0.127 S 
ATOM    106  O   UNL A   1      40.415  19.480  26.039  1.00  0.00    -0.237 OA
ATOM    107  O   UNL A   1      42.538  20.529  26.710  1.00  0.00    -0.237 OA
ATOM    108  O   UNL A   1      40.894  19.905  28.422  1.00  0.00    -0.744 OA
ENDBRANCH 102 105
ENDBRANCH  75  98
ENDBRANCH  49  50
ENDBRANCH  41  44
ENDBRANCH  39  40
ENDBRANCH  38  39
ENDBRANCH  37  38
ENDBRANCH   1  37
TORSDOF 21
ENDMDL
MODEL 3
REMARK VINA RESULT:     -10.5      5.040     13.088
REMARK SMILES O=C(NCCCCCCNC(=O)c1ccc(-c2c3nc(c(-c4cccc(S(=O)(=O)[O-])c4F)c4ccc([nH]4)c(-c4cccc(S(=O)(=O)[O-])c4F)c4nc(c(-c5cccc(S(=O)(=O)[O-])c5F)c5ccc2[nH]5)C=C4)C=C3)cc1)c1ccc(/[NH+]=C2\S[C@@H](Cc3ccc(F)cc3)C(=O)N2Cc2ccccc2)cc1
REMARK SMILES IDX 6 1 5 2 4 3 3 4 1 5 2 6 76 8 77 9 103 10 78 11 102 12 79 13
REMARK SMILES IDX 80 14 81 15 82 17 94 18 83 19 92 20 93 21 95 22 96 23 97 24
REMARK SMILES IDX 101 25 98 26 100 27 99 28 84 29 85 30 86 31 91 32 87 33
REMARK SMILES IDX 90 34 88 35 89 36 7 37 8 38 9 39 10 40 11 41 12 43 13 44
REMARK SMILES IDX 14 45 75 46 15 47 74 48 16 49 17 50 18 51 68 52 19 53 73 54
REMARK SMILES IDX 67 55 69 56 20 57 72 58 66 59 65 60 21 62 53 63 33 64 52 65
REMARK SMILES IDX 34 66 37 67 51 68 70 69 35 70 36 71 50 73 71 74 38 75 22 76
REMARK SMILES IDX 23 77 31 78 24 79 26 80 32 81 25 82 27 83 28 84 29 85 30 86
REMARK SMILES IDX 54 87 55 88 63 89 56 90 58 91 64 92 57 93 59 94 60 95 61 96
REMARK SMILES IDX 62 97 39 98 40 99 48 100 41 101 43 102 49 103 42 104 44 105
REMARK SMILES IDX 45 106 46 107 47 108
REMARK H PARENT 3 7 80 16 10 42 69 61 37 72
REMARK Flexibility Score: inf
ROOT
ATOM      1  C   UNL A   1      48.848  35.879  26.400  1.00  0.00     0.002 C 
ENDROOT
BRANCH   1   2
ATOM      2  C   UNL A   1      48.157  34.869  25.482  1.00  0.00     0.021 C 
BRANCH   2   3
ATOM      3  C   UNL A   1      47.130  33.970  26.163  1.00  0.00     0.116 C 
BRANCH   3   4
ATOM      4  N   UNL A   1      45.838  33.993  25.489  1.00  0.00    -0.352 N 
ATOM      5  O   UNL A   1      43.921  33.129  24.659  1.00  0.00    -0.269 OA
ATOM      6  C   UNL A   1      44.889  33.004  25.405  1.00  0.00     0.251 C 
ATOM      7  H   UNL A   1      45.616  34.835  25.030  1.00  0.00     0.163 HD
BRANCH   6   8
ATOM      8  C   UNL A   1      45.043  31.775  26.210  1.00  0.00     0.040 A 
ATOM      9  C   UNL A   1      46.246  31.069  26.186  1.00  0.00     0.018 A 
ATOM     10  C   UNL A   1      43.981  31.329  27.003  1.00  0.00     0.018 A 
ATOM     11  C   UNL A   1      46.339  29.858  26.862  1.00  0.00     0.052 A 
ATOM     12  C   UNL A   1      44.099  30.130  27.715  1.00  0.00     0.052 A 
ATOM     13  C   UNL A   1      45.265  29.367  27.613  1.00  0.00     0.125 A 
BRANCH  13  14
ATOM     14  N   UNL A   1      45.473  28.170  28.302  1.00  0.00    -0.235 N 
ATOM     15  C   UNL A   1      45.157  27.019  27.815  1.00  0.00     0.320 C 
ATOM     16  H   UNL A   1      45.878  28.208  29.199  1.00  0.00     0.313 HD
ATOM     17  S   UNL A   1      44.210  26.680  26.394  1.00  0.00    -0.022 SA
ATOM     18  N   UNL A   1      45.585  25.857  28.399  1.00  0.00    -0.186 N 
ATOM     19  C   UNL A   1      44.008  24.924  26.850  1.00  0.00     0.178 C 
ATOM     20  C   UNL A   1      45.104  24.674  27.876  1.00  0.00     0.324 C 
ATOM     21  O   UNL A   1      45.442  23.561  28.263  1.00  0.00    -0.245 OA
BRANCH  18  22
ATOM     22  C   UNL A   1      46.550  25.852  29.493  1.00  0.00     0.283 C 
BRANCH  22  23
ATOM     23  C   UNL A   1      47.983  25.668  29.028  1.00  0.00    -0.006 A 
ATOM     24  C   UNL A   1      48.310  25.666  27.666  1.00  0.00     0.008 A 
ATOM     25  C   UNL A   1      49.019  25.508  29.964  1.00  0.00     0.008 A 
ATOM     26  C   UNL A   1      49.640  25.514  27.258  1.00  0.00     0.000 A 
ATOM     27  C   UNL A   1      50.347  25.392  29.557  1.00  0.00     0.000 A 
ATOM     28  C   UNL A   1      50.658  25.391  28.202  1.00  0.00     0.000 A 
ENDBRANCH  22  23
ENDBRANCH  18  22
BRANCH  19  29
ATOM     29  C   UNL A   1      44.061  24.024  25.614  1.00  0.00     0.063 C 
BRANCH  29  30
ATOM     30  C   UNL A   1      43.328  22.707  25.768  1.00  0.00    -0.046 A 
ATOM     31  C   UNL A   1      41.969  22.705  26.119  1.00  0.00     0.007 A 
ATOM     32  C   UNL A   1      43.981  21.478  25.574  1.00  0.00     0.007 A 
ATOM     33  C   UNL A   1      41.269  21.504  26.247  1.00  0.00     0.039 A 
ATOM     34  C   UNL A   1      43.278  20.278  25.697  1.00  0.00     0.039 A 
ATOM     35  C   UNL A   1      41.927  20.302  26.027  1.00  0.00     0.123 A 
ATOM     36  F   UNL A   1      41.255  19.149  26.138  1.00  0.00    -0.207 F 
ENDBRANCH  29  30
ENDBRANCH  19  29
ENDBRANCH  13  14
ENDBRANCH   6   8
ENDBRANCH   3   4
ENDBRANCH   2   3
ENDBRANCH   1   2
BRANCH   1  37
ATOM     37  C   UNL A   1      47.959  36.525  27.465  1.00  0.00     0.002 C 
BRANCH  37  38
ATOM     38  C   UNL A   1      47.487  37.950  27.167  1.00  0.00     0.021 C 
BRANCH  38  39
ATOM     39  C   UNL A   1      46.520  38.093  25.996  1.00  0.00     0.116 C 
BRANCH  39  40
ATOM     40  N   UNL A   1      45.387  38.950  26.305  1.00  0.00    -0.352 N 
ATOM     41  C   UNL A   1      44.276  38.684  27.067  1.00  0.00     0.251 C 
ATOM     42  H   UNL A   1      45.421  39.851  25.912  1.00  0.00     0.163 HD
ATOM     43  O   UNL A   1      43.350  39.492  27.098  1.00  0.00    -0.269 OA
BRANCH  41  44
ATOM     44  C   UNL A   1      44.178  37.420  27.831  1.00  0.00     0.039 A 
ATOM     45  C   UNL A   1      43.636  36.296  27.203  1.00  0.00     0.014 A 
ATOM     46  C   UNL A   1      44.605  37.341  29.159  1.00  0.00     0.014 A 
ATOM     47  C   UNL A   1      43.576  35.078  27.886  1.00  0.00     0.010 A 
ATOM     48  C   UNL A   1      44.604  36.112  29.817  1.00  0.00     0.010 A 
ATOM     49  C   UNL A   1      44.088  34.968  29.189  1.00  0.00    -0.014 A 
BRANCH  49  50
ATOM     50  C   UNL A   1      44.106  33.665  29.904  1.00  0.00     0.031 A 
ATOM     51  C   UNL A   1      42.912  33.219  30.704  1.00  0.00     0.074 A 
ATOM     52  C   UNL A   1      45.232  32.924  29.906  1.00  0.00     0.049 A 
ATOM     53  N   UNL A   1      42.770  32.152  31.448  1.00  0.00    -0.248 NA
ATOM     54  C   UNL A   1      41.731  34.099  30.687  1.00  0.00     0.031 C 
ATOM     55  C   UNL A   1      46.484  33.285  29.237  1.00  0.00     0.029 A 
ATOM     56  N   UNL A   1      45.518  31.729  30.518  1.00  0.00    -0.354 N 
ATOM     57  C   UNL A   1      41.503  32.246  32.010  1.00  0.00     0.074 A 
ATOM     58  C   UNL A   1      40.927  33.491  31.549  1.00  0.00     0.031 C 
ATOM     59  C   UNL A   1      47.402  32.337  29.482  1.00  0.00     0.029 A 
ATOM     60  C   UNL A   1      46.817  31.313  30.341  1.00  0.00     0.049 A 
ATOM     61  H   UNL A   1      44.854  31.216  31.035  1.00  0.00     0.167 HD
ATOM     62  C   UNL A   1      40.862  31.362  32.812  1.00  0.00     0.034 A 
ATOM     63  C   UNL A   1      47.466  30.235  30.822  1.00  0.00     0.034 A 
ATOM     64  C   UNL A   1      41.416  30.103  33.232  1.00  0.00     0.049 A 
ATOM     65  C   UNL A   1      46.714  29.243  31.666  1.00  0.00     0.074 A 
ATOM     66  C   UNL A   1      40.815  29.106  33.980  1.00  0.00     0.029 A 
ATOM     67  N   UNL A   1      42.699  29.666  32.941  1.00  0.00    -0.354 N 
ATOM     68  N   UNL A   1      45.463  29.275  32.058  1.00  0.00    -0.248 NA
ATOM     69  C   UNL A   1      47.448  28.046  32.103  1.00  0.00     0.031 C 
ATOM     70  C   UNL A   1      41.739  28.069  34.149  1.00  0.00     0.029 A 
ATOM     71  C   UNL A   1      42.909  28.415  33.492  1.00  0.00     0.049 A 
ATOM     72  H   UNL A   1      43.362  30.172  32.418  1.00  0.00     0.167 HD
ATOM     73  C   UNL A   1      45.251  28.091  32.756  1.00  0.00     0.074 A 
ATOM     74  C   UNL A   1      46.496  27.353  32.713  1.00  0.00     0.031 C 
ATOM     75  C   UNL A   1      44.133  27.663  33.391  1.00  0.00     0.034 A 
BRANCH  62  76
ATOM     76  C   UNL A   1      39.454  31.693  33.235  1.00  0.00     0.023 A 
ATOM     77  C   UNL A   1      38.383  31.359  32.381  1.00  0.00     0.012 A 
ATOM     78  C   UNL A   1      39.182  32.267  34.492  1.00  0.00     0.148 A 
ATOM     79  C   UNL A   1      37.066  31.617  32.757  1.00  0.00     0.002 A 
ATOM     80  C   UNL A   1      37.864  32.483  34.879  1.00  0.00     0.091 A 
ATOM     81  F   UNL A   1      40.215  32.597  35.282  1.00  0.00    -0.205 F 
ATOM     82  C   UNL A   1      36.806  32.168  34.009  1.00  0.00     0.022 A 
BRANCH  80  83
ATOM     83  S   UNL A   1      37.420  33.120  36.498  1.00  0.00     0.127 S 
ATOM     84  O   UNL A   1      37.563  31.928  37.334  1.00  0.00    -0.237 OA
ATOM     85  O   UNL A   1      38.440  34.145  36.718  1.00  0.00    -0.237 OA
ATOM     86  O   UNL A   1      36.062  33.632  36.369  1.00  0.00    -0.744 OA
ENDBRANCH  80  83
ENDBRANCH  62  76
BRANCH  63  87
ATOM     87  C   UNL A   1      48.893  30.003  30.457  1.00  0.00     0.023 A 
ATOM     88  C   UNL A   1      49.199  29.315  29.266  1.00  0.00     0.012 A 
ATOM     89  C   UNL A   1      49.944  30.483  31.262  1.00  0.00     0.148 A 
ATOM     90  C   UNL A   1      50.526  29.080  28.902  1.00  0.00     0.002 A 
ATOM     91  C   UNL A   1      51.263  30.294  30.865  1.00  0.00     0.091 A 
ATOM     92  F   UNL A   1      49.635  31.122  32.400  1.00  0.00    -0.205 F 
ATOM     93  C   UNL A   1      51.557  29.578  29.694  1.00  0.00     0.022 A 
BRANCH  91  94
ATOM     94  S   UNL A   1      52.642  31.022  31.758  1.00  0.00     0.127 S 
ATOM     95  O   UNL A   1      52.683  30.204  32.967  1.00  0.00    -0.237 OA
ATOM     96  O   UNL A   1      53.755  30.807  30.831  1.00  0.00    -0.237 OA
ATOM     97  O   UNL A   1      52.287  32.422  31.944  1.00  0.00    -0.744 OA
ENDBRANCH  91  94
ENDBRANCH  63  87
BRANCH  75  98
ATOM     98  C   UNL A   1      44.184  26.320  34.070  1.00  0.00     0.023 A 
ATOM     99  C   UNL A   1      43.858  25.158  33.343  1.00  0.00     0.012 A 
ATOM    100  C   UNL A   1      44.627  26.202  35.402  1.00  0.00     0.148 A 
ATOM    101  C   UNL A   1      43.946  23.901  33.939  1.00  0.00     0.002 A 
ATOM    102  C   UNL A   1      44.755  24.942  35.975  1.00  0.00     0.091 A 
ATOM    103  F   UNL A   1      44.913  27.320  36.084  1.00  0.00    -0.205 F 
ATOM    104  C   UNL A   1      44.405  23.792  35.249  1.00  0.00     0.022 A 
BRANCH 102 105
ATOM    105  S   UNL A   1      45.426  24.701  37.624  1.00  0.00     0.127 S 
ATOM    106  O   UNL A   1      45.633  23.254  37.654  1.00  0.00    -0.237 OA
ATOM    107  O   UNL A   1      46.656  25.492  37.580  1.00  0.00    -0.237 OA
ATOM    108  O   UNL A   1      44.416  25.209  38.544  1.00  0.00    -0.744 OA
ENDBRANCH 102 105
ENDBRANCH  75  98
ENDBRANCH  49  50
ENDBRANCH  41  44
ENDBRANCH  39  40
ENDBRANCH  38  39
ENDBRANCH  37  38
ENDBRANCH   1  37
TORSDOF 21
ENDMDL
