MODEL 1
REMARK VINA RESULT:     -11.2      0.000      0.000
REMARK SMILES CC(C)(C)c1csc(NC(=O)Cn2cccc2C(=O)NCCCCCCNC(=O)c2ccc(-c3c4nc(c(-c5cccc(S(=O)(=O)[O-])c5F)c5ccc([nH]5)c(-c5cccc(S(=O)(=O)[O-])c5F)c5nc(c(-c6cccc(S(=O)(=O)[O-])c6F)c6ccc3[nH]6)C=C5)C=C4)cc2)n1
REMARK SMILES IDX 23 1 22 2 21 3 20 4 18 5 19 6 17 8 13 9 14 10 15 11 16 12
REMARK SMILES IDX 12 13 10 14 9 15 11 17 8 18 5 19 6 20 93 21 7 22 2 23 1 24
REMARK SMILES IDX 3 25 4 26 24 27 25 28 26 29 27 30 28 31 29 33 30 34 31 35
REMARK SMILES IDX 92 36 32 37 91 38 33 39 34 40 35 41 85 42 36 43 90 44 84 45
REMARK SMILES IDX 86 46 37 47 89 48 83 49 82 50 38 52 70 53 50 54 69 55 51 56
REMARK SMILES IDX 54 57 68 58 87 59 52 60 53 61 67 63 88 64 55 65 39 66 40 67
REMARK SMILES IDX 48 68 41 69 43 70 49 71 42 72 44 73 45 74 46 75 47 76 71 77
REMARK SMILES IDX 72 78 80 79 73 80 75 81 81 82 74 83 76 84 77 85 78 86 79 87
REMARK SMILES IDX 56 88 57 89 65 90 58 91 60 92 66 93 59 94 61 95 62 96 63 97
REMARK SMILES IDX 64 98
REMARK H PARENT 20 7 9 16 27 32 86 51 54 62
REMARK Flexibility Score: inf
ROOT
ATOM      1  C   UNL A   1      38.988  23.658  26.527  1.00  0.00     0.002 C 
ENDROOT
BRANCH   1   2
ATOM      2  C   UNL A   1      37.680  23.829  25.748  1.00  0.00     0.021 C 
BRANCH   2   3
ATOM      3  C   UNL A   1      36.833  22.562  25.778  1.00  0.00     0.116 C 
BRANCH   3   4
ATOM      4  N   UNL A   1      35.725  22.684  26.675  1.00  0.00    -0.351 N 
ATOM      5  C   UNL A   1      34.477  22.166  26.784  1.00  0.00     0.267 C 
ATOM      6  O   UNL A   1      34.014  22.356  27.919  1.00  0.00    -0.268 OA
ATOM      7  H   UNL A   1      35.921  23.312  27.408  1.00  0.00     0.163 HD
BRANCH   5   8
ATOM      8  C   UNL A   1      33.685  21.447  25.785  1.00  0.00     0.107 A 
ATOM      9  N   UNL A   1      32.405  21.528  25.224  1.00  0.00    -0.334 N 
ATOM     10  C   UNL A   1      32.162  20.375  24.489  1.00  0.00     0.087 A 
ATOM     11  C   UNL A   1      33.309  19.639  24.407  1.00  0.00     0.020 A 
ATOM     12  C   UNL A   1      34.246  20.297  25.207  1.00  0.00     0.033 A 
BRANCH   9  13
ATOM     13  C   UNL A   1      31.406  22.591  25.276  1.00  0.00     0.222 C 
BRANCH  13  14
ATOM     14  C   UNL A   1      31.310  23.350  26.589  1.00  0.00     0.246 C 
ATOM     15  N   UNL A   1      31.763  24.623  26.775  1.00  0.00    -0.300 N 
ATOM     16  H   UNL A   1      31.645  24.946  27.697  1.00  0.00     0.172 HD
ATOM     17  O   UNL A   1      30.800  22.801  27.572  1.00  0.00    -0.273 OA
BRANCH  15  18
ATOM     18  C   UNL A   1      32.345  25.544  25.949  1.00  0.00     0.189 A 
ATOM     19  C   UNL A   1      32.413  27.252  24.533  1.00  0.00     0.059 A 
ATOM     20  C   UNL A   1      33.715  26.799  24.417  1.00  0.00     0.093 A 
ATOM     21  N   UNL A   1      31.651  26.541  25.450  1.00  0.00    -0.224 NA
ATOM     22  S   UNL A   1      33.996  25.558  25.548  1.00  0.00    -0.105 S 
BRANCH  19  23
ATOM     23  C   UNL A   1      31.805  28.432  23.797  1.00  0.00     0.005 C 
ATOM     24  C   UNL A   1      32.839  29.129  22.890  1.00  0.00     0.017 C 
ATOM     25  C   UNL A   1      31.267  29.476  24.795  1.00  0.00     0.017 C 
ATOM     26  C   UNL A   1      30.645  27.926  22.916  1.00  0.00     0.017 C 
ENDBRANCH  19  23
ENDBRANCH  15  18
ENDBRANCH  13  14
ENDBRANCH   9  13
ENDBRANCH   5   8
ENDBRANCH   3   4
ENDBRANCH   2   3
ENDBRANCH   1   2
BRANCH   1  27
ATOM     27  C   UNL A   1      39.456  22.201  26.672  1.00  0.00     0.002 C 
BRANCH  27  28
ATOM     28  C   UNL A   1      40.737  21.855  25.900  1.00  0.00     0.021 C 
BRANCH  28  29
ATOM     29  C   UNL A   1      41.953  21.775  26.814  1.00  0.00     0.116 C 
BRANCH  29  30
ATOM     30  N   UNL A   1      43.115  22.303  26.114  1.00  0.00    -0.352 N 
ATOM     31  C   UNL A   1      43.567  23.589  25.995  1.00  0.00     0.251 C 
ATOM     32  H   UNL A   1      43.663  21.629  25.653  1.00  0.00     0.163 HD
ATOM     33  O   UNL A   1      44.384  23.862  25.128  1.00  0.00    -0.269 OA
BRANCH  31  34
ATOM     34  C   UNL A   1      43.066  24.636  26.899  1.00  0.00     0.039 A 
ATOM     35  C   UNL A   1      43.359  25.968  26.587  1.00  0.00     0.014 A 
ATOM     36  C   UNL A   1      42.389  24.300  28.075  1.00  0.00     0.014 A 
ATOM     37  C   UNL A   1      42.930  26.974  27.440  1.00  0.00     0.010 A 
ATOM     38  C   UNL A   1      41.919  25.301  28.900  1.00  0.00     0.010 A 
ATOM     39  C   UNL A   1      42.199  26.632  28.584  1.00  0.00    -0.014 A 
BRANCH  39  40
ATOM     40  C   UNL A   1      41.622  27.698  29.418  1.00  0.00     0.031 A 
ATOM     41  C   UNL A   1      42.404  27.825  30.756  1.00  0.00     0.074 A 
ATOM     42  C   UNL A   1      40.549  28.342  28.856  1.00  0.00     0.049 A 
ATOM     43  N   UNL A   1      42.000  28.159  31.947  1.00  0.00    -0.248 NA
ATOM     44  C   UNL A   1      43.837  27.406  30.798  1.00  0.00     0.031 C 
ATOM     45  C   UNL A   1      40.009  28.079  27.494  1.00  0.00     0.029 A 
ATOM     46  N   UNL A   1      39.700  29.343  29.271  1.00  0.00    -0.354 N 
ATOM     47  C   UNL A   1      43.156  28.254  32.775  1.00  0.00     0.074 A 
ATOM     48  C   UNL A   1      44.215  27.615  32.062  1.00  0.00     0.031 C 
ATOM     49  C   UNL A   1      38.904  28.820  27.247  1.00  0.00     0.029 A 
ATOM     50  C   UNL A   1      38.618  29.647  28.400  1.00  0.00     0.049 A 
ATOM     51  H   UNL A   1      39.835  29.821  30.121  1.00  0.00     0.167 HD
ATOM     52  C   UNL A   1      43.207  29.029  33.904  1.00  0.00     0.034 A 
ATOM     53  C   UNL A   1      37.547  30.476  28.622  1.00  0.00     0.034 A 
ATOM     54  C   UNL A   1      41.962  29.707  34.047  1.00  0.00     0.049 A 
ATOM     55  C   UNL A   1      37.867  31.162  29.878  1.00  0.00     0.074 A 
ATOM     56  C   UNL A   1      40.711  29.283  34.404  1.00  0.00     0.029 A 
ATOM     57  N   UNL A   1      41.878  30.907  33.378  1.00  0.00    -0.354 N 
ATOM     58  N   UNL A   1      38.795  32.063  29.996  1.00  0.00    -0.248 NA
ATOM     59  C   UNL A   1      37.223  30.713  31.116  1.00  0.00     0.031 C 
ATOM     60  C   UNL A   1      39.886  29.976  33.497  1.00  0.00     0.029 A 
ATOM     61  C   UNL A   1      40.620  30.978  32.846  1.00  0.00     0.049 A 
ATOM     62  H   UNL A   1      42.588  31.585  33.297  1.00  0.00     0.167 HD
ATOM     63  C   UNL A   1      39.101  31.977  31.329  1.00  0.00     0.074 A 
ATOM     64  C   UNL A   1      37.930  31.430  31.985  1.00  0.00     0.031 C 
ATOM     65  C   UNL A   1      40.400  31.843  31.713  1.00  0.00     0.034 A 
BRANCH  52  66
ATOM     66  C   UNL A   1      44.311  29.528  34.815  1.00  0.00     0.023 A 
ATOM     67  C   UNL A   1      45.425  30.122  34.145  1.00  0.00     0.012 A 
ATOM     68  C   UNL A   1      44.489  29.179  36.164  1.00  0.00     0.148 A 
ATOM     69  C   UNL A   1      46.685  30.231  34.731  1.00  0.00     0.002 A 
ATOM     70  C   UNL A   1      45.746  29.338  36.763  1.00  0.00     0.091 A 
ATOM     71  F   UNL A   1      43.478  28.621  36.836  1.00  0.00    -0.205 F 
ATOM     72  C   UNL A   1      46.849  29.821  36.039  1.00  0.00     0.022 A 
BRANCH  70  73
ATOM     73  S   UNL A   1      46.075  28.925  38.481  1.00  0.00     0.127 S 
ATOM     74  O   UNL A   1      47.417  29.469  38.672  1.00  0.00    -0.237 OA
ATOM     75  O   UNL A   1      45.018  29.664  39.177  1.00  0.00    -0.237 OA
ATOM     76  O   UNL A   1      45.940  27.478  38.568  1.00  0.00    -0.744 OA
ENDBRANCH  70  73
ENDBRANCH  52  66
BRANCH  53  77
ATOM     77  C   UNL A   1      36.178  30.745  28.030  1.00  0.00     0.023 A 
ATOM     78  C   UNL A   1      35.281  29.755  27.608  1.00  0.00     0.012 A 
ATOM     79  C   UNL A   1      35.674  32.085  28.015  1.00  0.00     0.148 A 
ATOM     80  C   UNL A   1      33.938  30.069  27.302  1.00  0.00     0.002 A 
ATOM     81  C   UNL A   1      34.324  32.372  27.850  1.00  0.00     0.091 A 
ATOM     82  F   UNL A   1      36.520  33.114  28.145  1.00  0.00    -0.205 F 
ATOM     83  C   UNL A   1      33.446  31.363  27.476  1.00  0.00     0.022 A 
BRANCH  81  84
ATOM     84  S   UNL A   1      33.637  33.985  28.284  1.00  0.00     0.127 S 
ATOM     85  O   UNL A   1      32.279  33.902  27.750  1.00  0.00    -0.237 OA
ATOM     86  O   UNL A   1      33.726  33.955  29.745  1.00  0.00    -0.237 OA
ATOM     87  O   UNL A   1      34.490  34.981  27.649  1.00  0.00    -0.744 OA
ENDBRANCH  81  84
ENDBRANCH  53  77
BRANCH  65  88
ATOM     88  C   UNL A   1      41.442  32.361  30.706  1.00  0.00     0.023 A 
ATOM     89  C   UNL A   1      42.253  31.395  30.075  1.00  0.00     0.012 A 
ATOM     90  C   UNL A   1      41.748  33.718  30.429  1.00  0.00     0.148 A 
ATOM     91  C   UNL A   1      43.327  31.744  29.249  1.00  0.00     0.002 A 
ATOM     92  C   UNL A   1      42.837  34.074  29.617  1.00  0.00     0.091 A 
ATOM     93  F   UNL A   1      40.979  34.667  30.953  1.00  0.00    -0.205 F 
ATOM     94  C   UNL A   1      43.622  33.081  29.022  1.00  0.00     0.022 A 
BRANCH  92  95
ATOM     95  S   UNL A   1      43.371  35.776  29.312  1.00  0.00     0.127 S 
ATOM     96  O   UNL A   1      42.216  36.352  28.619  1.00  0.00    -0.237 OA
ATOM     97  O   UNL A   1      43.569  36.288  30.665  1.00  0.00    -0.237 OA
ATOM     98  O   UNL A   1      44.572  35.697  28.489  1.00  0.00    -0.744 OA
ENDBRANCH  92  95
ENDBRANCH  65  88
ENDBRANCH  39  40
ENDBRANCH  31  34
ENDBRANCH  29  30
ENDBRANCH  28  29
ENDBRANCH  27  28
ENDBRANCH   1  27
TORSDOF 20
ENDMDL
MODEL 2
REMARK VINA RESULT:     -11.2      3.371      8.694
REMARK SMILES CC(C)(C)c1csc(NC(=O)Cn2cccc2C(=O)NCCCCCCNC(=O)c2ccc(-c3c4nc(c(-c5cccc(S(=O)(=O)[O-])c5F)c5ccc([nH]5)c(-c5cccc(S(=O)(=O)[O-])c5F)c5nc(c(-c6cccc(S(=O)(=O)[O-])c6F)c6ccc3[nH]6)C=C5)C=C4)cc2)n1
REMARK SMILES IDX 23 1 22 2 21 3 20 4 18 5 19 6 17 8 13 9 14 10 15 11 16 12
REMARK SMILES IDX 12 13 10 14 9 15 11 17 8 18 5 19 6 20 93 21 7 22 2 23 1 24
REMARK SMILES IDX 3 25 4 26 24 27 25 28 26 29 27 30 28 31 29 33 30 34 31 35
REMARK SMILES IDX 92 36 32 37 91 38 33 39 34 40 35 41 85 42 36 43 90 44 84 45
REMARK SMILES IDX 86 46 37 47 89 48 83 49 82 50 38 52 70 53 50 54 69 55 51 56
REMARK SMILES IDX 54 57 68 58 87 59 52 60 53 61 67 63 88 64 55 65 39 66 40 67
REMARK SMILES IDX 48 68 41 69 43 70 49 71 42 72 44 73 45 74 46 75 47 76 71 77
REMARK SMILES IDX 72 78 80 79 73 80 75 81 81 82 74 83 76 84 77 85 78 86 79 87
REMARK SMILES IDX 56 88 57 89 65 90 58 91 60 92 66 93 59 94 61 95 62 96 63 97
REMARK SMILES IDX 64 98
REMARK H PARENT 20 7 9 16 27 32 86 51 54 62
REMARK Flexibility Score: inf
ROOT
ATOM      1  C   UNL A   1      31.999  29.320  27.060  1.00  0.00     0.002 C 
ENDROOT
BRANCH   1   2
ATOM      2  C   UNL A   1      33.310  28.592  26.743  1.00  0.00     0.021 C 
BRANCH   2   3
ATOM      3  C   UNL A   1      33.765  28.846  25.310  1.00  0.00     0.116 C 
BRANCH   3   4
ATOM      4  N   UNL A   1      33.868  27.631  24.563  1.00  0.00    -0.351 N 
ATOM      5  C   UNL A   1      33.021  26.677  24.101  1.00  0.00     0.267 C 
ATOM      6  O   UNL A   1      33.569  25.976  23.236  1.00  0.00    -0.268 OA
ATOM      7  H   UNL A   1      34.801  27.435  24.317  1.00  0.00     0.163 HD
BRANCH   5   8
ATOM      8  C   UNL A   1      31.631  26.417  24.475  1.00  0.00     0.107 A 
ATOM      9  N   UNL A   1      30.937  25.608  25.383  1.00  0.00    -0.334 N 
ATOM     10  C   UNL A   1      29.584  25.637  25.070  1.00  0.00     0.087 A 
ATOM     11  C   UNL A   1      29.361  26.581  24.108  1.00  0.00     0.020 A 
ATOM     12  C   UNL A   1      30.622  27.059  23.741  1.00  0.00     0.033 A 
BRANCH   9  13
ATOM     13  C   UNL A   1      31.408  24.842  26.534  1.00  0.00     0.222 C 
BRANCH  13  14
ATOM     14  C   UNL A   1      30.711  23.514  26.780  1.00  0.00     0.246 C 
ATOM     15  N   UNL A   1      31.187  22.308  26.357  1.00  0.00    -0.300 N 
ATOM     16  H   UNL A   1      30.591  21.557  26.578  1.00  0.00     0.172 HD
ATOM     17  O   UNL A   1      29.638  23.495  27.392  1.00  0.00    -0.273 OA
BRANCH  15  18
ATOM     18  C   UNL A   1      32.318  21.924  25.692  1.00  0.00     0.189 A 
ATOM     19  C   UNL A   1      34.391  22.117  24.922  1.00  0.00     0.059 A 
ATOM     20  C   UNL A   1      33.984  20.997  24.220  1.00  0.00     0.093 A 
ATOM     21  N   UNL A   1      33.431  22.612  25.795  1.00  0.00    -0.224 NA
ATOM     22  S   UNL A   1      32.440  20.514  24.753  1.00  0.00    -0.105 S 
BRANCH  19  23
ATOM     23  C   UNL A   1      35.753  22.782  24.839  1.00  0.00     0.005 C 
ATOM     24  C   UNL A   1      36.824  21.978  25.603  1.00  0.00     0.017 C 
ATOM     25  C   UNL A   1      35.704  24.200  25.440  1.00  0.00     0.017 C 
ATOM     26  C   UNL A   1      36.174  22.872  23.359  1.00  0.00     0.017 C 
ENDBRANCH  19  23
ENDBRANCH  15  18
ENDBRANCH  13  14
ENDBRANCH   9  13
ENDBRANCH   5   8
ENDBRANCH   3   4
ENDBRANCH   2   3
ENDBRANCH   1   2
BRANCH   1  27
ATOM     27  C   UNL A   1      31.612  30.406  26.043  1.00  0.00     0.002 C 
BRANCH  27  28
ATOM     28  C   UNL A   1      31.456  31.815  26.633  1.00  0.00     0.021 C 
BRANCH  28  29
ATOM     29  C   UNL A   1      32.790  32.403  27.072  1.00  0.00     0.116 C 
BRANCH  29  30
ATOM     30  N   UNL A   1      32.592  33.784  27.487  1.00  0.00    -0.352 N 
ATOM     31  C   UNL A   1      33.149  34.486  28.521  1.00  0.00     0.251 C 
ATOM     32  H   UNL A   1      31.957  34.295  26.936  1.00  0.00     0.163 HD
ATOM     33  O   UNL A   1      32.636  35.536  28.882  1.00  0.00    -0.269 OA
BRANCH  31  34
ATOM     34  C   UNL A   1      34.351  33.976  29.199  1.00  0.00     0.039 A 
ATOM     35  C   UNL A   1      34.180  33.256  30.387  1.00  0.00     0.014 A 
ATOM     36  C   UNL A   1      35.626  34.272  28.710  1.00  0.00     0.014 A 
ATOM     37  C   UNL A   1      35.296  32.794  31.066  1.00  0.00     0.010 A 
ATOM     38  C   UNL A   1      36.737  33.771  29.357  1.00  0.00     0.010 A 
ATOM     39  C   UNL A   1      36.568  33.042  30.536  1.00  0.00    -0.014 A 
BRANCH  39  40
ATOM     40  C   UNL A   1      37.748  32.437  31.174  1.00  0.00     0.031 A 
ATOM     41  C   UNL A   1      38.166  31.140  30.426  1.00  0.00     0.074 A 
ATOM     42  C   UNL A   1      38.221  33.126  32.262  1.00  0.00     0.049 A 
ATOM     43  N   UNL A   1      38.705  30.042  30.868  1.00  0.00    -0.248 NA
ATOM     44  C   UNL A   1      37.829  31.001  28.977  1.00  0.00     0.031 C 
ATOM     45  C   UNL A   1      37.676  34.418  32.762  1.00  0.00     0.029 A 
ATOM     46  N   UNL A   1      39.244  32.924  33.161  1.00  0.00    -0.354 N 
ATOM     47  C   UNL A   1      39.010  29.234  29.734  1.00  0.00     0.074 A 
ATOM     48  C   UNL A   1      38.295  29.797  28.635  1.00  0.00     0.031 C 
ATOM     49  C   UNL A   1      38.304  34.817  33.892  1.00  0.00     0.029 A 
ATOM     50  C   UNL A   1      39.325  33.850  34.237  1.00  0.00     0.049 A 
ATOM     51  H   UNL A   1      39.883  32.180  33.064  1.00  0.00     0.167 HD
ATOM     52  C   UNL A   1      39.990  28.276  29.739  1.00  0.00     0.034 A 
ATOM     53  C   UNL A   1      40.131  33.805  35.347  1.00  0.00     0.034 A 
ATOM     54  C   UNL A   1      40.625  28.282  31.015  1.00  0.00     0.049 A 
ATOM     55  C   UNL A   1      41.060  32.703  35.082  1.00  0.00     0.074 A 
ATOM     56  C   UNL A   1      40.222  27.864  32.253  1.00  0.00     0.029 A 
ATOM     57  N   UNL A   1      41.669  29.172  31.136  1.00  0.00    -0.354 N 
ATOM     58  N   UNL A   1      42.008  32.750  34.195  1.00  0.00    -0.248 NA
ATOM     59  C   UNL A   1      40.830  31.409  35.731  1.00  0.00     0.031 C 
ATOM     60  C   UNL A   1      40.688  28.898  33.089  1.00  0.00     0.029 A 
ATOM     61  C   UNL A   1      41.578  29.722  32.384  1.00  0.00     0.049 A 
ATOM     62  H   UNL A   1      42.350  29.374  30.454  1.00  0.00     0.167 HD
ATOM     63  C   UNL A   1      42.196  31.422  33.913  1.00  0.00     0.074 A 
ATOM     64  C   UNL A   1      41.732  30.687  35.073  1.00  0.00     0.031 C 
ATOM     65  C   UNL A   1      42.197  31.004  32.618  1.00  0.00     0.034 A 
BRANCH  52  66
ATOM     66  C   UNL A   1      40.706  27.466  28.676  1.00  0.00     0.023 A 
ATOM     67  C   UNL A   1      40.906  26.088  29.000  1.00  0.00     0.012 A 
ATOM     68  C   UNL A   1      41.449  27.984  27.604  1.00  0.00     0.148 A 
ATOM     69  C   UNL A   1      41.890  25.308  28.395  1.00  0.00     0.002 A 
ATOM     70  C   UNL A   1      42.402  27.179  26.965  1.00  0.00     0.091 A 
ATOM     71  F   UNL A   1      41.298  29.266  27.260  1.00  0.00    -0.205 F 
ATOM     72  C   UNL A   1      42.652  25.862  27.387  1.00  0.00     0.022 A 
BRANCH  70  73
ATOM     73  S   UNL A   1      43.401  27.747  25.583  1.00  0.00     0.127 S 
ATOM     74  O   UNL A   1      44.187  28.815  26.196  1.00  0.00    -0.237 OA
ATOM     75  O   UNL A   1      44.170  26.544  25.253  1.00  0.00    -0.237 OA
ATOM     76  O   UNL A   1      42.454  28.144  24.552  1.00  0.00    -0.744 OA
ENDBRANCH  70  73
ENDBRANCH  52  66
BRANCH  53  77
ATOM     77  C   UNL A   1      40.218  34.455  36.713  1.00  0.00     0.023 A 
ATOM     78  C   UNL A   1      39.203  34.425  37.678  1.00  0.00     0.012 A 
ATOM     79  C   UNL A   1      41.460  35.026  37.137  1.00  0.00     0.148 A 
ATOM     80  C   UNL A   1      39.448  34.833  39.008  1.00  0.00     0.002 A 
ATOM     81  C   UNL A   1      41.740  35.294  38.472  1.00  0.00     0.091 A 
ATOM     82  F   UNL A   1      42.392  35.338  36.229  1.00  0.00    -0.205 F 
ATOM     83  C   UNL A   1      40.726  35.213  39.418  1.00  0.00     0.022 A 
BRANCH  81  84
ATOM     84  S   UNL A   1      43.429  35.572  39.051  1.00  0.00     0.127 S 
ATOM     85  O   UNL A   1      43.740  36.887  38.495  1.00  0.00    -0.237 OA
ATOM     86  O   UNL A   1      43.245  35.546  40.502  1.00  0.00    -0.237 OA
ATOM     87  O   UNL A   1      44.230  34.474  38.524  1.00  0.00    -0.744 OA
ENDBRANCH  81  84
ENDBRANCH  53  77
BRANCH  65  88
ATOM     88  C   UNL A   1      42.559  32.080  31.578  1.00  0.00     0.023 A 
ATOM     89  C   UNL A   1      41.492  32.638  30.843  1.00  0.00     0.012 A 
ATOM     90  C   UNL A   1      43.864  32.489  31.203  1.00  0.00     0.148 A 
ATOM     91  C   UNL A   1      41.700  33.520  29.776  1.00  0.00     0.002 A 
ATOM     92  C   UNL A   1      44.078  33.357  30.120  1.00  0.00     0.091 A 
ATOM     93  F   UNL A   1      44.901  32.036  31.900  1.00  0.00    -0.205 F 
ATOM     94  C   UNL A   1      42.990  33.876  29.411  1.00  0.00     0.022 A 
BRANCH  92  95
ATOM     95  S   UNL A   1      45.710  33.832  29.499  1.00  0.00     0.127 S 
ATOM     96  O   UNL A   1      45.380  34.640  28.323  1.00  0.00    -0.237 OA
ATOM     97  O   UNL A   1      46.257  34.599  30.614  1.00  0.00    -0.237 OA
ATOM     98  O   UNL A   1      46.414  32.595  29.183  1.00  0.00    -0.744 OA
ENDBRANCH  92  95
ENDBRANCH  65  88
ENDBRANCH  39  40
ENDBRANCH  31  34
ENDBRANCH  29  30
ENDBRANCH  28  29
ENDBRANCH  27  28
ENDBRANCH   1  27
TORSDOF 20
ENDMDL
MODEL 3
REMARK VINA RESULT:     -11.1      3.635      8.509
REMARK SMILES CC(C)(C)c1csc(NC(=O)Cn2cccc2C(=O)NCCCCCCNC(=O)c2ccc(-c3c4nc(c(-c5cccc(S(=O)(=O)[O-])c5F)c5ccc([nH]5)c(-c5cccc(S(=O)(=O)[O-])c5F)c5nc(c(-c6cccc(S(=O)(=O)[O-])c6F)c6ccc3[nH]6)C=C5)C=C4)cc2)n1
REMARK SMILES IDX 23 1 22 2 21 3 20 4 18 5 19 6 17 8 13 9 14 10 15 11 16 12
REMARK SMILES IDX 12 13 10 14 9 15 11 17 8 18 5 19 6 20 93 21 7 22 2 23 1 24
REMARK SMILES IDX 3 25 4 26 24 27 25 28 26 29 27 30 28 31 29 33 30 34 31 35
REMARK SMILES IDX 92 36 32 37 91 38 33 39 34 40 35 41 85 42 36 43 90 44 84 45
REMARK SMILES IDX 86 46 37 47 89 48 83 49 82 50 38 52 70 53 50 54 69 55 51 56
REMARK SMILES IDX 54 57 68 58 87 59 52 60 53 61 67 63 88 64 55 65 39 66 40 67
REMARK SMILES IDX 48 68 41 69 43 70 49 71 42 72 44 73 45 74 46 75 47 76 71 77
REMARK SMILES IDX 72 78 80 79 73 80 75 81 81 82 74 83 76 84 77 85 78 86 79 87
REMARK SMILES IDX 56 88 57 89 65 90 58 91 60 92 66 93 59 94 61 95 62 96 63 97
REMARK SMILES IDX 64 98
REMARK H PARENT 20 7 9 16 27 32 86 51 54 62
REMARK Flexibility Score: inf
ROOT
ATOM      1  C   UNL A   1      31.955  29.197  27.198  1.00  0.00     0.002 C 
ENDROOT
BRANCH   1   2
ATOM      2  C   UNL A   1      33.203  28.360  26.896  1.00  0.00     0.021 C 
BRANCH   2   3
ATOM      3  C   UNL A   1      33.898  28.822  25.621  1.00  0.00     0.116 C 
BRANCH   3   4
ATOM      4  N   UNL A   1      33.994  27.769  24.657  1.00  0.00    -0.351 N 
ATOM      5  C   UNL A   1      33.154  26.871  24.084  1.00  0.00     0.267 C 
ATOM      6  O   UNL A   1      33.664  26.369  23.071  1.00  0.00    -0.268 OA
ATOM      7  H   UNL A   1      34.913  27.670  24.319  1.00  0.00     0.163 HD
BRANCH   5   8
ATOM      8  C   UNL A   1      31.807  26.474  24.495  1.00  0.00     0.107 A 
ATOM      9  N   UNL A   1      31.220  25.560  25.378  1.00  0.00    -0.334 N 
ATOM     10  C   UNL A   1      29.858  25.493  25.119  1.00  0.00     0.087 A 
ATOM     11  C   UNL A   1      29.518  26.469  24.226  1.00  0.00     0.020 A 
ATOM     12  C   UNL A   1      30.718  27.071  23.840  1.00  0.00     0.033 A 
BRANCH   9  13
ATOM     13  C   UNL A   1      31.802  24.771  26.461  1.00  0.00     0.222 C 
BRANCH  13  14
ATOM     14  C   UNL A   1      31.094  23.467  26.789  1.00  0.00     0.246 C 
ATOM     15  N   UNL A   1      31.589  22.230  26.496  1.00  0.00    -0.300 N 
ATOM     16  H   UNL A   1      30.983  21.499  26.754  1.00  0.00     0.172 HD
ATOM     17  O   UNL A   1      29.993  23.497  27.349  1.00  0.00    -0.273 OA
BRANCH  15  18
ATOM     18  C   UNL A   1      32.750  21.794  25.922  1.00  0.00     0.189 A 
ATOM     19  C   UNL A   1      34.803  21.969  25.094  1.00  0.00     0.059 A 
ATOM     20  C   UNL A   1      34.493  20.686  24.682  1.00  0.00     0.093 A 
ATOM     21  N   UNL A   1      33.802  22.576  25.842  1.00  0.00    -0.224 NA
ATOM     22  S   UNL A   1      32.993  20.217  25.338  1.00  0.00    -0.105 S 
BRANCH  19  23
ATOM     23  C   UNL A   1      36.105  22.705  24.835  1.00  0.00     0.005 C 
ATOM     24  C   UNL A   1      36.307  22.989  23.333  1.00  0.00     0.017 C 
ATOM     25  C   UNL A   1      37.306  21.874  25.327  1.00  0.00     0.017 C 
ATOM     26  C   UNL A   1      36.075  24.050  25.587  1.00  0.00     0.017 C 
ENDBRANCH  19  23
ENDBRANCH  15  18
ENDBRANCH  13  14
ENDBRANCH   9  13
ENDBRANCH   5   8
ENDBRANCH   3   4
ENDBRANCH   2   3
ENDBRANCH   1   2
BRANCH   1  27
ATOM     27  C   UNL A   1      31.543  30.154  26.068  1.00  0.00     0.002 C 
BRANCH  27  28
ATOM     28  C   UNL A   1      31.415  31.627  26.486  1.00  0.00     0.021 C 
BRANCH  28  29
ATOM     29  C   UNL A   1      32.729  32.189  27.012  1.00  0.00     0.116 C 
BRANCH  29  30
ATOM     30  N   UNL A   1      32.537  33.580  27.394  1.00  0.00    -0.352 N 
ATOM     31  C   UNL A   1      33.086  34.300  28.420  1.00  0.00     0.251 C 
ATOM     32  H   UNL A   1      31.913  34.084  26.824  1.00  0.00     0.163 HD
ATOM     33  O   UNL A   1      32.576  35.362  28.751  1.00  0.00    -0.269 OA
BRANCH  31  34
ATOM     34  C   UNL A   1      34.274  33.796  29.125  1.00  0.00     0.039 A 
ATOM     35  C   UNL A   1      34.090  32.809  30.099  1.00  0.00     0.014 A 
ATOM     36  C   UNL A   1      35.535  34.345  28.882  1.00  0.00     0.014 A 
ATOM     37  C   UNL A   1      35.188  32.339  30.805  1.00  0.00     0.010 A 
ATOM     38  C   UNL A   1      36.637  33.847  29.547  1.00  0.00     0.010 A 
ATOM     39  C   UNL A   1      36.457  32.853  30.511  1.00  0.00    -0.014 A 
BRANCH  39  40
ATOM     40  C   UNL A   1      37.641  32.263  31.155  1.00  0.00     0.031 A 
ATOM     41  C   UNL A   1      38.257  31.156  30.252  1.00  0.00     0.074 A 
ATOM     42  C   UNL A   1      37.949  32.799  32.379  1.00  0.00     0.049 A 
ATOM     43  N   UNL A   1      38.876  30.055  30.562  1.00  0.00    -0.248 NA
ATOM     44  C   UNL A   1      38.053  31.234  28.774  1.00  0.00     0.031 C 
ATOM     45  C   UNL A   1      37.228  33.930  33.025  1.00  0.00     0.029 A 
ATOM     46  N   UNL A   1      38.913  32.545  33.328  1.00  0.00    -0.354 N 
ATOM     47  C   UNL A   1      39.357  29.484  29.349  1.00  0.00     0.074 A 
ATOM     48  C   UNL A   1      38.673  30.154  28.290  1.00  0.00     0.031 C 
ATOM     49  C   UNL A   1      37.716  34.189  34.260  1.00  0.00     0.029 A 
ATOM     50  C   UNL A   1      38.806  33.278  34.542  1.00  0.00     0.049 A 
ATOM     51  H   UNL A   1      39.635  31.893  33.176  1.00  0.00     0.167 HD
ATOM     52  C   UNL A   1      40.432  28.636  29.294  1.00  0.00     0.034 A 
ATOM     53  C   UNL A   1      39.522  33.124  35.702  1.00  0.00     0.034 A 
ATOM     54  C   UNL A   1      40.959  28.486  30.609  1.00  0.00     0.049 A 
ATOM     55  C   UNL A   1      40.584  32.175  35.355  1.00  0.00     0.074 A 
ATOM     56  C   UNL A   1      40.507  27.828  31.720  1.00  0.00     0.029 A 
ATOM     57  N   UNL A   1      41.887  29.437  30.972  1.00  0.00    -0.354 N 
ATOM     58  N   UNL A   1      41.589  32.461  34.583  1.00  0.00    -0.248 NA
ATOM     59  C   UNL A   1      40.446  30.774  35.763  1.00  0.00     0.031 C 
ATOM     60  C   UNL A   1      40.790  28.745  32.752  1.00  0.00     0.029 A 
ATOM     61  C   UNL A   1      41.638  29.757  32.277  1.00  0.00     0.049 A 
ATOM     62  H   UNL A   1      42.594  29.815  30.399  1.00  0.00     0.167 HD
ATOM     63  C   UNL A   1      41.942  31.224  34.111  1.00  0.00     0.074 A 
ATOM     64  C   UNL A   1      41.472  30.262  35.088  1.00  0.00     0.031 C 
ATOM     65  C   UNL A   1      42.092  31.033  32.772  1.00  0.00     0.034 A 
BRANCH  52  66
ATOM     66  C   UNL A   1      41.314  28.089  28.189  1.00  0.00     0.023 A 
ATOM     67  C   UNL A   1      41.549  28.987  27.102  1.00  0.00     0.012 A 
ATOM     68  C   UNL A   1      41.632  26.737  27.979  1.00  0.00     0.148 A 
ATOM     69  C   UNL A   1      41.937  28.553  25.837  1.00  0.00     0.002 A 
ATOM     70  C   UNL A   1      42.070  26.313  26.717  1.00  0.00     0.091 A 
ATOM     71  F   UNL A   1      41.431  25.856  28.964  1.00  0.00    -0.205 F 
ATOM     72  C   UNL A   1      42.180  27.208  25.640  1.00  0.00     0.022 A 
BRANCH  70  73
ATOM     73  S   UNL A   1      42.504  24.609  26.349  1.00  0.00     0.127 S 
ATOM     74  O   UNL A   1      41.212  23.937  26.458  1.00  0.00    -0.237 OA
ATOM     75  O   UNL A   1      43.015  24.717  24.980  1.00  0.00    -0.237 OA
ATOM     76  O   UNL A   1      43.515  24.241  27.329  1.00  0.00    -0.744 OA
ENDBRANCH  70  73
ENDBRANCH  52  66
BRANCH  53  77
ATOM     77  C   UNL A   1      39.429  33.537  37.157  1.00  0.00     0.023 A 
ATOM     78  C   UNL A   1      40.034  34.677  37.703  1.00  0.00     0.012 A 
ATOM     79  C   UNL A   1      38.557  32.818  38.035  1.00  0.00     0.148 A 
ATOM     80  C   UNL A   1      39.702  35.130  39.000  1.00  0.00     0.002 A 
ATOM     81  C   UNL A   1      38.126  33.339  39.249  1.00  0.00     0.091 A 
ATOM     82  F   UNL A   1      38.143  31.591  37.700  1.00  0.00    -0.205 F 
ATOM     83  C   UNL A   1      38.710  34.496  39.749  1.00  0.00     0.022 A 
BRANCH  81  84
ATOM     84  S   UNL A   1      36.698  32.658  40.121  1.00  0.00     0.127 S 
ATOM     85  O   UNL A   1      36.520  33.604  41.220  1.00  0.00    -0.237 OA
ATOM     86  O   UNL A   1      35.667  32.720  39.084  1.00  0.00    -0.237 OA
ATOM     87  O   UNL A   1      37.067  31.307  40.524  1.00  0.00    -0.744 OA
ENDBRANCH  81  84
ENDBRANCH  53  77
BRANCH  65  88
ATOM     88  C   UNL A   1      42.415  32.299  31.958  1.00  0.00     0.023 A 
ATOM     89  C   UNL A   1      41.388  32.805  31.134  1.00  0.00     0.012 A 
ATOM     90  C   UNL A   1      43.674  32.946  31.864  1.00  0.00     0.148 A 
ATOM     91  C   UNL A   1      41.597  33.863  30.242  1.00  0.00     0.002 A 
ATOM     92  C   UNL A   1      43.894  33.994  30.956  1.00  0.00     0.091 A 
ATOM     93  F   UNL A   1      44.660  32.544  32.659  1.00  0.00    -0.205 F 
ATOM     94  C   UNL A   1      42.849  34.455  30.149  1.00  0.00     0.022 A 
BRANCH  92  95
ATOM     95  S   UNL A   1      45.496  34.791  30.684  1.00  0.00     0.127 S 
ATOM     96  O   UNL A   1      45.141  35.947  29.858  1.00  0.00    -0.237 OA
ATOM     97  O   UNL A   1      45.908  35.134  32.043  1.00  0.00    -0.237 OA
ATOM     98  O   UNL A   1      46.339  33.817  30.001  1.00  0.00    -0.744 OA
ENDBRANCH  92  95
ENDBRANCH  65  88
ENDBRANCH  39  40
ENDBRANCH  31  34
ENDBRANCH  29  30
ENDBRANCH  28  29
ENDBRANCH  27  28
ENDBRANCH   1  27
TORSDOF 20
ENDMDL
