MODEL 1
REMARK VINA RESULT:     -13.9      0.000      0.000
REMARK SMILES Cc1ccc(-c2cc(C(=O)NCCCCCCNC(=O)c3ccc(-c4c5nc(c(-c6cccc(S(=O)(=O)[O-])c6F)c6ccc([nH]6)c(-c6cccc(S(=O)(=O)[O-])c6F)c6nc(c(-c7cccc(S(=O)(=O)[O-])c7F)c7ccc4[nH]7)C=C6)C=C5)cc3)c3c(-c4cccc([N+](=O)[O-])c4)[nH]nc3n2)cc1
REMARK SMILES IDX 15 1 14 2 13 3 12 4 11 5 9 6 10 7 8 9 6 10 7 11 98 12 97 13
REMARK SMILES IDX 84 14 96 15 85 16 95 17 5 19 1 20 2 21 3 22 100 23 4 24
REMARK SMILES IDX 99 25 86 26 87 27 94 28 88 29 90 30 89 31 91 32 92 33 93 34
REMARK SMILES IDX 16 35 17 36 18 37 19 38 20 40 21 41 22 42 83 43 23 44 82 45
REMARK SMILES IDX 24 46 25 47 26 48 76 49 27 50 81 51 75 52 77 53 28 54 80 55
REMARK SMILES IDX 74 56 73 57 29 59 61 60 41 61 60 62 42 63 45 64 59 65 78 66
REMARK SMILES IDX 43 67 44 68 58 70 79 71 46 72 30 73 31 74 39 75 32 76 34 77
REMARK SMILES IDX 40 78 33 79 35 80 36 81 37 82 38 83 62 84 63 85 71 86 64 87
REMARK SMILES IDX 66 88 72 89 65 90 67 91 68 92 69 93 70 94 47 95 48 96 56 97
REMARK SMILES IDX 49 98 51 99 57 100 50 101 52 102 53 103 54 104 55 105
REMARK H PARENT 11 8 95 18 18 39 77 58 45 69
REMARK Flexibility Score: inf
ROOT
ATOM      1  C   UNL A   1      35.889  21.833  25.233  1.00  0.00     0.002 C 
ENDROOT
BRANCH   1   2
ATOM      2  C   UNL A   1      35.364  23.043  26.025  1.00  0.00     0.002 C 
BRANCH   2   3
ATOM      3  C   UNL A   1      35.833  24.422  25.534  1.00  0.00     0.021 C 
BRANCH   3   4
ATOM      4  C   UNL A   1      34.718  25.463  25.462  1.00  0.00     0.116 C 
BRANCH   4   5
ATOM      5  N   UNL A   1      34.091  25.467  24.163  1.00  0.00    -0.352 N 
ATOM      6  C   UNL A   1      33.021  24.846  23.591  1.00  0.00     0.252 C 
ATOM      7  O   UNL A   1      32.696  25.349  22.519  1.00  0.00    -0.269 OA
ATOM      8  H   UNL A   1      34.549  26.070  23.534  1.00  0.00     0.163 HD
BRANCH   6   9
ATOM      9  C   UNL A   1      32.243  23.738  24.202  1.00  0.00     0.055 A 
ATOM     10  C   UNL A   1      31.885  21.313  24.625  1.00  0.00     0.074 A 
ATOM     11  C   UNL A   1      32.370  22.392  23.840  1.00  0.00     0.043 A 
ATOM     12  N   UNL A   1      31.098  21.428  25.724  1.00  0.00    -0.226 NA
ATOM     13  C   UNL A   1      30.794  22.718  26.013  1.00  0.00     0.182 A 
ATOM     14  C   UNL A   1      31.343  23.837  25.283  1.00  0.00     0.059 A 
ATOM     15  N   UNL A   1      29.993  23.117  27.001  1.00  0.00    -0.154 NA
ATOM     16  C   UNL A   1      30.756  24.952  25.863  1.00  0.00     0.076 A 
ATOM     17  N   UNL A   1      29.978  24.451  26.878  1.00  0.00    -0.275 N 
ATOM     18  H   UNL A   1      29.448  25.031  27.472  1.00  0.00     0.190 HD
BRANCH  10  19
ATOM     19  C   UNL A   1      32.372  19.964  24.288  1.00  0.00     0.000 A 
ATOM     20  C   UNL A   1      34.345  16.284  23.145  1.00  0.00     0.044 C 
ATOM     21  C   UNL A   1      33.624  17.529  23.570  1.00  0.00    -0.051 A 
ATOM     22  C   UNL A   1      32.725  18.159  22.699  1.00  0.00     0.004 A 
ATOM     23  C   UNL A   1      33.860  18.097  24.824  1.00  0.00     0.004 A 
ATOM     24  C   UNL A   1      32.098  19.360  23.056  1.00  0.00     0.010 A 
ATOM     25  C   UNL A   1      33.238  19.295  25.177  1.00  0.00     0.010 A 
ENDBRANCH  10  19
BRANCH  16  26
ATOM     26  C   UNL A   1      30.776  26.380  25.570  1.00  0.00     0.007 A 
ATOM     27  C   UNL A   1      31.561  27.244  26.349  1.00  0.00     0.011 A 
ATOM     28  C   UNL A   1      30.125  26.873  24.430  1.00  0.00     0.096 A 
ATOM     29  C   UNL A   1      31.747  28.575  25.963  1.00  0.00     0.008 A 
ATOM     30  C   UNL A   1      30.349  28.198  24.029  1.00  0.00     0.270 A 
ATOM     31  C   UNL A   1      31.154  29.052  24.794  1.00  0.00     0.085 A 
BRANCH  30  32
ATOM     32  N   UNL A   1      29.789  28.676  22.761  1.00  0.00     0.062 N 
ATOM     33  O   UNL A   1      28.859  29.497  22.814  1.00  0.00    -0.258 OA
ATOM     34  O   UNL A   1      30.258  28.218  21.710  1.00  0.00    -0.258 OA
ENDBRANCH  30  32
ENDBRANCH  16  26
ENDBRANCH   6   9
ENDBRANCH   4   5
ENDBRANCH   3   4
ENDBRANCH   2   3
ENDBRANCH   1   2
BRANCH   1  35
ATOM     35  C   UNL A   1      37.285  21.336  25.615  1.00  0.00     0.021 C 
BRANCH  35  36
ATOM     36  C   UNL A   1      38.396  22.319  25.302  1.00  0.00     0.116 C 
BRANCH  36  37
ATOM     37  N   UNL A   1      39.538  22.163  26.182  1.00  0.00    -0.352 N 
ATOM     38  C   UNL A   1      40.341  23.121  26.763  1.00  0.00     0.251 C 
ATOM     39  H   UNL A   1      39.775  21.232  26.398  1.00  0.00     0.163 HD
ATOM     40  O   UNL A   1      41.396  22.760  27.283  1.00  0.00    -0.269 OA
BRANCH  38  41
ATOM     41  C   UNL A   1      39.846  24.513  26.915  1.00  0.00     0.039 A 
ATOM     42  C   UNL A   1      40.607  25.521  26.309  1.00  0.00     0.014 A 
ATOM     43  C   UNL A   1      38.874  24.845  27.854  1.00  0.00     0.014 A 
ATOM     44  C   UNL A   1      40.609  26.799  26.857  1.00  0.00     0.010 A 
ATOM     45  C   UNL A   1      38.940  26.079  28.459  1.00  0.00     0.010 A 
ATOM     46  C   UNL A   1      39.875  27.018  28.016  1.00  0.00    -0.014 A 
BRANCH  46  47
ATOM     47  C   UNL A   1      40.031  28.165  28.892  1.00  0.00     0.031 A 
ATOM     48  C   UNL A   1      39.192  29.359  28.664  1.00  0.00     0.074 A 
ATOM     49  C   UNL A   1      40.773  28.020  30.015  1.00  0.00     0.049 A 
ATOM     50  N   UNL A   1      39.326  30.474  29.293  1.00  0.00    -0.248 NA
ATOM     51  C   UNL A   1      38.134  29.388  27.660  1.00  0.00     0.031 C 
ATOM     52  C   UNL A   1      40.730  28.860  31.209  1.00  0.00     0.029 A 
ATOM     53  N   UNL A   1      41.866  27.177  30.258  1.00  0.00    -0.354 N 
ATOM     54  C   UNL A   1      38.231  31.258  28.996  1.00  0.00     0.074 A 
ATOM     55  C   UNL A   1      37.580  30.578  27.905  1.00  0.00     0.031 C 
ATOM     56  C   UNL A   1      41.888  28.717  31.875  1.00  0.00     0.029 A 
ATOM     57  C   UNL A   1      42.767  27.964  30.999  1.00  0.00     0.049 A 
ATOM     58  H   UNL A   1      41.980  26.242  29.972  1.00  0.00     0.167 HD
ATOM     59  C   UNL A   1      37.948  32.307  29.819  1.00  0.00     0.034 A 
ATOM     60  C   UNL A   1      43.959  28.437  30.516  1.00  0.00     0.034 A 
ATOM     61  C   UNL A   1      39.066  32.547  30.747  1.00  0.00     0.049 A 
ATOM     62  C   UNL A   1      44.110  29.952  30.629  1.00  0.00     0.074 A 
ATOM     63  C   UNL A   1      39.299  32.208  32.069  1.00  0.00     0.029 A 
ATOM     64  N   UNL A   1      40.286  32.974  30.233  1.00  0.00    -0.354 N 
ATOM     65  N   UNL A   1      43.120  30.773  30.855  1.00  0.00    -0.248 NA
ATOM     66  C   UNL A   1      45.381  30.660  30.489  1.00  0.00     0.031 C 
ATOM     67  C   UNL A   1      40.695  32.343  32.316  1.00  0.00     0.029 A 
ATOM     68  C   UNL A   1      41.303  32.798  31.158  1.00  0.00     0.049 A 
ATOM     69  H   UNL A   1      40.412  33.351  29.331  1.00  0.00     0.167 HD
ATOM     70  C   UNL A   1      43.555  32.072  30.788  1.00  0.00     0.074 A 
ATOM     71  C   UNL A   1      44.995  31.941  30.633  1.00  0.00     0.031 C 
ATOM     72  C   UNL A   1      42.683  33.131  30.809  1.00  0.00     0.034 A 
BRANCH  59  73
ATOM     73  C   UNL A   1      36.580  32.962  29.995  1.00  0.00     0.023 A 
ATOM     74  C   UNL A   1      36.006  33.571  28.854  1.00  0.00     0.012 A 
ATOM     75  C   UNL A   1      35.852  33.124  31.199  1.00  0.00     0.148 A 
ATOM     76  C   UNL A   1      34.846  34.356  28.915  1.00  0.00     0.002 A 
ATOM     77  C   UNL A   1      34.712  33.934  31.271  1.00  0.00     0.091 A 
ATOM     78  F   UNL A   1      36.215  32.468  32.296  1.00  0.00    -0.205 F 
ATOM     79  C   UNL A   1      34.210  34.559  30.129  1.00  0.00     0.022 A 
BRANCH  77  80
ATOM     80  S   UNL A   1      33.862  34.271  32.827  1.00  0.00     0.127 S 
ATOM     81  O   UNL A   1      32.827  35.220  32.410  1.00  0.00    -0.237 OA
ATOM     82  O   UNL A   1      33.360  32.951  33.202  1.00  0.00    -0.237 OA
ATOM     83  O   UNL A   1      34.857  34.835  33.732  1.00  0.00    -0.744 OA
ENDBRANCH  77  80
ENDBRANCH  59  73
BRANCH  60  84
ATOM     84  C   UNL A   1      44.559  27.600  29.432  1.00  0.00     0.023 A 
ATOM     85  C   UNL A   1      44.948  26.284  29.778  1.00  0.00     0.012 A 
ATOM     86  C   UNL A   1      44.412  27.925  28.072  1.00  0.00     0.148 A 
ATOM     87  C   UNL A   1      45.016  25.277  28.813  1.00  0.00     0.002 A 
ATOM     88  C   UNL A   1      44.501  26.917  27.110  1.00  0.00     0.091 A 
ATOM     89  F   UNL A   1      44.137  29.191  27.738  1.00  0.00    -0.205 F 
ATOM     90  C   UNL A   1      44.752  25.587  27.484  1.00  0.00     0.022 A 
BRANCH  88  91
ATOM     91  S   UNL A   1      44.167  27.241  25.371  1.00  0.00     0.127 S 
ATOM     92  O   UNL A   1      45.460  27.735  24.910  1.00  0.00    -0.237 OA
ATOM     93  O   UNL A   1      43.798  25.917  24.868  1.00  0.00    -0.237 OA
ATOM     94  O   UNL A   1      43.071  28.199  25.378  1.00  0.00    -0.744 OA
ENDBRANCH  88  91
ENDBRANCH  60  84
BRANCH  72  95
ATOM     95  C   UNL A   1      43.025  34.579  30.479  1.00  0.00     0.023 A 
ATOM     96  C   UNL A   1      43.430  35.506  31.459  1.00  0.00     0.012 A 
ATOM     97  C   UNL A   1      43.100  35.024  29.130  1.00  0.00     0.148 A 
ATOM     98  C   UNL A   1      43.830  36.809  31.137  1.00  0.00     0.002 A 
ATOM     99  C   UNL A   1      43.610  36.282  28.807  1.00  0.00     0.091 A 
ATOM    100  F   UNL A   1      42.657  34.238  28.137  1.00  0.00    -0.205 F 
ATOM    101  C   UNL A   1      43.947  37.190  29.810  1.00  0.00     0.022 A 
BRANCH  99 102
ATOM    102  S   UNL A   1      44.007  36.705  27.103  1.00  0.00     0.127 S 
ATOM    103  O   UNL A   1      44.999  35.689  26.759  1.00  0.00    -0.237 OA
ATOM    104  O   UNL A   1      42.717  36.548  26.427  1.00  0.00    -0.237 OA
ATOM    105  O   UNL A   1      44.481  38.080  27.162  1.00  0.00    -0.744 OA
ENDBRANCH  99 102
ENDBRANCH  72  95
ENDBRANCH  46  47
ENDBRANCH  38  41
ENDBRANCH  36  37
ENDBRANCH  35  36
ENDBRANCH   1  35
TORSDOF 19
ENDMDL
MODEL 2
REMARK VINA RESULT:     -13.6      1.491      1.833
REMARK SMILES Cc1ccc(-c2cc(C(=O)NCCCCCCNC(=O)c3ccc(-c4c5nc(c(-c6cccc(S(=O)(=O)[O-])c6F)c6ccc([nH]6)c(-c6cccc(S(=O)(=O)[O-])c6F)c6nc(c(-c7cccc(S(=O)(=O)[O-])c7F)c7ccc4[nH]7)C=C6)C=C5)cc3)c3c(-c4cccc([N+](=O)[O-])c4)[nH]nc3n2)cc1
REMARK SMILES IDX 15 1 14 2 13 3 12 4 11 5 9 6 10 7 8 9 6 10 7 11 98 12 97 13
REMARK SMILES IDX 84 14 96 15 85 16 95 17 5 19 1 20 2 21 3 22 100 23 4 24
REMARK SMILES IDX 99 25 86 26 87 27 94 28 88 29 90 30 89 31 91 32 92 33 93 34
REMARK SMILES IDX 16 35 17 36 18 37 19 38 20 40 21 41 22 42 83 43 23 44 82 45
REMARK SMILES IDX 24 46 25 47 26 48 76 49 27 50 81 51 75 52 77 53 28 54 80 55
REMARK SMILES IDX 74 56 73 57 29 59 61 60 41 61 60 62 42 63 45 64 59 65 78 66
REMARK SMILES IDX 43 67 44 68 58 70 79 71 46 72 30 73 31 74 39 75 32 76 34 77
REMARK SMILES IDX 40 78 33 79 35 80 36 81 37 82 38 83 62 84 63 85 71 86 64 87
REMARK SMILES IDX 66 88 72 89 65 90 67 91 68 92 69 93 70 94 47 95 48 96 56 97
REMARK SMILES IDX 49 98 51 99 57 100 50 101 52 102 53 103 54 104 55 105
REMARK H PARENT 11 8 95 18 18 39 77 58 45 69
REMARK Flexibility Score: inf
ROOT
ATOM      1  C   UNL A   1      35.811  21.787  24.956  1.00  0.00     0.002 C 
ENDROOT
BRANCH   1   2
ATOM      2  C   UNL A   1      35.661  23.284  24.636  1.00  0.00     0.002 C 
BRANCH   2   3
ATOM      3  C   UNL A   1      34.948  24.131  25.702  1.00  0.00     0.021 C 
BRANCH   3   4
ATOM      4  C   UNL A   1      34.617  25.549  25.245  1.00  0.00     0.116 C 
BRANCH   4   5
ATOM      5  N   UNL A   1      33.928  25.542  23.978  1.00  0.00    -0.352 N 
ATOM      6  C   UNL A   1      32.829  24.920  23.465  1.00  0.00     0.252 C 
ATOM      7  O   UNL A   1      32.456  25.413  22.404  1.00  0.00    -0.269 OA
ATOM      8  H   UNL A   1      34.359  26.134  23.320  1.00  0.00     0.163 HD
BRANCH   6   9
ATOM      9  C   UNL A   1      32.076  23.824  24.125  1.00  0.00     0.055 A 
ATOM     10  C   UNL A   1      31.756  21.410  24.635  1.00  0.00     0.074 A 
ATOM     11  C   UNL A   1      32.214  22.468  23.807  1.00  0.00     0.043 A 
ATOM     12  N   UNL A   1      30.986  21.552  25.744  1.00  0.00    -0.226 NA
ATOM     13  C   UNL A   1      30.670  22.847  25.994  1.00  0.00     0.182 A 
ATOM     14  C   UNL A   1      31.192  23.948  25.217  1.00  0.00     0.059 A 
ATOM     15  N   UNL A   1      29.879  23.270  26.981  1.00  0.00    -0.154 NA
ATOM     16  C   UNL A   1      30.600  25.075  25.769  1.00  0.00     0.076 A 
ATOM     17  N   UNL A   1      29.845  24.598  26.814  1.00  0.00    -0.275 N 
ATOM     18  H   UNL A   1      29.317  25.191  27.397  1.00  0.00     0.190 HD
BRANCH  10  19
ATOM     19  C   UNL A   1      32.255  20.057  24.336  1.00  0.00     0.000 A 
ATOM     20  C   UNL A   1      34.288  16.352  23.397  1.00  0.00     0.044 C 
ATOM     21  C   UNL A   1      33.542  17.606  23.745  1.00  0.00    -0.051 A 
ATOM     22  C   UNL A   1      32.803  18.284  22.766  1.00  0.00     0.004 A 
ATOM     23  C   UNL A   1      33.597  18.133  25.036  1.00  0.00     0.004 A 
ATOM     24  C   UNL A   1      32.159  19.494  23.059  1.00  0.00     0.010 A 
ATOM     25  C   UNL A   1      32.957  19.340  25.326  1.00  0.00     0.010 A 
ENDBRANCH  10  19
BRANCH  16  26
ATOM     26  C   UNL A   1      30.596  26.492  25.428  1.00  0.00     0.007 A 
ATOM     27  C   UNL A   1      31.487  27.368  26.067  1.00  0.00     0.011 A 
ATOM     28  C   UNL A   1      29.805  26.957  24.368  1.00  0.00     0.096 A 
ATOM     29  C   UNL A   1      31.634  28.683  25.615  1.00  0.00     0.008 A 
ATOM     30  C   UNL A   1      29.989  28.266  23.897  1.00  0.00     0.270 A 
ATOM     31  C   UNL A   1      30.898  29.132  24.519  1.00  0.00     0.085 A 
BRANCH  30  32
ATOM     32  N   UNL A   1      29.271  28.712  22.698  1.00  0.00     0.062 N 
ATOM     33  O   UNL A   1      28.033  28.633  22.705  1.00  0.00    -0.258 OA
ATOM     34  O   UNL A   1      29.941  29.119  21.739  1.00  0.00    -0.258 OA
ENDBRANCH  30  32
ENDBRANCH  16  26
ENDBRANCH   6   9
ENDBRANCH   4   5
ENDBRANCH   3   4
ENDBRANCH   2   3
ENDBRANCH   1   2
BRANCH   1  35
ATOM     35  C   UNL A   1      37.230  21.306  25.266  1.00  0.00     0.021 C 
BRANCH  35  36
ATOM     36  C   UNL A   1      38.286  22.387  25.148  1.00  0.00     0.116 C 
BRANCH  36  37
ATOM     37  N   UNL A   1      39.431  22.139  26.001  1.00  0.00    -0.352 N 
ATOM     38  C   UNL A   1      40.293  23.031  26.603  1.00  0.00     0.251 C 
ATOM     39  H   UNL A   1      39.623  21.189  26.178  1.00  0.00     0.163 HD
ATOM     40  O   UNL A   1      41.335  22.596  27.090  1.00  0.00    -0.269 OA
BRANCH  38  41
ATOM     41  C   UNL A   1      39.874  24.439  26.816  1.00  0.00     0.039 A 
ATOM     42  C   UNL A   1      40.652  25.427  26.199  1.00  0.00     0.014 A 
ATOM     43  C   UNL A   1      38.966  24.790  27.810  1.00  0.00     0.014 A 
ATOM     44  C   UNL A   1      40.743  26.688  26.778  1.00  0.00     0.010 A 
ATOM     45  C   UNL A   1      39.121  26.003  28.443  1.00  0.00     0.010 A 
ATOM     46  C   UNL A   1      40.079  26.908  27.978  1.00  0.00    -0.014 A 
BRANCH  46  47
ATOM     47  C   UNL A   1      40.333  28.021  28.874  1.00  0.00     0.031 A 
ATOM     48  C   UNL A   1      39.445  29.201  28.821  1.00  0.00     0.074 A 
ATOM     49  C   UNL A   1      41.228  27.851  29.874  1.00  0.00     0.049 A 
ATOM     50  N   UNL A   1      39.643  30.292  29.475  1.00  0.00    -0.248 NA
ATOM     51  C   UNL A   1      38.255  29.243  27.978  1.00  0.00     0.031 C 
ATOM     52  C   UNL A   1      41.338  28.638  31.099  1.00  0.00     0.029 A 
ATOM     53  N   UNL A   1      42.363  27.029  29.922  1.00  0.00    -0.354 N 
ATOM     54  C   UNL A   1      38.500  31.057  29.370  1.00  0.00     0.074 A 
ATOM     55  C   UNL A   1      37.716  30.406  28.352  1.00  0.00     0.031 C 
ATOM     56  C   UNL A   1      42.581  28.499  31.589  1.00  0.00     0.029 A 
ATOM     57  C   UNL A   1      43.343  27.808  30.565  1.00  0.00     0.049 A 
ATOM     58  H   UNL A   1      42.455  26.109  29.581  1.00  0.00     0.167 HD
ATOM     59  C   UNL A   1      38.314  32.063  30.271  1.00  0.00     0.034 A 
ATOM     60  C   UNL A   1      44.444  28.334  29.940  1.00  0.00     0.034 A 
ATOM     61  C   UNL A   1      39.547  32.294  31.043  1.00  0.00     0.049 A 
ATOM     62  C   UNL A   1      44.577  29.846  30.099  1.00  0.00     0.074 A 
ATOM     63  C   UNL A   1      39.972  31.907  32.303  1.00  0.00     0.029 A 
ATOM     64  N   UNL A   1      40.673  32.776  30.382  1.00  0.00    -0.354 N 
ATOM     65  N   UNL A   1      43.612  30.629  30.499  1.00  0.00    -0.248 NA
ATOM     66  C   UNL A   1      45.800  30.593  29.814  1.00  0.00     0.031 C 
ATOM     67  C   UNL A   1      41.386  32.069  32.357  1.00  0.00     0.029 A 
ATOM     68  C   UNL A   1      41.814  32.589  31.146  1.00  0.00     0.049 A 
ATOM     69  H   UNL A   1      40.662  33.193  29.490  1.00  0.00     0.167 HD
ATOM     70  C   UNL A   1      44.006  31.941  30.431  1.00  0.00     0.074 A 
ATOM     71  C   UNL A   1      45.411  31.856  30.069  1.00  0.00     0.031 C 
ATOM     72  C   UNL A   1      43.123  32.974  30.622  1.00  0.00     0.034 A 
BRANCH  59  73
ATOM     73  C   UNL A   1      36.972  32.672  30.668  1.00  0.00     0.023 A 
ATOM     74  C   UNL A   1      36.456  32.321  31.938  1.00  0.00     0.012 A 
ATOM     75  C   UNL A   1      36.121  33.475  29.870  1.00  0.00     0.148 A 
ATOM     76  C   UNL A   1      35.162  32.663  32.353  1.00  0.00     0.002 A 
ATOM     77  C   UNL A   1      34.816  33.792  30.266  1.00  0.00     0.091 A 
ATOM     78  F   UNL A   1      36.562  33.991  28.727  1.00  0.00    -0.205 F 
ATOM     79  C   UNL A   1      34.330  33.379  31.507  1.00  0.00     0.022 A 
BRANCH  77  80
ATOM     80  S   UNL A   1      33.669  34.685  29.196  1.00  0.00     0.127 S 
ATOM     81  O   UNL A   1      33.312  33.663  28.211  1.00  0.00    -0.237 OA
ATOM     82  O   UNL A   1      32.594  35.043  30.118  1.00  0.00    -0.237 OA
ATOM     83  O   UNL A   1      34.410  35.813  28.642  1.00  0.00    -0.744 OA
ENDBRANCH  77  80
ENDBRANCH  59  73
BRANCH  60  84
ATOM     84  C   UNL A   1      44.902  27.559  28.746  1.00  0.00     0.023 A 
ATOM     85  C   UNL A   1      44.261  27.837  27.515  1.00  0.00     0.012 A 
ATOM     86  C   UNL A   1      46.131  26.876  28.727  1.00  0.00     0.148 A 
ATOM     87  C   UNL A   1      44.905  27.601  26.300  1.00  0.00     0.002 A 
ATOM     88  C   UNL A   1      46.761  26.626  27.507  1.00  0.00     0.091 A 
ATOM     89  F   UNL A   1      46.693  26.529  29.891  1.00  0.00    -0.205 F 
ATOM     90  C   UNL A   1      46.173  27.033  26.298  1.00  0.00     0.022 A 
BRANCH  88  91
ATOM     91  S   UNL A   1      48.405  25.898  27.426  1.00  0.00     0.127 S 
ATOM     92  O   UNL A   1      49.127  26.690  28.417  1.00  0.00    -0.237 OA
ATOM     93  O   UNL A   1      48.155  24.508  27.811  1.00  0.00    -0.237 OA
ATOM     94  O   UNL A   1      48.815  26.064  26.039  1.00  0.00    -0.744 OA
ENDBRANCH  88  91
ENDBRANCH  60  84
BRANCH  72  95
ATOM     95  C   UNL A   1      43.384  34.444  30.313  1.00  0.00     0.023 A 
ATOM     96  C   UNL A   1      43.780  35.368  31.299  1.00  0.00     0.012 A 
ATOM     97  C   UNL A   1      43.388  34.920  28.972  1.00  0.00     0.148 A 
ATOM     98  C   UNL A   1      44.107  36.696  30.992  1.00  0.00     0.002 A 
ATOM     99  C   UNL A   1      43.827  36.207  28.661  1.00  0.00     0.091 A 
ATOM    100  F   UNL A   1      42.948  34.135  27.979  1.00  0.00    -0.205 F 
ATOM    101  C   UNL A   1      44.157  37.109  29.671  1.00  0.00     0.022 A 
BRANCH  99 102
ATOM    102  S   UNL A   1      44.141  36.684  26.954  1.00  0.00     0.127 S 
ATOM    103  O   UNL A   1      42.831  37.170  26.525  1.00  0.00    -0.237 OA
ATOM    104  O   UNL A   1      45.158  37.728  27.097  1.00  0.00    -0.237 OA
ATOM    105  O   UNL A   1      44.625  35.470  26.311  1.00  0.00    -0.744 OA
ENDBRANCH  99 102
ENDBRANCH  72  95
ENDBRANCH  46  47
ENDBRANCH  38  41
ENDBRANCH  36  37
ENDBRANCH  35  36
ENDBRANCH   1  35
TORSDOF 19
ENDMDL
MODEL 3
REMARK VINA RESULT:     -13.1      3.137      4.318
REMARK SMILES Cc1ccc(-c2cc(C(=O)NCCCCCCNC(=O)c3ccc(-c4c5nc(c(-c6cccc(S(=O)(=O)[O-])c6F)c6ccc([nH]6)c(-c6cccc(S(=O)(=O)[O-])c6F)c6nc(c(-c7cccc(S(=O)(=O)[O-])c7F)c7ccc4[nH]7)C=C6)C=C5)cc3)c3c(-c4cccc([N+](=O)[O-])c4)[nH]nc3n2)cc1
REMARK SMILES IDX 15 1 14 2 13 3 12 4 11 5 9 6 10 7 8 9 6 10 7 11 98 12 97 13
REMARK SMILES IDX 84 14 96 15 85 16 95 17 5 19 1 20 2 21 3 22 100 23 4 24
REMARK SMILES IDX 99 25 86 26 87 27 94 28 88 29 90 30 89 31 91 32 92 33 93 34
REMARK SMILES IDX 16 35 17 36 18 37 19 38 20 40 21 41 22 42 83 43 23 44 82 45
REMARK SMILES IDX 24 46 25 47 26 48 76 49 27 50 81 51 75 52 77 53 28 54 80 55
REMARK SMILES IDX 74 56 73 57 29 59 61 60 41 61 60 62 42 63 45 64 59 65 78 66
REMARK SMILES IDX 43 67 44 68 58 70 79 71 46 72 30 73 31 74 39 75 32 76 34 77
REMARK SMILES IDX 40 78 33 79 35 80 36 81 37 82 38 83 62 84 63 85 71 86 64 87
REMARK SMILES IDX 66 88 72 89 65 90 67 91 68 92 69 93 70 94 47 95 48 96 56 97
REMARK SMILES IDX 49 98 51 99 57 100 50 101 52 102 53 103 54 104 55 105
REMARK H PARENT 11 8 95 18 18 39 77 58 45 69
REMARK Flexibility Score: inf
ROOT
ATOM      1  C   UNL A   1      38.582  21.735  25.597  1.00  0.00     0.002 C 
ENDROOT
BRANCH   1   2
ATOM      2  C   UNL A   1      37.874  23.079  25.843  1.00  0.00     0.002 C 
BRANCH   2   3
ATOM      3  C   UNL A   1      36.690  23.394  24.915  1.00  0.00     0.021 C 
BRANCH   3   4
ATOM      4  C   UNL A   1      35.672  24.357  25.519  1.00  0.00     0.116 C 
BRANCH   4   5
ATOM      5  N   UNL A   1      34.844  24.949  24.497  1.00  0.00    -0.352 N 
ATOM      6  C   UNL A   1      33.571  24.770  24.043  1.00  0.00     0.252 C 
ATOM      7  O   UNL A   1      33.193  25.684  23.316  1.00  0.00    -0.269 OA
ATOM      8  H   UNL A   1      35.315  25.661  24.007  1.00  0.00     0.163 HD
BRANCH   6   9
ATOM      9  C   UNL A   1      32.669  23.656  24.431  1.00  0.00     0.055 A 
ATOM     10  C   UNL A   1      32.181  21.224  24.621  1.00  0.00     0.074 A 
ATOM     11  C   UNL A   1      32.825  22.331  24.008  1.00  0.00     0.043 A 
ATOM     12  N   UNL A   1      31.213  21.300  25.569  1.00  0.00    -0.226 NA
ATOM     13  C   UNL A   1      30.894  22.580  25.884  1.00  0.00     0.182 A 
ATOM     14  C   UNL A   1      31.593  23.721  25.339  1.00  0.00     0.059 A 
ATOM     15  N   UNL A   1      29.939  22.946  26.739  1.00  0.00    -0.154 NA
ATOM     16  C   UNL A   1      30.939  24.819  25.879  1.00  0.00     0.076 A 
ATOM     17  N   UNL A   1      29.979  24.285  26.705  1.00  0.00    -0.275 N 
ATOM     18  H   UNL A   1      29.366  24.846  27.233  1.00  0.00     0.190 HD
BRANCH  10  19
ATOM     19  C   UNL A   1      32.687  19.882  24.286  1.00  0.00     0.000 A 
ATOM     20  C   UNL A   1      34.587  16.235  22.931  1.00  0.00     0.044 C 
ATOM     21  C   UNL A   1      33.908  17.471  23.445  1.00  0.00    -0.051 A 
ATOM     22  C   UNL A   1      32.688  17.888  22.896  1.00  0.00     0.004 A 
ATOM     23  C   UNL A   1      34.494  18.240  24.452  1.00  0.00     0.004 A 
ATOM     24  C   UNL A   1      32.078  19.077  23.317  1.00  0.00     0.010 A 
ATOM     25  C   UNL A   1      33.887  19.426  24.868  1.00  0.00     0.010 A 
ENDBRANCH  10  19
BRANCH  16  26
ATOM     26  C   UNL A   1      31.046  26.260  25.690  1.00  0.00     0.007 A 
ATOM     27  C   UNL A   1      31.928  27.007  26.487  1.00  0.00     0.011 A 
ATOM     28  C   UNL A   1      30.377  26.882  24.626  1.00  0.00     0.096 A 
ATOM     29  C   UNL A   1      32.189  28.348  26.189  1.00  0.00     0.008 A 
ATOM     30  C   UNL A   1      30.675  28.216  24.311  1.00  0.00     0.270 A 
ATOM     31  C   UNL A   1      31.576  28.953  25.092  1.00  0.00     0.085 A 
BRANCH  30  32
ATOM     32  N   UNL A   1      30.089  28.826  23.113  1.00  0.00     0.062 N 
ATOM     33  O   UNL A   1      30.248  28.241  22.031  1.00  0.00    -0.258 OA
ATOM     34  O   UNL A   1      29.490  29.902  23.245  1.00  0.00    -0.258 OA
ENDBRANCH  30  32
ENDBRANCH  16  26
ENDBRANCH   6   9
ENDBRANCH   4   5
ENDBRANCH   3   4
ENDBRANCH   2   3
ENDBRANCH   1   2
BRANCH   1  35
ATOM     35  C   UNL A   1      39.757  21.417  26.524  1.00  0.00     0.021 C 
BRANCH  35  36
ATOM     36  C   UNL A   1      41.086  21.967  26.045  1.00  0.00     0.116 C 
BRANCH  36  37
ATOM     37  N   UNL A   1      42.005  20.920  25.641  1.00  0.00    -0.352 N 
ATOM     38  C   UNL A   1      43.353  20.990  25.361  1.00  0.00     0.251 C 
ATOM     39  H   UNL A   1      41.606  20.024  25.554  1.00  0.00     0.163 HD
ATOM     40  O   UNL A   1      43.884  20.027  24.809  1.00  0.00    -0.269 OA
BRANCH  38  41
ATOM     41  C   UNL A   1      44.163  22.118  25.885  1.00  0.00     0.039 A 
ATOM     42  C   UNL A   1      44.391  22.141  27.267  1.00  0.00     0.014 A 
ATOM     43  C   UNL A   1      44.421  23.252  25.119  1.00  0.00     0.014 A 
ATOM     44  C   UNL A   1      44.574  23.360  27.910  1.00  0.00     0.010 A 
ATOM     45  C   UNL A   1      44.508  24.469  25.757  1.00  0.00     0.010 A 
ATOM     46  C   UNL A   1      44.488  24.521  27.153  1.00  0.00    -0.014 A 
BRANCH  46  47
ATOM     47  C   UNL A   1      44.317  25.856  27.698  1.00  0.00     0.031 A 
ATOM     48  C   UNL A   1      42.998  26.511  27.586  1.00  0.00     0.074 A 
ATOM     49  C   UNL A   1      45.298  26.361  28.481  1.00  0.00     0.049 A 
ATOM     50  N   UNL A   1      42.761  27.732  27.919  1.00  0.00    -0.248 NA
ATOM     51  C   UNL A   1      41.830  25.824  27.046  1.00  0.00     0.031 C 
ATOM     52  C   UNL A   1      45.178  27.454  29.444  1.00  0.00     0.029 A 
ATOM     53  N   UNL A   1      46.678  26.112  28.454  1.00  0.00    -0.354 N 
ATOM     54  C   UNL A   1      41.394  27.911  27.909  1.00  0.00     0.074 A 
ATOM     55  C   UNL A   1      40.874  26.731  27.265  1.00  0.00     0.031 C 
ATOM     56  C   UNL A   1      46.399  27.971  29.658  1.00  0.00     0.029 A 
ATOM     57  C   UNL A   1      47.273  27.369  28.668  1.00  0.00     0.049 A 
ATOM     58  H   UNL A   1      47.130  25.249  28.313  1.00  0.00     0.167 HD
ATOM     59  C   UNL A   1      40.879  28.980  28.582  1.00  0.00     0.034 A 
ATOM     60  C   UNL A   1      47.952  28.077  27.710  1.00  0.00     0.034 A 
ATOM     61  C   UNL A   1      41.957  29.900  28.983  1.00  0.00     0.049 A 
ATOM     62  C   UNL A   1      47.416  29.489  27.495  1.00  0.00     0.074 A 
ATOM     63  C   UNL A   1      42.643  30.108  30.168  1.00  0.00     0.029 A 
ATOM     64  N   UNL A   1      42.673  30.568  27.995  1.00  0.00    -0.354 N 
ATOM     65  N   UNL A   1      46.253  29.906  27.919  1.00  0.00    -0.248 NA
ATOM     66  C   UNL A   1      48.141  30.539  26.782  1.00  0.00     0.031 C 
ATOM     67  C   UNL A   1      43.834  30.826  29.864  1.00  0.00     0.029 A 
ATOM     68  C   UNL A   1      43.853  31.086  28.504  1.00  0.00     0.049 A 
ATOM     69  H   UNL A   1      42.381  30.660  27.059  1.00  0.00     0.167 HD
ATOM     70  C   UNL A   1      46.013  31.180  27.473  1.00  0.00     0.074 A 
ATOM     71  C   UNL A   1      47.262  31.557  26.831  1.00  0.00     0.031 C 
ATOM     72  C   UNL A   1      44.790  31.784  27.625  1.00  0.00     0.034 A 
BRANCH  59  73
ATOM     73  C   UNL A   1      39.457  29.094  29.126  1.00  0.00     0.023 A 
ATOM     74  C   UNL A   1      38.417  29.249  28.180  1.00  0.00     0.012 A 
ATOM     75  C   UNL A   1      39.058  29.165  30.483  1.00  0.00     0.148 A 
ATOM     76  C   UNL A   1      37.095  29.540  28.546  1.00  0.00     0.002 A 
ATOM     77  C   UNL A   1      37.747  29.489  30.853  1.00  0.00     0.091 A 
ATOM     78  F   UNL A   1      39.921  28.881  31.453  1.00  0.00    -0.205 F 
ATOM     79  C   UNL A   1      36.763  29.685  29.884  1.00  0.00     0.022 A 
BRANCH  77  80
ATOM     80  S   UNL A   1      37.259  29.732  32.574  1.00  0.00     0.127 S 
ATOM     81  O   UNL A   1      38.302  30.636  33.061  1.00  0.00    -0.237 OA
ATOM     82  O   UNL A   1      35.938  30.344  32.441  1.00  0.00    -0.237 OA
ATOM     83  O   UNL A   1      37.270  28.415  33.199  1.00  0.00    -0.744 OA
ENDBRANCH  77  80
ENDBRANCH  59  73
BRANCH  60  84
ATOM     84  C   UNL A   1      48.574  27.230  26.646  1.00  0.00     0.023 A 
ATOM     85  C   UNL A   1      47.936  27.215  25.382  1.00  0.00     0.012 A 
ATOM     86  C   UNL A   1      49.900  26.774  26.737  1.00  0.00     0.148 A 
ATOM     87  C   UNL A   1      48.650  26.922  24.220  1.00  0.00     0.002 A 
ATOM     88  C   UNL A   1      50.604  26.464  25.572  1.00  0.00     0.091 A 
ATOM     89  F   UNL A   1      50.474  26.698  27.944  1.00  0.00    -0.205 F 
ATOM     90  C   UNL A   1      49.996  26.587  24.312  1.00  0.00     0.022 A 
BRANCH  88  91
ATOM     91  S   UNL A   1      52.349  26.026  25.612  1.00  0.00     0.127 S 
ATOM     92  O   UNL A   1      52.313  24.729  26.280  1.00  0.00    -0.237 OA
ATOM     93  O   UNL A   1      52.696  25.978  24.191  1.00  0.00    -0.237 OA
ATOM     94  O   UNL A   1      52.986  27.114  26.340  1.00  0.00    -0.744 OA
ENDBRANCH  88  91
ENDBRANCH  60  84
BRANCH  72  95
ATOM     95  C   UNL A   1      44.337  33.071  26.946  1.00  0.00     0.023 A 
ATOM     96  C   UNL A   1      44.174  33.178  25.551  1.00  0.00     0.012 A 
ATOM     97  C   UNL A   1      43.906  34.189  27.713  1.00  0.00     0.148 A 
ATOM     98  C   UNL A   1      43.671  34.335  24.943  1.00  0.00     0.002 A 
ATOM     99  C   UNL A   1      43.297  35.291  27.111  1.00  0.00     0.091 A 
ATOM    100  F   UNL A   1      44.098  34.209  29.040  1.00  0.00    -0.205 F 
ATOM    101  C   UNL A   1      43.206  35.382  25.723  1.00  0.00     0.022 A 
BRANCH  99 102
ATOM    102  S   UNL A   1      42.463  36.539  28.105  1.00  0.00     0.127 S 
ATOM    103  O   UNL A   1      41.445  35.751  28.795  1.00  0.00    -0.237 OA
ATOM    104  O   UNL A   1      43.539  37.030  28.969  1.00  0.00    -0.237 OA
ATOM    105  O   UNL A   1      41.982  37.520  27.143  1.00  0.00    -0.744 OA
ENDBRANCH  99 102
ENDBRANCH  72  95
ENDBRANCH  46  47
ENDBRANCH  38  41
ENDBRANCH  36  37
ENDBRANCH  35  36
ENDBRANCH   1  35
TORSDOF 19
ENDMDL
