MODEL 1
REMARK VINA RESULT:     -10.7      0.000      0.000
REMARK SMILES CCOC(=O)[C@@H](/C=N/c1ccnn1C1CCCCC1)C(=O)NCCCCCCNC(=O)c1ccc(-c2c3nc(c(-c4cccc(S(=O)(=O)[O-])c4F)c4ccc([nH]4)c(-c4cccc(S(=O)(=O)[O-])c4F)c4nc(c(-c5cccc(S(=O)(=O)[O-])c5F)c5ccc2[nH]5)C=C4)C=C3)cc1
REMARK SMILES IDX 25 1 24 2 23 3 22 4 20 5 21 6 6 8 4 9 5 10 3 11 2 12 1 13
REMARK SMILES IDX 7 14 8 15 9 16 10 17 13 18 11 19 12 20 14 21 15 22 19 23
REMARK SMILES IDX 16 24 18 25 17 26 26 27 27 28 28 29 29 30 30 31 31 33 32 34
REMARK SMILES IDX 33 35 94 36 34 37 93 38 35 39 36 40 37 41 87 42 38 43 92 44
REMARK SMILES IDX 86 45 88 46 39 47 91 48 85 49 84 50 40 52 72 53 52 54 71 55
REMARK SMILES IDX 53 56 56 57 70 58 89 59 54 60 55 61 69 63 90 64 57 65 41 66
REMARK SMILES IDX 42 67 50 68 43 69 45 70 51 71 44 72 46 73 47 74 48 75 49 76
REMARK SMILES IDX 73 77 74 78 82 79 75 80 77 81 83 82 76 83 78 84 79 85 80 86
REMARK SMILES IDX 81 87 58 88 59 89 67 90 60 91 62 92 68 93 61 94 63 95 64 96
REMARK SMILES IDX 65 97 66 98
REMARK H PARENT 22 7 29 32 88 51 56 62
REMARK Flexibility Score: inf
ROOT
ATOM      1  C   UNL A   1      37.574  22.965  25.022  1.00  0.00     0.002 C 
ENDROOT
BRANCH   1   2
ATOM      2  C   UNL A   1      36.913  22.550  23.707  1.00  0.00     0.021 C 
BRANCH   2   3
ATOM      3  C   UNL A   1      35.580  23.242  23.456  1.00  0.00     0.116 C 
BRANCH   3   4
ATOM      4  N   UNL A   1      35.220  24.123  24.555  1.00  0.00    -0.355 N 
ATOM      5  C   UNL A   1      33.994  24.605  24.914  1.00  0.00     0.239 C 
ATOM      6  O   UNL A   1      33.926  25.261  25.960  1.00  0.00    -0.274 OA
ATOM      7  H   UNL A   1      35.969  24.414  25.123  1.00  0.00     0.163 HD
BRANCH   5   8
ATOM      8  C   UNL A   1      32.754  24.324  24.093  1.00  0.00     0.229 C 
BRANCH   8   9
ATOM      9  C   UNL A   1      31.836  23.333  24.752  1.00  0.00     0.324 C 
ATOM     10  O   UNL A   1      30.634  23.302  24.543  1.00  0.00    -0.251 OA
BRANCH   9  11
ATOM     11  O   UNL A   1      32.515  22.517  25.598  1.00  0.00    -0.465 OA
BRANCH  11  12
ATOM     12  C   UNL A   1      32.383  21.096  25.401  1.00  0.00     0.229 C 
ATOM     13  C   UNL A   1      33.434  20.627  24.419  1.00  0.00     0.049 C 
ENDBRANCH  11  12
ENDBRANCH   9  11
ENDBRANCH   8   9
BRANCH   8  14
ATOM     14  C   UNL A   1      32.062  25.548  23.555  1.00  0.00     0.111 C 
ATOM     15  N   UNL A   1      31.634  26.450  24.377  1.00  0.00    -0.240 NA
BRANCH  15  16
ATOM     16  C   UNL A   1      31.017  27.553  23.906  1.00  0.00     0.150 A 
ATOM     17  C   UNL A   1      30.097  27.798  22.910  1.00  0.00     0.070 A 
ATOM     18  N   UNL A   1      31.189  28.768  24.544  1.00  0.00    -0.245 N 
ATOM     19  C   UNL A   1      29.797  29.167  23.008  1.00  0.00     0.137 A 
ATOM     20  N   UNL A   1      30.469  29.773  23.989  1.00  0.00    -0.179 NA
BRANCH  18  21
ATOM     21  C   UNL A   1      32.011  29.038  25.727  1.00  0.00     0.110 C 
ATOM     22  C   UNL A   1      33.474  28.610  25.513  1.00  0.00     0.027 C 
ATOM     23  C   UNL A   1      31.883  30.494  26.213  1.00  0.00     0.027 C 
ATOM     24  C   UNL A   1      34.357  28.946  26.714  1.00  0.00     0.002 C 
ATOM     25  C   UNL A   1      32.795  30.792  27.399  1.00  0.00     0.002 C 
ATOM     26  C   UNL A   1      34.242  30.417  27.096  1.00  0.00     0.000 C 
ENDBRANCH  18  21
ENDBRANCH  15  16
ENDBRANCH   8  14
ENDBRANCH   5   8
ENDBRANCH   3   4
ENDBRANCH   2   3
ENDBRANCH   1   2
BRANCH   1  27
ATOM     27  C   UNL A   1      38.234  21.827  25.820  1.00  0.00     0.002 C 
BRANCH  27  28
ATOM     28  C   UNL A   1      38.564  20.545  25.038  1.00  0.00     0.021 C 
BRANCH  28  29
ATOM     29  C   UNL A   1      38.894  19.368  25.937  1.00  0.00     0.116 C 
BRANCH  29  30
ATOM     30  N   UNL A   1      40.234  18.822  25.670  1.00  0.00    -0.352 N 
ATOM     31  C   UNL A   1      41.457  19.470  25.723  1.00  0.00     0.251 C 
ATOM     32  H   UNL A   1      40.266  17.871  25.421  1.00  0.00     0.163 HD
ATOM     33  O   UNL A   1      42.447  19.014  25.174  1.00  0.00    -0.269 OA
BRANCH  31  34
ATOM     34  C   UNL A   1      41.533  20.720  26.495  1.00  0.00     0.039 A 
ATOM     35  C   UNL A   1      41.225  20.802  27.858  1.00  0.00     0.014 A 
ATOM     36  C   UNL A   1      41.981  21.830  25.796  1.00  0.00     0.014 A 
ATOM     37  C   UNL A   1      41.428  22.017  28.512  1.00  0.00     0.010 A 
ATOM     38  C   UNL A   1      42.440  22.905  26.487  1.00  0.00     0.010 A 
ATOM     39  C   UNL A   1      42.034  23.061  27.805  1.00  0.00    -0.014 A 
BRANCH  39  40
ATOM     40  C   UNL A   1      42.317  24.366  28.376  1.00  0.00     0.031 A 
ATOM     41  C   UNL A   1      41.239  25.370  28.189  1.00  0.00     0.074 A 
ATOM     42  C   UNL A   1      43.309  24.477  29.294  1.00  0.00     0.049 A 
ATOM     43  N   UNL A   1      41.308  26.506  27.576  1.00  0.00    -0.248 NA
ATOM     44  C   UNL A   1      39.875  25.007  28.614  1.00  0.00     0.031 C 
ATOM     45  C   UNL A   1      44.191  23.410  29.806  1.00  0.00     0.029 A 
ATOM     46  N   UNL A   1      43.598  25.510  30.124  1.00  0.00    -0.354 N 
ATOM     47  C   UNL A   1      40.062  27.101  27.767  1.00  0.00     0.074 A 
ATOM     48  C   UNL A   1      39.170  26.053  28.182  1.00  0.00     0.031 C 
ATOM     49  C   UNL A   1      44.681  23.768  31.012  1.00  0.00     0.029 A 
ATOM     50  C   UNL A   1      44.301  25.141  31.270  1.00  0.00     0.049 A 
ATOM     51  H   UNL A   1      43.335  26.441  29.935  1.00  0.00     0.167 HD
ATOM     52  C   UNL A   1      39.928  28.454  27.862  1.00  0.00     0.034 A 
ATOM     53  C   UNL A   1      44.486  25.892  32.384  1.00  0.00     0.034 A 
ATOM     54  C   UNL A   1      41.120  29.134  27.420  1.00  0.00     0.049 A 
ATOM     55  C   UNL A   1      44.226  27.298  32.001  1.00  0.00     0.074 A 
ATOM     56  C   UNL A   1      41.850  29.166  26.250  1.00  0.00     0.029 A 
ATOM     57  N   UNL A   1      41.958  29.609  28.401  1.00  0.00    -0.354 N 
ATOM     58  N   UNL A   1      44.949  27.947  31.130  1.00  0.00    -0.248 NA
ATOM     59  C   UNL A   1      42.885  27.816  32.216  1.00  0.00     0.031 C 
ATOM     60  C   UNL A   1      43.213  29.181  26.673  1.00  0.00     0.029 A 
ATOM     61  C   UNL A   1      43.233  29.231  28.070  1.00  0.00     0.049 A 
ATOM     62  H   UNL A   1      41.692  30.126  29.195  1.00  0.00     0.167 HD
ATOM     63  C   UNL A   1      44.023  28.639  30.362  1.00  0.00     0.074 A 
ATOM     64  C   UNL A   1      42.784  28.605  31.141  1.00  0.00     0.031 C 
ATOM     65  C   UNL A   1      44.255  28.901  29.040  1.00  0.00     0.034 A 
BRANCH  52  66
ATOM     66  C   UNL A   1      38.891  29.159  28.704  1.00  0.00     0.023 A 
ATOM     67  C   UNL A   1      38.154  30.195  28.089  1.00  0.00     0.012 A 
ATOM     68  C   UNL A   1      38.790  29.052  30.112  1.00  0.00     0.148 A 
ATOM     69  C   UNL A   1      37.396  31.102  28.838  1.00  0.00     0.002 A 
ATOM     70  C   UNL A   1      37.969  29.902  30.844  1.00  0.00     0.091 A 
ATOM     71  F   UNL A   1      39.594  28.221  30.781  1.00  0.00    -0.205 F 
ATOM     72  C   UNL A   1      37.295  30.950  30.216  1.00  0.00     0.022 A 
BRANCH  70  73
ATOM     73  S   UNL A   1      37.769  29.715  32.620  1.00  0.00     0.127 S 
ATOM     74  O   UNL A   1      39.095  30.088  33.104  1.00  0.00    -0.237 OA
ATOM     75  O   UNL A   1      36.709  30.680  32.906  1.00  0.00    -0.237 OA
ATOM     76  O   UNL A   1      37.378  28.324  32.821  1.00  0.00    -0.744 OA
ENDBRANCH  70  73
ENDBRANCH  52  66
BRANCH  53  77
ATOM     77  C   UNL A   1      44.553  25.450  33.798  1.00  0.00     0.023 A 
ATOM     78  C   UNL A   1      43.377  25.350  34.567  1.00  0.00     0.012 A 
ATOM     79  C   UNL A   1      45.734  24.867  34.309  1.00  0.00     0.148 A 
ATOM     80  C   UNL A   1      43.376  24.677  35.797  1.00  0.00     0.002 A 
ATOM     81  C   UNL A   1      45.730  24.207  35.534  1.00  0.00     0.091 A 
ATOM     82  F   UNL A   1      46.839  24.877  33.550  1.00  0.00    -0.205 F 
ATOM     83  C   UNL A   1      44.550  24.100  36.278  1.00  0.00     0.022 A 
BRANCH  81  84
ATOM     84  S   UNL A   1      47.207  23.423  36.193  1.00  0.00     0.127 S 
ATOM     85  O   UNL A   1      47.027  22.035  35.769  1.00  0.00    -0.237 OA
ATOM     86  O   UNL A   1      48.270  24.149  35.503  1.00  0.00    -0.237 OA
ATOM     87  O   UNL A   1      47.155  23.622  37.638  1.00  0.00    -0.744 OA
ENDBRANCH  81  84
ENDBRANCH  53  77
BRANCH  65  88
ATOM     88  C   UNL A   1      45.624  28.579  28.483  1.00  0.00     0.023 A 
ATOM     89  C   UNL A   1      46.753  29.387  28.739  1.00  0.00     0.012 A 
ATOM     90  C   UNL A   1      45.815  27.342  27.850  1.00  0.00     0.148 A 
ATOM     91  C   UNL A   1      48.036  28.985  28.356  1.00  0.00     0.002 A 
ATOM     92  C   UNL A   1      47.096  26.924  27.507  1.00  0.00     0.091 A 
ATOM     93  F   UNL A   1      44.738  26.575  27.628  1.00  0.00    -0.205 F 
ATOM     94  C   UNL A   1      48.210  27.745  27.750  1.00  0.00     0.022 A 
BRANCH  92  95
ATOM     95  S   UNL A   1      47.405  25.290  26.836  1.00  0.00     0.127 S 
ATOM     96  O   UNL A   1      46.681  25.341  25.568  1.00  0.00    -0.237 OA
ATOM     97  O   UNL A   1      48.864  25.276  26.708  1.00  0.00    -0.237 OA
ATOM     98  O   UNL A   1      46.884  24.347  27.817  1.00  0.00    -0.744 OA
ENDBRANCH  92  95
ENDBRANCH  65  88
ENDBRANCH  39  40
ENDBRANCH  31  34
ENDBRANCH  29  30
ENDBRANCH  28  29
ENDBRANCH  27  28
ENDBRANCH   1  27
TORSDOF 22
ENDMDL
MODEL 2
REMARK VINA RESULT:     -10.5      2.860      7.428
REMARK SMILES CCOC(=O)[C@@H](/C=N/c1ccnn1C1CCCCC1)C(=O)NCCCCCCNC(=O)c1ccc(-c2c3nc(c(-c4cccc(S(=O)(=O)[O-])c4F)c4ccc([nH]4)c(-c4cccc(S(=O)(=O)[O-])c4F)c4nc(c(-c5cccc(S(=O)(=O)[O-])c5F)c5ccc2[nH]5)C=C4)C=C3)cc1
REMARK SMILES IDX 25 1 24 2 23 3 22 4 20 5 21 6 6 8 4 9 5 10 3 11 2 12 1 13
REMARK SMILES IDX 7 14 8 15 9 16 10 17 13 18 11 19 12 20 14 21 15 22 19 23
REMARK SMILES IDX 16 24 18 25 17 26 26 27 27 28 28 29 29 30 30 31 31 33 32 34
REMARK SMILES IDX 33 35 94 36 34 37 93 38 35 39 36 40 37 41 87 42 38 43 92 44
REMARK SMILES IDX 86 45 88 46 39 47 91 48 85 49 84 50 40 52 72 53 52 54 71 55
REMARK SMILES IDX 53 56 56 57 70 58 89 59 54 60 55 61 69 63 90 64 57 65 41 66
REMARK SMILES IDX 42 67 50 68 43 69 45 70 51 71 44 72 46 73 47 74 48 75 49 76
REMARK SMILES IDX 73 77 74 78 82 79 75 80 77 81 83 82 76 83 78 84 79 85 80 86
REMARK SMILES IDX 81 87 58 88 59 89 67 90 60 91 62 92 68 93 61 94 63 95 64 96
REMARK SMILES IDX 65 97 66 98
REMARK H PARENT 22 7 29 32 88 51 56 62
REMARK Flexibility Score: inf
ROOT
ATOM      1  C   UNL A   1      31.563  28.509  27.191  1.00  0.00     0.002 C 
ENDROOT
BRANCH   1   2
ATOM      2  C   UNL A   1      31.208  27.258  26.386  1.00  0.00     0.021 C 
BRANCH   2   3
ATOM      3  C   UNL A   1      32.135  26.081  26.661  1.00  0.00     0.116 C 
BRANCH   3   4
ATOM      4  N   UNL A   1      31.396  24.835  26.775  1.00  0.00    -0.355 N 
ATOM      5  C   UNL A   1      31.836  23.550  26.635  1.00  0.00     0.239 C 
ATOM      6  O   UNL A   1      31.032  22.644  26.884  1.00  0.00    -0.274 OA
ATOM      7  H   UNL A   1      30.439  24.931  26.984  1.00  0.00     0.163 HD
BRANCH   5   8
ATOM      8  C   UNL A   1      33.259  23.234  26.227  1.00  0.00     0.229 C 
BRANCH   8   9
ATOM      9  C   UNL A   1      33.738  21.917  26.772  1.00  0.00     0.324 C 
ATOM     10  O   UNL A   1      33.947  21.728  27.960  1.00  0.00    -0.251 OA
BRANCH   9  11
ATOM     11  O   UNL A   1      33.914  21.007  25.780  1.00  0.00    -0.465 OA
BRANCH  11  12
ATOM     12  C   UNL A   1      32.880  20.021  25.592  1.00  0.00     0.229 C 
ATOM     13  C   UNL A   1      33.173  19.221  24.342  1.00  0.00     0.049 C 
ENDBRANCH  11  12
ENDBRANCH   9  11
ENDBRANCH   8   9
BRANCH   8  14
ATOM     14  C   UNL A   1      33.559  23.446  24.766  1.00  0.00     0.111 C 
ATOM     15  N   UNL A   1      32.610  23.813  23.968  1.00  0.00    -0.240 NA
BRANCH  15  16
ATOM     16  C   UNL A   1      32.869  24.010  22.659  1.00  0.00     0.150 A 
ATOM     17  C   UNL A   1      33.197  23.190  21.602  1.00  0.00     0.070 A 
ATOM     18  N   UNL A   1      32.710  25.267  22.105  1.00  0.00    -0.245 N 
ATOM     19  C   UNL A   1      33.236  24.031  20.476  1.00  0.00     0.137 A 
ATOM     20  N   UNL A   1      32.958  25.302  20.773  1.00  0.00    -0.179 NA
BRANCH  18  21
ATOM     21  C   UNL A   1      32.285  26.490  22.791  1.00  0.00     0.110 C 
ATOM     22  C   UNL A   1      33.351  27.596  22.698  1.00  0.00     0.027 C 
ATOM     23  C   UNL A   1      30.893  26.967  22.335  1.00  0.00     0.027 C 
ATOM     24  C   UNL A   1      32.893  28.898  23.352  1.00  0.00     0.002 C 
ATOM     25  C   UNL A   1      30.484  28.280  22.996  1.00  0.00     0.002 C 
ATOM     26  C   UNL A   1      31.547  29.355  22.803  1.00  0.00     0.000 C 
ENDBRANCH  18  21
ENDBRANCH  15  16
ENDBRANCH   8  14
ENDBRANCH   5   8
ENDBRANCH   3   4
ENDBRANCH   2   3
ENDBRANCH   1   2
BRANCH   1  27
ATOM     27  C   UNL A   1      33.059  28.869  27.233  1.00  0.00     0.002 C 
BRANCH  27  28
ATOM     28  C   UNL A   1      33.418  30.338  26.954  1.00  0.00     0.021 C 
BRANCH  28  29
ATOM     29  C   UNL A   1      34.691  30.782  27.650  1.00  0.00     0.116 C 
BRANCH  29  30
ATOM     30  N   UNL A   1      34.430  31.767  28.711  1.00  0.00    -0.352 N 
ATOM     31  C   UNL A   1      34.978  31.835  29.981  1.00  0.00     0.251 C 
ATOM     32  H   UNL A   1      33.780  32.472  28.489  1.00  0.00     0.163 HD
ATOM     33  O   UNL A   1      34.453  32.487  30.870  1.00  0.00    -0.269 OA
BRANCH  31  34
ATOM     34  C   UNL A   1      36.239  31.116  30.219  1.00  0.00     0.039 A 
ATOM     35  C   UNL A   1      36.307  29.737  30.445  1.00  0.00     0.014 A 
ATOM     36  C   UNL A   1      37.389  31.888  30.162  1.00  0.00     0.014 A 
ATOM     37  C   UNL A   1      37.563  29.144  30.560  1.00  0.00     0.010 A 
ATOM     38  C   UNL A   1      38.588  31.275  29.989  1.00  0.00     0.010 A 
ATOM     39  C   UNL A   1      38.695  29.934  30.333  1.00  0.00    -0.014 A 
BRANCH  39  40
ATOM     40  C   UNL A   1      40.057  29.433  30.403  1.00  0.00     0.031 A 
ATOM     41  C   UNL A   1      40.636  29.405  31.770  1.00  0.00     0.074 A 
ATOM     42  C   UNL A   1      40.551  28.731  29.354  1.00  0.00     0.049 A 
ATOM     43  N   UNL A   1      41.687  30.022  32.203  1.00  0.00    -0.248 NA
ATOM     44  C   UNL A   1      39.875  28.717  32.829  1.00  0.00     0.031 C 
ATOM     45  C   UNL A   1      39.871  28.402  28.086  1.00  0.00     0.029 A 
ATOM     46  N   UNL A   1      41.677  27.977  29.279  1.00  0.00    -0.354 N 
ATOM     47  C   UNL A   1      41.851  29.590  33.517  1.00  0.00     0.074 A 
ATOM     48  C   UNL A   1      40.599  29.003  33.912  1.00  0.00     0.031 C 
ATOM     49  C   UNL A   1      40.452  27.318  27.529  1.00  0.00     0.029 A 
ATOM     50  C   UNL A   1      41.639  26.993  28.292  1.00  0.00     0.049 A 
ATOM     51  H   UNL A   1      42.454  28.113  29.870  1.00  0.00     0.167 HD
ATOM     52  C   UNL A   1      43.088  29.473  34.077  1.00  0.00     0.034 A 
ATOM     53  C   UNL A   1      42.484  25.939  28.166  1.00  0.00     0.034 A 
ATOM     54  C   UNL A   1      44.089  30.144  33.287  1.00  0.00     0.049 A 
ATOM     55  C   UNL A   1      43.696  26.267  28.950  1.00  0.00     0.074 A 
ATOM     56  C   UNL A   1      44.279  31.436  32.842  1.00  0.00     0.029 A 
ATOM     57  N   UNL A   1      44.880  29.351  32.490  1.00  0.00    -0.354 N 
ATOM     58  N   UNL A   1      44.485  27.265  28.662  1.00  0.00    -0.248 NA
ATOM     59  C   UNL A   1      43.758  25.792  30.322  1.00  0.00     0.031 C 
ATOM     60  C   UNL A   1      44.770  31.292  31.510  1.00  0.00     0.029 A 
ATOM     61  C   UNL A   1      44.920  29.927  31.248  1.00  0.00     0.049 A 
ATOM     62  H   UNL A   1      45.334  28.521  32.762  1.00  0.00     0.167 HD
ATOM     63  C   UNL A   1      44.779  27.836  29.893  1.00  0.00     0.074 A 
ATOM     64  C   UNL A   1      44.394  26.827  30.881  1.00  0.00     0.031 C 
ATOM     65  C   UNL A   1      45.012  29.178  30.013  1.00  0.00     0.034 A 
BRANCH  52  66
ATOM     66  C   UNL A   1      43.470  28.443  35.115  1.00  0.00     0.023 A 
ATOM     67  C   UNL A   1      44.156  28.903  36.260  1.00  0.00     0.012 A 
ATOM     68  C   UNL A   1      43.437  27.044  34.908  1.00  0.00     0.148 A 
ATOM     69  C   UNL A   1      44.813  28.022  37.126  1.00  0.00     0.002 A 
ATOM     70  C   UNL A   1      44.018  26.166  35.816  1.00  0.00     0.091 A 
ATOM     71  F   UNL A   1      42.969  26.545  33.760  1.00  0.00    -0.205 F 
ATOM     72  C   UNL A   1      44.735  26.651  36.910  1.00  0.00     0.022 A 
BRANCH  70  73
ATOM     73  S   UNL A   1      43.905  24.385  35.604  1.00  0.00     0.127 S 
ATOM     74  O   UNL A   1      44.597  24.197  34.334  1.00  0.00    -0.237 OA
ATOM     75  O   UNL A   1      44.621  23.897  36.782  1.00  0.00    -0.237 OA
ATOM     76  O   UNL A   1      42.478  24.084  35.611  1.00  0.00    -0.744 OA
ENDBRANCH  70  73
ENDBRANCH  52  66
BRANCH  53  77
ATOM     77  C   UNL A   1      42.187  24.566  27.693  1.00  0.00     0.023 A 
ATOM     78  C   UNL A   1      40.884  24.043  27.803  1.00  0.00     0.012 A 
ATOM     79  C   UNL A   1      43.117  23.872  26.887  1.00  0.00     0.148 A 
ATOM     80  C   UNL A   1      40.517  22.876  27.119  1.00  0.00     0.002 A 
ATOM     81  C   UNL A   1      42.750  22.709  26.217  1.00  0.00     0.091 A 
ATOM     82  F   UNL A   1      44.333  24.404  26.702  1.00  0.00    -0.205 F 
ATOM     83  C   UNL A   1      41.447  22.212  26.322  1.00  0.00     0.022 A 
BRANCH  81  84
ATOM     84  S   UNL A   1      43.899  21.824  25.155  1.00  0.00     0.127 S 
ATOM     85  O   UNL A   1      45.164  21.999  25.869  1.00  0.00    -0.237 OA
ATOM     86  O   UNL A   1      43.355  20.470  25.180  1.00  0.00    -0.237 OA
ATOM     87  O   UNL A   1      43.843  22.493  23.859  1.00  0.00    -0.744 OA
ENDBRANCH  81  84
ENDBRANCH  53  77
BRANCH  65  88
ATOM     88  C   UNL A   1      45.120  29.996  28.744  1.00  0.00     0.023 A 
ATOM     89  C   UNL A   1      43.985  30.424  28.022  1.00  0.00     0.012 A 
ATOM     90  C   UNL A   1      46.376  30.502  28.379  1.00  0.00     0.148 A 
ATOM     91  C   UNL A   1      44.099  31.314  26.951  1.00  0.00     0.002 A 
ATOM     92  C   UNL A   1      46.483  31.420  27.340  1.00  0.00     0.091 A 
ATOM     93  F   UNL A   1      47.445  30.102  29.083  1.00  0.00    -0.205 F 
ATOM     94  C   UNL A   1      45.349  31.823  26.617  1.00  0.00     0.022 A 
BRANCH  92  95
ATOM     95  S   UNL A   1      48.043  32.207  26.937  1.00  0.00     0.127 S 
ATOM     96  O   UNL A   1      47.651  33.136  25.880  1.00  0.00    -0.237 OA
ATOM     97  O   UNL A   1      48.410  32.840  28.205  1.00  0.00    -0.237 OA
ATOM     98  O   UNL A   1      48.941  31.135  26.526  1.00  0.00    -0.744 OA
ENDBRANCH  92  95
ENDBRANCH  65  88
ENDBRANCH  39  40
ENDBRANCH  31  34
ENDBRANCH  29  30
ENDBRANCH  28  29
ENDBRANCH  27  28
ENDBRANCH   1  27
TORSDOF 22
ENDMDL
MODEL 3
REMARK VINA RESULT:     -10.5      3.293      7.688
REMARK SMILES CCOC(=O)[C@@H](/C=N/c1ccnn1C1CCCCC1)C(=O)NCCCCCCNC(=O)c1ccc(-c2c3nc(c(-c4cccc(S(=O)(=O)[O-])c4F)c4ccc([nH]4)c(-c4cccc(S(=O)(=O)[O-])c4F)c4nc(c(-c5cccc(S(=O)(=O)[O-])c5F)c5ccc2[nH]5)C=C4)C=C3)cc1
REMARK SMILES IDX 25 1 24 2 23 3 22 4 20 5 21 6 6 8 4 9 5 10 3 11 2 12 1 13
REMARK SMILES IDX 7 14 8 15 9 16 10 17 13 18 11 19 12 20 14 21 15 22 19 23
REMARK SMILES IDX 16 24 18 25 17 26 26 27 27 28 28 29 29 30 30 31 31 33 32 34
REMARK SMILES IDX 33 35 94 36 34 37 93 38 35 39 36 40 37 41 87 42 38 43 92 44
REMARK SMILES IDX 86 45 88 46 39 47 91 48 85 49 84 50 40 52 72 53 52 54 71 55
REMARK SMILES IDX 53 56 56 57 70 58 89 59 54 60 55 61 69 63 90 64 57 65 41 66
REMARK SMILES IDX 42 67 50 68 43 69 45 70 51 71 44 72 46 73 47 74 48 75 49 76
REMARK SMILES IDX 73 77 74 78 82 79 75 80 77 81 83 82 76 83 78 84 79 85 80 86
REMARK SMILES IDX 81 87 58 88 59 89 67 90 60 91 62 92 68 93 61 94 63 95 64 96
REMARK SMILES IDX 65 97 66 98
REMARK H PARENT 22 7 29 32 88 51 56 62
REMARK Flexibility Score: inf
ROOT
ATOM      1  C   UNL A   1      34.069  23.565  26.132  1.00  0.00     0.002 C 
ENDROOT
BRANCH   1   2
ATOM      2  C   UNL A   1      33.646  23.599  24.663  1.00  0.00     0.021 C 
BRANCH   2   3
ATOM      3  C   UNL A   1      34.381  24.653  23.847  1.00  0.00     0.116 C 
BRANCH   3   4
ATOM      4  N   UNL A   1      33.650  25.002  22.640  1.00  0.00    -0.355 N 
ATOM      5  C   UNL A   1      32.733  25.993  22.438  1.00  0.00     0.239 C 
ATOM      6  O   UNL A   1      32.321  26.159  21.283  1.00  0.00    -0.274 OA
ATOM      7  H   UNL A   1      33.844  24.442  21.854  1.00  0.00     0.163 HD
BRANCH   5   8
ATOM      8  C   UNL A   1      32.257  26.883  23.566  1.00  0.00     0.229 C 
BRANCH   8   9
ATOM      9  C   UNL A   1      32.865  28.258  23.513  1.00  0.00     0.324 C 
ATOM     10  O   UNL A   1      33.004  28.882  22.473  1.00  0.00    -0.251 OA
BRANCH   9  11
ATOM     11  O   UNL A   1      33.239  28.680  24.748  1.00  0.00    -0.465 OA
BRANCH  11  12
ATOM     12  C   UNL A   1      32.477  29.750  25.343  1.00  0.00     0.229 C 
ATOM     13  C   UNL A   1      31.979  29.312  26.703  1.00  0.00     0.049 C 
ENDBRANCH  11  12
ENDBRANCH   9  11
ENDBRANCH   8   9
BRANCH   8  14
ATOM     14  C   UNL A   1      30.769  26.872  23.796  1.00  0.00     0.111 C 
ATOM     15  N   UNL A   1      30.025  27.740  23.191  1.00  0.00    -0.240 NA
BRANCH  15  16
ATOM     16  C   UNL A   1      28.691  27.735  23.385  1.00  0.00     0.150 A 
ATOM     17  C   UNL A   1      27.793  26.837  23.920  1.00  0.00     0.070 A 
ATOM     18  N   UNL A   1      27.948  28.871  23.117  1.00  0.00    -0.245 N 
ATOM     19  C   UNL A   1      26.553  27.499  23.911  1.00  0.00     0.137 A 
ATOM     20  N   UNL A   1      26.632  28.733  23.408  1.00  0.00    -0.179 NA
BRANCH  18  21
ATOM     21  C   UNL A   1      28.444  30.151  22.606  1.00  0.00     0.110 C 
ATOM     22  C   UNL A   1      27.985  30.403  21.158  1.00  0.00     0.027 C 
ATOM     23  C   UNL A   1      28.115  31.327  23.546  1.00  0.00     0.027 C 
ATOM     24  C   UNL A   1      28.439  31.765  20.636  1.00  0.00     0.002 C 
ATOM     25  C   UNL A   1      28.567  32.669  22.977  1.00  0.00     0.002 C 
ATOM     26  C   UNL A   1      28.017  32.891  21.573  1.00  0.00     0.000 C 
ENDBRANCH  18  21
ENDBRANCH  15  16
ENDBRANCH   8  14
ENDBRANCH   5   8
ENDBRANCH   3   4
ENDBRANCH   2   3
ENDBRANCH   1   2
BRANCH   1  27
ATOM     27  C   UNL A   1      34.910  22.345  26.551  1.00  0.00     0.002 C 
BRANCH  27  28
ATOM     28  C   UNL A   1      36.025  21.917  25.583  1.00  0.00     0.021 C 
BRANCH  28  29
ATOM     29  C   UNL A   1      37.352  22.596  25.865  1.00  0.00     0.116 C 
BRANCH  29  30
ATOM     30  N   UNL A   1      38.428  21.628  26.126  1.00  0.00    -0.352 N 
ATOM     31  C   UNL A   1      39.765  21.873  26.392  1.00  0.00     0.251 C 
ATOM     32  H   UNL A   1      38.163  20.680  26.111  1.00  0.00     0.163 HD
ATOM     33  O   UNL A   1      40.611  21.002  26.268  1.00  0.00    -0.269 OA
BRANCH  31  34
ATOM     34  C   UNL A   1      40.132  23.218  26.860  1.00  0.00     0.039 A 
ATOM     35  C   UNL A   1      39.347  24.354  26.629  1.00  0.00     0.014 A 
ATOM     36  C   UNL A   1      41.302  23.297  27.600  1.00  0.00     0.014 A 
ATOM     37  C   UNL A   1      39.740  25.561  27.205  1.00  0.00     0.010 A 
ATOM     38  C   UNL A   1      41.518  24.388  28.378  1.00  0.00     0.010 A 
ATOM     39  C   UNL A   1      40.836  25.558  28.074  1.00  0.00    -0.014 A 
BRANCH  39  40
ATOM     40  C   UNL A   1      41.333  26.743  28.752  1.00  0.00     0.031 A 
ATOM     41  C   UNL A   1      42.622  27.260  28.225  1.00  0.00     0.074 A 
ATOM     42  C   UNL A   1      40.480  27.467  29.517  1.00  0.00     0.049 A 
ATOM     43  N   UNL A   1      43.741  27.401  28.858  1.00  0.00    -0.248 NA
ATOM     44  C   UNL A   1      42.723  27.523  26.778  1.00  0.00     0.031 C 
ATOM     45  C   UNL A   1      39.053  27.196  29.782  1.00  0.00     0.029 A 
ATOM     46  N   UNL A   1      40.639  28.707  30.042  1.00  0.00    -0.354 N 
ATOM     47  C   UNL A   1      44.604  28.008  27.948  1.00  0.00     0.074 A 
ATOM     48  C   UNL A   1      44.014  27.830  26.649  1.00  0.00     0.031 C 
ATOM     49  C   UNL A   1      38.436  28.341  30.146  1.00  0.00     0.029 A 
ATOM     50  C   UNL A   1      39.442  29.369  30.313  1.00  0.00     0.049 A 
ATOM     51  H   UNL A   1      41.523  29.107  30.217  1.00  0.00     0.167 HD
ATOM     52  C   UNL A   1      45.577  28.869  28.357  1.00  0.00     0.034 A 
ATOM     53  C   UNL A   1      39.289  30.690  30.578  1.00  0.00     0.034 A 
ATOM     54  C   UNL A   1      45.787  28.789  29.780  1.00  0.00     0.049 A 
ATOM     55  C   UNL A   1      40.618  31.202  30.983  1.00  0.00     0.074 A 
ATOM     56  C   UNL A   1      46.134  27.786  30.663  1.00  0.00     0.029 A 
ATOM     57  N   UNL A   1      45.226  29.785  30.545  1.00  0.00    -0.354 N 
ATOM     58  N   UNL A   1      41.244  30.796  32.053  1.00  0.00    -0.248 NA
ATOM     59  C   UNL A   1      41.453  31.794  29.951  1.00  0.00     0.031 C 
ATOM     60  C   UNL A   1      45.321  28.016  31.812  1.00  0.00     0.029 A 
ATOM     61  C   UNL A   1      44.584  29.184  31.595  1.00  0.00     0.049 A 
ATOM     62  H   UNL A   1      45.277  30.751  30.369  1.00  0.00     0.167 HD
ATOM     63  C   UNL A   1      42.562  30.646  31.643  1.00  0.00     0.074 A 
ATOM     64  C   UNL A   1      42.650  31.375  30.377  1.00  0.00     0.031 C 
ATOM     65  C   UNL A   1      43.373  29.696  32.199  1.00  0.00     0.034 A 
BRANCH  52  66
ATOM     66  C   UNL A   1      46.071  30.053  27.559  1.00  0.00     0.023 A 
ATOM     67  C   UNL A   1      47.465  30.282  27.536  1.00  0.00     0.012 A 
ATOM     68  C   UNL A   1      45.245  31.090  27.064  1.00  0.00     0.148 A 
ATOM     69  C   UNL A   1      48.003  31.494  27.091  1.00  0.00     0.002 A 
ATOM     70  C   UNL A   1      45.788  32.259  26.543  1.00  0.00     0.091 A 
ATOM     71  F   UNL A   1      43.919  31.025  27.220  1.00  0.00    -0.205 F 
ATOM     72  C   UNL A   1      47.165  32.480  26.584  1.00  0.00     0.022 A 
BRANCH  70  73
ATOM     73  S   UNL A   1      44.748  33.543  25.834  1.00  0.00     0.127 S 
ATOM     74  O   UNL A   1      45.742  34.424  25.230  1.00  0.00    -0.237 OA
ATOM     75  O   UNL A   1      43.935  32.780  24.888  1.00  0.00    -0.237 OA
ATOM     76  O   UNL A   1      43.995  34.094  26.956  1.00  0.00    -0.744 OA
ENDBRANCH  70  73
ENDBRANCH  52  66
BRANCH  53  77
ATOM     77  C   UNL A   1      38.170  31.587  30.200  1.00  0.00     0.023 A 
ATOM     78  C   UNL A   1      37.667  31.579  28.885  1.00  0.00     0.012 A 
ATOM     79  C   UNL A   1      37.419  32.250  31.197  1.00  0.00     0.148 A 
ATOM     80  C   UNL A   1      36.447  32.198  28.577  1.00  0.00     0.002 A 
ATOM     81  C   UNL A   1      36.213  32.871  30.885  1.00  0.00     0.091 A 
ATOM     82  F   UNL A   1      37.840  32.192  32.468  1.00  0.00    -0.205 F 
ATOM     83  C   UNL A   1      35.718  32.839  29.577  1.00  0.00     0.022 A 
BRANCH  81  84
ATOM     84  S   UNL A   1      35.218  33.691  32.136  1.00  0.00     0.127 S 
ATOM     85  O   UNL A   1      35.088  32.645  33.151  1.00  0.00    -0.237 OA
ATOM     86  O   UNL A   1      36.068  34.816  32.512  1.00  0.00    -0.237 OA
ATOM     87  O   UNL A   1      33.965  34.050  31.479  1.00  0.00    -0.744 OA
ENDBRANCH  81  84
ENDBRANCH  53  77
BRANCH  65  88
ATOM     88  C   UNL A   1      42.852  28.933  33.398  1.00  0.00     0.023 A 
ATOM     89  C   UNL A   1      41.803  27.994  33.299  1.00  0.00     0.012 A 
ATOM     90  C   UNL A   1      43.558  29.025  34.607  1.00  0.00     0.148 A 
ATOM     91  C   UNL A   1      41.451  27.182  34.381  1.00  0.00     0.002 A 
ATOM     92  C   UNL A   1      43.234  28.188  35.669  1.00  0.00     0.091 A 
ATOM     93  F   UNL A   1      44.564  29.908  34.684  1.00  0.00    -0.205 F 
ATOM     94  C   UNL A   1      42.176  27.270  35.565  1.00  0.00     0.022 A 
BRANCH  92  95
ATOM     95  S   UNL A   1      44.203  28.163  37.177  1.00  0.00     0.127 S 
ATOM     96  O   UNL A   1      43.619  27.033  37.895  1.00  0.00    -0.237 OA
ATOM     97  O   UNL A   1      45.559  27.934  36.674  1.00  0.00    -0.237 OA
ATOM     98  O   UNL A   1      44.012  29.466  37.801  1.00  0.00    -0.744 OA
ENDBRANCH  92  95
ENDBRANCH  65  88
ENDBRANCH  39  40
ENDBRANCH  31  34
ENDBRANCH  29  30
ENDBRANCH  28  29
ENDBRANCH  27  28
ENDBRANCH   1  27
TORSDOF 22
ENDMDL
