MODEL 1
REMARK VINA RESULT:      -8.8      0.000      0.000
REMARK SMILES COc1ccc(CCN2/C(=[NH+]/C(=O)CCC(=O)NCCCCCCNC(=O)c3ccc(-c4c5nc(c(-c6cccc(S(=O)(=O)[O-])c6F)c6ccc([nH]6)c(-c6cccc(S(=O)(=O)[O-])c6F)c6nc(c(-c7cccc(S(=O)(=O)[O-])c7F)c7ccc4[nH]7)C=C6)C=C5)cc3)S[C@@H]3CS(=O)(=O)C[C@@H]32)cc1
REMARK SMILES IDX 20 1 19 2 18 3 16 4 17 5 15 7 14 8 12 9 9 10 10 11 98 12
REMARK SMILES IDX 11 13 91 14 92 15 97 16 93 18 94 19 13 20 95 21 96 22 8 23
REMARK SMILES IDX 7 24 6 25 3 26 4 27 100 28 5 29 99 30 2 31 1 32 21 33 22 34
REMARK SMILES IDX 23 35 24 36 25 37 26 38 27 40 28 41 29 42 90 43 30 44 89 45
REMARK SMILES IDX 31 46 32 47 33 48 83 49 34 50 88 51 82 52 84 53 35 54 87 55
REMARK SMILES IDX 81 56 80 57 36 59 68 60 48 61 67 62 49 63 52 64 66 65 85 66
REMARK SMILES IDX 50 67 51 68 65 70 86 71 53 72 37 73 38 74 46 75 39 76 41 77
REMARK SMILES IDX 47 78 40 79 42 80 43 81 44 82 45 83 69 84 70 85 78 86 71 87
REMARK SMILES IDX 73 88 79 89 72 90 74 91 75 92 76 93 77 94 54 95 55 96 63 97
REMARK SMILES IDX 56 98 58 99 64 100 57 101 59 102 60 103 61 104 62 105
REMARK H PARENT 18 6 11 17 25 39 84 58 52 69
REMARK Flexibility Score: inf
ROOT
ATOM      1  C   UNL A   1      44.124  23.904  29.558  1.00  0.00     0.021 C 
ENDROOT
BRANCH   1   2
ATOM      2  C   UNL A   1      44.142  24.806  30.770  1.00  0.00     0.116 C 
BRANCH   2   3
ATOM      3  N   UNL A   1      44.583  26.126  30.360  1.00  0.00    -0.356 N 
ATOM      4  C   UNL A   1      44.583  27.265  31.121  1.00  0.00     0.220 C 
ATOM      5  O   UNL A   1      44.711  28.351  30.553  1.00  0.00    -0.275 OA
ATOM      6  H   UNL A   1      44.918  26.212  29.438  1.00  0.00     0.163 HD
BRANCH   4   7
ATOM      7  C   UNL A   1      44.456  27.170  32.637  1.00  0.00     0.112 C 
BRANCH   7   8
ATOM      8  C   UNL A   1      43.362  28.081  33.222  1.00  0.00     0.138 C 
BRANCH   8   9
ATOM      9  C   UNL A   1      43.635  29.576  33.044  1.00  0.00     0.308 C 
ATOM     10  N   UNL A   1      41.308  32.334  32.217  1.00  0.00    -0.251 N 
ATOM     11  C   UNL A   1      42.487  31.605  32.568  1.00  0.00     0.314 C 
ATOM     12  C   UNL A   1      41.161  33.738  32.681  1.00  0.00     0.206 C 
ATOM     13  N   UNL A   1      42.605  30.308  32.449  1.00  0.00    -0.205 N 
ATOM     14  S   UNL A   1      43.770  32.608  33.391  1.00  0.00    -0.030 SA
ATOM     15  C   UNL A   1      42.796  34.104  33.692  1.00  0.00     0.120 C 
ATOM     16  C   UNL A   1      39.484  34.191  33.715  1.00  0.00     0.187 C 
ATOM     17  H   UNL A   1      41.935  29.824  31.913  1.00  0.00     0.316 HD
ATOM     18  C   UNL A   1      42.441  35.016  35.416  1.00  0.00     0.156 C 
ATOM     19  S   UNL A   1      40.131  35.187  35.739  1.00  0.00     0.155 S 
ATOM     20  O   UNL A   1      44.697  30.000  33.497  1.00  0.00    -0.247 OA
ATOM     21  O   UNL A   1      39.728  34.443  36.917  1.00  0.00    -0.229 OA
ATOM     22  O   UNL A   1      39.699  36.578  35.747  1.00  0.00    -0.229 OA
BRANCH  10  23
ATOM     23  C   UNL A   1      40.140  31.781  31.514  1.00  0.00     0.242 C 
BRANCH  23  24
ATOM     24  C   UNL A   1      39.775  32.531  30.213  1.00  0.00     0.081 C 
BRANCH  24  25
ATOM     25  C   UNL A   1      38.286  32.547  30.039  1.00  0.00    -0.044 A 
ATOM     26  C   UNL A   1      35.564  33.056  30.032  1.00  0.00     0.118 A 
ATOM     27  C   UNL A   1      36.093  32.199  30.989  1.00  0.00     0.046 A 
ATOM     28  C   UNL A   1      36.371  33.619  29.044  1.00  0.00     0.046 A 
ATOM     29  C   UNL A   1      37.450  31.918  30.971  1.00  0.00     0.007 A 
ATOM     30  C   UNL A   1      37.734  33.355  29.041  1.00  0.00     0.007 A 
BRANCH  26  31
ATOM     31  O   UNL A   1      34.244  33.384  30.150  1.00  0.00    -0.497 OA
ATOM     32  C   UNL A   1      34.015  34.700  29.661  1.00  0.00     0.278 C 
ENDBRANCH  26  31
ENDBRANCH  24  25
ENDBRANCH  23  24
ENDBRANCH  10  23
ENDBRANCH   8   9
ENDBRANCH   7   8
ENDBRANCH   4   7
ENDBRANCH   2   3
ENDBRANCH   1   2
BRANCH   1  33
ATOM     33  C   UNL A   1      43.003  22.875  29.537  1.00  0.00     0.002 C 
BRANCH  33  34
ATOM     34  C   UNL A   1      42.419  22.710  28.128  1.00  0.00     0.002 C 
BRANCH  34  35
ATOM     35  C   UNL A   1      42.048  21.037  27.650  1.00  0.00     0.021 C 
BRANCH  35  36
ATOM     36  C   UNL A   1      42.231  19.773  25.915  1.00  0.00     0.116 C 
BRANCH  36  37
ATOM     37  N   UNL A   1      43.487  19.364  25.032  1.00  0.00    -0.352 N 
ATOM     38  C   UNL A   1      44.476  20.125  24.469  1.00  0.00     0.251 C 
ATOM     39  H   UNL A   1      43.568  18.397  24.861  1.00  0.00     0.163 HD
ATOM     40  O   UNL A   1      45.242  19.636  23.649  1.00  0.00    -0.269 OA
BRANCH  38  41
ATOM     41  C   UNL A   1      44.677  21.465  24.986  1.00  0.00     0.039 A 
ATOM     42  C   UNL A   1      45.436  21.660  26.131  1.00  0.00     0.014 A 
ATOM     43  C   UNL A   1      44.102  22.518  24.267  1.00  0.00     0.014 A 
ATOM     44  C   UNL A   1      45.653  22.961  26.550  1.00  0.00     0.010 A 
ATOM     45  C   UNL A   1      44.408  23.811  24.625  1.00  0.00     0.010 A 
ATOM     46  C   UNL A   1      45.163  24.034  25.783  1.00  0.00    -0.014 A 
BRANCH  46  47
ATOM     47  C   UNL A   1      45.420  25.417  26.205  1.00  0.00     0.031 A 
ATOM     48  C   UNL A   1      44.286  26.249  26.721  1.00  0.00     0.074 A 
ATOM     49  C   UNL A   1      46.666  25.903  26.072  1.00  0.00     0.049 A 
ATOM     50  N   UNL A   1      44.307  27.483  27.142  1.00  0.00    -0.248 NA
ATOM     51  C   UNL A   1      42.949  25.629  26.742  1.00  0.00     0.031 C 
ATOM     52  C   UNL A   1      47.802  25.171  25.503  1.00  0.00     0.029 A 
ATOM     53  N   UNL A   1      47.185  27.122  26.400  1.00  0.00    -0.354 N 
ATOM     54  C   UNL A   1      42.991  27.793  27.452  1.00  0.00     0.074 A 
ATOM     55  C   UNL A   1      42.185  26.642  27.119  1.00  0.00     0.031 C 
ATOM     56  C   UNL A   1      48.893  25.951  25.548  1.00  0.00     0.029 A 
ATOM     57  C   UNL A   1      48.520  27.244  26.107  1.00  0.00     0.049 A 
ATOM     58  H   UNL A   1      46.652  27.844  26.808  1.00  0.00     0.167 HD
ATOM     59  C   UNL A   1      42.508  28.929  28.000  1.00  0.00     0.034 A 
ATOM     60  C   UNL A   1      49.341  28.297  26.266  1.00  0.00     0.034 A 
ATOM     61  C   UNL A   1      43.339  30.048  28.341  1.00  0.00     0.049 A 
ATOM     62  C   UNL A   1      48.780  29.540  26.892  1.00  0.00     0.074 A 
ATOM     63  C   UNL A   1      42.979  31.231  28.957  1.00  0.00     0.029 A 
ATOM     64  N   UNL A   1      44.699  30.125  28.076  1.00  0.00    -0.354 N 
ATOM     65  N   UNL A   1      47.557  29.775  27.306  1.00  0.00    -0.248 NA
ATOM     66  C   UNL A   1      49.714  30.651  27.107  1.00  0.00     0.031 C 
ATOM     67  C   UNL A   1      44.115  32.043  29.023  1.00  0.00     0.029 A 
ATOM     68  C   UNL A   1      45.194  31.343  28.502  1.00  0.00     0.049 A 
ATOM     69  H   UNL A   1      45.232  29.418  27.649  1.00  0.00     0.167 HD
ATOM     70  C   UNL A   1      47.581  31.045  27.863  1.00  0.00     0.074 A 
ATOM     71  C   UNL A   1      48.947  31.519  27.753  1.00  0.00     0.031 C 
ATOM     72  C   UNL A   1      46.568  31.763  28.408  1.00  0.00     0.034 A 
BRANCH  59  73
ATOM     73  C   UNL A   1      41.031  28.997  28.280  1.00  0.00     0.023 A 
ATOM     74  C   UNL A   1      40.138  29.407  27.268  1.00  0.00     0.012 A 
ATOM     75  C   UNL A   1      40.524  28.620  29.537  1.00  0.00     0.148 A 
ATOM     76  C   UNL A   1      38.768  29.478  27.514  1.00  0.00     0.002 A 
ATOM     77  C   UNL A   1      39.153  28.641  29.758  1.00  0.00     0.091 A 
ATOM     78  F   UNL A   1      41.391  28.261  30.494  1.00  0.00    -0.205 F 
ATOM     79  C   UNL A   1      38.275  29.083  28.755  1.00  0.00     0.022 A 
BRANCH  77  80
ATOM     80  S   UNL A   1      38.412  28.077  31.293  1.00  0.00     0.127 S 
ATOM     81  O   UNL A   1      38.462  26.625  31.128  1.00  0.00    -0.237 OA
ATOM     82  O   UNL A   1      39.341  28.610  32.290  1.00  0.00    -0.237 OA
ATOM     83  O   UNL A   1      37.075  28.651  31.332  1.00  0.00    -0.744 OA
ENDBRANCH  77  80
ENDBRANCH  59  73
BRANCH  60  84
ATOM     84  C   UNL A   1      50.768  28.199  25.856  1.00  0.00     0.023 A 
ATOM     85  C   UNL A   1      51.160  28.593  24.562  1.00  0.00     0.012 A 
ATOM     86  C   UNL A   1      51.745  27.739  26.760  1.00  0.00     0.148 A 
ATOM     87  C   UNL A   1      52.492  28.485  24.162  1.00  0.00     0.002 A 
ATOM     88  C   UNL A   1      53.078  27.691  26.376  1.00  0.00     0.091 A 
ATOM     89  F   UNL A   1      51.350  27.373  27.988  1.00  0.00    -0.205 F 
ATOM     90  C   UNL A   1      53.452  28.043  25.070  1.00  0.00     0.022 A 
BRANCH  88  91
ATOM     91  S   UNL A   1      54.390  27.259  27.521  1.00  0.00     0.127 S 
ATOM     92  O   UNL A   1      55.567  27.793  26.841  1.00  0.00    -0.237 OA
ATOM     93  O   UNL A   1      53.990  27.986  28.726  1.00  0.00    -0.237 OA
ATOM     94  O   UNL A   1      54.340  25.809  27.651  1.00  0.00    -0.744 OA
ENDBRANCH  88  91
ENDBRANCH  60  84
BRANCH  72  95
ATOM     95  C   UNL A   1      46.911  33.114  28.972  1.00  0.00     0.023 A 
ATOM     96  C   UNL A   1      47.363  33.236  30.300  1.00  0.00     0.012 A 
ATOM     97  C   UNL A   1      46.847  34.256  28.151  1.00  0.00     0.148 A 
ATOM     98  C   UNL A   1      47.708  34.482  30.816  1.00  0.00     0.002 A 
ATOM     99  C   UNL A   1      47.253  35.485  28.652  1.00  0.00     0.091 A 
ATOM    100  F   UNL A   1      46.400  34.117  26.894  1.00  0.00    -0.205 F 
ATOM    101  C   UNL A   1      47.666  35.603  29.989  1.00  0.00     0.022 A 
BRANCH  99 102
ATOM    102  S   UNL A   1      47.334  36.959  27.633  1.00  0.00     0.127 S 
ATOM    103  O   UNL A   1      48.165  36.505  26.519  1.00  0.00    -0.237 OA
ATOM    104  O   UNL A   1      45.927  37.176  27.296  1.00  0.00    -0.237 OA
ATOM    105  O   UNL A   1      47.925  37.997  28.466  1.00  0.00    -0.744 OA
ENDBRANCH  99 102
ENDBRANCH  72  95
ENDBRANCH  46  47
ENDBRANCH  38  41
ENDBRANCH  36  37
ENDBRANCH  35  36
ENDBRANCH  34  35
ENDBRANCH  33  34
ENDBRANCH   1  33
TORSDOF 22
ENDMDL
MODEL 2
REMARK VINA RESULT:      -8.2      1.629      2.606
REMARK SMILES COc1ccc(CCN2/C(=[NH+]/C(=O)CCC(=O)NCCCCCCNC(=O)c3ccc(-c4c5nc(c(-c6cccc(S(=O)(=O)[O-])c6F)c6ccc([nH]6)c(-c6cccc(S(=O)(=O)[O-])c6F)c6nc(c(-c7cccc(S(=O)(=O)[O-])c7F)c7ccc4[nH]7)C=C6)C=C5)cc3)S[C@@H]3CS(=O)(=O)C[C@@H]32)cc1
REMARK SMILES IDX 20 1 19 2 18 3 16 4 17 5 15 7 14 8 12 9 9 10 10 11 98 12
REMARK SMILES IDX 11 13 91 14 92 15 97 16 93 18 94 19 13 20 95 21 96 22 8 23
REMARK SMILES IDX 7 24 6 25 3 26 4 27 100 28 5 29 99 30 2 31 1 32 21 33 22 34
REMARK SMILES IDX 23 35 24 36 25 37 26 38 27 40 28 41 29 42 90 43 30 44 89 45
REMARK SMILES IDX 31 46 32 47 33 48 83 49 34 50 88 51 82 52 84 53 35 54 87 55
REMARK SMILES IDX 81 56 80 57 36 59 68 60 48 61 67 62 49 63 52 64 66 65 85 66
REMARK SMILES IDX 50 67 51 68 65 70 86 71 53 72 37 73 38 74 46 75 39 76 41 77
REMARK SMILES IDX 47 78 40 79 42 80 43 81 44 82 45 83 69 84 70 85 78 86 71 87
REMARK SMILES IDX 73 88 79 89 72 90 74 91 75 92 76 93 77 94 54 95 55 96 63 97
REMARK SMILES IDX 56 98 58 99 64 100 57 101 59 102 60 103 61 104 62 105
REMARK H PARENT 18 6 11 17 25 39 84 58 52 69
REMARK Flexibility Score: inf
ROOT
ATOM      1  C   UNL A   1      44.088  23.853  29.511  1.00  0.00     0.021 C 
ENDROOT
BRANCH   1   2
ATOM      2  C   UNL A   1      44.222  24.729  30.734  1.00  0.00     0.116 C 
BRANCH   2   3
ATOM      3  N   UNL A   1      44.711  26.031  30.322  1.00  0.00    -0.356 N 
ATOM      4  C   UNL A   1      44.635  27.200  31.033  1.00  0.00     0.220 C 
ATOM      5  O   UNL A   1      44.828  28.262  30.440  1.00  0.00    -0.275 OA
ATOM      6  H   UNL A   1      45.142  26.080  29.439  1.00  0.00     0.163 HD
BRANCH   4   7
ATOM      7  C   UNL A   1      44.346  27.165  32.530  1.00  0.00     0.112 C 
BRANCH   7   8
ATOM      8  C   UNL A   1      43.126  28.007  32.941  1.00  0.00     0.138 C 
BRANCH   8   9
ATOM      9  C   UNL A   1      43.441  29.105  33.960  1.00  0.00     0.308 C 
ATOM     10  N   UNL A   1      43.272  32.787  33.613  1.00  0.00    -0.251 N 
ATOM     11  C   UNL A   1      43.435  31.476  34.159  1.00  0.00     0.314 C 
ATOM     12  C   UNL A   1      42.825  33.891  34.501  1.00  0.00     0.206 C 
ATOM     13  N   UNL A   1      43.561  30.394  33.435  1.00  0.00    -0.205 N 
ATOM     14  S   UNL A   1      43.260  31.395  35.973  1.00  0.00    -0.030 SA
ATOM     15  C   UNL A   1      42.612  33.060  36.261  1.00  0.00     0.120 C 
ATOM     16  C   UNL A   1      41.189  34.928  33.923  1.00  0.00     0.187 C 
ATOM     17  H   UNL A   1      43.750  30.493  32.474  1.00  0.00     0.316 HD
ATOM     18  C   UNL A   1      40.924  33.587  37.156  1.00  0.00     0.156 C 
ATOM     19  S   UNL A   1      39.657  34.908  35.700  1.00  0.00     0.155 S 
ATOM     20  O   UNL A   1      43.491  28.763  35.140  1.00  0.00    -0.247 OA
ATOM     21  O   UNL A   1      38.400  34.253  35.387  1.00  0.00    -0.229 OA
ATOM     22  O   UNL A   1      39.501  36.262  36.213  1.00  0.00    -0.229 OA
BRANCH  10  23
ATOM     23  C   UNL A   1      43.399  33.140  32.190  1.00  0.00     0.242 C 
BRANCH  23  24
ATOM     24  C   UNL A   1      44.422  34.265  31.911  1.00  0.00     0.081 C 
BRANCH  24  25
ATOM     25  C   UNL A   1      43.828  35.266  30.966  1.00  0.00    -0.044 A 
ATOM     26  C   UNL A   1      43.042  36.836  28.825  1.00  0.00     0.118 A 
ATOM     27  C   UNL A   1      44.110  37.247  29.612  1.00  0.00     0.046 A 
ATOM     28  C   UNL A   1      42.328  35.678  29.127  1.00  0.00     0.046 A 
ATOM     29  C   UNL A   1      44.481  36.477  30.704  1.00  0.00     0.007 A 
ATOM     30  C   UNL A   1      42.714  34.896  30.207  1.00  0.00     0.007 A 
BRANCH  26  31
ATOM     31  O   UNL A   1      42.778  37.569  27.703  1.00  0.00    -0.497 OA
ATOM     32  C   UNL A   1      42.484  36.708  26.608  1.00  0.00     0.278 C 
ENDBRANCH  26  31
ENDBRANCH  24  25
ENDBRANCH  23  24
ENDBRANCH  10  23
ENDBRANCH   8   9
ENDBRANCH   7   8
ENDBRANCH   4   7
ENDBRANCH   2   3
ENDBRANCH   1   2
BRANCH   1  33
ATOM     33  C   UNL A   1      42.866  22.944  29.499  1.00  0.00     0.002 C 
BRANCH  33  34
ATOM     34  C   UNL A   1      42.309  22.773  28.081  1.00  0.00     0.002 C 
BRANCH  34  35
ATOM     35  C   UNL A   1      41.948  21.097  27.603  1.00  0.00     0.021 C 
BRANCH  35  36
ATOM     36  C   UNL A   1      42.173  19.823  25.881  1.00  0.00     0.116 C 
BRANCH  36  37
ATOM     37  N   UNL A   1      43.457  19.364  25.064  1.00  0.00    -0.352 N 
ATOM     38  C   UNL A   1      44.485  20.089  24.524  1.00  0.00     0.251 C 
ATOM     39  H   UNL A   1      43.525  18.392  24.924  1.00  0.00     0.163 HD
ATOM     40  O   UNL A   1      45.275  19.562  23.752  1.00  0.00    -0.269 OA
BRANCH  38  41
ATOM     41  C   UNL A   1      44.691  21.439  25.012  1.00  0.00     0.039 A 
ATOM     42  C   UNL A   1      45.433  21.654  26.166  1.00  0.00     0.014 A 
ATOM     43  C   UNL A   1      44.140  22.480  24.258  1.00  0.00     0.014 A 
ATOM     44  C   UNL A   1      45.656  22.963  26.556  1.00  0.00     0.010 A 
ATOM     45  C   UNL A   1      44.454  23.778  24.591  1.00  0.00     0.010 A 
ATOM     46  C   UNL A   1      45.191  24.022  25.756  1.00  0.00    -0.014 A 
BRANCH  46  47
ATOM     47  C   UNL A   1      45.455  25.412  26.149  1.00  0.00     0.031 A 
ATOM     48  C   UNL A   1      44.324  26.267  26.629  1.00  0.00     0.074 A 
ATOM     49  C   UNL A   1      46.708  25.883  26.022  1.00  0.00     0.049 A 
ATOM     50  N   UNL A   1      44.350  27.509  27.022  1.00  0.00    -0.248 NA
ATOM     51  C   UNL A   1      42.980  25.659  26.646  1.00  0.00     0.031 C 
ATOM     52  C   UNL A   1      47.845  25.127  25.485  1.00  0.00     0.029 A 
ATOM     53  N   UNL A   1      47.234  27.105  26.328  1.00  0.00    -0.354 N 
ATOM     54  C   UNL A   1      43.033  27.839  27.306  1.00  0.00     0.074 A 
ATOM     55  C   UNL A   1      42.221  26.688  26.989  1.00  0.00     0.031 C 
ATOM     56  C   UNL A   1      48.942  25.898  25.527  1.00  0.00     0.029 A 
ATOM     57  C   UNL A   1      48.575  27.207  26.050  1.00  0.00     0.049 A 
ATOM     58  H   UNL A   1      46.703  27.841  26.711  1.00  0.00     0.167 HD
ATOM     59  C   UNL A   1      42.553  28.992  27.821  1.00  0.00     0.034 A 
ATOM     60  C   UNL A   1      49.404  28.255  26.196  1.00  0.00     0.034 A 
ATOM     61  C   UNL A   1      43.391  30.111  28.147  1.00  0.00     0.049 A 
ATOM     62  C   UNL A   1      48.846  29.519  26.785  1.00  0.00     0.074 A 
ATOM     63  C   UNL A   1      43.034  31.311  28.730  1.00  0.00     0.029 A 
ATOM     64  N   UNL A   1      44.755  30.169  27.899  1.00  0.00    -0.354 N 
ATOM     65  N   UNL A   1      47.620  29.774  27.176  1.00  0.00    -0.248 NA
ATOM     66  C   UNL A   1      49.788  30.626  26.987  1.00  0.00     0.031 C 
ATOM     67  C   UNL A   1      44.177  32.114  28.793  1.00  0.00     0.029 A 
ATOM     68  C   UNL A   1      45.256  31.392  28.303  1.00  0.00     0.049 A 
ATOM     69  H   UNL A   1      45.287  29.447  27.495  1.00  0.00     0.167 HD
ATOM     70  C   UNL A   1      47.648  31.057  27.704  1.00  0.00     0.074 A 
ATOM     71  C   UNL A   1      49.020  31.515  27.601  1.00  0.00     0.031 C 
ATOM     72  C   UNL A   1      46.635  31.797  28.218  1.00  0.00     0.034 A 
BRANCH  59  73
ATOM     73  C   UNL A   1      41.074  29.081  28.079  1.00  0.00     0.023 A 
ATOM     74  C   UNL A   1      40.177  29.239  27.002  1.00  0.00     0.012 A 
ATOM     75  C   UNL A   1      40.569  28.971  29.387  1.00  0.00     0.148 A 
ATOM     76  C   UNL A   1      38.804  29.325  27.226  1.00  0.00     0.002 A 
ATOM     77  C   UNL A   1      39.196  29.004  29.599  1.00  0.00     0.091 A 
ATOM     78  F   UNL A   1      41.440  28.850  30.400  1.00  0.00    -0.205 F 
ATOM     79  C   UNL A   1      38.314  29.195  28.523  1.00  0.00     0.022 A 
BRANCH  77  80
ATOM     80  S   UNL A   1      38.462  28.766  31.218  1.00  0.00     0.127 S 
ATOM     81  O   UNL A   1      39.054  29.868  31.976  1.00  0.00    -0.237 OA
ATOM     82  O   UNL A   1      37.035  28.922  30.929  1.00  0.00    -0.237 OA
ATOM     83  O   UNL A   1      38.857  27.434  31.651  1.00  0.00    -0.744 OA
ENDBRANCH  77  80
ENDBRANCH  59  73
BRANCH  60  84
ATOM     84  C   UNL A   1      50.835  28.135  25.808  1.00  0.00     0.023 A 
ATOM     85  C   UNL A   1      51.232  28.398  24.483  1.00  0.00     0.012 A 
ATOM     86  C   UNL A   1      51.810  27.784  26.761  1.00  0.00     0.148 A 
ATOM     87  C   UNL A   1      52.569  28.267  24.105  1.00  0.00     0.002 A 
ATOM     88  C   UNL A   1      53.146  27.714  26.393  1.00  0.00     0.091 A 
ATOM     89  F   UNL A   1      51.409  27.541  28.018  1.00  0.00    -0.205 F 
ATOM     90  C   UNL A   1      53.526  27.934  25.061  1.00  0.00     0.022 A 
BRANCH  88  91
ATOM     91  S   UNL A   1      54.455  27.420  27.586  1.00  0.00     0.127 S 
ATOM     92  O   UNL A   1      54.305  28.566  28.479  1.00  0.00    -0.237 OA
ATOM     93  O   UNL A   1      54.057  26.134  28.159  1.00  0.00    -0.237 OA
ATOM     94  O   UNL A   1      55.690  27.377  26.815  1.00  0.00    -0.744 OA
ENDBRANCH  88  91
ENDBRANCH  60  84
BRANCH  72  95
ATOM     95  C   UNL A   1      46.983  33.158  28.755  1.00  0.00     0.023 A 
ATOM     96  C   UNL A   1      47.449  33.302  30.076  1.00  0.00     0.012 A 
ATOM     97  C   UNL A   1      46.910  34.286  27.916  1.00  0.00     0.148 A 
ATOM     98  C   UNL A   1      47.800  34.558  30.567  1.00  0.00     0.002 A 
ATOM     99  C   UNL A   1      47.320  35.523  28.391  1.00  0.00     0.091 A 
ATOM    100  F   UNL A   1      46.449  34.124  26.666  1.00  0.00    -0.205 F 
ATOM    101  C   UNL A   1      47.748  35.664  29.720  1.00  0.00     0.022 A 
BRANCH  99 102
ATOM    102  S   UNL A   1      47.389  36.979  27.345  1.00  0.00     0.127 S 
ATOM    103  O   UNL A   1      47.821  38.005  28.292  1.00  0.00    -0.237 OA
ATOM    104  O   UNL A   1      48.397  36.598  26.356  1.00  0.00    -0.237 OA
ATOM    105  O   UNL A   1      46.047  37.156  26.807  1.00  0.00    -0.744 OA
ENDBRANCH  99 102
ENDBRANCH  72  95
ENDBRANCH  46  47
ENDBRANCH  38  41
ENDBRANCH  36  37
ENDBRANCH  35  36
ENDBRANCH  34  35
ENDBRANCH  33  34
ENDBRANCH   1  33
TORSDOF 22
ENDMDL
MODEL 3
REMARK VINA RESULT:      -7.9      7.254     15.197
REMARK SMILES COc1ccc(CCN2/C(=[NH+]/C(=O)CCC(=O)NCCCCCCNC(=O)c3ccc(-c4c5nc(c(-c6cccc(S(=O)(=O)[O-])c6F)c6ccc([nH]6)c(-c6cccc(S(=O)(=O)[O-])c6F)c6nc(c(-c7cccc(S(=O)(=O)[O-])c7F)c7ccc4[nH]7)C=C6)C=C5)cc3)S[C@@H]3CS(=O)(=O)C[C@@H]32)cc1
REMARK SMILES IDX 20 1 19 2 18 3 16 4 17 5 15 7 14 8 12 9 9 10 10 11 98 12
REMARK SMILES IDX 11 13 91 14 92 15 97 16 93 18 94 19 13 20 95 21 96 22 8 23
REMARK SMILES IDX 7 24 6 25 3 26 4 27 100 28 5 29 99 30 2 31 1 32 21 33 22 34
REMARK SMILES IDX 23 35 24 36 25 37 26 38 27 40 28 41 29 42 90 43 30 44 89 45
REMARK SMILES IDX 31 46 32 47 33 48 83 49 34 50 88 51 82 52 84 53 35 54 87 55
REMARK SMILES IDX 81 56 80 57 36 59 68 60 48 61 67 62 49 63 52 64 66 65 85 66
REMARK SMILES IDX 50 67 51 68 65 70 86 71 53 72 37 73 38 74 46 75 39 76 41 77
REMARK SMILES IDX 47 78 40 79 42 80 43 81 44 82 45 83 69 84 70 85 78 86 71 87
REMARK SMILES IDX 73 88 79 89 72 90 74 91 75 92 76 93 77 94 54 95 55 96 63 97
REMARK SMILES IDX 56 98 58 99 64 100 57 101 59 102 60 103 61 104 62 105
REMARK H PARENT 18 6 11 17 25 39 84 58 52 69
REMARK Flexibility Score: inf
ROOT
ATOM      1  C   UNL A   1      43.623  42.078  37.205  1.00  0.00     0.021 C 
ENDROOT
BRANCH   1   2
ATOM      2  C   UNL A   1      44.068  41.887  35.773  1.00  0.00     0.116 C 
BRANCH   2   3
ATOM      3  N   UNL A   1      44.140  43.186  35.133  1.00  0.00    -0.356 N 
ATOM      4  C   UNL A   1      44.008  43.451  33.795  1.00  0.00     0.220 C 
ATOM      5  O   UNL A   1      44.378  44.548  33.373  1.00  0.00    -0.275 OA
ATOM      6  H   UNL A   1      44.300  43.959  35.721  1.00  0.00     0.163 HD
BRANCH   4   7
ATOM      7  C   UNL A   1      43.389  42.410  32.868  1.00  0.00     0.112 C 
BRANCH   7   8
ATOM      8  C   UNL A   1      43.366  42.836  31.390  1.00  0.00     0.138 C 
BRANCH   8   9
ATOM      9  C   UNL A   1      43.185  41.675  30.409  1.00  0.00     0.308 C 
ATOM     10  N   UNL A   1      44.307  41.334  26.898  1.00  0.00    -0.251 N 
ATOM     11  C   UNL A   1      43.746  41.053  28.183  1.00  0.00     0.314 C 
ATOM     12  C   UNL A   1      44.876  40.219  26.097  1.00  0.00     0.206 C 
ATOM     13  N   UNL A   1      43.466  41.969  29.073  1.00  0.00    -0.205 N 
ATOM     14  S   UNL A   1      43.623  39.275  28.572  1.00  0.00    -0.030 SA
ATOM     15  C   UNL A   1      44.612  38.626  27.202  1.00  0.00     0.120 C 
ATOM     16  C   UNL A   1      46.785  40.425  25.464  1.00  0.00     0.187 C 
ATOM     17  H   UNL A   1      43.453  42.911  28.787  1.00  0.00     0.316 HD
ATOM     18  C   UNL A   1      46.226  37.477  27.284  1.00  0.00     0.156 C 
ATOM     19  S   UNL A   1      47.982  38.529  26.154  1.00  0.00     0.155 S 
ATOM     20  O   UNL A   1      42.876  40.588  30.894  1.00  0.00    -0.247 OA
ATOM     21  O   UNL A   1      49.070  38.821  27.069  1.00  0.00    -0.229 OA
ATOM     22  O   UNL A   1      48.389  37.767  24.982  1.00  0.00    -0.229 OA
BRANCH  10  23
ATOM     23  C   UNL A   1      44.485  42.676  26.320  1.00  0.00     0.242 C 
BRANCH  23  24
ATOM     24  C   UNL A   1      43.673  42.915  25.026  1.00  0.00     0.081 C 
BRANCH  24  25
ATOM     25  C   UNL A   1      44.546  43.559  23.992  1.00  0.00    -0.044 A 
ATOM     26  C   UNL A   1      45.663  44.831  21.800  1.00  0.00     0.118 A 
ATOM     27  C   UNL A   1      45.609  43.443  21.826  1.00  0.00     0.046 A 
ATOM     28  C   UNL A   1      45.216  45.589  22.881  1.00  0.00     0.046 A 
ATOM     29  C   UNL A   1      45.081  42.806  22.938  1.00  0.00     0.007 A 
ATOM     30  C   UNL A   1      44.666  44.951  23.985  1.00  0.00     0.007 A 
BRANCH  26  31
ATOM     31  O   UNL A   1      46.096  45.416  20.645  1.00  0.00    -0.497 OA
ATOM     32  C   UNL A   1      45.900  46.824  20.701  1.00  0.00     0.278 C 
ENDBRANCH  26  31
ENDBRANCH  24  25
ENDBRANCH  23  24
ENDBRANCH  10  23
ENDBRANCH   8   9
ENDBRANCH   7   8
ENDBRANCH   4   7
ENDBRANCH   2   3
ENDBRANCH   1   2
BRANCH   1  33
ATOM     33  C   UNL A   1      44.088  40.999  38.173  1.00  0.00     0.002 C 
BRANCH  33  34
ATOM     34  C   UNL A   1      43.256  41.007  39.462  1.00  0.00     0.002 C 
BRANCH  34  35
ATOM     35  C   UNL A   1      43.139  39.441  40.300  1.00  0.00     0.021 C 
BRANCH  35  36
ATOM     36  C   UNL A   1      42.805  38.696  42.294  1.00  0.00     0.116 C 
BRANCH  36  37
ATOM     37  N   UNL A   1      41.748  37.662  42.873  1.00  0.00    -0.352 N 
ATOM     38  C   UNL A   1      40.807  36.890  42.244  1.00  0.00     0.251 C 
ATOM     39  H   UNL A   1      41.774  37.556  43.852  1.00  0.00     0.163 HD
ATOM     40  O   UNL A   1      39.948  36.309  42.895  1.00  0.00    -0.269 OA
BRANCH  38  41
ATOM     41  C   UNL A   1      40.956  36.667  40.820  1.00  0.00     0.039 A 
ATOM     42  C   UNL A   1      40.215  37.419  39.918  1.00  0.00     0.014 A 
ATOM     43  C   UNL A   1      41.884  35.700  40.420  1.00  0.00     0.014 A 
ATOM     44  C   UNL A   1      40.439  37.214  38.568  1.00  0.00     0.010 A 
ATOM     45  C   UNL A   1      42.179  35.577  39.081  1.00  0.00     0.010 A 
ATOM     46  C   UNL A   1      41.438  36.316  38.151  1.00  0.00    -0.014 A 
BRANCH  46  47
ATOM     47  C   UNL A   1      41.702  36.121  36.720  1.00  0.00     0.031 A 
ATOM     48  C   UNL A   1      42.935  36.717  36.114  1.00  0.00     0.074 A 
ATOM     49  C   UNL A   1      40.798  35.444  35.991  1.00  0.00     0.049 A 
ATOM     50  N   UNL A   1      43.347  36.657  34.879  1.00  0.00    -0.248 NA
ATOM     51  C   UNL A   1      43.808  37.508  37.002  1.00  0.00     0.031 C 
ATOM     52  C   UNL A   1      39.534  34.903  36.502  1.00  0.00     0.029 A 
ATOM     53  N   UNL A   1      40.799  35.100  34.670  1.00  0.00    -0.354 N 
ATOM     54  C   UNL A   1      44.505  37.419  34.835  1.00  0.00     0.074 A 
ATOM     55  C   UNL A   1      44.705  37.980  36.151  1.00  0.00     0.031 C 
ATOM     56  C   UNL A   1      38.895  34.270  35.507  1.00  0.00     0.029 A 
ATOM     57  C   UNL A   1      39.682  34.400  34.287  1.00  0.00     0.049 A 
ATOM     58  H   UNL A   1      41.530  35.332  34.052  1.00  0.00     0.167 HD
ATOM     59  C   UNL A   1      45.345  37.602  33.793  1.00  0.00     0.034 A 
ATOM     60  C   UNL A   1      39.336  33.930  33.077  1.00  0.00     0.034 A 
ATOM     61  C   UNL A   1      45.130  37.012  32.502  1.00  0.00     0.049 A 
ATOM     62  C   UNL A   1      40.297  34.134  31.941  1.00  0.00     0.074 A 
ATOM     63  C   UNL A   1      45.939  37.072  31.384  1.00  0.00     0.029 A 
ATOM     64  N   UNL A   1      44.012  36.266  32.156  1.00  0.00    -0.354 N 
ATOM     65  N   UNL A   1      41.458  34.744  31.944  1.00  0.00    -0.248 NA
ATOM     66  C   UNL A   1      39.920  33.558  30.645  1.00  0.00     0.031 C 
ATOM     67  C   UNL A   1      45.286  36.399  30.347  1.00  0.00     0.029 A 
ATOM     68  C   UNL A   1      44.100  35.871  30.835  1.00  0.00     0.049 A 
ATOM     69  H   UNL A   1      43.268  36.050  32.762  1.00  0.00     0.167 HD
ATOM     70  C   UNL A   1      41.970  34.596  30.662  1.00  0.00     0.074 A 
ATOM     71  C   UNL A   1      40.999  33.817  29.918  1.00  0.00     0.031 C 
ATOM     72  C   UNL A   1      43.129  35.065  30.140  1.00  0.00     0.034 A 
BRANCH  59  73
ATOM     73  C   UNL A   1      46.569  38.448  34.020  1.00  0.00     0.023 A 
ATOM     74  C   UNL A   1      47.750  37.862  34.521  1.00  0.00     0.012 A 
ATOM     75  C   UNL A   1      46.559  39.819  33.703  1.00  0.00     0.148 A 
ATOM     76  C   UNL A   1      48.890  38.633  34.739  1.00  0.00     0.002 A 
ATOM     77  C   UNL A   1      47.715  40.570  33.872  1.00  0.00     0.091 A 
ATOM     78  F   UNL A   1      45.418  40.363  33.255  1.00  0.00    -0.205 F 
ATOM     79  C   UNL A   1      48.875  39.984  34.403  1.00  0.00     0.022 A 
BRANCH  77  80
ATOM     80  S   UNL A   1      47.824  42.297  33.395  1.00  0.00     0.127 S 
ATOM     81  O   UNL A   1      47.237  42.962  34.559  1.00  0.00    -0.237 OA
ATOM     82  O   UNL A   1      49.268  42.481  33.252  1.00  0.00    -0.237 OA
ATOM     83  O   UNL A   1      47.064  42.425  32.160  1.00  0.00    -0.744 OA
ENDBRANCH  77  80
ENDBRANCH  59  73
BRANCH  60  84
ATOM     84  C   UNL A   1      38.051  33.203  32.896  1.00  0.00     0.023 A 
ATOM     85  C   UNL A   1      38.021  31.797  32.951  1.00  0.00     0.012 A 
ATOM     86  C   UNL A   1      36.849  33.909  32.696  1.00  0.00     0.148 A 
ATOM     87  C   UNL A   1      36.824  31.105  32.762  1.00  0.00     0.002 A 
ATOM     88  C   UNL A   1      35.652  33.218  32.568  1.00  0.00     0.091 A 
ATOM     89  F   UNL A   1      36.900  35.248  32.651  1.00  0.00    -0.205 F 
ATOM     90  C   UNL A   1      35.639  31.815  32.579  1.00  0.00     0.022 A 
BRANCH  88  91
ATOM     91  S   UNL A   1      34.068  34.057  32.461  1.00  0.00     0.127 S 
ATOM     92  O   UNL A   1      33.873  34.140  31.016  1.00  0.00    -0.237 OA
ATOM     93  O   UNL A   1      33.184  33.118  33.151  1.00  0.00    -0.237 OA
ATOM     94  O   UNL A   1      34.248  35.328  33.148  1.00  0.00    -0.744 OA
ENDBRANCH  88  91
ENDBRANCH  60  84
BRANCH  72  95
ATOM     95  C   UNL A   1      43.435  34.706  28.712  1.00  0.00     0.023 A 
ATOM     96  C   UNL A   1      42.854  35.436  27.657  1.00  0.00     0.012 A 
ATOM     97  C   UNL A   1      44.358  33.683  28.426  1.00  0.00     0.148 A 
ATOM     98  C   UNL A   1      43.158  35.124  26.334  1.00  0.00     0.002 A 
ATOM     99  C   UNL A   1      44.704  33.420  27.108  1.00  0.00     0.091 A 
ATOM    100  F   UNL A   1      44.886  32.993  29.448  1.00  0.00    -0.205 F 
ATOM    101  C   UNL A   1      44.092  34.126  26.061  1.00  0.00     0.022 A 
BRANCH  99 102
ATOM    102  S   UNL A   1      45.972  32.230  26.667  1.00  0.00     0.127 S 
ATOM    103  O   UNL A   1      46.090  31.451  27.899  1.00  0.00    -0.237 OA
ATOM    104  O   UNL A   1      45.349  31.518  25.552  1.00  0.00    -0.237 OA
ATOM    105  O   UNL A   1      47.151  33.007  26.308  1.00  0.00    -0.744 OA
ENDBRANCH  99 102
ENDBRANCH  72  95
ENDBRANCH  46  47
ENDBRANCH  38  41
ENDBRANCH  36  37
ENDBRANCH  35  36
ENDBRANCH  34  35
ENDBRANCH  33  34
ENDBRANCH   1  33
TORSDOF 22
ENDMDL
