MODEL 1
REMARK VINA RESULT:     -10.5      0.000      0.000
REMARK SMILES C[C@@H]1CN(C(=O)C[NH+]2CCC(CC(=O)NCCCCCCNC(=O)c3ccc(-c4c5nc(c(-c6cccc(S(=O)(=O)[O-])c6F)c6ccc([nH]6)c(-c6cccc(S(=O)(=O)[O-])c6F)c6nc(c(-c7cccc(S(=O)(=O)[O-])c7F)c7ccc4[nH]7)C=C6)C=C5)cc3)CC2)C[C@@H](C)O1
REMARK SMILES IDX 18 1 17 2 16 3 15 4 13 5 14 6 12 8 11 9 8 10 9 11 89 12
REMARK SMILES IDX 10 14 88 15 7 16 5 17 1 18 2 19 3 20 93 21 4 22 91 23 90 24
REMARK SMILES IDX 92 25 6 26 19 27 20 28 21 29 22 30 23 31 24 33 25 34 26 35
REMARK SMILES IDX 87 36 27 37 86 38 28 39 29 40 30 41 80 42 31 43 85 44 79 45
REMARK SMILES IDX 81 46 32 47 84 48 78 49 77 50 33 52 65 53 45 54 64 55 46 56
REMARK SMILES IDX 49 57 63 58 82 59 47 60 48 61 62 63 83 64 50 65 34 66 35 67
REMARK SMILES IDX 43 68 36 69 38 70 44 71 37 72 39 73 40 74 41 75 42 76 66 77
REMARK SMILES IDX 67 78 75 79 68 80 70 81 76 82 69 83 71 84 72 85 73 86 74 87
REMARK SMILES IDX 51 88 52 89 60 90 53 91 55 92 61 93 54 94 56 95 57 96 58 97
REMARK SMILES IDX 59 98
REMARK H PARENT 15 7 8 13 22 32 81 51 49 62
REMARK Flexibility Score: inf
ROOT
ATOM      1  C   UNL A   1      35.004  31.630  28.460  1.00  0.00     0.002 C 
ENDROOT
BRANCH   1   2
ATOM      2  C   UNL A   1      35.443  30.363  27.725  1.00  0.00     0.021 C 
BRANCH   2   3
ATOM      3  C   UNL A   1      34.301  29.406  27.366  1.00  0.00     0.116 C 
BRANCH   3   4
ATOM      4  N   UNL A   1      34.451  28.907  26.005  1.00  0.00    -0.356 N 
ATOM      5  C   UNL A   1      33.585  28.919  24.951  1.00  0.00     0.220 C 
ATOM      6  O   UNL A   1      33.917  28.335  23.917  1.00  0.00    -0.275 OA
ATOM      7  H   UNL A   1      35.323  28.494  25.813  1.00  0.00     0.163 HD
BRANCH   5   8
ATOM      8  C   UNL A   1      32.247  29.636  25.036  1.00  0.00     0.104 C 
BRANCH   8   9
ATOM      9  C   UNL A   1      31.024  28.695  25.044  1.00  0.00     0.009 C 
ATOM     10  N   UNL A   1      30.053  26.070  23.978  1.00  0.00    -0.327 N 
ATOM     11  C   UNL A   1      30.367  26.237  25.406  1.00  0.00     0.262 C 
ATOM     12  C   UNL A   1      29.536  27.334  23.457  1.00  0.00     0.262 C 
ATOM     13  H   UNL A   1      29.319  25.374  23.845  1.00  0.00     0.348 HD
ATOM     14  C   UNL A   1      31.382  27.352  25.704  1.00  0.00     0.066 C 
ATOM     15  C   UNL A   1      30.494  28.496  23.626  1.00  0.00     0.066 C 
BRANCH  10  16
ATOM     16  C   UNL A   1      31.221  25.526  23.238  1.00  0.00     0.363 C 
BRANCH  16  17
ATOM     17  C   UNL A   1      31.434  24.009  23.372  1.00  0.00     0.277 C 
ATOM     18  C   UNL A   1      32.606  23.657  26.900  1.00  0.00     0.040 C 
ATOM     19  C   UNL A   1      33.809  23.560  25.964  1.00  0.00     0.135 C 
ATOM     20  C   UNL A   1      33.610  24.289  24.616  1.00  0.00     0.151 C 
ATOM     21  O   UNL A   1      34.182  22.185  25.765  1.00  0.00    -0.372 OA
ATOM     22  N   UNL A   1      32.670  23.549  23.780  1.00  0.00    -0.333 N 
ATOM     23  C   UNL A   1      33.272  21.444  24.926  1.00  0.00     0.135 C 
ATOM     24  C   UNL A   1      33.050  22.149  23.579  1.00  0.00     0.151 C 
ATOM     25  C   UNL A   1      33.876  20.059  24.725  1.00  0.00     0.040 C 
ATOM     26  O   UNL A   1      30.520  23.237  23.057  1.00  0.00    -0.268 OA
ENDBRANCH  16  17
ENDBRANCH  10  16
ENDBRANCH   8   9
ENDBRANCH   5   8
ENDBRANCH   3   4
ENDBRANCH   2   3
ENDBRANCH   1   2
BRANCH   1  27
ATOM     27  C   UNL A   1      35.647  32.921  27.950  1.00  0.00     0.002 C 
BRANCH  27  28
ATOM     28  C   UNL A   1      34.739  34.156  27.948  1.00  0.00     0.021 C 
BRANCH  28  29
ATOM     29  C   UNL A   1      33.314  33.919  28.443  1.00  0.00     0.116 C 
BRANCH  29  30
ATOM     30  N   UNL A   1      32.899  34.926  29.409  1.00  0.00    -0.352 N 
ATOM     31  C   UNL A   1      33.298  35.105  30.711  1.00  0.00     0.251 C 
ATOM     32  H   UNL A   1      32.235  35.575  29.081  1.00  0.00     0.163 HD
ATOM     33  O   UNL A   1      32.679  35.868  31.444  1.00  0.00    -0.269 OA
BRANCH  31  34
ATOM     34  C   UNL A   1      34.472  34.370  31.228  1.00  0.00     0.039 A 
ATOM     35  C   UNL A   1      34.283  33.127  31.837  1.00  0.00     0.014 A 
ATOM     36  C   UNL A   1      35.754  34.920  31.135  1.00  0.00     0.014 A 
ATOM     37  C   UNL A   1      35.387  32.410  32.305  1.00  0.00     0.010 A 
ATOM     38  C   UNL A   1      36.858  34.177  31.545  1.00  0.00     0.010 A 
ATOM     39  C   UNL A   1      36.686  32.918  32.141  1.00  0.00    -0.014 A 
BRANCH  39  40
ATOM     40  C   UNL A   1      37.877  32.149  32.583  1.00  0.00     0.031 A 
ATOM     41  C   UNL A   1      38.569  32.500  33.872  1.00  0.00     0.074 A 
ATOM     42  C   UNL A   1      38.390  31.196  31.781  1.00  0.00     0.049 A 
ATOM     43  N   UNL A   1      39.652  31.983  34.394  1.00  0.00    -0.248 NA
ATOM     44  C   UNL A   1      37.983  33.591  34.669  1.00  0.00     0.031 C 
ATOM     45  C   UNL A   1      37.859  30.820  30.468  1.00  0.00     0.029 A 
ATOM     46  N   UNL A   1      39.490  30.390  31.936  1.00  0.00    -0.354 N 
ATOM     47  C   UNL A   1      39.900  32.710  35.553  1.00  0.00     0.074 A 
ATOM     48  C   UNL A   1      38.872  33.724  35.643  1.00  0.00     0.031 C 
ATOM     49  C   UNL A   1      38.632  29.857  29.941  1.00  0.00     0.029 A 
ATOM     50  C   UNL A   1      39.725  29.563  30.863  1.00  0.00     0.049 A 
ATOM     51  H   UNL A   1      40.057  30.401  32.741  1.00  0.00     0.167 HD
ATOM     52  C   UNL A   1      40.876  32.531  36.475  1.00  0.00     0.034 A 
ATOM     53  C   UNL A   1      40.712  28.671  30.643  1.00  0.00     0.034 A 
ATOM     54  C   UNL A   1      41.863  31.488  36.410  1.00  0.00     0.049 A 
ATOM     55  C   UNL A   1      41.752  28.455  31.709  1.00  0.00     0.074 A 
ATOM     56  C   UNL A   1      42.833  31.161  37.341  1.00  0.00     0.029 A 
ATOM     57  N   UNL A   1      42.011  30.604  35.352  1.00  0.00    -0.354 N 
ATOM     58  N   UNL A   1      41.870  29.039  32.876  1.00  0.00    -0.248 NA
ATOM     59  C   UNL A   1      42.772  27.430  31.444  1.00  0.00     0.031 C 
ATOM     60  C   UNL A   1      43.578  30.089  36.838  1.00  0.00     0.029 A 
ATOM     61  C   UNL A   1      43.060  29.737  35.603  1.00  0.00     0.049 A 
ATOM     62  H   UNL A   1      41.452  30.595  34.542  1.00  0.00     0.167 HD
ATOM     63  C   UNL A   1      42.953  28.428  33.500  1.00  0.00     0.074 A 
ATOM     64  C   UNL A   1      43.443  27.416  32.588  1.00  0.00     0.031 C 
ATOM     65  C   UNL A   1      43.501  28.694  34.712  1.00  0.00     0.034 A 
BRANCH  52  66
ATOM     66  C   UNL A   1      40.887  33.448  37.670  1.00  0.00     0.023 A 
ATOM     67  C   UNL A   1      41.805  34.517  37.716  1.00  0.00     0.012 A 
ATOM     68  C   UNL A   1      39.956  33.292  38.716  1.00  0.00     0.148 A 
ATOM     69  C   UNL A   1      41.822  35.396  38.798  1.00  0.00     0.002 A 
ATOM     70  C   UNL A   1      39.950  34.198  39.771  1.00  0.00     0.091 A 
ATOM     71  F   UNL A   1      39.105  32.257  38.667  1.00  0.00    -0.205 F 
ATOM     72  C   UNL A   1      40.887  35.243  39.819  1.00  0.00     0.022 A 
BRANCH  70  73
ATOM     73  S   UNL A   1      38.737  34.135  41.095  1.00  0.00     0.127 S 
ATOM     74  O   UNL A   1      39.361  33.194  42.024  1.00  0.00    -0.237 OA
ATOM     75  O   UNL A   1      38.711  35.522  41.558  1.00  0.00    -0.237 OA
ATOM     76  O   UNL A   1      37.497  33.680  40.480  1.00  0.00    -0.744 OA
ENDBRANCH  70  73
ENDBRANCH  52  66
BRANCH  53  77
ATOM     77  C   UNL A   1      40.716  27.860  29.393  1.00  0.00     0.023 A 
ATOM     78  C   UNL A   1      39.806  26.792  29.262  1.00  0.00     0.012 A 
ATOM     79  C   UNL A   1      41.586  28.154  28.327  1.00  0.00     0.148 A 
ATOM     80  C   UNL A   1      39.783  26.013  28.105  1.00  0.00     0.002 A 
ATOM     81  C   UNL A   1      41.522  27.407  27.155  1.00  0.00     0.091 A 
ATOM     82  F   UNL A   1      42.453  29.166  28.475  1.00  0.00    -0.205 F 
ATOM     83  C   UNL A   1      40.633  26.327  27.049  1.00  0.00     0.022 A 
BRANCH  81  84
ATOM     84  S   UNL A   1      42.489  27.820  25.698  1.00  0.00     0.127 S 
ATOM     85  O   UNL A   1      43.853  27.747  26.212  1.00  0.00    -0.237 OA
ATOM     86  O   UNL A   1      42.119  26.747  24.774  1.00  0.00    -0.237 OA
ATOM     87  O   UNL A   1      42.034  29.143  25.290  1.00  0.00    -0.744 OA
ENDBRANCH  81  84
ENDBRANCH  53  77
BRANCH  65  88
ATOM     88  C   UNL A   1      44.676  27.859  35.146  1.00  0.00     0.023 A 
ATOM     89  C   UNL A   1      45.986  28.334  34.939  1.00  0.00     0.012 A 
ATOM     90  C   UNL A   1      44.480  26.642  35.829  1.00  0.00     0.148 A 
ATOM     91  C   UNL A   1      47.084  27.597  35.381  1.00  0.00     0.002 A 
ATOM     92  C   UNL A   1      45.578  25.936  36.307  1.00  0.00     0.091 A 
ATOM     93  F   UNL A   1      43.227  26.197  35.997  1.00  0.00    -0.205 F 
ATOM     94  C   UNL A   1      46.881  26.407  36.074  1.00  0.00     0.022 A 
BRANCH  92  95
ATOM     95  S   UNL A   1      45.405  24.444  37.292  1.00  0.00     0.127 S 
ATOM     96  O   UNL A   1      44.620  24.925  38.427  1.00  0.00    -0.237 OA
ATOM     97  O   UNL A   1      44.681  23.553  36.385  1.00  0.00    -0.237 OA
ATOM     98  O   UNL A   1      46.761  24.012  37.605  1.00  0.00    -0.744 OA
ENDBRANCH  92  95
ENDBRANCH  65  88
ENDBRANCH  39  40
ENDBRANCH  31  34
ENDBRANCH  29  30
ENDBRANCH  28  29
ENDBRANCH  27  28
ENDBRANCH   1  27
TORSDOF 19
ENDMDL
MODEL 2
REMARK VINA RESULT:     -10.3      1.661      2.053
REMARK SMILES C[C@@H]1CN(C(=O)C[NH+]2CCC(CC(=O)NCCCCCCNC(=O)c3ccc(-c4c5nc(c(-c6cccc(S(=O)(=O)[O-])c6F)c6ccc([nH]6)c(-c6cccc(S(=O)(=O)[O-])c6F)c6nc(c(-c7cccc(S(=O)(=O)[O-])c7F)c7ccc4[nH]7)C=C6)C=C5)cc3)CC2)C[C@@H](C)O1
REMARK SMILES IDX 18 1 17 2 16 3 15 4 13 5 14 6 12 8 11 9 8 10 9 11 89 12
REMARK SMILES IDX 10 14 88 15 7 16 5 17 1 18 2 19 3 20 93 21 4 22 91 23 90 24
REMARK SMILES IDX 92 25 6 26 19 27 20 28 21 29 22 30 23 31 24 33 25 34 26 35
REMARK SMILES IDX 87 36 27 37 86 38 28 39 29 40 30 41 80 42 31 43 85 44 79 45
REMARK SMILES IDX 81 46 32 47 84 48 78 49 77 50 33 52 65 53 45 54 64 55 46 56
REMARK SMILES IDX 49 57 63 58 82 59 47 60 48 61 62 63 83 64 50 65 34 66 35 67
REMARK SMILES IDX 43 68 36 69 38 70 44 71 37 72 39 73 40 74 41 75 42 76 66 77
REMARK SMILES IDX 67 78 75 79 68 80 70 81 76 82 69 83 71 84 72 85 73 86 74 87
REMARK SMILES IDX 51 88 52 89 60 90 53 91 55 92 61 93 54 94 56 95 57 96 58 97
REMARK SMILES IDX 59 98
REMARK H PARENT 15 7 8 13 22 32 81 51 49 62
REMARK Flexibility Score: inf
ROOT
ATOM      1  C   UNL A   1      35.259  30.533  28.023  1.00  0.00     0.002 C 
ENDROOT
BRANCH   1   2
ATOM      2  C   UNL A   1      34.106  30.025  27.157  1.00  0.00     0.021 C 
BRANCH   2   3
ATOM      3  C   UNL A   1      34.303  28.612  26.596  1.00  0.00     0.116 C 
BRANCH   3   4
ATOM      4  N   UNL A   1      33.131  27.784  26.851  1.00  0.00    -0.356 N 
ATOM      5  C   UNL A   1      31.873  27.833  26.326  1.00  0.00     0.220 C 
ATOM      6  O   UNL A   1      31.018  27.074  26.787  1.00  0.00    -0.275 OA
ATOM      7  H   UNL A   1      33.271  27.069  27.512  1.00  0.00     0.163 HD
BRANCH   5   8
ATOM      8  C   UNL A   1      31.526  28.791  25.196  1.00  0.00     0.104 C 
BRANCH   8   9
ATOM      9  C   UNL A   1      31.689  28.189  23.785  1.00  0.00     0.009 C 
ATOM     10  N   UNL A   1      32.428  25.658  22.364  1.00  0.00    -0.327 N 
ATOM     11  C   UNL A   1      31.038  26.142  22.372  1.00  0.00     0.262 C 
ATOM     12  C   UNL A   1      33.329  26.808  22.375  1.00  0.00     0.262 C 
ATOM     13  H   UNL A   1      32.627  25.136  21.510  1.00  0.00     0.348 HD
ATOM     14  C   UNL A   1      30.689  27.039  23.571  1.00  0.00     0.066 C 
ATOM     15  C   UNL A   1      33.127  27.725  23.564  1.00  0.00     0.066 C 
BRANCH  10  16
ATOM     16  C   UNL A   1      32.656  24.681  23.460  1.00  0.00     0.363 C 
BRANCH  16  17
ATOM     17  C   UNL A   1      33.866  23.752  23.270  1.00  0.00     0.277 C 
ATOM     18  C   UNL A   1      33.277  21.106  25.838  1.00  0.00     0.040 C 
ATOM     19  C   UNL A   1      34.334  22.078  26.358  1.00  0.00     0.135 C 
ATOM     20  C   UNL A   1      34.229  23.496  25.753  1.00  0.00     0.151 C 
ATOM     21  O   UNL A   1      35.652  21.530  26.181  1.00  0.00    -0.372 OA
ATOM     22  N   UNL A   1      34.668  23.480  24.361  1.00  0.00    -0.333 N 
ATOM     23  C   UNL A   1      36.107  21.523  24.813  1.00  0.00     0.135 C 
ATOM     24  C   UNL A   1      36.009  22.921  24.181  1.00  0.00     0.151 C 
ATOM     25  C   UNL A   1      37.549  21.029  24.823  1.00  0.00     0.040 C 
ATOM     26  O   UNL A   1      34.129  23.320  22.142  1.00  0.00    -0.268 OA
ENDBRANCH  16  17
ENDBRANCH  10  16
ENDBRANCH   8   9
ENDBRANCH   5   8
ENDBRANCH   3   4
ENDBRANCH   2   3
ENDBRANCH   1   2
BRANCH   1  27
ATOM     27  C   UNL A   1      35.300  32.051  28.210  1.00  0.00     0.002 C 
BRANCH  27  28
ATOM     28  C   UNL A   1      33.947  32.765  28.125  1.00  0.00     0.021 C 
BRANCH  28  29
ATOM     29  C   UNL A   1      34.018  34.286  28.011  1.00  0.00     0.116 C 
BRANCH  29  30
ATOM     30  N   UNL A   1      33.317  34.947  29.103  1.00  0.00    -0.352 N 
ATOM     31  C   UNL A   1      33.486  34.811  30.458  1.00  0.00     0.251 C 
ATOM     32  H   UNL A   1      32.619  35.585  28.829  1.00  0.00     0.163 HD
ATOM     33  O   UNL A   1      32.657  35.279  31.231  1.00  0.00    -0.269 OA
BRANCH  31  34
ATOM     34  C   UNL A   1      34.668  34.095  30.984  1.00  0.00     0.039 A 
ATOM     35  C   UNL A   1      34.479  32.943  31.752  1.00  0.00     0.014 A 
ATOM     36  C   UNL A   1      35.959  34.574  30.741  1.00  0.00     0.014 A 
ATOM     37  C   UNL A   1      35.588  32.241  32.232  1.00  0.00     0.010 A 
ATOM     38  C   UNL A   1      37.062  33.839  31.166  1.00  0.00     0.010 A 
ATOM     39  C   UNL A   1      36.889  32.670  31.923  1.00  0.00    -0.014 A 
BRANCH  39  40
ATOM     40  C   UNL A   1      38.081  31.909  32.377  1.00  0.00     0.031 A 
ATOM     41  C   UNL A   1      38.749  32.257  33.680  1.00  0.00     0.074 A 
ATOM     42  C   UNL A   1      38.616  30.968  31.576  1.00  0.00     0.049 A 
ATOM     43  N   UNL A   1      39.829  31.748  34.214  1.00  0.00    -0.248 NA
ATOM     44  C   UNL A   1      38.140  33.337  34.475  1.00  0.00     0.031 C 
ATOM     45  C   UNL A   1      38.109  30.597  30.252  1.00  0.00     0.029 A 
ATOM     46  N   UNL A   1      39.722  30.172  31.742  1.00  0.00    -0.354 N 
ATOM     47  C   UNL A   1      40.052  32.468  35.382  1.00  0.00     0.074 A 
ATOM     48  C   UNL A   1      39.013  33.471  35.464  1.00  0.00     0.031 C 
ATOM     49  C   UNL A   1      38.900  29.645  29.729  1.00  0.00     0.029 A 
ATOM     50  C   UNL A   1      39.981  29.356  30.666  1.00  0.00     0.049 A 
ATOM     51  H   UNL A   1      40.277  30.183  32.555  1.00  0.00     0.167 HD
ATOM     52  C   UNL A   1      41.016  32.292  36.317  1.00  0.00     0.034 A 
ATOM     53  C   UNL A   1      40.981  28.475  30.455  1.00  0.00     0.034 A 
ATOM     54  C   UNL A   1      42.014  31.259  36.260  1.00  0.00     0.049 A 
ATOM     55  C   UNL A   1      42.007  28.262  31.535  1.00  0.00     0.074 A 
ATOM     56  C   UNL A   1      42.973  30.934  37.203  1.00  0.00     0.029 A 
ATOM     57  N   UNL A   1      42.188  30.385  35.198  1.00  0.00    -0.354 N 
ATOM     58  N   UNL A   1      42.101  28.837  32.708  1.00  0.00    -0.248 NA
ATOM     59  C   UNL A   1      43.041  27.249  31.278  1.00  0.00     0.031 C 
ATOM     60  C   UNL A   1      43.737  29.874  36.704  1.00  0.00     0.029 A 
ATOM     61  C   UNL A   1      43.241  29.526  35.458  1.00  0.00     0.049 A 
ATOM     62  H   UNL A   1      41.641  30.376  34.379  1.00  0.00     0.167 HD
ATOM     63  C   UNL A   1      43.180  28.233  33.344  1.00  0.00     0.074 A 
ATOM     64  C   UNL A   1      43.695  27.233  32.432  1.00  0.00     0.031 C 
ATOM     65  C   UNL A   1      43.707  28.495  34.566  1.00  0.00     0.034 A 
BRANCH  52  66
ATOM     66  C   UNL A   1      40.999  33.199  37.520  1.00  0.00     0.023 A 
ATOM     67  C   UNL A   1      40.148  32.901  38.603  1.00  0.00     0.012 A 
ATOM     68  C   UNL A   1      41.864  34.308  37.607  1.00  0.00     0.148 A 
ATOM     69  C   UNL A   1      40.129  33.709  39.739  1.00  0.00     0.002 A 
ATOM     70  C   UNL A   1      41.872  35.085  38.761  1.00  0.00     0.091 A 
ATOM     71  F   UNL A   1      42.652  34.590  36.560  1.00  0.00    -0.205 F 
ATOM     72  C   UNL A   1      40.998  34.793  39.821  1.00  0.00     0.022 A 
BRANCH  70  73
ATOM     73  S   UNL A   1      43.009  36.455  38.998  1.00  0.00     0.127 S 
ATOM     74  O   UNL A   1      42.554  36.998  40.278  1.00  0.00    -0.237 OA
ATOM     75  O   UNL A   1      44.304  35.776  39.051  1.00  0.00    -0.237 OA
ATOM     76  O   UNL A   1      42.829  37.328  37.847  1.00  0.00    -0.744 OA
ENDBRANCH  70  73
ENDBRANCH  52  66
BRANCH  53  77
ATOM     77  C   UNL A   1      41.012  27.674  29.198  1.00  0.00     0.023 A 
ATOM     78  C   UNL A   1      40.169  26.552  29.077  1.00  0.00     0.012 A 
ATOM     79  C   UNL A   1      41.843  28.029  28.119  1.00  0.00     0.148 A 
ATOM     80  C   UNL A   1      40.174  25.781  27.914  1.00  0.00     0.002 A 
ATOM     81  C   UNL A   1      41.803  27.288  26.943  1.00  0.00     0.091 A 
ATOM     82  F   UNL A   1      42.647  29.093  28.259  1.00  0.00    -0.205 F 
ATOM     83  C   UNL A   1      40.983  26.154  26.845  1.00  0.00     0.022 A 
BRANCH  81  84
ATOM     84  S   UNL A   1      42.715  27.770  25.472  1.00  0.00     0.127 S 
ATOM     85  O   UNL A   1      42.586  26.580  24.636  1.00  0.00    -0.237 OA
ATOM     86  O   UNL A   1      41.955  28.933  25.011  1.00  0.00    -0.237 OA
ATOM     87  O   UNL A   1      44.062  28.080  25.931  1.00  0.00    -0.744 OA
ENDBRANCH  81  84
ENDBRANCH  53  77
BRANCH  65  88
ATOM     88  C   UNL A   1      44.884  27.669  35.012  1.00  0.00     0.023 A 
ATOM     89  C   UNL A   1      46.191  28.157  34.826  1.00  0.00     0.012 A 
ATOM     90  C   UNL A   1      44.689  26.446  35.686  1.00  0.00     0.148 A 
ATOM     91  C   UNL A   1      47.291  27.427  35.279  1.00  0.00     0.002 A 
ATOM     92  C   UNL A   1      45.787  25.748  36.175  1.00  0.00     0.091 A 
ATOM     93  F   UNL A   1      43.438  25.988  35.834  1.00  0.00    -0.205 F 
ATOM     94  C   UNL A   1      47.089  26.232  35.963  1.00  0.00     0.022 A 
BRANCH  92  95
ATOM     95  S   UNL A   1      45.615  24.249  37.150  1.00  0.00     0.127 S 
ATOM     96  O   UNL A   1      47.003  23.958  37.499  1.00  0.00    -0.237 OA
ATOM     97  O   UNL A   1      44.787  24.699  38.269  1.00  0.00    -0.237 OA
ATOM     98  O   UNL A   1      44.970  23.277  36.277  1.00  0.00    -0.744 OA
ENDBRANCH  92  95
ENDBRANCH  65  88
ENDBRANCH  39  40
ENDBRANCH  31  34
ENDBRANCH  29  30
ENDBRANCH  28  29
ENDBRANCH  27  28
ENDBRANCH   1  27
TORSDOF 19
ENDMDL
MODEL 3
REMARK VINA RESULT:     -10.0      1.526      7.589
REMARK SMILES C[C@@H]1CN(C(=O)C[NH+]2CCC(CC(=O)NCCCCCCNC(=O)c3ccc(-c4c5nc(c(-c6cccc(S(=O)(=O)[O-])c6F)c6ccc([nH]6)c(-c6cccc(S(=O)(=O)[O-])c6F)c6nc(c(-c7cccc(S(=O)(=O)[O-])c7F)c7ccc4[nH]7)C=C6)C=C5)cc3)CC2)C[C@@H](C)O1
REMARK SMILES IDX 18 1 17 2 16 3 15 4 13 5 14 6 12 8 11 9 8 10 9 11 89 12
REMARK SMILES IDX 10 14 88 15 7 16 5 17 1 18 2 19 3 20 93 21 4 22 91 23 90 24
REMARK SMILES IDX 92 25 6 26 19 27 20 28 21 29 22 30 23 31 24 33 25 34 26 35
REMARK SMILES IDX 87 36 27 37 86 38 28 39 29 40 30 41 80 42 31 43 85 44 79 45
REMARK SMILES IDX 81 46 32 47 84 48 78 49 77 50 33 52 65 53 45 54 64 55 46 56
REMARK SMILES IDX 49 57 63 58 82 59 47 60 48 61 62 63 83 64 50 65 34 66 35 67
REMARK SMILES IDX 43 68 36 69 38 70 44 71 37 72 39 73 40 74 41 75 42 76 66 77
REMARK SMILES IDX 67 78 75 79 68 80 70 81 76 82 69 83 71 84 72 85 73 86 74 87
REMARK SMILES IDX 51 88 52 89 60 90 53 91 55 92 61 93 54 94 56 95 57 96 58 97
REMARK SMILES IDX 59 98
REMARK H PARENT 15 7 8 13 22 32 81 51 49 62
REMARK Flexibility Score: inf
ROOT
ATOM      1  C   UNL A   1      35.345  30.784  27.938  1.00  0.00     0.002 C 
ENDROOT
BRANCH   1   2
ATOM      2  C   UNL A   1      34.245  30.281  27.003  1.00  0.00     0.021 C 
BRANCH   2   3
ATOM      3  C   UNL A   1      34.300  28.779  26.701  1.00  0.00     0.116 C 
BRANCH   3   4
ATOM      4  N   UNL A   1      33.144  28.094  27.266  1.00  0.00    -0.356 N 
ATOM      5  C   UNL A   1      31.838  28.078  26.875  1.00  0.00     0.220 C 
ATOM      6  O   UNL A   1      31.022  27.492  27.589  1.00  0.00    -0.275 OA
ATOM      7  H   UNL A   1      33.339  27.550  28.063  1.00  0.00     0.163 HD
BRANCH   5   8
ATOM      8  C   UNL A   1      31.391  28.757  25.588  1.00  0.00     0.104 C 
BRANCH   8   9
ATOM      9  C   UNL A   1      31.160  27.788  24.411  1.00  0.00     0.009 C 
ATOM     10  N   UNL A   1      31.611  24.953  23.556  1.00  0.00    -0.327 N 
ATOM     11  C   UNL A   1      30.258  25.442  23.868  1.00  0.00     0.262 C 
ATOM     12  C   UNL A   1      32.388  26.048  22.979  1.00  0.00     0.262 C 
ATOM     13  H   UNL A   1      31.578  24.214  22.854  1.00  0.00     0.348 HD
ATOM     14  C   UNL A   1      30.227  26.639  24.832  1.00  0.00     0.066 C 
ATOM     15  C   UNL A   1      32.492  27.259  23.884  1.00  0.00     0.066 C 
BRANCH  10  16
ATOM     16  C   UNL A   1      32.230  24.311  24.744  1.00  0.00     0.363 C 
BRANCH  16  17
ATOM     17  C   UNL A   1      31.916  22.816  24.921  1.00  0.00     0.277 C 
ATOM     18  C   UNL A   1      35.071  21.491  26.417  1.00  0.00     0.040 C 
ATOM     19  C   UNL A   1      35.037  21.137  24.932  1.00  0.00     0.135 C 
ATOM     20  C   UNL A   1      34.185  22.104  24.079  1.00  0.00     0.151 C 
ATOM     21  O   UNL A   1      34.620  19.772  24.749  1.00  0.00    -0.372 OA
ATOM     22  N   UNL A   1      32.766  21.891  24.348  1.00  0.00    -0.333 N 
ATOM     23  C   UNL A   1      33.216  19.549  24.993  1.00  0.00     0.135 C 
ATOM     24  C   UNL A   1      32.342  20.501  24.163  1.00  0.00     0.151 C 
ATOM     25  C   UNL A   1      32.926  18.095  24.640  1.00  0.00     0.040 C 
ATOM     26  O   UNL A   1      30.886  22.478  25.515  1.00  0.00    -0.268 OA
ENDBRANCH  16  17
ENDBRANCH  10  16
ENDBRANCH   8   9
ENDBRANCH   5   8
ENDBRANCH   3   4
ENDBRANCH   2   3
ENDBRANCH   1   2
BRANCH   1  27
ATOM     27  C   UNL A   1      35.369  32.300  28.142  1.00  0.00     0.002 C 
BRANCH  27  28
ATOM     28  C   UNL A   1      34.007  32.999  28.075  1.00  0.00     0.021 C 
BRANCH  28  29
ATOM     29  C   UNL A   1      34.056  34.525  28.083  1.00  0.00     0.116 C 
BRANCH  29  30
ATOM     30  N   UNL A   1      33.263  35.088  29.167  1.00  0.00    -0.352 N 
ATOM     31  C   UNL A   1      33.391  34.916  30.523  1.00  0.00     0.251 C 
ATOM     32  H   UNL A   1      32.528  35.680  28.887  1.00  0.00     0.163 HD
ATOM     33  O   UNL A   1      32.499  35.290  31.277  1.00  0.00    -0.269 OA
BRANCH  31  34
ATOM     34  C   UNL A   1      34.605  34.275  31.073  1.00  0.00     0.039 A 
ATOM     35  C   UNL A   1      34.481  33.074  31.775  1.00  0.00     0.014 A 
ATOM     36  C   UNL A   1      35.859  34.872  30.916  1.00  0.00     0.014 A 
ATOM     37  C   UNL A   1      35.623  32.443  32.276  1.00  0.00     0.010 A 
ATOM     38  C   UNL A   1      37.001  34.211  31.360  1.00  0.00     0.010 A 
ATOM     39  C   UNL A   1      36.895  32.994  32.051  1.00  0.00    -0.014 A 
BRANCH  39  40
ATOM     40  C   UNL A   1      38.127  32.314  32.528  1.00  0.00     0.031 A 
ATOM     41  C   UNL A   1      38.749  31.215  31.711  1.00  0.00     0.074 A 
ATOM     42  C   UNL A   1      38.632  32.623  33.738  1.00  0.00     0.049 A 
ATOM     43  N   UNL A   1      39.786  30.468  31.988  1.00  0.00    -0.248 NA
ATOM     44  C   UNL A   1      38.107  30.894  30.425  1.00  0.00     0.031 C 
ATOM     45  C   UNL A   1      38.071  33.613  34.662  1.00  0.00     0.029 A 
ATOM     46  N   UNL A   1      39.713  32.116  34.414  1.00  0.00    -0.354 N 
ATOM     47  C   UNL A   1      39.897  29.565  30.937  1.00  0.00     0.074 A 
ATOM     48  C   UNL A   1      38.803  29.837  30.030  1.00  0.00     0.031 C 
ATOM     49  C   UNL A   1      38.814  33.642  35.780  1.00  0.00     0.029 A 
ATOM     50  C   UNL A   1      39.886  32.658  35.666  1.00  0.00     0.049 A 
ATOM     51  H   UNL A   1      40.310  31.429  34.038  1.00  0.00     0.167 HD
ATOM     52  C   UNL A   1      40.841  28.616  30.728  1.00  0.00     0.034 A 
ATOM     53  C   UNL A   1      40.804  32.391  36.617  1.00  0.00     0.034 A 
ATOM     54  C   UNL A   1      41.957  28.385  31.604  1.00  0.00     0.049 A 
ATOM     55  C   UNL A   1      41.872  31.370  36.336  1.00  0.00     0.074 A 
ATOM     56  C   UNL A   1      43.020  27.516  31.433  1.00  0.00     0.029 A 
ATOM     57  N   UNL A   1      42.154  29.022  32.819  1.00  0.00    -0.354 N 
ATOM     58  N   UNL A   1      42.057  30.644  35.260  1.00  0.00    -0.248 NA
ATOM     59  C   UNL A   1      42.882  31.158  37.384  1.00  0.00     0.031 C 
ATOM     60  C   UNL A   1      43.852  27.616  32.553  1.00  0.00     0.029 A 
ATOM     61  C   UNL A   1      43.317  28.562  33.413  1.00  0.00     0.049 A 
ATOM     62  H   UNL A   1      41.556  29.703  33.203  1.00  0.00     0.167 HD
ATOM     63  C   UNL A   1      43.221  29.918  35.485  1.00  0.00     0.074 A 
ATOM     64  C   UNL A   1      43.709  30.306  36.792  1.00  0.00     0.031 C 
ATOM     65  C   UNL A   1      43.823  29.000  34.688  1.00  0.00     0.034 A 
BRANCH  52  66
ATOM     66  C   UNL A   1      40.742  27.794  29.469  1.00  0.00     0.023 A 
ATOM     67  C   UNL A   1      39.772  26.775  29.380  1.00  0.00     0.012 A 
ATOM     68  C   UNL A   1      41.561  28.067  28.356  1.00  0.00     0.148 A 
ATOM     69  C   UNL A   1      39.642  26.015  28.219  1.00  0.00     0.002 A 
ATOM     70  C   UNL A   1      41.396  27.334  27.185  1.00  0.00     0.091 A 
ATOM     71  F   UNL A   1      42.492  29.026  28.465  1.00  0.00    -0.205 F 
ATOM     72  C   UNL A   1      40.445  26.302  27.119  1.00  0.00     0.022 A 
BRANCH  70  73
ATOM     73  S   UNL A   1      42.326  27.679  25.688  1.00  0.00     0.127 S 
ATOM     74  O   UNL A   1      43.702  27.653  26.182  1.00  0.00    -0.237 OA
ATOM     75  O   UNL A   1      41.964  26.549  24.832  1.00  0.00    -0.237 OA
ATOM     76  O   UNL A   1      41.854  28.972  25.213  1.00  0.00    -0.744 OA
ENDBRANCH  70  73
ENDBRANCH  52  66
BRANCH  53  77
ATOM     77  C   UNL A   1      40.796  33.160  37.894  1.00  0.00     0.023 A 
ATOM     78  C   UNL A   1      40.031  32.686  38.978  1.00  0.00     0.012 A 
ATOM     79  C   UNL A   1      41.557  34.333  38.052  1.00  0.00     0.148 A 
ATOM     80  C   UNL A   1      40.002  33.382  40.187  1.00  0.00     0.002 A 
ATOM     81  C   UNL A   1      41.565  34.993  39.276  1.00  0.00     0.091 A 
ATOM     82  F   UNL A   1      42.268  34.775  37.005  1.00  0.00    -0.205 F 
ATOM     83  C   UNL A   1      40.776  34.528  40.339  1.00  0.00     0.022 A 
BRANCH  81  84
ATOM     84  S   UNL A   1      42.631  36.402  39.602  1.00  0.00     0.127 S 
ATOM     85  O   UNL A   1      43.929  35.906  39.156  1.00  0.00    -0.237 OA
ATOM     86  O   UNL A   1      42.039  37.434  38.749  1.00  0.00    -0.237 OA
ATOM     87  O   UNL A   1      42.507  36.664  41.029  1.00  0.00    -0.744 OA
ENDBRANCH  81  84
ENDBRANCH  53  77
BRANCH  65  88
ATOM     88  C   UNL A   1      45.096  28.370  35.185  1.00  0.00     0.023 A 
ATOM     89  C   UNL A   1      46.330  29.006  34.948  1.00  0.00     0.012 A 
ATOM     90  C   UNL A   1      45.062  27.190  35.955  1.00  0.00     0.148 A 
ATOM     91  C   UNL A   1      47.515  28.463  35.445  1.00  0.00     0.002 A 
ATOM     92  C   UNL A   1      46.241  26.680  36.487  1.00  0.00     0.091 A 
ATOM     93  F   UNL A   1      43.881  26.588  36.153  1.00  0.00    -0.205 F 
ATOM     94  C   UNL A   1      47.469  27.310  36.223  1.00  0.00     0.022 A 
BRANCH  92  95
ATOM     95  S   UNL A   1      46.264  25.255  37.579  1.00  0.00     0.127 S 
ATOM     96  O   UNL A   1      47.655  25.243  38.027  1.00  0.00    -0.237 OA
ATOM     97  O   UNL A   1      45.296  25.635  38.608  1.00  0.00    -0.237 OA
ATOM     98  O   UNL A   1      45.859  24.119  36.762  1.00  0.00    -0.744 OA
ENDBRANCH  92  95
ENDBRANCH  65  88
ENDBRANCH  39  40
ENDBRANCH  31  34
ENDBRANCH  29  30
ENDBRANCH  28  29
ENDBRANCH  27  28
ENDBRANCH   1  27
TORSDOF 19
ENDMDL
