MODEL 1
REMARK VINA RESULT:     -11.8      0.000      0.000
REMARK SMILES COc1c[nH]c(C[N@H+]2CCC[C@@H](c3ccc(C(=O)NCCCCCCNC(=O)c4ccc(-c5c6nc(c(-c7cccc(S(=O)(=O)[O-])c7F)c7ccc([nH]7)c(-c7cccc(S(=O)(=O)[O-])c7F)c7nc(c(-c8cccc(S(=O)(=O)[O-])c8F)c8ccc5[nH]8)C=C7)C=C6)cc4)cc3)C2)cc1=O
REMARK SMILES IDX 22 1 21 2 20 3 19 4 17 5 18 6 16 8 13 9 14 10 93 11 15 12
REMARK SMILES IDX 92 13 12 14 8 15 9 16 94 17 10 19 11 20 7 21 6 22 3 23 4 24
REMARK SMILES IDX 96 25 5 26 95 27 97 28 2 30 1 31 23 32 24 33 25 34 26 35
REMARK SMILES IDX 27 36 28 38 29 39 30 40 91 41 31 42 90 43 32 44 33 45 34 46
REMARK SMILES IDX 84 47 35 48 89 49 83 50 85 51 36 52 88 53 82 54 81 55 37 57
REMARK SMILES IDX 69 58 49 59 68 60 50 61 53 62 67 63 86 64 51 65 52 66 66 68
REMARK SMILES IDX 87 69 54 70 38 71 39 72 47 73 40 74 42 75 48 76 41 77 43 78
REMARK SMILES IDX 44 79 45 80 46 81 70 82 71 83 79 84 72 85 74 86 80 87 73 88
REMARK SMILES IDX 75 89 76 90 77 91 78 92 55 93 56 94 64 95 57 96 59 97 65 98
REMARK SMILES IDX 58 99 60 100 61 101 62 102 63 103
REMARK H PARENT 19 7 8 18 5 29 26 37 85 56 53 67
REMARK Flexibility Score: inf
ROOT
ATOM      1  C   UNL A   1      33.599  29.521  26.240  1.00  0.00     0.002 C 
ENDROOT
BRANCH   1   2
ATOM      2  C   UNL A   1      33.001  28.875  24.983  1.00  0.00     0.021 C 
BRANCH   2   3
ATOM      3  C   UNL A   1      31.511  28.557  25.123  1.00  0.00     0.116 C 
BRANCH   3   4
ATOM      4  N   UNL A   1      30.839  28.815  23.866  1.00  0.00    -0.352 N 
ATOM      5  C   UNL A   1      30.737  28.078  22.717  1.00  0.00     0.251 C 
ATOM      6  O   UNL A   1      30.119  28.573  21.773  1.00  0.00    -0.269 OA
ATOM      7  H   UNL A   1      30.369  29.681  23.832  1.00  0.00     0.163 HD
BRANCH   5   8
ATOM      8  C   UNL A   1      31.259  26.689  22.595  1.00  0.00     0.039 A 
ATOM      9  C   UNL A   1      32.219  24.030  22.656  1.00  0.00    -0.039 A 
ATOM     10  C   UNL A   1      31.088  24.407  23.398  1.00  0.00     0.005 A 
ATOM     11  C   UNL A   1      32.799  24.979  21.809  1.00  0.00     0.005 A 
ATOM     12  C   UNL A   1      30.630  25.722  23.384  1.00  0.00     0.014 A 
ATOM     13  C   UNL A   1      32.303  26.288  21.757  1.00  0.00     0.014 A 
BRANCH   9  14
ATOM     14  C   UNL A   1      32.815  22.631  22.764  1.00  0.00     0.074 C 
ATOM     15  N   UNL A   1      34.085  21.113  24.368  1.00  0.00    -0.329 N 
ATOM     16  C   UNL A   1      33.000  20.128  24.279  1.00  0.00     0.262 C 
ATOM     17  C   UNL A   1      33.612  22.473  24.080  1.00  0.00     0.270 C 
ATOM     18  H   UNL A   1      34.762  20.878  23.642  1.00  0.00     0.348 HD
ATOM     19  C   UNL A   1      32.297  20.180  22.922  1.00  0.00     0.062 C 
ATOM     20  C   UNL A   1      31.719  21.565  22.655  1.00  0.00     0.020 C 
BRANCH  15  21
ATOM     21  C   UNL A   1      34.811  21.029  25.658  1.00  0.00     0.317 C 
BRANCH  21  22
ATOM     22  C   UNL A   1      36.318  21.287  25.603  1.00  0.00     0.074 A 
ATOM     23  C   UNL A   1      39.080  21.931  25.950  1.00  0.00     0.182 A 
ATOM     24  C   UNL A   1      38.100  22.835  26.087  1.00  0.00     0.133 A 
ATOM     25  C   UNL A   1      38.657  20.563  25.476  1.00  0.00     0.223 A 
ATOM     26  N   UNL A   1      36.781  22.569  25.844  1.00  0.00    -0.357 N 
ATOM     27  C   UNL A   1      37.193  20.292  25.366  1.00  0.00     0.083 A 
ATOM     28  O   UNL A   1      39.456  19.668  25.216  1.00  0.00    -0.286 OA
ATOM     29  H   UNL A   1      36.138  23.315  25.843  1.00  0.00     0.166 HD
BRANCH  23  30
ATOM     30  O   UNL A   1      40.374  22.238  26.324  1.00  0.00    -0.491 OA
ATOM     31  C   UNL A   1      40.752  21.659  27.567  1.00  0.00     0.278 C 
ENDBRANCH  23  30
ENDBRANCH  21  22
ENDBRANCH  15  21
ENDBRANCH   9  14
ENDBRANCH   5   8
ENDBRANCH   3   4
ENDBRANCH   2   3
ENDBRANCH   1   2
BRANCH   1  32
ATOM     32  C   UNL A   1      32.568  29.971  27.281  1.00  0.00     0.002 C 
BRANCH  32  33
ATOM     33  C   UNL A   1      32.133  31.434  27.160  1.00  0.00     0.021 C 
BRANCH  33  34
ATOM     34  C   UNL A   1      33.286  32.428  27.221  1.00  0.00     0.116 C 
BRANCH  34  35
ATOM     35  N   UNL A   1      32.825  33.755  27.606  1.00  0.00    -0.352 N 
ATOM     36  C   UNL A   1      33.200  34.503  28.698  1.00  0.00     0.251 C 
ATOM     37  H   UNL A   1      32.161  34.170  27.009  1.00  0.00     0.163 HD
ATOM     38  O   UNL A   1      32.569  35.499  29.023  1.00  0.00    -0.269 OA
BRANCH  36  39
ATOM     39  C   UNL A   1      34.376  34.071  29.479  1.00  0.00     0.039 A 
ATOM     40  C   UNL A   1      34.197  33.266  30.606  1.00  0.00     0.014 A 
ATOM     41  C   UNL A   1      35.657  34.442  29.062  1.00  0.00     0.014 A 
ATOM     42  C   UNL A   1      35.316  32.782  31.289  1.00  0.00     0.010 A 
ATOM     43  C   UNL A   1      36.766  33.908  29.703  1.00  0.00     0.010 A 
ATOM     44  C   UNL A   1      36.608  33.079  30.825  1.00  0.00    -0.014 A 
BRANCH  44  45
ATOM     45  C   UNL A   1      37.828  32.557  31.488  1.00  0.00     0.031 A 
ATOM     46  C   UNL A   1      38.578  31.418  30.853  1.00  0.00     0.074 A 
ATOM     47  C   UNL A   1      38.174  33.004  32.711  1.00  0.00     0.049 A 
ATOM     48  N   UNL A   1      39.539  30.684  31.346  1.00  0.00    -0.248 NA
ATOM     49  C   UNL A   1      38.162  31.031  29.494  1.00  0.00     0.031 C 
ATOM     50  C   UNL A   1      37.489  34.066  33.451  1.00  0.00     0.029 A 
ATOM     51  N   UNL A   1      39.163  32.588  33.567  1.00  0.00    -0.354 N 
ATOM     52  C   UNL A   1      39.805  29.716  30.386  1.00  0.00     0.074 A 
ATOM     53  C   UNL A   1      38.890  29.943  29.289  1.00  0.00     0.031 C 
ATOM     54  C   UNL A   1      38.067  34.205  34.655  1.00  0.00     0.029 A 
ATOM     55  C   UNL A   1      39.135  33.219  34.789  1.00  0.00     0.049 A 
ATOM     56  H   UNL A   1      39.829  31.901  33.330  1.00  0.00     0.167 HD
ATOM     57  C   UNL A   1      40.740  28.738  30.407  1.00  0.00     0.034 A 
ATOM     58  C   UNL A   1      39.872  33.012  35.899  1.00  0.00     0.034 A 
ATOM     59  C   UNL A   1      41.683  28.558  31.476  1.00  0.00     0.049 A 
ATOM     60  C   UNL A   1      40.939  31.949  35.878  1.00  0.00     0.074 A 
ATOM     61  C   UNL A   1      42.726  27.653  31.558  1.00  0.00     0.029 A 
ATOM     62  N   UNL A   1      41.700  29.299  32.647  1.00  0.00    -0.354 N 
ATOM     63  N   UNL A   1      41.263  31.127  34.910  1.00  0.00    -0.248 NA
ATOM     64  C   UNL A   1      41.764  31.807  37.086  1.00  0.00     0.031 C 
ATOM     65  C   UNL A   1      43.366  27.838  32.787  1.00  0.00     0.029 A 
ATOM     66  C   UNL A   1      42.737  28.874  33.458  1.00  0.00     0.049 A 
ATOM     67  H   UNL A   1      41.068  30.020  32.868  1.00  0.00     0.167 HD
ATOM     68  C   UNL A   1      42.358  30.406  35.372  1.00  0.00     0.074 A 
ATOM     69  C   UNL A   1      42.645  30.889  36.706  1.00  0.00     0.031 C 
ATOM     70  C   UNL A   1      43.055  29.424  34.751  1.00  0.00     0.034 A 
BRANCH  57  71
ATOM     71  C   UNL A   1      40.826  27.822  29.217  1.00  0.00     0.023 A 
ATOM     72  C   UNL A   1      40.033  26.656  29.178  1.00  0.00     0.012 A 
ATOM     73  C   UNL A   1      41.642  28.138  28.115  1.00  0.00     0.148 A 
ATOM     74  C   UNL A   1      40.078  25.802  28.077  1.00  0.00     0.002 A 
ATOM     75  C   UNL A   1      41.647  27.306  27.001  1.00  0.00     0.091 A 
ATOM     76  F   UNL A   1      42.406  29.238  28.178  1.00  0.00    -0.205 F 
ATOM     77  C   UNL A   1      40.875  26.132  26.986  1.00  0.00     0.022 A 
BRANCH  75  78
ATOM     78  S   UNL A   1      42.580  27.687  25.514  1.00  0.00     0.127 S 
ATOM     79  O   UNL A   1      42.305  26.515  24.684  1.00  0.00    -0.237 OA
ATOM     80  O   UNL A   1      41.940  28.922  25.056  1.00  0.00    -0.237 OA
ATOM     81  O   UNL A   1      43.964  27.844  25.939  1.00  0.00    -0.744 OA
ENDBRANCH  75  78
ENDBRANCH  57  71
BRANCH  58  82
ATOM     82  C   UNL A   1      39.668  33.871  37.099  1.00  0.00     0.023 A 
ATOM     83  C   UNL A   1      40.149  35.195  37.087  1.00  0.00     0.012 A 
ATOM     84  C   UNL A   1      38.977  33.404  38.234  1.00  0.00     0.148 A 
ATOM     85  C   UNL A   1      39.974  36.028  38.193  1.00  0.00     0.002 A 
ATOM     86  C   UNL A   1      38.759  34.255  39.312  1.00  0.00     0.091 A 
ATOM     87  F   UNL A   1      38.536  32.138  38.233  1.00  0.00    -0.205 F 
ATOM     88  C   UNL A   1      39.271  35.562  39.300  1.00  0.00     0.022 A 
BRANCH  86  89
ATOM     89  S   UNL A   1      37.752  33.783  40.723  1.00  0.00     0.127 S 
ATOM     90  O   UNL A   1      36.611  33.140  40.076  1.00  0.00    -0.237 OA
ATOM     91  O   UNL A   1      38.645  32.874  41.443  1.00  0.00    -0.237 OA
ATOM     92  O   UNL A   1      37.464  35.023  41.432  1.00  0.00    -0.744 OA
ENDBRANCH  86  89
ENDBRANCH  58  82
BRANCH  70  93
ATOM     93  C   UNL A   1      44.245  28.840  35.463  1.00  0.00     0.023 A 
ATOM     94  C   UNL A   1      45.509  29.444  35.332  1.00  0.00     0.012 A 
ATOM     95  C   UNL A   1      44.075  27.767  36.362  1.00  0.00     0.148 A 
ATOM     96  C   UNL A   1      46.593  28.980  36.077  1.00  0.00     0.002 A 
ATOM     97  C   UNL A   1      45.148  27.342  37.134  1.00  0.00     0.091 A 
ATOM     98  F   UNL A   1      42.865  27.198  36.456  1.00  0.00    -0.205 F 
ATOM     99  C   UNL A   1      46.410  27.940  36.987  1.00  0.00     0.022 A 
BRANCH  97 100
ATOM    100  S   UNL A   1      44.982  26.080  38.403  1.00  0.00     0.127 S 
ATOM    101  O   UNL A   1      46.249  26.214  39.123  1.00  0.00    -0.237 OA
ATOM    102  O   UNL A   1      43.808  26.541  39.144  1.00  0.00    -0.237 OA
ATOM    103  O   UNL A   1      44.798  24.820  37.699  1.00  0.00    -0.744 OA
ENDBRANCH  97 100
ENDBRANCH  70  93
ENDBRANCH  44  45
ENDBRANCH  36  39
ENDBRANCH  34  35
ENDBRANCH  33  34
ENDBRANCH  32  33
ENDBRANCH   1  32
TORSDOF 20
ENDMDL
MODEL 2
REMARK VINA RESULT:     -11.2      4.748     10.694
REMARK SMILES COc1c[nH]c(C[N@H+]2CCC[C@@H](c3ccc(C(=O)NCCCCCCNC(=O)c4ccc(-c5c6nc(c(-c7cccc(S(=O)(=O)[O-])c7F)c7ccc([nH]7)c(-c7cccc(S(=O)(=O)[O-])c7F)c7nc(c(-c8cccc(S(=O)(=O)[O-])c8F)c8ccc5[nH]8)C=C7)C=C6)cc4)cc3)C2)cc1=O
REMARK SMILES IDX 22 1 21 2 20 3 19 4 17 5 18 6 16 8 13 9 14 10 93 11 15 12
REMARK SMILES IDX 92 13 12 14 8 15 9 16 94 17 10 19 11 20 7 21 6 22 3 23 4 24
REMARK SMILES IDX 96 25 5 26 95 27 97 28 2 30 1 31 23 32 24 33 25 34 26 35
REMARK SMILES IDX 27 36 28 38 29 39 30 40 91 41 31 42 90 43 32 44 33 45 34 46
REMARK SMILES IDX 84 47 35 48 89 49 83 50 85 51 36 52 88 53 82 54 81 55 37 57
REMARK SMILES IDX 69 58 49 59 68 60 50 61 53 62 67 63 86 64 51 65 52 66 66 68
REMARK SMILES IDX 87 69 54 70 38 71 39 72 47 73 40 74 42 75 48 76 41 77 43 78
REMARK SMILES IDX 44 79 45 80 46 81 70 82 71 83 79 84 72 85 74 86 80 87 73 88
REMARK SMILES IDX 75 89 76 90 77 91 78 92 55 93 56 94 64 95 57 96 59 97 65 98
REMARK SMILES IDX 58 99 60 100 61 101 62 102 63 103
REMARK H PARENT 19 7 8 18 5 29 26 37 85 56 53 67
REMARK Flexibility Score: inf
ROOT
ATOM      1  C   UNL A   1      45.021  22.176  23.972  1.00  0.00     0.002 C 
ENDROOT
BRANCH   1   2
ATOM      2  C   UNL A   1      44.317  21.840  25.293  1.00  0.00     0.021 C 
BRANCH   2   3
ATOM      3  C   UNL A   1      42.911  22.437  25.392  1.00  0.00     0.116 C 
BRANCH   3   4
ATOM      4  N   UNL A   1      42.146  21.716  26.388  1.00  0.00    -0.352 N 
ATOM      5  C   UNL A   1      41.265  22.141  27.347  1.00  0.00     0.251 C 
ATOM      6  O   UNL A   1      40.780  21.291  28.096  1.00  0.00    -0.269 OA
ATOM      7  H   UNL A   1      42.284  20.740  26.375  1.00  0.00     0.163 HD
BRANCH   5   8
ATOM      8  C   UNL A   1      40.812  23.554  27.463  1.00  0.00     0.039 A 
ATOM      9  C   UNL A   1      40.050  26.231  27.963  1.00  0.00    -0.039 A 
ATOM     10  C   UNL A   1      41.294  25.742  28.394  1.00  0.00     0.005 A 
ATOM     11  C   UNL A   1      39.239  25.390  27.194  1.00  0.00     0.005 A 
ATOM     12  C   UNL A   1      41.659  24.417  28.165  1.00  0.00     0.014 A 
ATOM     13  C   UNL A   1      39.633  24.074  26.922  1.00  0.00     0.014 A 
BRANCH   9  14
ATOM     14  C   UNL A   1      39.577  27.636  28.320  1.00  0.00     0.074 C 
ATOM     15  N   UNL A   1      38.587  28.989  30.239  1.00  0.00    -0.329 N 
ATOM     16  C   UNL A   1      39.732  29.905  30.169  1.00  0.00     0.262 C 
ATOM     17  C   UNL A   1      38.924  27.656  29.722  1.00  0.00     0.270 C 
ATOM     18  H   UNL A   1      37.864  29.367  29.626  1.00  0.00     0.348 HD
ATOM     19  C   UNL A   1      40.296  30.002  28.752  1.00  0.00     0.062 C 
ATOM     20  C   UNL A   1      40.738  28.634  28.242  1.00  0.00     0.020 C 
BRANCH  15  21
ATOM     21  C   UNL A   1      37.996  28.935  31.597  1.00  0.00     0.317 C 
BRANCH  21  22
ATOM     22  C   UNL A   1      37.093  30.107  31.987  1.00  0.00     0.074 A 
ATOM     23  C   UNL A   1      35.817  32.527  32.811  1.00  0.00     0.182 A 
ATOM     24  C   UNL A   1      36.650  31.839  33.603  1.00  0.00     0.133 A 
ATOM     25  C   UNL A   1      35.483  31.888  31.486  1.00  0.00     0.223 A 
ATOM     26  N   UNL A   1      37.206  30.637  33.261  1.00  0.00    -0.357 N 
ATOM     27  C   UNL A   1      36.229  30.651  31.110  1.00  0.00     0.083 A 
ATOM     28  O   UNL A   1      34.662  32.358  30.704  1.00  0.00    -0.286 OA
ATOM     29  H   UNL A   1      37.704  30.133  33.944  1.00  0.00     0.166 HD
BRANCH  23  30
ATOM     30  O   UNL A   1      35.386  33.788  33.174  1.00  0.00    -0.491 OA
ATOM     31  C   UNL A   1      36.341  34.807  32.908  1.00  0.00     0.278 C 
ENDBRANCH  23  30
ENDBRANCH  21  22
ENDBRANCH  15  21
ENDBRANCH   9  14
ENDBRANCH   5   8
ENDBRANCH   3   4
ENDBRANCH   2   3
ENDBRANCH   1   2
BRANCH   1  32
ATOM     32  C   UNL A   1      46.207  23.138  24.105  1.00  0.00     0.002 C 
BRANCH  32  33
ATOM     33  C   UNL A   1      46.408  23.716  25.507  1.00  0.00     0.021 C 
BRANCH  33  34
ATOM     34  C   UNL A   1      47.583  24.681  25.617  1.00  0.00     0.116 C 
BRANCH  34  35
ATOM     35  N   UNL A   1      47.524  25.711  24.589  1.00  0.00    -0.352 N 
ATOM     36  C   UNL A   1      46.806  26.884  24.599  1.00  0.00     0.251 C 
ATOM     37  H   UNL A   1      48.068  25.547  23.784  1.00  0.00     0.163 HD
ATOM     38  O   UNL A   1      46.670  27.545  23.579  1.00  0.00    -0.269 OA
BRANCH  36  39
ATOM     39  C   UNL A   1      46.191  27.324  25.867  1.00  0.00     0.039 A 
ATOM     40  C   UNL A   1      46.961  28.021  26.801  1.00  0.00     0.014 A 
ATOM     41  C   UNL A   1      44.837  27.069  26.104  1.00  0.00     0.014 A 
ATOM     42  C   UNL A   1      46.355  28.516  27.958  1.00  0.00     0.010 A 
ATOM     43  C   UNL A   1      44.225  27.618  27.222  1.00  0.00     0.010 A 
ATOM     44  C   UNL A   1      44.977  28.341  28.162  1.00  0.00    -0.014 A 
BRANCH  44  45
ATOM     45  C   UNL A   1      44.276  28.882  29.353  1.00  0.00     0.031 A 
ATOM     46  C   UNL A   1      43.863  30.329  29.365  1.00  0.00     0.074 A 
ATOM     47  C   UNL A   1      44.141  28.125  30.458  1.00  0.00     0.049 A 
ATOM     48  N   UNL A   1      43.423  31.053  30.359  1.00  0.00    -0.248 NA
ATOM     49  C   UNL A   1      43.998  31.065  28.097  1.00  0.00     0.031 C 
ATOM     50  C   UNL A   1      44.556  26.726  30.583  1.00  0.00     0.029 A 
ATOM     51  N   UNL A   1      43.660  28.440  31.704  1.00  0.00    -0.354 N 
ATOM     52  C   UNL A   1      43.284  32.341  29.854  1.00  0.00     0.074 A 
ATOM     53  C   UNL A   1      43.705  32.301  28.470  1.00  0.00     0.031 C 
ATOM     54  C   UNL A   1      44.327  26.309  31.839  1.00  0.00     0.029 A 
ATOM     55  C   UNL A   1      43.787  27.420  32.619  1.00  0.00     0.049 A 
ATOM     56  H   UNL A   1      43.262  29.314  31.923  1.00  0.00     0.167 HD
ATOM     57  C   UNL A   1      42.828  33.450  30.480  1.00  0.00     0.034 A 
ATOM     58  C   UNL A   1      43.521  27.389  33.940  1.00  0.00     0.034 A 
ATOM     59  C   UNL A   1      42.358  33.465  31.837  1.00  0.00     0.049 A 
ATOM     60  C   UNL A   1      42.969  28.625  34.601  1.00  0.00     0.074 A 
ATOM     61  C   UNL A   1      41.796  34.516  32.541  1.00  0.00     0.029 A 
ATOM     62  N   UNL A   1      42.390  32.377  32.696  1.00  0.00    -0.354 N 
ATOM     63  N   UNL A   1      42.721  29.799  34.074  1.00  0.00    -0.248 NA
ATOM     64  C   UNL A   1      42.627  28.524  36.027  1.00  0.00     0.031 C 
ATOM     65  C   UNL A   1      41.502  34.066  33.831  1.00  0.00     0.029 A 
ATOM     66  C   UNL A   1      41.857  32.730  33.922  1.00  0.00     0.049 A 
ATOM     67  H   UNL A   1      42.741  31.487  32.466  1.00  0.00     0.167 HD
ATOM     68  C   UNL A   1      42.150  30.561  35.088  1.00  0.00     0.074 A 
ATOM     69  C   UNL A   1      42.085  29.714  36.260  1.00  0.00     0.031 C 
ATOM     70  C   UNL A   1      41.728  31.848  35.054  1.00  0.00     0.034 A 
BRANCH  57  71
ATOM     71  C   UNL A   1      42.766  34.728  29.688  1.00  0.00     0.023 A 
ATOM     72  C   UNL A   1      41.614  35.020  28.928  1.00  0.00     0.012 A 
ATOM     73  C   UNL A   1      43.815  35.665  29.738  1.00  0.00     0.148 A 
ATOM     74  C   UNL A   1      41.524  36.206  28.202  1.00  0.00     0.002 A 
ATOM     75  C   UNL A   1      43.698  36.867  29.049  1.00  0.00     0.091 A 
ATOM     76  F   UNL A   1      44.912  35.361  30.448  1.00  0.00    -0.205 F 
ATOM     77  C   UNL A   1      42.559  37.134  28.272  1.00  0.00     0.022 A 
BRANCH  75  78
ATOM     78  S   UNL A   1      44.943  38.158  29.140  1.00  0.00     0.127 S 
ATOM     79  O   UNL A   1      45.928  37.689  28.167  1.00  0.00    -0.237 OA
ATOM     80  O   UNL A   1      44.191  39.343  28.722  1.00  0.00    -0.237 OA
ATOM     81  O   UNL A   1      45.392  38.184  30.526  1.00  0.00    -0.744 OA
ENDBRANCH  75  78
ENDBRANCH  57  71
BRANCH  58  82
ATOM     82  C   UNL A   1      43.712  26.128  34.710  1.00  0.00     0.023 A 
ATOM     83  C   UNL A   1      42.654  25.202  34.786  1.00  0.00     0.012 A 
ATOM     84  C   UNL A   1      44.937  25.823  35.335  1.00  0.00     0.148 A 
ATOM     85  C   UNL A   1      42.800  24.010  35.496  1.00  0.00     0.002 A 
ATOM     86  C   UNL A   1      45.093  24.610  35.996  1.00  0.00     0.091 A 
ATOM     87  F   UNL A   1      45.930  26.721  35.261  1.00  0.00    -0.205 F 
ATOM     88  C   UNL A   1      44.021  23.709  36.093  1.00  0.00     0.022 A 
BRANCH  86  89
ATOM     89  S   UNL A   1      46.670  24.082  36.679  1.00  0.00     0.127 S 
ATOM     90  O   UNL A   1      46.289  22.884  37.422  1.00  0.00    -0.237 OA
ATOM     91  O   UNL A   1      47.457  23.835  35.471  1.00  0.00    -0.237 OA
ATOM     92  O   UNL A   1      47.143  25.202  37.482  1.00  0.00    -0.744 OA
ENDBRANCH  86  89
ENDBRANCH  58  82
BRANCH  70  93
ATOM     93  C   UNL A   1      41.091  32.419  36.291  1.00  0.00     0.023 A 
ATOM     94  C   UNL A   1      41.809  33.320  37.100  1.00  0.00     0.012 A 
ATOM     95  C   UNL A   1      39.735  32.157  36.574  1.00  0.00     0.148 A 
ATOM     96  C   UNL A   1      41.189  33.943  38.183  1.00  0.00     0.002 A 
ATOM     97  C   UNL A   1      39.113  32.817  37.625  1.00  0.00     0.091 A 
ATOM     98  F   UNL A   1      39.078  31.282  35.799  1.00  0.00    -0.205 F 
ATOM     99  C   UNL A   1      39.840  33.703  38.437  1.00  0.00     0.022 A 
BRANCH  97 100
ATOM    100  S   UNL A   1      37.356  32.649  37.964  1.00  0.00     0.127 S 
ATOM    101  O   UNL A   1      37.223  31.202  38.137  1.00  0.00    -0.237 OA
ATOM    102  O   UNL A   1      37.203  33.427  39.192  1.00  0.00    -0.237 OA
ATOM    103  O   UNL A   1      36.667  33.202  36.806  1.00  0.00    -0.744 OA
ENDBRANCH  97 100
ENDBRANCH  70  93
ENDBRANCH  44  45
ENDBRANCH  36  39
ENDBRANCH  34  35
ENDBRANCH  33  34
ENDBRANCH  32  33
ENDBRANCH   1  32
TORSDOF 20
ENDMDL
MODEL 3
REMARK VINA RESULT:     -11.1      1.690      2.933
REMARK SMILES COc1c[nH]c(C[N@H+]2CCC[C@@H](c3ccc(C(=O)NCCCCCCNC(=O)c4ccc(-c5c6nc(c(-c7cccc(S(=O)(=O)[O-])c7F)c7ccc([nH]7)c(-c7cccc(S(=O)(=O)[O-])c7F)c7nc(c(-c8cccc(S(=O)(=O)[O-])c8F)c8ccc5[nH]8)C=C7)C=C6)cc4)cc3)C2)cc1=O
REMARK SMILES IDX 22 1 21 2 20 3 19 4 17 5 18 6 16 8 13 9 14 10 93 11 15 12
REMARK SMILES IDX 92 13 12 14 8 15 9 16 94 17 10 19 11 20 7 21 6 22 3 23 4 24
REMARK SMILES IDX 96 25 5 26 95 27 97 28 2 30 1 31 23 32 24 33 25 34 26 35
REMARK SMILES IDX 27 36 28 38 29 39 30 40 91 41 31 42 90 43 32 44 33 45 34 46
REMARK SMILES IDX 84 47 35 48 89 49 83 50 85 51 36 52 88 53 82 54 81 55 37 57
REMARK SMILES IDX 69 58 49 59 68 60 50 61 53 62 67 63 86 64 51 65 52 66 66 68
REMARK SMILES IDX 87 69 54 70 38 71 39 72 47 73 40 74 42 75 48 76 41 77 43 78
REMARK SMILES IDX 44 79 45 80 46 81 70 82 71 83 79 84 72 85 74 86 80 87 73 88
REMARK SMILES IDX 75 89 76 90 77 91 78 92 55 93 56 94 64 95 57 96 59 97 65 98
REMARK SMILES IDX 58 99 60 100 61 101 62 102 63 103
REMARK H PARENT 19 7 8 18 5 29 26 37 85 56 53 67
REMARK Flexibility Score: inf
ROOT
ATOM      1  C   UNL A   1      32.467  29.332  27.348  1.00  0.00     0.002 C 
ENDROOT
BRANCH   1   2
ATOM      2  C   UNL A   1      32.331  27.909  26.792  1.00  0.00     0.021 C 
BRANCH   2   3
ATOM      3  C   UNL A   1      30.881  27.510  26.510  1.00  0.00     0.116 C 
BRANCH   3   4
ATOM      4  N   UNL A   1      30.762  27.044  25.144  1.00  0.00    -0.352 N 
ATOM      5  C   UNL A   1      31.507  26.157  24.414  1.00  0.00     0.251 C 
ATOM      6  O   UNL A   1      31.189  25.975  23.237  1.00  0.00    -0.269 OA
ATOM      7  H   UNL A   1      30.006  27.437  24.649  1.00  0.00     0.163 HD
BRANCH   5   8
ATOM      8  C   UNL A   1      32.614  25.352  24.999  1.00  0.00     0.039 A 
ATOM      9  C   UNL A   1      34.832  23.811  25.837  1.00  0.00    -0.039 A 
ATOM     10  C   UNL A   1      34.996  24.892  24.956  1.00  0.00     0.005 A 
ATOM     11  C   UNL A   1      33.560  23.578  26.368  1.00  0.00     0.005 A 
ATOM     12  C   UNL A   1      33.899  25.636  24.527  1.00  0.00     0.014 A 
ATOM     13  C   UNL A   1      32.468  24.362  25.975  1.00  0.00     0.014 A 
BRANCH   9  14
ATOM     14  C   UNL A   1      35.998  22.903  26.212  1.00  0.00     0.074 C 
ATOM     15  N   UNL A   1      37.103  20.696  25.577  1.00  0.00    -0.329 N 
ATOM     16  C   UNL A   1      38.359  21.411  25.323  1.00  0.00     0.262 C 
ATOM     17  C   UNL A   1      35.936  21.575  25.422  1.00  0.00     0.270 C 
ATOM     18  H   UNL A   1      37.119  20.400  26.552  1.00  0.00     0.348 HD
ATOM     19  C   UNL A   1      38.495  22.652  26.206  1.00  0.00     0.062 C 
ATOM     20  C   UNL A   1      37.335  23.615  25.982  1.00  0.00     0.020 C 
BRANCH  15  21
ATOM     21  C   UNL A   1      36.990  19.459  24.768  1.00  0.00     0.317 C 
BRANCH  21  22
ATOM     22  C   UNL A   1      35.604  18.814  24.711  1.00  0.00     0.074 A 
ATOM     23  C   UNL A   1      33.178  17.325  24.958  1.00  0.00     0.182 A 
ATOM     24  C   UNL A   1      34.358  16.752  24.687  1.00  0.00     0.133 A 
ATOM     25  C   UNL A   1      33.170  18.833  25.006  1.00  0.00     0.223 A 
ATOM     26  N   UNL A   1      35.515  17.451  24.482  1.00  0.00    -0.357 N 
ATOM     27  C   UNL A   1      34.485  19.533  24.917  1.00  0.00     0.083 A 
ATOM     28  O   UNL A   1      32.144  19.493  25.149  1.00  0.00    -0.286 OA
ATOM     29  H   UNL A   1      36.312  16.969  24.163  1.00  0.00     0.166 HD
BRANCH  23  30
ATOM     30  O   UNL A   1      32.076  16.551  25.267  1.00  0.00    -0.491 OA
ATOM     31  C   UNL A   1      32.404  15.371  25.990  1.00  0.00     0.278 C 
ENDBRANCH  23  30
ENDBRANCH  21  22
ENDBRANCH  15  21
ENDBRANCH   9  14
ENDBRANCH   5   8
ENDBRANCH   3   4
ENDBRANCH   2   3
ENDBRANCH   1   2
BRANCH   1  32
ATOM     32  C   UNL A   1      31.439  30.333  26.805  1.00  0.00     0.002 C 
BRANCH  32  33
ATOM     33  C   UNL A   1      32.016  31.698  26.424  1.00  0.00     0.021 C 
BRANCH  33  34
ATOM     34  C   UNL A   1      32.929  32.302  27.485  1.00  0.00     0.116 C 
BRANCH  34  35
ATOM     35  N   UNL A   1      32.663  33.722  27.670  1.00  0.00    -0.352 N 
ATOM     36  C   UNL A   1      33.208  34.577  28.600  1.00  0.00     0.251 C 
ATOM     37  H   UNL A   1      32.009  34.121  27.051  1.00  0.00     0.163 HD
ATOM     38  O   UNL A   1      32.730  35.686  28.790  1.00  0.00    -0.269 OA
BRANCH  36  39
ATOM     39  C   UNL A   1      34.381  34.122  29.373  1.00  0.00     0.039 A 
ATOM     40  C   UNL A   1      34.194  33.320  30.501  1.00  0.00     0.014 A 
ATOM     41  C   UNL A   1      35.667  34.468  28.947  1.00  0.00     0.014 A 
ATOM     42  C   UNL A   1      35.308  32.814  31.177  1.00  0.00     0.010 A 
ATOM     43  C   UNL A   1      36.769  33.912  29.582  1.00  0.00     0.010 A 
ATOM     44  C   UNL A   1      36.602  33.086  30.704  1.00  0.00    -0.014 A 
BRANCH  44  45
ATOM     45  C   UNL A   1      37.816  32.540  31.360  1.00  0.00     0.031 A 
ATOM     46  C   UNL A   1      38.528  31.374  30.730  1.00  0.00     0.074 A 
ATOM     47  C   UNL A   1      38.189  32.993  32.572  1.00  0.00     0.049 A 
ATOM     48  N   UNL A   1      39.475  30.621  31.221  1.00  0.00    -0.248 NA
ATOM     49  C   UNL A   1      38.086  30.981  29.381  1.00  0.00     0.031 C 
ATOM     50  C   UNL A   1      37.541  34.082  33.306  1.00  0.00     0.029 A 
ATOM     51  N   UNL A   1      39.177  32.561  33.422  1.00  0.00    -0.354 N 
ATOM     52  C   UNL A   1      39.704  29.634  30.270  1.00  0.00     0.074 A 
ATOM     53  C   UNL A   1      38.782  29.872  29.182  1.00  0.00     0.031 C 
ATOM     54  C   UNL A   1      38.137  34.221  34.502  1.00  0.00     0.029 A 
ATOM     55  C   UNL A   1      39.180  33.209  34.636  1.00  0.00     0.049 A 
ATOM     56  H   UNL A   1      39.821  31.855  33.186  1.00  0.00     0.167 HD
ATOM     57  C   UNL A   1      40.614  28.632  30.293  1.00  0.00     0.034 A 
ATOM     58  C   UNL A   1      39.925  32.996  35.740  1.00  0.00     0.034 A 
ATOM     59  C   UNL A   1      41.564  28.441  31.353  1.00  0.00     0.049 A 
ATOM     60  C   UNL A   1      40.963  31.905  35.720  1.00  0.00     0.074 A 
ATOM     61  C   UNL A   1      42.584  27.509  31.434  1.00  0.00     0.029 A 
ATOM     62  N   UNL A   1      41.615  29.196  32.514  1.00  0.00    -0.354 N 
ATOM     63  N   UNL A   1      41.254  31.063  34.759  1.00  0.00    -0.248 NA
ATOM     64  C   UNL A   1      41.799  31.756  36.920  1.00  0.00     0.031 C 
ATOM     65  C   UNL A   1      43.243  27.693  32.653  1.00  0.00     0.029 A 
ATOM     66  C   UNL A   1      42.650  28.754  33.318  1.00  0.00     0.049 A 
ATOM     67  H   UNL A   1      41.005  29.936  32.733  1.00  0.00     0.167 HD
ATOM     68  C   UNL A   1      42.335  30.318  35.216  1.00  0.00     0.074 A 
ATOM     69  C   UNL A   1      42.651  30.811  36.541  1.00  0.00     0.031 C 
ATOM     70  C   UNL A   1      42.999  29.311  34.600  1.00  0.00     0.034 A 
BRANCH  57  71
ATOM     71  C   UNL A   1      40.660  27.699  29.114  1.00  0.00     0.023 A 
ATOM     72  C   UNL A   1      39.757  26.618  29.046  1.00  0.00     0.012 A 
ATOM     73  C   UNL A   1      41.552  27.921  28.048  1.00  0.00     0.148 A 
ATOM     74  C   UNL A   1      39.766  25.752  27.954  1.00  0.00     0.002 A 
ATOM     75  C   UNL A   1      41.524  27.080  26.941  1.00  0.00     0.091 A 
ATOM     76  F   UNL A   1      42.419  28.940  28.139  1.00  0.00    -0.205 F 
ATOM     77  C   UNL A   1      40.641  25.989  26.898  1.00  0.00     0.022 A 
BRANCH  75  78
ATOM     78  S   UNL A   1      42.556  27.351  25.496  1.00  0.00     0.127 S 
ATOM     79  O   UNL A   1      43.888  27.425  26.093  1.00  0.00    -0.237 OA
ATOM     80  O   UNL A   1      42.308  26.142  24.708  1.00  0.00    -0.237 OA
ATOM     81  O   UNL A   1      42.074  28.582  24.884  1.00  0.00    -0.744 OA
ENDBRANCH  75  78
ENDBRANCH  57  71
BRANCH  58  82
ATOM     82  C   UNL A   1      39.759  33.875  36.931  1.00  0.00     0.023 A 
ATOM     83  C   UNL A   1      40.197  35.212  36.865  1.00  0.00     0.012 A 
ATOM     84  C   UNL A   1      39.144  33.413  38.111  1.00  0.00     0.148 A 
ATOM     85  C   UNL A   1      40.054  36.064  37.962  1.00  0.00     0.002 A 
ATOM     86  C   UNL A   1      38.956  34.281  39.181  1.00  0.00     0.091 A 
ATOM     87  F   UNL A   1      38.743  32.134  38.160  1.00  0.00    -0.205 F 
ATOM     88  C   UNL A   1      39.426  35.602  39.115  1.00  0.00     0.022 A 
BRANCH  86  89
ATOM     89  S   UNL A   1      38.041  33.810  40.654  1.00  0.00     0.127 S 
ATOM     90  O   UNL A   1      38.948  32.849  41.276  1.00  0.00    -0.237 OA
ATOM     91  O   UNL A   1      37.920  35.087  41.357  1.00  0.00    -0.237 OA
ATOM     92  O   UNL A   1      36.776  33.270  40.173  1.00  0.00    -0.744 OA
ENDBRANCH  86  89
ENDBRANCH  58  82
BRANCH  70  93
ATOM     93  C   UNL A   1      44.181  28.704  35.305  1.00  0.00     0.023 A 
ATOM     94  C   UNL A   1      45.469  29.234  35.100  1.00  0.00     0.012 A 
ATOM     95  C   UNL A   1      43.988  27.692  36.267  1.00  0.00     0.148 A 
ATOM     96  C   UNL A   1      46.553  28.754  35.835  1.00  0.00     0.002 A 
ATOM     97  C   UNL A   1      45.064  27.253  37.027  1.00  0.00     0.091 A 
ATOM     98  F   UNL A   1      42.755  27.193  36.431  1.00  0.00    -0.205 F 
ATOM     99  C   UNL A   1      46.349  27.776  36.807  1.00  0.00     0.022 A 
BRANCH  97 100
ATOM    100  S   UNL A   1      44.879  26.073  38.370  1.00  0.00     0.127 S 
ATOM    101  O   UNL A   1      44.322  24.914  37.671  1.00  0.00    -0.237 OA
ATOM    102  O   UNL A   1      46.257  25.905  38.826  1.00  0.00    -0.237 OA
ATOM    103  O   UNL A   1      43.991  26.700  39.339  1.00  0.00    -0.744 OA
ENDBRANCH  97 100
ENDBRANCH  70  93
ENDBRANCH  44  45
ENDBRANCH  36  39
ENDBRANCH  34  35
ENDBRANCH  33  34
ENDBRANCH  32  33
ENDBRANCH   1  32
TORSDOF 20
ENDMDL
