MODEL 1
REMARK VINA RESULT:     -10.5      0.000      0.000
REMARK SMILES C[NH+](C)CCNC(=O)NC1(CC(=O)NCCCCCCNC(=O)c2ccc(-c3c4nc(c(-c5cccc(S(=O)(=O)[O-])c5F)c5ccc([nH]5)c(-c5cccc(S(=O)(=O)[O-])c5F)c5nc(c(-c6cccc(S(=O)(=O)[O-])c6F)c6ccc3[nH]6)C=C5)C=C4)cc2)CCC1
REMARK SMILES IDX 16 1 15 2 14 3 12 4 13 5 11 7 10 8 87 9 89 10 88 11 9 12
REMARK SMILES IDX 6 13 7 14 8 16 5 18 4 19 2 20 1 21 3 22 17 24 18 25 19 26
REMARK SMILES IDX 20 27 21 28 22 29 23 31 24 32 25 33 86 34 26 35 85 36 27 37
REMARK SMILES IDX 28 38 29 39 79 40 30 41 84 42 78 43 80 44 31 45 83 46 77 47
REMARK SMILES IDX 76 48 32 50 64 51 44 52 63 53 45 54 48 55 62 56 81 57 46 58
REMARK SMILES IDX 47 59 61 61 82 62 49 63 33 64 34 65 42 66 35 67 37 68 43 69
REMARK SMILES IDX 36 70 38 71 39 72 40 73 41 74 65 75 66 76 74 77 67 78 69 79
REMARK SMILES IDX 75 80 68 81 70 82 71 83 72 84 73 85 50 86 51 87 59 88 52 89
REMARK SMILES IDX 54 90 60 91 53 92 55 93 56 94 57 95 58 96
REMARK H PARENT 14 6 6 15 9 17 2 23 21 30 80 49 48 60
REMARK Flexibility Score: inf
ROOT
ATOM      1  C   UNL A   1      33.934  27.070  25.451  1.00  0.00     0.021 C 
ENDROOT
BRANCH   1   2
ATOM      2  C   UNL A   1      32.696  26.538  24.737  1.00  0.00     0.116 C 
BRANCH   2   3
ATOM      3  N   UNL A   1      32.317  25.321  25.386  1.00  0.00    -0.356 N 
ATOM      4  C   UNL A   1      32.225  24.162  24.691  1.00  0.00     0.222 C 
ATOM      5  O   UNL A   1      31.176  23.530  24.761  1.00  0.00    -0.275 OA
ATOM      6  H   UNL A   1      32.121  25.325  26.351  1.00  0.00     0.163 HD
BRANCH   4   7
ATOM      7  C   UNL A   1      33.496  23.722  23.986  1.00  0.00     0.128 C 
BRANCH   7   8
ATOM      8  C   UNL A   1      34.535  23.225  24.953  1.00  0.00     0.051 C 
ATOM      9  C   UNL A   1      35.912  23.956  25.167  1.00  0.00     0.029 C 
ATOM     10  C   UNL A   1      35.404  22.185  24.133  1.00  0.00     0.029 C 
ATOM     11  C   UNL A   1      36.371  23.360  23.823  1.00  0.00     0.005 C 
BRANCH   8  12
ATOM     12  N   UNL A   1      33.973  22.752  26.242  1.00  0.00    -0.332 N 
ATOM     13  N   UNL A   1      33.326  20.410  26.260  1.00  0.00    -0.332 N 
ATOM     14  C   UNL A   1      33.577  21.601  26.813  1.00  0.00     0.315 C 
ATOM     15  H   UNL A   1      33.365  19.716  26.958  1.00  0.00     0.165 HD
ATOM     16  O   UNL A   1      33.418  21.648  28.043  1.00  0.00    -0.249 OA
ATOM     17  H   UNL A   1      33.854  23.506  26.865  1.00  0.00     0.165 HD
BRANCH  13  18
ATOM     18  C   UNL A   1      33.013  19.775  24.969  1.00  0.00     0.179 C 
BRANCH  18  19
ATOM     19  C   UNL A   1      32.654  18.259  25.047  1.00  0.00     0.283 C 
BRANCH  19  20
ATOM     20  N   UNL A   1      32.605  17.373  23.876  1.00  0.00    -0.338 N 
ATOM     21  C   UNL A   1      32.347  18.080  22.635  1.00  0.00     0.332 C 
ATOM     22  C   UNL A   1      33.681  16.406  23.793  1.00  0.00     0.332 C 
ATOM     23  H   UNL A   1      31.783  16.791  24.036  1.00  0.00     0.347 HD
ENDBRANCH  19  20
ENDBRANCH  18  19
ENDBRANCH  13  18
ENDBRANCH   8  12
ENDBRANCH   7   8
ENDBRANCH   4   7
ENDBRANCH   2   3
ENDBRANCH   1   2
BRANCH   1  24
ATOM     24  C   UNL A   1      33.770  28.514  25.951  1.00  0.00     0.002 C 
BRANCH  24  25
ATOM     25  C   UNL A   1      32.473  29.201  25.505  1.00  0.00     0.002 C 
BRANCH  25  26
ATOM     26  C   UNL A   1      32.014  30.344  26.411  1.00  0.00     0.021 C 
BRANCH  26  27
ATOM     27  C   UNL A   1      33.134  30.961  27.217  1.00  0.00     0.116 C 
BRANCH  27  28
ATOM     28  N   UNL A   1      33.029  32.404  27.247  1.00  0.00    -0.352 N 
ATOM     29  C   UNL A   1      33.803  33.254  27.987  1.00  0.00     0.251 C 
ATOM     30  H   UNL A   1      32.334  32.813  26.682  1.00  0.00     0.163 HD
ATOM     31  O   UNL A   1      33.508  34.439  28.113  1.00  0.00    -0.269 OA
BRANCH  29  32
ATOM     32  C   UNL A   1      34.987  32.683  28.652  1.00  0.00     0.039 A 
ATOM     33  C   UNL A   1      34.812  31.631  29.546  1.00  0.00     0.014 A 
ATOM     34  C   UNL A   1      36.266  33.131  28.298  1.00  0.00     0.014 A 
ATOM     35  C   UNL A   1      35.936  31.021  30.096  1.00  0.00     0.010 A 
ATOM     36  C   UNL A   1      37.381  32.458  28.774  1.00  0.00     0.010 A 
ATOM     37  C   UNL A   1      37.226  31.422  29.706  1.00  0.00    -0.014 A 
BRANCH  37  38
ATOM     38  C   UNL A   1      38.425  30.794  30.308  1.00  0.00     0.031 A 
ATOM     39  C   UNL A   1      38.872  31.210  31.682  1.00  0.00     0.074 A 
ATOM     40  C   UNL A   1      39.128  29.887  29.603  1.00  0.00     0.049 A 
ATOM     41  N   UNL A   1      39.885  30.775  32.384  1.00  0.00    -0.248 NA
ATOM     42  C   UNL A   1      38.098  32.273  32.348  1.00  0.00     0.031 C 
ATOM     43  C   UNL A   1      38.834  29.468  28.231  1.00  0.00     0.029 A 
ATOM     44  N   UNL A   1      40.242  29.163  29.941  1.00  0.00    -0.354 N 
ATOM     45  C   UNL A   1      39.888  31.529  33.550  1.00  0.00     0.074 A 
ATOM     46  C   UNL A   1      38.808  32.483  33.444  1.00  0.00     0.031 C 
ATOM     47  C   UNL A   1      39.734  28.547  27.850  1.00  0.00     0.029 A 
ATOM     48  C   UNL A   1      40.684  28.333  28.938  1.00  0.00     0.049 A 
ATOM     49  H   UNL A   1      40.683  29.230  30.818  1.00  0.00     0.167 HD
ATOM     50  C   UNL A   1      40.696  31.416  34.630  1.00  0.00     0.034 A 
ATOM     51  C   UNL A   1      41.739  27.497  28.902  1.00  0.00     0.034 A 
ATOM     52  C   UNL A   1      41.742  30.437  34.742  1.00  0.00     0.049 A 
ATOM     53  C   UNL A   1      42.599  27.361  30.128  1.00  0.00     0.074 A 
ATOM     54  C   UNL A   1      42.563  30.178  35.824  1.00  0.00     0.029 A 
ATOM     55  N   UNL A   1      42.116  29.563  33.733  1.00  0.00    -0.354 N 
ATOM     56  N   UNL A   1      42.490  27.972  31.284  1.00  0.00    -0.248 NA
ATOM     57  C   UNL A   1      43.702  26.394  30.062  1.00  0.00     0.031 C 
ATOM     58  C   UNL A   1      43.458  29.169  35.456  1.00  0.00     0.029 A 
ATOM     59  C   UNL A   1      43.167  28.772  34.161  1.00  0.00     0.049 A 
ATOM     60  H   UNL A   1      41.696  29.514  32.844  1.00  0.00     0.167 HD
ATOM     61  C   UNL A   1      43.484  27.437  32.094  1.00  0.00     0.074 A 
ATOM     62  C   UNL A   1      44.172  26.437  31.302  1.00  0.00     0.031 C 
ATOM     63  C   UNL A   1      43.807  27.750  33.373  1.00  0.00     0.034 A 
BRANCH  50  64
ATOM     64  C   UNL A   1      40.451  32.346  35.789  1.00  0.00     0.023 A 
ATOM     65  C   UNL A   1      41.251  33.496  35.948  1.00  0.00     0.012 A 
ATOM     66  C   UNL A   1      39.396  32.109  36.693  1.00  0.00     0.148 A 
ATOM     67  C   UNL A   1      41.035  34.374  37.010  1.00  0.00     0.002 A 
ATOM     68  C   UNL A   1      39.153  33.015  37.718  1.00  0.00     0.091 A 
ATOM     69  F   UNL A   1      38.660  30.999  36.540  1.00  0.00    -0.205 F 
ATOM     70  C   UNL A   1      39.979  34.139  37.886  1.00  0.00     0.022 A 
BRANCH  68  71
ATOM     71  S   UNL A   1      37.769  32.849  38.850  1.00  0.00     0.127 S 
ATOM     72  O   UNL A   1      38.057  31.561  39.480  1.00  0.00    -0.237 OA
ATOM     73  O   UNL A   1      37.947  34.008  39.724  1.00  0.00    -0.237 OA
ATOM     74  O   UNL A   1      36.569  32.885  38.026  1.00  0.00    -0.744 OA
ENDBRANCH  68  71
ENDBRANCH  50  64
BRANCH  51  75
ATOM     75  C   UNL A   1      42.000  26.680  27.683  1.00  0.00     0.023 A 
ATOM     76  C   UNL A   1      42.618  27.274  26.566  1.00  0.00     0.012 A 
ATOM     77  C   UNL A   1      41.663  25.314  27.636  1.00  0.00     0.148 A 
ATOM     78  C   UNL A   1      42.862  26.531  25.409  1.00  0.00     0.002 A 
ATOM     79  C   UNL A   1      41.960  24.566  26.503  1.00  0.00     0.091 A 
ATOM     80  F   UNL A   1      41.070  24.770  28.707  1.00  0.00    -0.205 F 
ATOM     81  C   UNL A   1      42.541  25.177  25.381  1.00  0.00     0.022 A 
BRANCH  79  82
ATOM     82  S   UNL A   1      41.704  22.790  26.428  1.00  0.00     0.127 S 
ATOM     83  O   UNL A   1      42.354  22.342  27.656  1.00  0.00    -0.237 OA
ATOM     84  O   UNL A   1      40.244  22.696  26.433  1.00  0.00    -0.237 OA
ATOM     85  O   UNL A   1      42.328  22.353  25.186  1.00  0.00    -0.744 OA
ENDBRANCH  79  82
ENDBRANCH  51  75
BRANCH  63  86
ATOM     86  C   UNL A   1      44.925  26.975  34.020  1.00  0.00     0.023 A 
ATOM     87  C   UNL A   1      46.254  27.427  33.905  1.00  0.00     0.012 A 
ATOM     88  C   UNL A   1      44.643  25.843  34.810  1.00  0.00     0.148 A 
ATOM     89  C   UNL A   1      47.291  26.741  34.536  1.00  0.00     0.002 A 
ATOM     90  C   UNL A   1      45.674  25.198  35.480  1.00  0.00     0.091 A 
ATOM     91  F   UNL A   1      43.372  25.422  34.892  1.00  0.00    -0.205 F 
ATOM     92  C   UNL A   1      46.999  25.636  35.333  1.00  0.00     0.022 A 
BRANCH  90  93
ATOM     93  S   UNL A   1      45.381  23.831  36.608  1.00  0.00     0.127 S 
ATOM     94  O   UNL A   1      46.740  23.500  37.034  1.00  0.00    -0.237 OA
ATOM     95  O   UNL A   1      44.553  24.456  37.641  1.00  0.00    -0.237 OA
ATOM     96  O   UNL A   1      44.703  22.804  35.829  1.00  0.00    -0.744 OA
ENDBRANCH  90  93
ENDBRANCH  63  86
ENDBRANCH  37  38
ENDBRANCH  29  32
ENDBRANCH  27  28
ENDBRANCH  26  27
ENDBRANCH  25  26
ENDBRANCH  24  25
ENDBRANCH   1  24
TORSDOF 21
ENDMDL
MODEL 2
REMARK VINA RESULT:     -10.2      2.285      3.126
REMARK SMILES C[NH+](C)CCNC(=O)NC1(CC(=O)NCCCCCCNC(=O)c2ccc(-c3c4nc(c(-c5cccc(S(=O)(=O)[O-])c5F)c5ccc([nH]5)c(-c5cccc(S(=O)(=O)[O-])c5F)c5nc(c(-c6cccc(S(=O)(=O)[O-])c6F)c6ccc3[nH]6)C=C5)C=C4)cc2)CCC1
REMARK SMILES IDX 16 1 15 2 14 3 12 4 13 5 11 7 10 8 87 9 89 10 88 11 9 12
REMARK SMILES IDX 6 13 7 14 8 16 5 18 4 19 2 20 1 21 3 22 17 24 18 25 19 26
REMARK SMILES IDX 20 27 21 28 22 29 23 31 24 32 25 33 86 34 26 35 85 36 27 37
REMARK SMILES IDX 28 38 29 39 79 40 30 41 84 42 78 43 80 44 31 45 83 46 77 47
REMARK SMILES IDX 76 48 32 50 64 51 44 52 63 53 45 54 48 55 62 56 81 57 46 58
REMARK SMILES IDX 47 59 61 61 82 62 49 63 33 64 34 65 42 66 35 67 37 68 43 69
REMARK SMILES IDX 36 70 38 71 39 72 40 73 41 74 65 75 66 76 74 77 67 78 69 79
REMARK SMILES IDX 75 80 68 81 70 82 71 83 72 84 73 85 50 86 51 87 59 88 52 89
REMARK SMILES IDX 54 90 60 91 53 92 55 93 56 94 57 95 58 96
REMARK H PARENT 14 6 6 15 9 17 2 23 21 30 80 49 48 60
REMARK Flexibility Score: inf
ROOT
ATOM      1  C   UNL A   1      33.361  28.731  25.697  1.00  0.00     0.021 C 
ENDROOT
BRANCH   1   2
ATOM      2  C   UNL A   1      32.997  27.481  26.489  1.00  0.00     0.116 C 
BRANCH   2   3
ATOM      3  N   UNL A   1      33.634  26.370  25.853  1.00  0.00    -0.356 N 
ATOM      4  C   UNL A   1      32.919  25.289  25.460  1.00  0.00     0.222 C 
ATOM      5  O   UNL A   1      33.284  24.184  25.850  1.00  0.00    -0.275 OA
ATOM      6  H   UNL A   1      34.607  26.391  25.698  1.00  0.00     0.163 HD
BRANCH   4   7
ATOM      7  C   UNL A   1      31.798  25.572  24.476  1.00  0.00     0.128 C 
BRANCH   7   8
ATOM      8  C   UNL A   1      32.244  25.408  23.049  1.00  0.00     0.051 C 
ATOM      9  C   UNL A   1      33.480  26.178  22.454  1.00  0.00     0.029 C 
ATOM     10  C   UNL A   1      31.400  26.466  22.226  1.00  0.00     0.029 C 
ATOM     11  C   UNL A   1      32.598  27.439  22.402  1.00  0.00     0.005 C 
BRANCH   8  12
ATOM     12  N   UNL A   1      32.203  24.005  22.569  1.00  0.00    -0.332 N 
ATOM     13  N   UNL A   1      34.166  22.689  23.134  1.00  0.00    -0.332 N 
ATOM     14  C   UNL A   1      32.922  22.874  22.682  1.00  0.00     0.315 C 
ATOM     15  H   UNL A   1      34.282  21.742  23.379  1.00  0.00     0.165 HD
ATOM     16  O   UNL A   1      32.343  21.841  22.310  1.00  0.00    -0.249 OA
ATOM     17  H   UNL A   1      31.414  23.858  21.997  1.00  0.00     0.165 HD
BRANCH  13  18
ATOM     18  C   UNL A   1      35.423  23.410  23.393  1.00  0.00     0.179 C 
BRANCH  18  19
ATOM     19  C   UNL A   1      36.647  22.504  23.736  1.00  0.00     0.283 C 
BRANCH  19  20
ATOM     20  N   UNL A   1      37.141  22.288  25.102  1.00  0.00    -0.338 N 
ATOM     21  C   UNL A   1      37.951  21.090  25.234  1.00  0.00     0.332 C 
ATOM     22  C   UNL A   1      37.709  23.459  25.741  1.00  0.00     0.332 C 
ATOM     23  H   UNL A   1      36.299  22.111  25.649  1.00  0.00     0.347 HD
ENDBRANCH  19  20
ENDBRANCH  18  19
ENDBRANCH  13  18
ENDBRANCH   8  12
ENDBRANCH   7   8
ENDBRANCH   4   7
ENDBRANCH   2   3
ENDBRANCH   1   2
BRANCH   1  24
ATOM     24  C   UNL A   1      32.234  29.775  25.662  1.00  0.00     0.002 C 
BRANCH  24  25
ATOM     25  C   UNL A   1      32.019  30.527  26.982  1.00  0.00     0.002 C 
BRANCH  25  26
ATOM     26  C   UNL A   1      31.928  32.047  26.841  1.00  0.00     0.021 C 
BRANCH  26  27
ATOM     27  C   UNL A   1      33.110  32.778  27.438  1.00  0.00     0.116 C 
BRANCH  27  28
ATOM     28  N   UNL A   1      32.740  34.106  27.879  1.00  0.00    -0.352 N 
ATOM     29  C   UNL A   1      33.260  34.774  28.952  1.00  0.00     0.251 C 
ATOM     30  H   UNL A   1      32.046  34.572  27.357  1.00  0.00     0.163 HD
ATOM     31  O   UNL A   1      32.741  35.803  29.376  1.00  0.00    -0.269 OA
BRANCH  29  32
ATOM     32  C   UNL A   1      34.449  34.193  29.597  1.00  0.00     0.039 A 
ATOM     33  C   UNL A   1      34.273  33.310  30.659  1.00  0.00     0.014 A 
ATOM     34  C   UNL A   1      35.722  34.450  29.071  1.00  0.00     0.014 A 
ATOM     35  C   UNL A   1      35.388  32.678  31.202  1.00  0.00     0.010 A 
ATOM     36  C   UNL A   1      36.815  33.747  29.552  1.00  0.00     0.010 A 
ATOM     37  C   UNL A   1      36.663  32.883  30.647  1.00  0.00    -0.014 A 
BRANCH  37  38
ATOM     38  C   UNL A   1      37.856  32.234  31.237  1.00  0.00     0.031 A 
ATOM     39  C   UNL A   1      38.442  32.776  32.512  1.00  0.00     0.074 A 
ATOM     40  C   UNL A   1      38.430  31.193  30.606  1.00  0.00     0.049 A 
ATOM     41  N   UNL A   1      39.473  32.345  33.191  1.00  0.00    -0.248 NA
ATOM     42  C   UNL A   1      37.806  33.973  33.090  1.00  0.00     0.031 C 
ATOM     43  C   UNL A   1      37.996  30.636  29.323  1.00  0.00     0.029 A 
ATOM     44  N   UNL A   1      39.510  30.423  30.955  1.00  0.00    -0.354 N 
ATOM     45  C   UNL A   1      39.627  33.232  34.248  1.00  0.00     0.074 A 
ATOM     46  C   UNL A   1      38.616  34.254  34.098  1.00  0.00     0.031 C 
ATOM     47  C   UNL A   1      38.792  29.603  29.000  1.00  0.00     0.029 A 
ATOM     48  C   UNL A   1      39.807  29.444  30.036  1.00  0.00     0.049 A 
ATOM     49  H   UNL A   1      40.025  30.560  31.782  1.00  0.00     0.167 HD
ATOM     50  C   UNL A   1      40.509  33.184  35.273  1.00  0.00     0.034 A 
ATOM     51  C   UNL A   1      40.790  28.523  30.033  1.00  0.00     0.034 A 
ATOM     52  C   UNL A   1      41.484  32.142  35.436  1.00  0.00     0.049 A 
ATOM     53  C   UNL A   1      41.734  28.466  31.203  1.00  0.00     0.074 A 
ATOM     54  C   UNL A   1      42.368  31.948  36.481  1.00  0.00     0.029 A 
ATOM     55  N   UNL A   1      41.709  31.123  34.523  1.00  0.00    -0.354 N 
ATOM     56  N   UNL A   1      41.765  29.220  32.276  1.00  0.00    -0.248 NA
ATOM     57  C   UNL A   1      42.753  27.408  31.183  1.00  0.00     0.031 C 
ATOM     58  C   UNL A   1      43.153  30.829  36.183  1.00  0.00     0.029 A 
ATOM     59  C   UNL A   1      42.729  30.304  34.972  1.00  0.00     0.049 A 
ATOM     60  H   UNL A   1      41.217  31.001  33.679  1.00  0.00     0.167 HD
ATOM     61  C   UNL A   1      42.778  28.705  33.076  1.00  0.00     0.074 A 
ATOM     62  C   UNL A   1      43.323  27.562  32.371  1.00  0.00     0.031 C 
ATOM     63  C   UNL A   1      43.225  29.143  34.278  1.00  0.00     0.034 A 
BRANCH  50  64
ATOM     64  C   UNL A   1      40.427  34.266  36.319  1.00  0.00     0.023 A 
ATOM     65  C   UNL A   1      40.862  35.571  36.013  1.00  0.00     0.012 A 
ATOM     66  C   UNL A   1      39.875  34.002  37.588  1.00  0.00     0.148 A 
ATOM     67  C   UNL A   1      40.788  36.588  36.964  1.00  0.00     0.002 A 
ATOM     68  C   UNL A   1      39.756  35.032  38.513  1.00  0.00     0.091 A 
ATOM     69  F   UNL A   1      39.489  32.750  37.869  1.00  0.00    -0.205 F 
ATOM     70  C   UNL A   1      40.224  36.321  38.208  1.00  0.00     0.022 A 
BRANCH  68  71
ATOM     71  S   UNL A   1      38.970  34.811  40.112  1.00  0.00     0.127 S 
ATOM     72  O   UNL A   1      37.847  33.939  39.770  1.00  0.00    -0.237 OA
ATOM     73  O   UNL A   1      40.029  34.165  40.888  1.00  0.00    -0.237 OA
ATOM     74  O   UNL A   1      38.607  36.144  40.569  1.00  0.00    -0.744 OA
ENDBRANCH  68  71
ENDBRANCH  50  64
BRANCH  51  75
ATOM     75  C   UNL A   1      40.891  27.545  28.914  1.00  0.00     0.023 A 
ATOM     76  C   UNL A   1      40.031  26.429  28.885  1.00  0.00     0.012 A 
ATOM     77  C   UNL A   1      41.813  27.729  27.867  1.00  0.00     0.148 A 
ATOM     78  C   UNL A   1      40.115  25.494  27.852  1.00  0.00     0.002 A 
ATOM     79  C   UNL A   1      41.853  26.824  26.812  1.00  0.00     0.091 A 
ATOM     80  F   UNL A   1      42.626  28.793  27.916  1.00  0.00    -0.205 F 
ATOM     81  C   UNL A   1      41.018  25.696  26.813  1.00  0.00     0.022 A 
BRANCH  79  82
ATOM     82  S   UNL A   1      42.890  27.076  25.367  1.00  0.00     0.127 S 
ATOM     83  O   UNL A   1      44.204  27.272  25.972  1.00  0.00    -0.237 OA
ATOM     84  O   UNL A   1      42.723  25.809  24.653  1.00  0.00    -0.237 OA
ATOM     85  O   UNL A   1      42.332  28.231  24.677  1.00  0.00    -0.744 OA
ENDBRANCH  79  82
ENDBRANCH  51  75
BRANCH  63  86
ATOM     86  C   UNL A   1      44.331  28.362  34.938  1.00  0.00     0.023 A 
ATOM     87  C   UNL A   1      45.675  28.640  34.625  1.00  0.00     0.012 A 
ATOM     88  C   UNL A   1      44.033  27.406  35.930  1.00  0.00     0.148 A 
ATOM     89  C   UNL A   1      46.707  27.952  35.262  1.00  0.00     0.002 A 
ATOM     90  C   UNL A   1      45.067  26.765  36.599  1.00  0.00     0.091 A 
ATOM     91  F   UNL A   1      42.745  27.145  36.201  1.00  0.00    -0.205 F 
ATOM     92  C   UNL A   1      46.403  27.025  36.257  1.00  0.00     0.022 A 
BRANCH  90  93
ATOM     93  S   UNL A   1      44.774  25.633  37.963  1.00  0.00     0.127 S 
ATOM     94  O   UNL A   1      43.943  26.445  38.851  1.00  0.00    -0.237 OA
ATOM     95  O   UNL A   1      44.068  24.533  37.304  1.00  0.00    -0.237 OA
ATOM     96  O   UNL A   1      46.088  25.282  38.485  1.00  0.00    -0.744 OA
ENDBRANCH  90  93
ENDBRANCH  63  86
ENDBRANCH  37  38
ENDBRANCH  29  32
ENDBRANCH  27  28
ENDBRANCH  26  27
ENDBRANCH  25  26
ENDBRANCH  24  25
ENDBRANCH   1  24
TORSDOF 21
ENDMDL
MODEL 3
REMARK VINA RESULT:      -9.6      2.795      3.620
REMARK SMILES C[NH+](C)CCNC(=O)NC1(CC(=O)NCCCCCCNC(=O)c2ccc(-c3c4nc(c(-c5cccc(S(=O)(=O)[O-])c5F)c5ccc([nH]5)c(-c5cccc(S(=O)(=O)[O-])c5F)c5nc(c(-c6cccc(S(=O)(=O)[O-])c6F)c6ccc3[nH]6)C=C5)C=C4)cc2)CCC1
REMARK SMILES IDX 16 1 15 2 14 3 12 4 13 5 11 7 10 8 87 9 89 10 88 11 9 12
REMARK SMILES IDX 6 13 7 14 8 16 5 18 4 19 2 20 1 21 3 22 17 24 18 25 19 26
REMARK SMILES IDX 20 27 21 28 22 29 23 31 24 32 25 33 86 34 26 35 85 36 27 37
REMARK SMILES IDX 28 38 29 39 79 40 30 41 84 42 78 43 80 44 31 45 83 46 77 47
REMARK SMILES IDX 76 48 32 50 64 51 44 52 63 53 45 54 48 55 62 56 81 57 46 58
REMARK SMILES IDX 47 59 61 61 82 62 49 63 33 64 34 65 42 66 35 67 37 68 43 69
REMARK SMILES IDX 36 70 38 71 39 72 40 73 41 74 65 75 66 76 74 77 67 78 69 79
REMARK SMILES IDX 75 80 68 81 70 82 71 83 72 84 73 85 50 86 51 87 59 88 52 89
REMARK SMILES IDX 54 90 60 91 53 92 55 93 56 94 57 95 58 96
REMARK H PARENT 14 6 6 15 9 17 2 23 21 30 80 49 48 60
REMARK Flexibility Score: inf
ROOT
ATOM      1  C   UNL A   1      30.668  29.473  24.591  1.00  0.00     0.021 C 
ENDROOT
BRANCH   1   2
ATOM      2  C   UNL A   1      30.520  28.241  23.706  1.00  0.00     0.116 C 
BRANCH   2   3
ATOM      3  N   UNL A   1      31.083  27.133  24.414  1.00  0.00    -0.356 N 
ATOM      4  C   UNL A   1      30.707  25.863  24.133  1.00  0.00     0.222 C 
ATOM      5  O   UNL A   1      30.314  25.160  25.058  1.00  0.00    -0.275 OA
ATOM      6  H   UNL A   1      31.755  27.296  25.116  1.00  0.00     0.163 HD
BRANCH   4   7
ATOM      7  C   UNL A   1      30.928  25.421  22.697  1.00  0.00     0.128 C 
BRANCH   7   8
ATOM      8  C   UNL A   1      32.308  24.861  22.484  1.00  0.00     0.051 C 
ATOM      9  C   UNL A   1      33.583  25.462  23.182  1.00  0.00     0.029 C 
ATOM     10  C   UNL A   1      32.865  25.605  21.200  1.00  0.00     0.029 C 
ATOM     11  C   UNL A   1      33.517  26.624  22.173  1.00  0.00     0.005 C 
BRANCH   8  12
ATOM     12  N   UNL A   1      32.354  23.379  22.467  1.00  0.00    -0.332 N 
ATOM     13  N   UNL A   1      32.465  22.349  24.665  1.00  0.00    -0.332 N 
ATOM     14  C   UNL A   1      32.316  22.354  23.337  1.00  0.00     0.315 C 
ATOM     15  H   UNL A   1      32.078  21.520  25.030  1.00  0.00     0.165 HD
ATOM     16  O   UNL A   1      32.110  21.239  22.832  1.00  0.00    -0.249 OA
ATOM     17  H   UNL A   1      32.437  23.046  21.543  1.00  0.00     0.165 HD
BRANCH  13  18
ATOM     18  C   UNL A   1      33.006  23.154  25.773  1.00  0.00     0.179 C 
BRANCH  18  19
ATOM     19  C   UNL A   1      34.558  23.102  25.932  1.00  0.00     0.283 C 
BRANCH  19  20
ATOM     20  N   UNL A   1      35.449  22.401  24.999  1.00  0.00    -0.338 N 
ATOM     21  C   UNL A   1      36.497  23.250  24.462  1.00  0.00     0.332 C 
ATOM     22  C   UNL A   1      35.912  21.104  25.451  1.00  0.00     0.332 C 
ATOM     23  H   UNL A   1      34.850  22.169  24.207  1.00  0.00     0.347 HD
ENDBRANCH  19  20
ENDBRANCH  18  19
ENDBRANCH  13  18
ENDBRANCH   8  12
ENDBRANCH   7   8
ENDBRANCH   4   7
ENDBRANCH   2   3
ENDBRANCH   1   2
BRANCH   1  24
ATOM     24  C   UNL A   1      31.867  29.388  25.550  1.00  0.00     0.002 C 
BRANCH  24  25
ATOM     25  C   UNL A   1      33.223  29.188  24.860  1.00  0.00     0.002 C 
BRANCH  25  26
ATOM     26  C   UNL A   1      34.343  28.710  25.784  1.00  0.00     0.021 C 
BRANCH  26  27
ATOM     27  C   UNL A   1      34.052  28.938  27.250  1.00  0.00     0.116 C 
BRANCH  27  28
ATOM     28  N   UNL A   1      33.737  30.325  27.516  1.00  0.00    -0.352 N 
ATOM     29  C   UNL A   1      34.457  31.179  28.305  1.00  0.00     0.251 C 
ATOM     30  H   UNL A   1      32.927  30.688  27.090  1.00  0.00     0.163 HD
ATOM     31  O   UNL A   1      34.005  32.269  28.642  1.00  0.00    -0.269 OA
BRANCH  29  32
ATOM     32  C   UNL A   1      35.782  30.724  28.758  1.00  0.00     0.039 A 
ATOM     33  C   UNL A   1      35.858  29.835  29.826  1.00  0.00     0.014 A 
ATOM     34  C   UNL A   1      36.928  31.105  28.049  1.00  0.00     0.014 A 
ATOM     35  C   UNL A   1      37.100  29.322  30.189  1.00  0.00     0.010 A 
ATOM     36  C   UNL A   1      38.147  30.518  28.353  1.00  0.00     0.010 A 
ATOM     37  C   UNL A   1      38.249  29.651  29.450  1.00  0.00    -0.014 A 
BRANCH  37  38
ATOM     38  C   UNL A   1      39.577  29.129  29.848  1.00  0.00     0.031 A 
ATOM     39  C   UNL A   1      40.337  29.801  30.958  1.00  0.00     0.074 A 
ATOM     40  C   UNL A   1      40.110  28.085  29.185  1.00  0.00     0.049 A 
ATOM     41  N   UNL A   1      41.504  29.492  31.460  1.00  0.00    -0.248 NA
ATOM     42  C   UNL A   1      39.722  30.992  31.570  1.00  0.00     0.031 C 
ATOM     43  C   UNL A   1      39.498  27.407  28.040  1.00  0.00     0.029 A 
ATOM     44  N   UNL A   1      41.293  27.418  29.374  1.00  0.00    -0.354 N 
ATOM     45  C   UNL A   1      41.774  30.463  32.415  1.00  0.00     0.074 A 
ATOM     46  C   UNL A   1      40.674  31.400  32.393  1.00  0.00     0.031 C 
ATOM     47  C   UNL A   1      40.303  26.410  27.639  1.00  0.00     0.029 A 
ATOM     48  C   UNL A   1      41.497  26.396  28.477  1.00  0.00     0.049 A 
ATOM     49  H   UNL A   1      41.935  27.650  30.083  1.00  0.00     0.167 HD
ATOM     50  C   UNL A   1      42.826  30.550  33.261  1.00  0.00     0.034 A 
ATOM     51  C   UNL A   1      42.534  25.546  28.348  1.00  0.00     0.034 A 
ATOM     52  C   UNL A   1      43.895  29.591  33.303  1.00  0.00     0.049 A 
ATOM     53  C   UNL A   1      43.674  25.639  29.325  1.00  0.00     0.074 A 
ATOM     54  C   UNL A   1      44.965  29.534  34.177  1.00  0.00     0.029 A 
ATOM     55  N   UNL A   1      44.033  28.525  32.427  1.00  0.00    -0.354 N 
ATOM     56  N   UNL A   1      43.836  26.470  30.327  1.00  0.00    -0.248 NA
ATOM     57  C   UNL A   1      44.754  24.654  29.181  1.00  0.00     0.031 C 
ATOM     58  C   UNL A   1      45.770  28.452  33.807  1.00  0.00     0.029 A 
ATOM     59  C   UNL A   1      45.179  27.812  32.729  1.00  0.00     0.049 A 
ATOM     60  H   UNL A   1      43.409  28.309  31.697  1.00  0.00     0.167 HD
ATOM     61  C   UNL A   1      45.014  26.085  30.955  1.00  0.00     0.074 A 
ATOM     62  C   UNL A   1      45.514  24.933  30.232  1.00  0.00     0.031 C 
ATOM     63  C   UNL A   1      45.634  26.640  32.026  1.00  0.00     0.034 A 
BRANCH  50  64
ATOM     64  C   UNL A   1      42.848  31.698  34.237  1.00  0.00     0.023 A 
ATOM     65  C   UNL A   1      43.394  32.938  33.849  1.00  0.00     0.012 A 
ATOM     66  C   UNL A   1      42.284  31.563  35.521  1.00  0.00     0.148 A 
ATOM     67  C   UNL A   1      43.416  34.015  34.735  1.00  0.00     0.002 A 
ATOM     68  C   UNL A   1      42.263  32.655  36.380  1.00  0.00     0.091 A 
ATOM     69  F   UNL A   1      41.791  30.369  35.881  1.00  0.00    -0.205 F 
ATOM     70  C   UNL A   1      42.840  33.876  35.994  1.00  0.00     0.022 A 
BRANCH  68  71
ATOM     71  S   UNL A   1      41.472  32.604  37.992  1.00  0.00     0.127 S 
ATOM     72  O   UNL A   1      40.101  32.242  37.635  1.00  0.00    -0.237 OA
ATOM     73  O   UNL A   1      42.224  31.549  38.669  1.00  0.00    -0.237 OA
ATOM     74  O   UNL A   1      41.636  33.933  38.563  1.00  0.00    -0.744 OA
ENDBRANCH  68  71
ENDBRANCH  50  64
BRANCH  51  75
ATOM     75  C   UNL A   1      42.509  24.498  27.290  1.00  0.00     0.023 A 
ATOM     76  C   UNL A   1      43.362  24.614  26.175  1.00  0.00     0.012 A 
ATOM     77  C   UNL A   1      41.665  23.376  27.395  1.00  0.00     0.148 A 
ATOM     78  C   UNL A   1      43.348  23.649  25.166  1.00  0.00     0.002 A 
ATOM     79  C   UNL A   1      41.697  22.391  26.416  1.00  0.00     0.091 A 
ATOM     80  F   UNL A   1      40.857  23.289  28.461  1.00  0.00    -0.205 F 
ATOM     81  C   UNL A   1      42.523  22.535  25.290  1.00  0.00     0.022 A 
BRANCH  79  82
ATOM     82  S   UNL A   1      40.768  20.861  26.559  1.00  0.00     0.127 S 
ATOM     83  O   UNL A   1      39.455  21.259  26.061  1.00  0.00    -0.237 OA
ATOM     84  O   UNL A   1      41.519  19.968  25.675  1.00  0.00    -0.237 OA
ATOM     85  O   UNL A   1      40.825  20.495  27.968  1.00  0.00    -0.744 OA
ENDBRANCH  79  82
ENDBRANCH  51  75
BRANCH  63  86
ATOM     86  C   UNL A   1      46.899  25.985  32.517  1.00  0.00     0.023 A 
ATOM     87  C   UNL A   1      46.852  25.082  33.597  1.00  0.00     0.012 A 
ATOM     88  C   UNL A   1      48.120  26.208  31.851  1.00  0.00     0.148 A 
ATOM     89  C   UNL A   1      48.010  24.438  34.030  1.00  0.00     0.002 A 
ATOM     90  C   UNL A   1      49.258  25.521  32.253  1.00  0.00     0.091 A 
ATOM     91  F   UNL A   1      48.144  27.084  30.835  1.00  0.00    -0.205 F 
ATOM     92  C   UNL A   1      49.208  24.648  33.351  1.00  0.00     0.022 A 
BRANCH  90  93
ATOM     93  S   UNL A   1      50.820  25.649  31.375  1.00  0.00     0.127 S 
ATOM     94  O   UNL A   1      51.667  24.734  32.139  1.00  0.00    -0.237 OA
ATOM     95  O   UNL A   1      50.461  25.176  30.038  1.00  0.00    -0.237 OA
ATOM     96  O   UNL A   1      51.203  27.054  31.438  1.00  0.00    -0.744 OA
ENDBRANCH  90  93
ENDBRANCH  63  86
ENDBRANCH  37  38
ENDBRANCH  29  32
ENDBRANCH  27  28
ENDBRANCH  26  27
ENDBRANCH  25  26
ENDBRANCH  24  25
ENDBRANCH   1  24
TORSDOF 21
ENDMDL
