MODEL 1
REMARK VINA RESULT:     -12.2      0.000      0.000
REMARK SMILES C[C@H]1CCCCN1C(=O)N1Cc2nc[nH]c2C[C@H]1C(=O)NCCCCCCNC(=O)c1ccc(-c2c3nc(c(-c4cccc(S(=O)(=O)[O-])c4F)c4ccc([nH]4)c(-c4cccc(S(=O)(=O)[O-])c4F)c4nc(c(-c5cccc(S(=O)(=O)[O-])c5F)c5ccc2[nH]5)C=C4)C=C3)cc1
REMARK SMILES IDX 25 1 24 2 23 3 22 4 21 5 19 6 20 7 18 9 10 10 11 11 12 12
REMARK SMILES IDX 17 13 13 14 16 15 14 16 15 17 8 19 9 20 7 21 1 22 2 23 3 24
REMARK SMILES IDX 4 25 6 26 5 27 26 28 27 29 28 30 29 31 30 33 31 34 32 35
REMARK SMILES IDX 93 36 33 37 92 38 34 39 35 40 36 41 86 42 37 43 91 44 85 45
REMARK SMILES IDX 87 46 38 47 90 48 84 49 83 50 39 52 71 53 51 54 70 55 52 56
REMARK SMILES IDX 55 57 69 58 88 59 53 60 54 61 68 63 89 64 56 65 40 66 41 67
REMARK SMILES IDX 49 68 42 69 44 70 50 71 43 72 45 73 46 74 47 75 48 76 72 77
REMARK SMILES IDX 73 78 81 79 74 80 76 81 82 82 75 83 77 84 78 85 79 86 80 87
REMARK SMILES IDX 57 88 58 89 66 90 59 91 61 92 67 93 60 94 62 95 63 96 64 97
REMARK SMILES IDX 65 98
REMARK H PARENT 21 8 15 18 28 32 87 51 55 62
REMARK Flexibility Score: inf
ROOT
ATOM      1  C   UNL A   1      36.279  21.302  25.696  1.00  0.00     0.002 C 
ENDROOT
BRANCH   1   2
ATOM      2  C   UNL A   1      34.800  21.313  25.266  1.00  0.00     0.002 C 
BRANCH   2   3
ATOM      3  C   UNL A   1      33.776  21.492  26.386  1.00  0.00     0.021 C 
BRANCH   3   4
ATOM      4  C   UNL A   1      32.458  22.094  25.927  1.00  0.00     0.116 C 
BRANCH   4   5
ATOM      5  N   UNL A   1      31.580  22.557  26.967  1.00  0.00    -0.354 N 
ATOM      6  C   UNL A   1      30.616  23.517  26.842  1.00  0.00     0.243 C 
ATOM      7  O   UNL A   1      29.515  23.234  27.339  1.00  0.00    -0.273 OA
ATOM      8  H   UNL A   1      31.683  22.144  27.854  1.00  0.00     0.163 HD
BRANCH   6   9
ATOM      9  C   UNL A   1      30.780  24.860  26.055  1.00  0.00     0.182 C 
ATOM     10  N   UNL A   1      31.969  25.734  26.302  1.00  0.00    -0.306 N 
ATOM     11  C   UNL A   1      33.204  25.508  25.485  1.00  0.00     0.180 C 
ATOM     12  C   UNL A   1      32.904  24.804  24.185  1.00  0.00     0.081 A 
ATOM     13  C   UNL A   1      30.413  24.665  24.558  1.00  0.00     0.091 C 
ATOM     14  N   UNL A   1      33.845  24.153  23.415  1.00  0.00    -0.240 NA
ATOM     15  C   UNL A   1      31.644  24.405  23.792  1.00  0.00     0.042 A 
ATOM     16  C   UNL A   1      33.164  23.430  22.551  1.00  0.00     0.197 A 
ATOM     17  N   UNL A   1      31.814  23.567  22.729  1.00  0.00    -0.348 N 
ATOM     18  H   UNL A   1      31.104  23.144  22.195  1.00  0.00     0.167 HD
BRANCH  10  19
ATOM     19  C   UNL A   1      31.723  27.080  26.514  1.00  0.00     0.321 C 
ATOM     20  O   UNL A   1      31.149  27.410  27.557  1.00  0.00    -0.248 OA
BRANCH  19  21
ATOM     21  N   UNL A   1      32.075  28.017  25.551  1.00  0.00    -0.322 N 
ATOM     22  C   UNL A   1      34.390  28.901  26.358  1.00  0.00     0.031 C 
ATOM     23  C   UNL A   1      33.271  28.874  25.344  1.00  0.00     0.083 C 
ATOM     24  C   UNL A   1      33.882  28.670  23.948  1.00  0.00     0.025 C 
ATOM     25  C   UNL A   1      32.845  28.937  22.867  1.00  0.00     0.004 C 
ATOM     26  C   UNL A   1      31.057  28.237  24.505  1.00  0.00     0.121 C 
ATOM     27  C   UNL A   1      31.625  28.060  23.095  1.00  0.00     0.022 C 
ENDBRANCH  19  21
ENDBRANCH  10  19
ENDBRANCH   6   9
ENDBRANCH   4   5
ENDBRANCH   3   4
ENDBRANCH   2   3
ENDBRANCH   1   2
BRANCH   1  28
ATOM     28  C   UNL A   1      37.197  20.274  25.014  1.00  0.00     0.021 C 
BRANCH  28  29
ATOM     29  C   UNL A   1      38.667  20.642  25.089  1.00  0.00     0.116 C 
BRANCH  29  30
ATOM     30  N   UNL A   1      39.512  19.480  25.400  1.00  0.00    -0.352 N 
ATOM     31  C   UNL A   1      40.826  19.458  25.842  1.00  0.00     0.251 C 
ATOM     32  H   UNL A   1      39.088  18.600  25.279  1.00  0.00     0.163 HD
ATOM     33  O   UNL A   1      41.508  18.456  25.772  1.00  0.00    -0.269 OA
BRANCH  31  34
ATOM     34  C   UNL A   1      41.355  20.697  26.431  1.00  0.00     0.039 A 
ATOM     35  C   UNL A   1      42.055  21.653  25.689  1.00  0.00     0.014 A 
ATOM     36  C   UNL A   1      41.049  20.903  27.770  1.00  0.00     0.014 A 
ATOM     37  C   UNL A   1      42.386  22.854  26.308  1.00  0.00     0.010 A 
ATOM     38  C   UNL A   1      41.141  22.161  28.279  1.00  0.00     0.010 A 
ATOM     39  C   UNL A   1      41.914  23.095  27.606  1.00  0.00    -0.014 A 
BRANCH  39  40
ATOM     40  C   UNL A   1      42.147  24.343  28.310  1.00  0.00     0.031 A 
ATOM     41  C   UNL A   1      41.046  25.332  28.178  1.00  0.00     0.074 A 
ATOM     42  C   UNL A   1      43.142  24.439  29.221  1.00  0.00     0.049 A 
ATOM     43  N   UNL A   1      41.071  26.459  27.547  1.00  0.00    -0.248 NA
ATOM     44  C   UNL A   1      39.706  24.952  28.659  1.00  0.00     0.031 C 
ATOM     45  C   UNL A   1      44.061  23.382  29.684  1.00  0.00     0.029 A 
ATOM     46  N   UNL A   1      43.432  25.459  30.066  1.00  0.00    -0.354 N 
ATOM     47  C   UNL A   1      39.831  27.045  27.791  1.00  0.00     0.074 A 
ATOM     48  C   UNL A   1      38.972  25.988  28.251  1.00  0.00     0.031 C 
ATOM     49  C   UNL A   1      44.575  23.724  30.885  1.00  0.00     0.029 A 
ATOM     50  C   UNL A   1      44.188  25.088  31.174  1.00  0.00     0.049 A 
ATOM     51  H   UNL A   1      43.131  26.383  29.909  1.00  0.00     0.167 HD
ATOM     52  C   UNL A   1      39.700  28.399  27.880  1.00  0.00     0.034 A 
ATOM     53  C   UNL A   1      44.425  25.840  32.276  1.00  0.00     0.034 A 
ATOM     54  C   UNL A   1      40.884  29.068  27.400  1.00  0.00     0.049 A 
ATOM     55  C   UNL A   1      44.157  27.247  31.897  1.00  0.00     0.074 A 
ATOM     56  C   UNL A   1      41.581  29.095  26.209  1.00  0.00     0.029 A 
ATOM     57  N   UNL A   1      41.756  29.527  28.360  1.00  0.00    -0.354 N 
ATOM     58  N   UNL A   1      44.848  27.890  30.994  1.00  0.00    -0.248 NA
ATOM     59  C   UNL A   1      42.828  27.773  32.162  1.00  0.00     0.031 C 
ATOM     60  C   UNL A   1      42.955  29.095  26.594  1.00  0.00     0.029 A 
ATOM     61  C   UNL A   1      43.019  29.153  27.989  1.00  0.00     0.049 A 
ATOM     62  H   UNL A   1      41.514  30.033  29.168  1.00  0.00     0.167 HD
ATOM     63  C   UNL A   1      43.893  28.581  30.258  1.00  0.00     0.074 A 
ATOM     64  C   UNL A   1      42.687  28.556  31.088  1.00  0.00     0.031 C 
ATOM     65  C   UNL A   1      44.074  28.839  28.929  1.00  0.00     0.034 A 
BRANCH  52  66
ATOM     66  C   UNL A   1      38.706  29.129  28.757  1.00  0.00     0.023 A 
ATOM     67  C   UNL A   1      37.953  30.161  28.150  1.00  0.00     0.012 A 
ATOM     68  C   UNL A   1      38.673  29.064  30.169  1.00  0.00     0.148 A 
ATOM     69  C   UNL A   1      37.264  31.115  28.907  1.00  0.00     0.002 A 
ATOM     70  C   UNL A   1      37.922  29.966  30.915  1.00  0.00     0.091 A 
ATOM     71  F   UNL A   1      39.474  28.219  30.821  1.00  0.00    -0.205 F 
ATOM     72  C   UNL A   1      37.244  31.015  30.291  1.00  0.00     0.022 A 
BRANCH  70  73
ATOM     73  S   UNL A   1      37.828  29.861  32.707  1.00  0.00     0.127 S 
ATOM     74  O   UNL A   1      36.821  30.874  33.004  1.00  0.00    -0.237 OA
ATOM     75  O   UNL A   1      37.394  28.477  32.901  1.00  0.00    -0.237 OA
ATOM     76  O   UNL A   1      39.178  30.134  33.182  1.00  0.00    -0.744 OA
ENDBRANCH  70  73
ENDBRANCH  52  66
BRANCH  53  77
ATOM     77  C   UNL A   1      44.573  25.411  33.687  1.00  0.00     0.023 A 
ATOM     78  C   UNL A   1      43.435  25.292  34.508  1.00  0.00     0.012 A 
ATOM     79  C   UNL A   1      45.790  24.857  34.146  1.00  0.00     0.148 A 
ATOM     80  C   UNL A   1      43.501  24.617  35.734  1.00  0.00     0.002 A 
ATOM     81  C   UNL A   1      45.852  24.192  35.367  1.00  0.00     0.091 A 
ATOM     82  F   UNL A   1      46.863  24.909  33.344  1.00  0.00    -0.205 F 
ATOM     83  C   UNL A   1      44.704  24.059  36.159  1.00  0.00     0.022 A 
BRANCH  81  84
ATOM     84  S   UNL A   1      47.360  23.418  35.972  1.00  0.00     0.127 S 
ATOM     85  O   UNL A   1      47.515  22.292  35.049  1.00  0.00    -0.237 OA
ATOM     86  O   UNL A   1      48.339  24.488  35.796  1.00  0.00    -0.237 OA
ATOM     87  O   UNL A   1      47.088  23.029  37.350  1.00  0.00    -0.744 OA
ENDBRANCH  81  84
ENDBRANCH  53  77
BRANCH  65  88
ATOM     88  C   UNL A   1      45.431  28.560  28.330  1.00  0.00     0.023 A 
ATOM     89  C   UNL A   1      46.551  29.391  28.550  1.00  0.00     0.012 A 
ATOM     90  C   UNL A   1      45.623  27.329  27.684  1.00  0.00     0.148 A 
ATOM     91  C   UNL A   1      47.826  29.009  28.120  1.00  0.00     0.002 A 
ATOM     92  C   UNL A   1      46.896  26.932  27.297  1.00  0.00     0.091 A 
ATOM     93  F   UNL A   1      44.550  26.545  27.491  1.00  0.00    -0.205 F 
ATOM     94  C   UNL A   1      48.002  27.773  27.504  1.00  0.00     0.022 A 
BRANCH  92  95
ATOM     95  S   UNL A   1      47.199  25.302  26.615  1.00  0.00     0.127 S 
ATOM     96  O   UNL A   1      46.796  24.431  27.716  1.00  0.00    -0.237 OA
ATOM     97  O   UNL A   1      46.307  25.276  25.454  1.00  0.00    -0.237 OA
ATOM     98  O   UNL A   1      48.617  25.266  26.274  1.00  0.00    -0.744 OA
ENDBRANCH  92  95
ENDBRANCH  65  88
ENDBRANCH  39  40
ENDBRANCH  31  34
ENDBRANCH  29  30
ENDBRANCH  28  29
ENDBRANCH   1  28
TORSDOF 18
ENDMDL
MODEL 2
REMARK VINA RESULT:     -12.1      4.290      9.735
REMARK SMILES C[C@H]1CCCCN1C(=O)N1Cc2nc[nH]c2C[C@H]1C(=O)NCCCCCCNC(=O)c1ccc(-c2c3nc(c(-c4cccc(S(=O)(=O)[O-])c4F)c4ccc([nH]4)c(-c4cccc(S(=O)(=O)[O-])c4F)c4nc(c(-c5cccc(S(=O)(=O)[O-])c5F)c5ccc2[nH]5)C=C4)C=C3)cc1
REMARK SMILES IDX 25 1 24 2 23 3 22 4 21 5 19 6 20 7 18 9 10 10 11 11 12 12
REMARK SMILES IDX 17 13 13 14 16 15 14 16 15 17 8 19 9 20 7 21 1 22 2 23 3 24
REMARK SMILES IDX 4 25 6 26 5 27 26 28 27 29 28 30 29 31 30 33 31 34 32 35
REMARK SMILES IDX 93 36 33 37 92 38 34 39 35 40 36 41 86 42 37 43 91 44 85 45
REMARK SMILES IDX 87 46 38 47 90 48 84 49 83 50 39 52 71 53 51 54 70 55 52 56
REMARK SMILES IDX 55 57 69 58 88 59 53 60 54 61 68 63 89 64 56 65 40 66 41 67
REMARK SMILES IDX 49 68 42 69 44 70 50 71 43 72 45 73 46 74 47 75 48 76 72 77
REMARK SMILES IDX 73 78 81 79 74 80 76 81 82 82 75 83 77 84 78 85 79 86 80 87
REMARK SMILES IDX 57 88 58 89 66 90 59 91 61 92 67 93 60 94 62 95 63 96 64 97
REMARK SMILES IDX 65 98
REMARK H PARENT 21 8 15 18 28 32 87 51 55 62
REMARK Flexibility Score: inf
ROOT
ATOM      1  C   UNL A   1      31.459  30.048  26.165  1.00  0.00     0.002 C 
ENDROOT
BRANCH   1   2
ATOM      2  C   UNL A   1      31.620  29.451  24.755  1.00  0.00     0.002 C 
BRANCH   2   3
ATOM      3  C   UNL A   1      32.758  28.445  24.577  1.00  0.00     0.021 C 
BRANCH   3   4
ATOM      4  C   UNL A   1      32.758  27.746  23.228  1.00  0.00     0.116 C 
BRANCH   4   5
ATOM      5  N   UNL A   1      31.549  27.054  22.874  1.00  0.00    -0.354 N 
ATOM      6  C   UNL A   1      31.126  25.857  23.379  1.00  0.00     0.243 C 
ATOM      7  O   UNL A   1      29.934  25.814  23.718  1.00  0.00    -0.273 OA
ATOM      8  H   UNL A   1      30.970  27.483  22.204  1.00  0.00     0.163 HD
BRANCH   6   9
ATOM      9  C   UNL A   1      32.043  24.615  23.636  1.00  0.00     0.182 C 
ATOM     10  N   UNL A   1      33.231  24.734  24.538  1.00  0.00    -0.306 N 
ATOM     11  C   UNL A   1      33.048  24.466  26.000  1.00  0.00     0.180 C 
ATOM     12  C   UNL A   1      31.839  23.606  26.273  1.00  0.00     0.081 A 
ATOM     13  C   UNL A   1      31.186  23.337  23.851  1.00  0.00     0.091 C 
ATOM     14  N   UNL A   1      31.221  23.497  27.501  1.00  0.00    -0.240 NA
ATOM     15  C   UNL A   1      30.992  23.127  25.297  1.00  0.00     0.042 A 
ATOM     16  C   UNL A   1      30.062  22.917  27.269  1.00  0.00     0.197 A 
ATOM     17  N   UNL A   1      29.886  22.653  25.938  1.00  0.00    -0.348 N 
ATOM     18  H   UNL A   1      29.112  22.208  25.524  1.00  0.00     0.167 HD
BRANCH  10  19
ATOM     19  C   UNL A   1      34.430  24.232  24.061  1.00  0.00     0.321 C 
ATOM     20  O   UNL A   1      34.770  24.528  22.911  1.00  0.00    -0.248 OA
BRANCH  19  21
ATOM     21  N   UNL A   1      35.198  23.385  24.849  1.00  0.00    -0.322 N 
ATOM     22  C   UNL A   1      34.076  21.053  24.537  1.00  0.00     0.031 C 
ATOM     23  C   UNL A   1      35.168  21.923  25.113  1.00  0.00     0.083 C 
ATOM     24  C   UNL A   1      36.525  21.263  24.817  1.00  0.00     0.025 C 
ATOM     25  C   UNL A   1      37.629  21.925  25.628  1.00  0.00     0.004 C 
ATOM     26  C   UNL A   1      36.274  24.054  25.605  1.00  0.00     0.121 C 
ATOM     27  C   UNL A   1      37.644  23.420  25.353  1.00  0.00     0.022 C 
ENDBRANCH  19  21
ENDBRANCH  10  19
ENDBRANCH   6   9
ENDBRANCH   4   5
ENDBRANCH   3   4
ENDBRANCH   2   3
ENDBRANCH   1   2
BRANCH   1  28
ATOM     28  C   UNL A   1      31.405  31.581  26.273  1.00  0.00     0.021 C 
BRANCH  28  29
ATOM     29  C   UNL A   1      32.426  32.150  27.240  1.00  0.00     0.116 C 
BRANCH  29  30
ATOM     30  N   UNL A   1      32.218  33.587  27.478  1.00  0.00    -0.352 N 
ATOM     31  C   UNL A   1      32.885  34.422  28.361  1.00  0.00     0.251 C 
ATOM     32  H   UNL A   1      31.513  34.011  26.940  1.00  0.00     0.163 HD
ATOM     33  O   UNL A   1      32.431  35.500  28.689  1.00  0.00    -0.269 OA
BRANCH  31  34
ATOM     34  C   UNL A   1      34.189  33.963  28.863  1.00  0.00     0.039 A 
ATOM     35  C   UNL A   1      34.351  33.357  30.113  1.00  0.00     0.014 A 
ATOM     36  C   UNL A   1      35.253  34.096  27.981  1.00  0.00     0.014 A 
ATOM     37  C   UNL A   1      35.598  32.828  30.432  1.00  0.00     0.010 A 
ATOM     38  C   UNL A   1      36.375  33.357  28.188  1.00  0.00     0.010 A 
ATOM     39  C   UNL A   1      36.601  32.832  29.452  1.00  0.00    -0.014 A 
BRANCH  39  40
ATOM     40  C   UNL A   1      37.911  32.244  29.664  1.00  0.00     0.031 A 
ATOM     41  C   UNL A   1      38.033  30.841  29.189  1.00  0.00     0.074 A 
ATOM     42  C   UNL A   1      38.966  33.024  29.993  1.00  0.00     0.049 A 
ATOM     43  N   UNL A   1      38.178  29.777  29.907  1.00  0.00    -0.248 NA
ATOM     44  C   UNL A   1      37.799  30.566  27.761  1.00  0.00     0.031 C 
ATOM     45  C   UNL A   1      39.009  34.493  30.127  1.00  0.00     0.029 A 
ATOM     46  N   UNL A   1      40.275  32.689  30.100  1.00  0.00    -0.354 N 
ATOM     47  C   UNL A   1      38.327  28.735  28.995  1.00  0.00     0.074 A 
ATOM     48  C   UNL A   1      37.841  29.232  27.736  1.00  0.00     0.031 C 
ATOM     49  C   UNL A   1      40.284  34.920  30.004  1.00  0.00     0.029 A 
ATOM     50  C   UNL A   1      41.153  33.763  29.986  1.00  0.00     0.049 A 
ATOM     51  H   UNL A   1      40.579  31.764  30.246  1.00  0.00     0.167 HD
ATOM     52  C   UNL A   1      39.111  27.657  29.281  1.00  0.00     0.034 A 
ATOM     53  C   UNL A   1      42.497  33.693  29.831  1.00  0.00     0.034 A 
ATOM     54  C   UNL A   1      39.461  27.627  30.679  1.00  0.00     0.049 A 
ATOM     55  C   UNL A   1      42.907  32.340  30.275  1.00  0.00     0.074 A 
ATOM     56  C   UNL A   1      38.758  27.580  31.866  1.00  0.00     0.029 A 
ATOM     57  N   UNL A   1      40.720  28.079  31.002  1.00  0.00    -0.354 N 
ATOM     58  N   UNL A   1      42.768  31.917  31.503  1.00  0.00    -0.248 NA
ATOM     59  C   UNL A   1      43.012  31.303  29.262  1.00  0.00     0.031 C 
ATOM     60  C   UNL A   1      39.463  28.461  32.740  1.00  0.00     0.029 A 
ATOM     61  C   UNL A   1      40.597  28.927  32.069  1.00  0.00     0.049 A 
ATOM     62  H   UNL A   1      41.558  27.835  30.548  1.00  0.00     0.167 HD
ATOM     63  C   UNL A   1      42.299  30.616  31.367  1.00  0.00     0.074 A 
ATOM     64  C   UNL A   1      42.573  30.260  29.973  1.00  0.00     0.031 C 
ATOM     65  C   UNL A   1      41.464  30.064  32.297  1.00  0.00     0.034 A 
BRANCH  52  66
ATOM     66  C   UNL A   1      39.904  26.855  28.272  1.00  0.00     0.023 A 
ATOM     67  C   UNL A   1      39.828  25.446  28.371  1.00  0.00     0.012 A 
ATOM     68  C   UNL A   1      40.921  27.381  27.441  1.00  0.00     0.148 A 
ATOM     69  C   UNL A   1      40.752  24.611  27.734  1.00  0.00     0.002 A 
ATOM     70  C   UNL A   1      41.788  26.544  26.747  1.00  0.00     0.091 A 
ATOM     71  F   UNL A   1      41.156  28.694  27.416  1.00  0.00    -0.205 F 
ATOM     72  C   UNL A   1      41.731  25.159  26.917  1.00  0.00     0.022 A 
BRANCH  70  73
ATOM     73  S   UNL A   1      43.049  27.197  25.645  1.00  0.00     0.127 S 
ATOM     74  O   UNL A   1      42.240  27.957  24.698  1.00  0.00    -0.237 OA
ATOM     75  O   UNL A   1      43.856  28.004  26.562  1.00  0.00    -0.237 OA
ATOM     76  O   UNL A   1      43.740  26.030  25.113  1.00  0.00    -0.744 OA
ENDBRANCH  70  73
ENDBRANCH  52  66
BRANCH  53  77
ATOM     77  C   UNL A   1      43.397  34.583  29.061  1.00  0.00     0.023 A 
ATOM     78  C   UNL A   1      43.721  34.272  27.726  1.00  0.00     0.012 A 
ATOM     79  C   UNL A   1      43.716  35.874  29.542  1.00  0.00     0.148 A 
ATOM     80  C   UNL A   1      44.316  35.225  26.889  1.00  0.00     0.002 A 
ATOM     81  C   UNL A   1      44.312  36.816  28.708  1.00  0.00     0.091 A 
ATOM     82  F   UNL A   1      43.355  36.202  30.790  1.00  0.00    -0.205 F 
ATOM     83  C   UNL A   1      44.602  36.498  27.375  1.00  0.00     0.022 A 
BRANCH  81  84
ATOM     84  S   UNL A   1      44.686  38.491  29.252  1.00  0.00     0.127 S 
ATOM     85  O   UNL A   1      45.641  38.251  30.335  1.00  0.00    -0.237 OA
ATOM     86  O   UNL A   1      45.267  39.077  28.047  1.00  0.00    -0.237 OA
ATOM     87  O   UNL A   1      43.420  39.065  29.687  1.00  0.00    -0.744 OA
ENDBRANCH  81  84
ENDBRANCH  53  77
BRANCH  65  88
ATOM     88  C   UNL A   1      41.245  30.813  33.589  1.00  0.00     0.023 A 
ATOM     89  C   UNL A   1      42.191  30.824  34.638  1.00  0.00     0.012 A 
ATOM     90  C   UNL A   1      40.143  31.678  33.667  1.00  0.00     0.148 A 
ATOM     91  C   UNL A   1      42.028  31.665  35.744  1.00  0.00     0.002 A 
ATOM     92  C   UNL A   1      40.006  32.543  34.745  1.00  0.00     0.091 A 
ATOM     93  F   UNL A   1      39.258  31.663  32.658  1.00  0.00    -0.205 F 
ATOM     94  C   UNL A   1      40.942  32.534  35.792  1.00  0.00     0.022 A 
BRANCH  92  95
ATOM     95  S   UNL A   1      38.699  33.768  34.800  1.00  0.00     0.127 S 
ATOM     96  O   UNL A   1      39.084  34.673  33.720  1.00  0.00    -0.237 OA
ATOM     97  O   UNL A   1      37.504  32.966  34.530  1.00  0.00    -0.237 OA
ATOM     98  O   UNL A   1      38.739  34.339  36.141  1.00  0.00    -0.744 OA
ENDBRANCH  92  95
ENDBRANCH  65  88
ENDBRANCH  39  40
ENDBRANCH  31  34
ENDBRANCH  29  30
ENDBRANCH  28  29
ENDBRANCH   1  28
TORSDOF 18
ENDMDL
MODEL 3
REMARK VINA RESULT:     -12.1      3.199      7.485
REMARK SMILES C[C@H]1CCCCN1C(=O)N1Cc2nc[nH]c2C[C@H]1C(=O)NCCCCCCNC(=O)c1ccc(-c2c3nc(c(-c4cccc(S(=O)(=O)[O-])c4F)c4ccc([nH]4)c(-c4cccc(S(=O)(=O)[O-])c4F)c4nc(c(-c5cccc(S(=O)(=O)[O-])c5F)c5ccc2[nH]5)C=C4)C=C3)cc1
REMARK SMILES IDX 25 1 24 2 23 3 22 4 21 5 19 6 20 7 18 9 10 10 11 11 12 12
REMARK SMILES IDX 17 13 13 14 16 15 14 16 15 17 8 19 9 20 7 21 1 22 2 23 3 24
REMARK SMILES IDX 4 25 6 26 5 27 26 28 27 29 28 30 29 31 30 33 31 34 32 35
REMARK SMILES IDX 93 36 33 37 92 38 34 39 35 40 36 41 86 42 37 43 91 44 85 45
REMARK SMILES IDX 87 46 38 47 90 48 84 49 83 50 39 52 71 53 51 54 70 55 52 56
REMARK SMILES IDX 55 57 69 58 88 59 53 60 54 61 68 63 89 64 56 65 40 66 41 67
REMARK SMILES IDX 49 68 42 69 44 70 50 71 43 72 45 73 46 74 47 75 48 76 72 77
REMARK SMILES IDX 73 78 81 79 74 80 76 81 82 82 75 83 77 84 78 85 79 86 80 87
REMARK SMILES IDX 57 88 58 89 66 90 59 91 61 92 67 93 60 94 62 95 63 96 64 97
REMARK SMILES IDX 65 98
REMARK H PARENT 21 8 15 18 28 32 87 51 55 62
REMARK Flexibility Score: inf
ROOT
ATOM      1  C   UNL A   1      40.386  22.185  27.454  1.00  0.00     0.002 C 
ENDROOT
BRANCH   1   2
ATOM      2  C   UNL A   1      39.782  23.174  26.439  1.00  0.00     0.002 C 
BRANCH   2   3
ATOM      3  C   UNL A   1      38.542  23.938  26.903  1.00  0.00     0.021 C 
BRANCH   3   4
ATOM      4  C   UNL A   1      37.265  23.534  26.186  1.00  0.00     0.116 C 
BRANCH   4   5
ATOM      5  N   UNL A   1      37.048  22.122  26.028  1.00  0.00    -0.354 N 
ATOM      6  C   UNL A   1      35.950  21.529  25.473  1.00  0.00     0.243 C 
ATOM      7  O   UNL A   1      36.188  20.626  24.656  1.00  0.00    -0.273 OA
ATOM      8  H   UNL A   1      37.759  21.523  26.353  1.00  0.00     0.163 HD
BRANCH   6   9
ATOM      9  C   UNL A   1      34.469  21.970  25.720  1.00  0.00     0.182 C 
ATOM     10  N   UNL A   1      33.585  22.311  24.562  1.00  0.00    -0.306 N 
ATOM     11  C   UNL A   1      32.788  21.216  23.924  1.00  0.00     0.180 C 
ATOM     12  C   UNL A   1      32.577  20.050  24.857  1.00  0.00     0.081 A 
ATOM     13  C   UNL A   1      33.806  21.077  26.805  1.00  0.00     0.091 C 
ATOM     14  N   UNL A   1      32.210  18.784  24.451  1.00  0.00    -0.240 NA
ATOM     15  C   UNL A   1      33.065  19.989  26.144  1.00  0.00     0.042 A 
ATOM     16  C   UNL A   1      32.421  18.000  25.488  1.00  0.00     0.197 A 
ATOM     17  N   UNL A   1      32.925  18.696  26.553  1.00  0.00    -0.348 N 
ATOM     18  H   UNL A   1      33.143  18.333  27.442  1.00  0.00     0.167 HD
BRANCH  10  19
ATOM     19  C   UNL A   1      32.871  23.495  24.648  1.00  0.00     0.321 C 
ATOM     20  O   UNL A   1      31.701  23.443  25.040  1.00  0.00    -0.248 OA
BRANCH  19  21
ATOM     21  N   UNL A   1      33.453  24.694  24.258  1.00  0.00    -0.322 N 
ATOM     22  C   UNL A   1      32.935  24.841  21.709  1.00  0.00     0.031 C 
ATOM     23  C   UNL A   1      33.514  25.434  22.971  1.00  0.00     0.083 C 
ATOM     24  C   UNL A   1      32.995  26.873  23.117  1.00  0.00     0.025 C 
ATOM     25  C   UNL A   1      33.773  27.616  24.192  1.00  0.00     0.004 C 
ATOM     26  C   UNL A   1      34.183  25.401  25.329  1.00  0.00     0.121 C 
ATOM     27  C   UNL A   1      33.709  26.846  25.501  1.00  0.00     0.022 C 
ENDBRANCH  19  21
ENDBRANCH  10  19
ENDBRANCH   6   9
ENDBRANCH   4   5
ENDBRANCH   3   4
ENDBRANCH   2   3
ENDBRANCH   1   2
BRANCH   1  28
ATOM     28  C   UNL A   1      40.803  20.804  26.921  1.00  0.00     0.021 C 
BRANCH  28  29
ATOM     29  C   UNL A   1      42.146  20.338  27.450  1.00  0.00     0.116 C 
BRANCH  29  30
ATOM     30  N   UNL A   1      43.093  20.039  26.365  1.00  0.00    -0.352 N 
ATOM     31  C   UNL A   1      43.726  20.921  25.502  1.00  0.00     0.251 C 
ATOM     32  H   UNL A   1      43.306  19.088  26.234  1.00  0.00     0.163 HD
ATOM     33  O   UNL A   1      44.238  20.546  24.467  1.00  0.00    -0.269 OA
BRANCH  31  34
ATOM     34  C   UNL A   1      43.781  22.333  25.908  1.00  0.00     0.039 A 
ATOM     35  C   UNL A   1      43.101  23.347  25.226  1.00  0.00     0.014 A 
ATOM     36  C   UNL A   1      44.493  22.596  27.071  1.00  0.00     0.014 A 
ATOM     37  C   UNL A   1      43.101  24.625  25.776  1.00  0.00     0.010 A 
ATOM     38  C   UNL A   1      44.271  23.765  27.728  1.00  0.00     0.010 A 
ATOM     39  C   UNL A   1      43.689  24.816  27.035  1.00  0.00    -0.014 A 
BRANCH  39  40
ATOM     40  C   UNL A   1      43.679  26.094  27.723  1.00  0.00     0.031 A 
ATOM     41  C   UNL A   1      44.799  26.997  27.348  1.00  0.00     0.074 A 
ATOM     42  C   UNL A   1      42.582  26.497  28.404  1.00  0.00     0.049 A 
ATOM     43  N   UNL A   1      45.793  27.365  28.085  1.00  0.00    -0.248 NA
ATOM     44  C   UNL A   1      44.922  27.405  25.938  1.00  0.00     0.031 C 
ATOM     45  C   UNL A   1      41.279  25.814  28.522  1.00  0.00     0.029 A 
ATOM     46  N   UNL A   1      42.331  27.693  28.990  1.00  0.00    -0.354 N 
ATOM     47  C   UNL A   1      46.513  28.269  27.307  1.00  0.00     0.074 A 
ATOM     48  C   UNL A   1      46.085  28.060  25.951  1.00  0.00     0.031 C 
ATOM     49  C   UNL A   1      40.329  26.709  28.869  1.00  0.00     0.029 A 
ATOM     50  C   UNL A   1      40.980  27.962  29.190  1.00  0.00     0.049 A 
ATOM     51  H   UNL A   1      43.045  28.318  29.252  1.00  0.00     0.167 HD
ATOM     52  C   UNL A   1      47.177  29.314  27.879  1.00  0.00     0.034 A 
ATOM     53  C   UNL A   1      40.438  29.153  29.540  1.00  0.00     0.034 A 
ATOM     54  C   UNL A   1      47.270  29.150  29.308  1.00  0.00     0.049 A 
ATOM     55  C   UNL A   1      41.532  29.963  30.125  1.00  0.00     0.074 A 
ATOM     56  C   UNL A   1      47.800  28.197  30.154  1.00  0.00     0.029 A 
ATOM     57  N   UNL A   1      46.376  29.873  30.064  1.00  0.00    -0.354 N 
ATOM     58  N   UNL A   1      42.159  29.634  31.222  1.00  0.00    -0.248 NA
ATOM     59  C   UNL A   1      42.251  30.862  29.238  1.00  0.00     0.031 C 
ATOM     60  C   UNL A   1      46.849  28.083  31.212  1.00  0.00     0.029 A 
ATOM     61  C   UNL A   1      45.841  29.027  30.997  1.00  0.00     0.049 A 
ATOM     62  H   UNL A   1      46.160  30.826  29.952  1.00  0.00     0.167 HD
ATOM     63  C   UNL A   1      43.497  29.889  30.943  1.00  0.00     0.074 A 
ATOM     64  C   UNL A   1      43.478  30.742  29.753  1.00  0.00     0.031 C 
ATOM     65  C   UNL A   1      44.492  29.144  31.511  1.00  0.00     0.034 A 
BRANCH  52  66
ATOM     66  C   UNL A   1      47.390  30.671  27.244  1.00  0.00     0.023 A 
ATOM     67  C   UNL A   1      48.681  31.237  27.361  1.00  0.00     0.012 A 
ATOM     68  C   UNL A   1      46.356  31.530  26.806  1.00  0.00     0.148 A 
ATOM     69  C   UNL A   1      48.915  32.596  27.122  1.00  0.00     0.002 A 
ATOM     70  C   UNL A   1      46.609  32.862  26.494  1.00  0.00     0.091 A 
ATOM     71  F   UNL A   1      45.087  31.115  26.817  1.00  0.00    -0.205 F 
ATOM     72  C   UNL A   1      47.879  33.409  26.683  1.00  0.00     0.022 A 
BRANCH  70  73
ATOM     73  S   UNL A   1      45.315  33.950  25.884  1.00  0.00     0.127 S 
ATOM     74  O   UNL A   1      44.744  33.146  24.808  1.00  0.00    -0.237 OA
ATOM     75  O   UNL A   1      44.467  34.096  27.068  1.00  0.00    -0.237 OA
ATOM     76  O   UNL A   1      45.995  35.175  25.484  1.00  0.00    -0.744 OA
ENDBRANCH  70  73
ENDBRANCH  52  66
BRANCH  53  77
ATOM     77  C   UNL A   1      39.139  29.743  29.141  1.00  0.00     0.023 A 
ATOM     78  C   UNL A   1      38.477  29.273  27.990  1.00  0.00     0.012 A 
ATOM     79  C   UNL A   1      38.419  30.569  30.034  1.00  0.00     0.148 A 
ATOM     80  C   UNL A   1      37.133  29.591  27.752  1.00  0.00     0.002 A 
ATOM     81  C   UNL A   1      37.086  30.887  29.791  1.00  0.00     0.091 A 
ATOM     82  F   UNL A   1      39.019  30.969  31.165  1.00  0.00    -0.205 F 
ATOM     83  C   UNL A   1      36.436  30.389  28.656  1.00  0.00     0.022 A 
BRANCH  81  84
ATOM     84  S   UNL A   1      36.107  31.887  30.924  1.00  0.00     0.127 S 
ATOM     85  O   UNL A   1      36.949  33.074  31.086  1.00  0.00    -0.237 OA
ATOM     86  O   UNL A   1      34.886  32.107  30.154  1.00  0.00    -0.237 OA
ATOM     87  O   UNL A   1      35.956  31.091  32.135  1.00  0.00    -0.744 OA
ENDBRANCH  81  84
ENDBRANCH  53  77
BRANCH  65  88
ATOM     88  C   UNL A   1      44.122  28.190  32.620  1.00  0.00     0.023 A 
ATOM     89  C   UNL A   1      44.048  26.792  32.434  1.00  0.00     0.012 A 
ATOM     90  C   UNL A   1      44.031  28.702  33.923  1.00  0.00     0.148 A 
ATOM     91  C   UNL A   1      43.870  25.931  33.521  1.00  0.00     0.002 A 
ATOM     92  C   UNL A   1      43.897  27.842  35.005  1.00  0.00     0.091 A 
ATOM     93  F   UNL A   1      44.112  30.032  34.084  1.00  0.00    -0.205 F 
ATOM     94  C   UNL A   1      43.807  26.454  34.810  1.00  0.00     0.022 A 
BRANCH  92  95
ATOM     95  S   UNL A   1      43.937  28.450  36.692  1.00  0.00     0.127 S 
ATOM     96  O   UNL A   1      45.201  29.181  36.723  1.00  0.00    -0.237 OA
ATOM     97  O   UNL A   1      42.740  29.292  36.751  1.00  0.00    -0.237 OA
ATOM     98  O   UNL A   1      43.874  27.269  37.546  1.00  0.00    -0.744 OA
ENDBRANCH  92  95
ENDBRANCH  65  88
ENDBRANCH  39  40
ENDBRANCH  31  34
ENDBRANCH  29  30
ENDBRANCH  28  29
ENDBRANCH   1  28
TORSDOF 18
ENDMDL
