MODEL 1
REMARK VINA RESULT:     -12.0      0.000      0.000
REMARK SMILES COc1ccc(-c2cnc(N)c(C(=O)NCCCCCCNC(=O)c3ccc(-c4c5nc(c(-c6cccc(S(=O)(=O)[O-])c6F)c6ccc([nH]6)c(-c6cccc(S(=O)(=O)[O-])c6F)c6nc(c(-c7cccc(S(=O)(=O)[O-])c7F)c7ccc4[nH]7)C=C6)C=C5)cc3)c2)c(C)c1
REMARK SMILES IDX 19 1 18 2 17 3 16 4 15 5 13 6 14 7 12 9 7 10 8 11 88 12 9 13
REMARK SMILES IDX 10 14 6 15 3 16 4 17 91 18 5 19 89 20 90 21 2 22 1 23 11 24
REMARK SMILES IDX 20 27 21 28 22 29 23 30 24 32 25 33 26 34 87 35 27 36 86 37
REMARK SMILES IDX 28 38 29 39 30 40 80 41 31 42 85 43 79 44 81 45 32 46 84 47
REMARK SMILES IDX 78 48 77 49 33 51 65 52 45 53 64 54 46 55 49 56 63 57 82 58
REMARK SMILES IDX 47 59 48 60 62 62 83 63 50 64 34 65 35 66 43 67 36 68 38 69
REMARK SMILES IDX 44 70 37 71 39 72 40 73 41 74 42 75 66 76 67 77 75 78 68 79
REMARK SMILES IDX 70 80 76 81 69 82 71 83 72 84 73 85 74 86 51 87 52 88 60 89
REMARK SMILES IDX 53 90 55 91 61 92 54 93 56 94 57 95 58 96 59 97
REMARK H PARENT 15 8 11 25 11 26 22 31 81 50 49 61
REMARK Flexibility Score: inf
ROOT
ATOM      1  C   UNL A   1      36.993  21.689  24.397  1.00  0.00     0.002 C 
ENDROOT
BRANCH   1   2
ATOM      2  C   UNL A   1      35.561  21.550  24.932  1.00  0.00     0.002 C 
BRANCH   2   3
ATOM      3  C   UNL A   1      34.485  22.553  24.500  1.00  0.00     0.021 C 
BRANCH   3   4
ATOM      4  C   UNL A   1      33.620  22.228  23.288  1.00  0.00     0.116 C 
BRANCH   4   5
ATOM      5  N   UNL A   1      32.211  22.554  23.389  1.00  0.00    -0.352 N 
ATOM      6  C   UNL A   1      31.575  23.749  23.116  1.00  0.00     0.255 C 
ATOM      7  O   UNL A   1      30.343  23.774  23.168  1.00  0.00    -0.269 OA
ATOM      8  H   UNL A   1      31.627  21.823  23.694  1.00  0.00     0.163 HD
BRANCH   6   9
ATOM      9  C   UNL A   1      32.296  25.027  22.844  1.00  0.00     0.082 A 
ATOM     10  C   UNL A   1      33.042  27.167  23.767  1.00  0.00     0.001 A 
ATOM     11  C   UNL A   1      33.696  27.356  22.554  1.00  0.00     0.122 A 
ATOM     12  C   UNL A   1      32.374  25.945  23.913  1.00  0.00     0.028 A 
ATOM     13  N   UNL A   1      33.577  26.542  21.485  1.00  0.00    -0.238 NA
ATOM     14  C   UNL A   1      32.810  25.442  21.615  1.00  0.00     0.136 A 
BRANCH  10  15
ATOM     15  C   UNL A   1      32.939  28.277  24.733  1.00  0.00    -0.014 A 
ATOM     16  C   UNL A   1      33.015  30.361  26.653  1.00  0.00     0.119 A 
ATOM     17  C   UNL A   1      34.014  29.400  26.643  1.00  0.00     0.047 A 
ATOM     18  C   UNL A   1      31.961  30.264  25.744  1.00  0.00     0.050 A 
ATOM     19  C   UNL A   1      33.978  28.384  25.689  1.00  0.00     0.013 A 
ATOM     20  C   UNL A   1      31.906  29.233  24.777  1.00  0.00    -0.040 A 
ATOM     21  C   UNL A   1      30.733  29.241  23.835  1.00  0.00     0.045 C 
BRANCH  16  22
ATOM     22  O   UNL A   1      32.965  31.398  27.544  1.00  0.00    -0.497 OA
ATOM     23  C   UNL A   1      32.031  32.415  27.189  1.00  0.00     0.278 C 
ENDBRANCH  16  22
ENDBRANCH  10  15
BRANCH  14  24
ATOM     24  N   UNL A   1      32.555  24.841  20.403  1.00  0.00    -0.383 N 
ATOM     25  H   UNL A   1      31.735  25.066  19.905  1.00  0.00     0.158 HD
ATOM     26  H   UNL A   1      33.190  24.186  20.034  1.00  0.00     0.158 HD
ENDBRANCH  14  24
ENDBRANCH   6   9
ENDBRANCH   4   5
ENDBRANCH   3   4
ENDBRANCH   2   3
ENDBRANCH   1   2
BRANCH   1  27
ATOM     27  C   UNL A   1      38.157  21.574  25.377  1.00  0.00     0.021 C 
BRANCH  27  28
ATOM     28  C   UNL A   1      38.531  22.846  26.126  1.00  0.00     0.116 C 
BRANCH  28  29
ATOM     29  N   UNL A   1      39.775  22.740  26.881  1.00  0.00    -0.352 N 
ATOM     30  C   UNL A   1      40.513  23.748  27.481  1.00  0.00     0.251 C 
ATOM     31  H   UNL A   1      40.138  21.830  26.978  1.00  0.00     0.163 HD
ATOM     32  O   UNL A   1      41.603  23.495  27.985  1.00  0.00    -0.269 OA
BRANCH  30  33
ATOM     33  C   UNL A   1      39.912  25.097  27.589  1.00  0.00     0.039 A 
ATOM     34  C   UNL A   1      40.406  26.106  26.756  1.00  0.00     0.014 A 
ATOM     35  C   UNL A   1      39.092  25.409  28.669  1.00  0.00     0.014 A 
ATOM     36  C   UNL A   1      40.311  27.433  27.165  1.00  0.00     0.010 A 
ATOM     37  C   UNL A   1      39.077  26.708  29.127  1.00  0.00     0.010 A 
ATOM     38  C   UNL A   1      39.752  27.702  28.411  1.00  0.00    -0.014 A 
BRANCH  38  39
ATOM     39  C   UNL A   1      39.828  28.988  29.077  1.00  0.00     0.031 A 
ATOM     40  C   UNL A   1      38.814  30.014  28.800  1.00  0.00     0.074 A 
ATOM     41  C   UNL A   1      40.746  29.169  30.051  1.00  0.00     0.049 A 
ATOM     42  N   UNL A   1      38.965  31.261  29.075  1.00  0.00    -0.248 NA
ATOM     43  C   UNL A   1      37.546  29.701  28.162  1.00  0.00     0.031 C 
ATOM     44  C   UNL A   1      40.764  30.206  31.075  1.00  0.00     0.029 A 
ATOM     45  N   UNL A   1      41.989  28.544  30.176  1.00  0.00    -0.354 N 
ATOM     46  C   UNL A   1      37.739  31.867  28.915  1.00  0.00     0.074 A 
ATOM     47  C   UNL A   1      36.914  30.874  28.265  1.00  0.00     0.031 C 
ATOM     48  C   UNL A   1      42.020  30.341  31.528  1.00  0.00     0.029 A 
ATOM     49  C   UNL A   1      42.868  29.521  30.681  1.00  0.00     0.049 A 
ATOM     50  H   UNL A   1      42.207  27.610  29.955  1.00  0.00     0.167 HD
ATOM     51  C   UNL A   1      37.531  33.083  29.495  1.00  0.00     0.034 A 
ATOM     52  C   UNL A   1      43.981  29.947  30.012  1.00  0.00     0.034 A 
ATOM     53  C   UNL A   1      38.757  33.568  30.151  1.00  0.00     0.049 A 
ATOM     54  C   UNL A   1      43.963  31.441  29.710  1.00  0.00     0.074 A 
ATOM     55  C   UNL A   1      39.212  33.573  31.461  1.00  0.00     0.029 A 
ATOM     56  N   UNL A   1      39.855  33.889  29.368  1.00  0.00    -0.354 N 
ATOM     57  N   UNL A   1      43.033  32.274  30.092  1.00  0.00    -0.248 NA
ATOM     58  C   UNL A   1      44.953  32.085  28.847  1.00  0.00     0.031 C 
ATOM     59  C   UNL A   1      40.601  33.894  31.452  1.00  0.00     0.029 A 
ATOM     60  C   UNL A   1      40.985  34.111  30.141  1.00  0.00     0.049 A 
ATOM     61  H   UNL A   1      39.834  33.951  28.386  1.00  0.00     0.167 HD
ATOM     62  C   UNL A   1      43.175  33.467  29.422  1.00  0.00     0.074 A 
ATOM     63  C   UNL A   1      44.413  33.302  28.678  1.00  0.00     0.031 C 
ATOM     64  C   UNL A   1      42.229  34.463  29.465  1.00  0.00     0.034 A 
BRANCH  51  65
ATOM     65  C   UNL A   1      36.165  33.707  29.732  1.00  0.00     0.023 A 
ATOM     66  C   UNL A   1      35.479  34.204  28.600  1.00  0.00     0.012 A 
ATOM     67  C   UNL A   1      35.521  33.903  30.976  1.00  0.00     0.148 A 
ATOM     68  C   UNL A   1      34.297  34.946  28.698  1.00  0.00     0.002 A 
ATOM     69  C   UNL A   1      34.380  34.707  31.084  1.00  0.00     0.091 A 
ATOM     70  F   UNL A   1      35.947  33.243  32.056  1.00  0.00    -0.205 F 
ATOM     71  C   UNL A   1      33.769  35.235  29.945  1.00  0.00     0.022 A 
BRANCH  69  72
ATOM     72  S   UNL A   1      33.681  35.193  32.673  1.00  0.00     0.127 S 
ATOM     73  O   UNL A   1      32.575  36.065  32.269  1.00  0.00    -0.237 OA
ATOM     74  O   UNL A   1      33.265  33.914  33.242  1.00  0.00    -0.237 OA
ATOM     75  O   UNL A   1      34.746  35.884  33.390  1.00  0.00    -0.744 OA
ENDBRANCH  69  72
ENDBRANCH  51  65
BRANCH  52  76
ATOM     76  C   UNL A   1      44.563  28.893  29.125  1.00  0.00     0.023 A 
ATOM     77  C   UNL A   1      44.070  28.826  27.798  1.00  0.00     0.012 A 
ATOM     78  C   UNL A   1      45.802  28.298  29.413  1.00  0.00     0.148 A 
ATOM     79  C   UNL A   1      44.869  28.341  26.761  1.00  0.00     0.002 A 
ATOM     80  C   UNL A   1      46.585  27.798  28.375  1.00  0.00     0.091 A 
ATOM     81  F   UNL A   1      46.244  28.301  30.677  1.00  0.00    -0.205 F 
ATOM     82  C   UNL A   1      46.145  27.866  27.045  1.00  0.00     0.022 A 
BRANCH  80  83
ATOM     83  S   UNL A   1      48.236  27.169  28.701  1.00  0.00     0.127 S 
ATOM     84  O   UNL A   1      48.925  28.378  29.142  1.00  0.00    -0.237 OA
ATOM     85  O   UNL A   1      48.000  26.180  29.751  1.00  0.00    -0.237 OA
ATOM     86  O   UNL A   1      48.664  26.601  27.431  1.00  0.00    -0.744 OA
ENDBRANCH  80  83
ENDBRANCH  52  76
BRANCH  64  87
ATOM     87  C   UNL A   1      42.357  35.832  28.798  1.00  0.00     0.023 A 
ATOM     88  C   UNL A   1      41.905  36.065  27.486  1.00  0.00     0.012 A 
ATOM     89  C   UNL A   1      43.025  36.923  29.424  1.00  0.00     0.148 A 
ATOM     90  C   UNL A   1      41.962  37.330  26.888  1.00  0.00     0.002 A 
ATOM     91  C   UNL A   1      43.107  38.176  28.821  1.00  0.00     0.091 A 
ATOM     92  F   UNL A   1      43.643  36.749  30.595  1.00  0.00    -0.205 F 
ATOM     93  C   UNL A   1      42.543  38.393  27.564  1.00  0.00     0.022 A 
BRANCH  91  94
ATOM     94  S   UNL A   1      43.958  39.564  29.587  1.00  0.00     0.127 S 
ATOM     95  O   UNL A   1      45.345  39.100  29.573  1.00  0.00    -0.237 OA
ATOM     96  O   UNL A   1      43.668  40.649  28.648  1.00  0.00    -0.237 OA
ATOM     97  O   UNL A   1      43.370  39.729  30.907  1.00  0.00    -0.744 OA
ENDBRANCH  91  94
ENDBRANCH  64  87
ENDBRANCH  38  39
ENDBRANCH  30  33
ENDBRANCH  28  29
ENDBRANCH  27  28
ENDBRANCH   1  27
TORSDOF 19
ENDMDL
MODEL 2
REMARK VINA RESULT:     -11.9      2.396      3.222
REMARK SMILES COc1ccc(-c2cnc(N)c(C(=O)NCCCCCCNC(=O)c3ccc(-c4c5nc(c(-c6cccc(S(=O)(=O)[O-])c6F)c6ccc([nH]6)c(-c6cccc(S(=O)(=O)[O-])c6F)c6nc(c(-c7cccc(S(=O)(=O)[O-])c7F)c7ccc4[nH]7)C=C6)C=C5)cc3)c2)c(C)c1
REMARK SMILES IDX 19 1 18 2 17 3 16 4 15 5 13 6 14 7 12 9 7 10 8 11 88 12 9 13
REMARK SMILES IDX 10 14 6 15 3 16 4 17 91 18 5 19 89 20 90 21 2 22 1 23 11 24
REMARK SMILES IDX 20 27 21 28 22 29 23 30 24 32 25 33 26 34 87 35 27 36 86 37
REMARK SMILES IDX 28 38 29 39 30 40 80 41 31 42 85 43 79 44 81 45 32 46 84 47
REMARK SMILES IDX 78 48 77 49 33 51 65 52 45 53 64 54 46 55 49 56 63 57 82 58
REMARK SMILES IDX 47 59 48 60 62 62 83 63 50 64 34 65 35 66 43 67 36 68 38 69
REMARK SMILES IDX 44 70 37 71 39 72 40 73 41 74 42 75 66 76 67 77 75 78 68 79
REMARK SMILES IDX 70 80 76 81 69 82 71 83 72 84 73 85 74 86 51 87 52 88 60 89
REMARK SMILES IDX 53 90 55 91 61 92 54 93 56 94 57 95 58 96 59 97
REMARK H PARENT 15 8 11 25 11 26 22 31 81 50 49 61
REMARK Flexibility Score: inf
ROOT
ATOM      1  C   UNL A   1      36.004  21.156  25.601  1.00  0.00     0.002 C 
ENDROOT
BRANCH   1   2
ATOM      2  C   UNL A   1      35.064  20.351  24.694  1.00  0.00     0.002 C 
BRANCH   2   3
ATOM      3  C   UNL A   1      33.559  20.330  24.982  1.00  0.00     0.021 C 
BRANCH   3   4
ATOM      4  C   UNL A   1      32.665  21.361  24.302  1.00  0.00     0.116 C 
BRANCH   4   5
ATOM      5  N   UNL A   1      33.304  22.250  23.353  1.00  0.00    -0.352 N 
ATOM      6  C   UNL A   1      33.363  23.630  23.360  1.00  0.00     0.255 C 
ATOM      7  O   UNL A   1      34.058  24.183  22.504  1.00  0.00    -0.269 OA
ATOM      8  H   UNL A   1      33.760  21.810  22.600  1.00  0.00     0.163 HD
BRANCH   6   9
ATOM      9  C   UNL A   1      32.569  24.486  24.288  1.00  0.00     0.082 A 
ATOM     10  C   UNL A   1      30.848  26.216  24.476  1.00  0.00     0.001 A 
ATOM     11  C   UNL A   1      30.945  26.031  25.851  1.00  0.00     0.122 A 
ATOM     12  C   UNL A   1      31.652  25.378  23.693  1.00  0.00     0.028 A 
ATOM     13  N   UNL A   1      31.863  25.251  26.457  1.00  0.00    -0.238 NA
ATOM     14  C   UNL A   1      32.717  24.563  25.674  1.00  0.00     0.136 A 
BRANCH  10  15
ATOM     15  C   UNL A   1      30.072  27.347  23.934  1.00  0.00    -0.014 A 
ATOM     16  C   UNL A   1      28.346  29.372  22.957  1.00  0.00     0.119 A 
ATOM     17  C   UNL A   1      27.853  28.094  23.171  1.00  0.00     0.047 A 
ATOM     18  C   UNL A   1      29.698  29.632  23.184  1.00  0.00     0.050 A 
ATOM     19  C   UNL A   1      28.704  27.105  23.664  1.00  0.00     0.013 A 
ATOM     20  C   UNL A   1      30.575  28.636  23.673  1.00  0.00    -0.040 A 
ATOM     21  C   UNL A   1      32.007  29.038  23.901  1.00  0.00     0.045 C 
BRANCH  16  22
ATOM     22  O   UNL A   1      27.591  30.409  22.481  1.00  0.00    -0.497 OA
ATOM     23  C   UNL A   1      28.347  31.393  21.778  1.00  0.00     0.278 C 
ENDBRANCH  16  22
ENDBRANCH  10  15
BRANCH  14  24
ATOM     24  N   UNL A   1      33.759  24.020  26.393  1.00  0.00    -0.383 N 
ATOM     25  H   UNL A   1      34.029  23.086  26.239  1.00  0.00     0.158 HD
ATOM     26  H   UNL A   1      34.233  24.566  27.062  1.00  0.00     0.158 HD
ENDBRANCH  14  24
ENDBRANCH   6   9
ENDBRANCH   4   5
ENDBRANCH   3   4
ENDBRANCH   2   3
ENDBRANCH   1   2
BRANCH   1  27
ATOM     27  C   UNL A   1      37.471  21.296  25.200  1.00  0.00     0.021 C 
BRANCH  27  28
ATOM     28  C   UNL A   1      38.172  22.569  25.653  1.00  0.00     0.116 C 
BRANCH  28  29
ATOM     29  N   UNL A   1      39.572  22.373  26.015  1.00  0.00    -0.352 N 
ATOM     30  C   UNL A   1      40.488  23.307  26.470  1.00  0.00     0.251 C 
ATOM     31  H   UNL A   1      39.911  21.453  25.922  1.00  0.00     0.163 HD
ATOM     32  O   UNL A   1      41.664  22.992  26.622  1.00  0.00    -0.269 OA
BRANCH  30  33
ATOM     33  C   UNL A   1      39.996  24.646  26.866  1.00  0.00     0.039 A 
ATOM     34  C   UNL A   1      40.588  25.766  26.272  1.00  0.00     0.014 A 
ATOM     35  C   UNL A   1      39.181  24.786  27.986  1.00  0.00     0.014 A 
ATOM     36  C   UNL A   1      40.591  26.977  26.958  1.00  0.00     0.010 A 
ATOM     37  C   UNL A   1      39.261  25.953  28.713  1.00  0.00     0.010 A 
ATOM     38  C   UNL A   1      40.029  27.018  28.231  1.00  0.00    -0.014 A 
BRANCH  38  39
ATOM     39  C   UNL A   1      40.196  28.120  29.160  1.00  0.00     0.031 A 
ATOM     40  C   UNL A   1      39.303  29.283  29.077  1.00  0.00     0.074 A 
ATOM     41  C   UNL A   1      41.074  27.993  30.178  1.00  0.00     0.049 A 
ATOM     42  N   UNL A   1      39.560  30.421  29.618  1.00  0.00    -0.248 NA
ATOM     43  C   UNL A   1      38.045  29.248  28.348  1.00  0.00     0.031 C 
ATOM     44  C   UNL A   1      41.138  28.784  31.400  1.00  0.00     0.029 A 
ATOM     45  N   UNL A   1      42.242  27.227  30.204  1.00  0.00    -0.354 N 
ATOM     46  C   UNL A   1      38.409  31.174  29.554  1.00  0.00     0.074 A 
ATOM     47  C   UNL A   1      37.527  30.434  28.681  1.00  0.00     0.031 C 
ATOM     48  C   UNL A   1      42.376  28.686  31.910  1.00  0.00     0.029 A 
ATOM     49  C   UNL A   1      43.184  27.976  30.934  1.00  0.00     0.049 A 
ATOM     50  H   UNL A   1      42.379  26.342  29.794  1.00  0.00     0.167 HD
ATOM     51  C   UNL A   1      38.290  32.257  30.374  1.00  0.00     0.034 A 
ATOM     52  C   UNL A   1      44.366  28.412  30.407  1.00  0.00     0.034 A 
ATOM     53  C   UNL A   1      39.521  32.459  31.157  1.00  0.00     0.049 A 
ATOM     54  C   UNL A   1      44.511  29.930  30.432  1.00  0.00     0.074 A 
ATOM     55  C   UNL A   1      39.905  32.140  32.451  1.00  0.00     0.029 A 
ATOM     56  N   UNL A   1      40.685  32.819  30.496  1.00  0.00    -0.354 N 
ATOM     57  N   UNL A   1      43.648  30.759  30.954  1.00  0.00    -0.248 NA
ATOM     58  C   UNL A   1      45.603  30.631  29.757  1.00  0.00     0.031 C 
ATOM     59  C   UNL A   1      41.317  32.306  32.554  1.00  0.00     0.029 A 
ATOM     60  C   UNL A   1      41.789  32.752  31.333  1.00  0.00     0.049 A 
ATOM     61  H   UNL A   1      40.722  33.088  29.549  1.00  0.00     0.167 HD
ATOM     62  C   UNL A   1      43.940  32.043  30.560  1.00  0.00     0.074 A 
ATOM     63  C   UNL A   1      45.194  31.908  29.837  1.00  0.00     0.031 C 
ATOM     64  C   UNL A   1      43.095  33.103  30.786  1.00  0.00     0.034 A 
BRANCH  51  65
ATOM     65  C   UNL A   1      36.980  32.959  30.697  1.00  0.00     0.023 A 
ATOM     66  C   UNL A   1      36.506  32.857  32.025  1.00  0.00     0.012 A 
ATOM     67  C   UNL A   1      36.143  33.660  29.798  1.00  0.00     0.148 A 
ATOM     68  C   UNL A   1      35.241  33.311  32.413  1.00  0.00     0.002 A 
ATOM     69  C   UNL A   1      34.850  34.049  30.163  1.00  0.00     0.091 A 
ATOM     70  F   UNL A   1      36.618  34.041  28.609  1.00  0.00    -0.205 F 
ATOM     71  C   UNL A   1      34.394  33.871  31.471  1.00  0.00     0.022 A 
BRANCH  69  72
ATOM     72  S   UNL A   1      33.663  34.710  28.979  1.00  0.00     0.127 S 
ATOM     73  O   UNL A   1      33.446  33.566  28.089  1.00  0.00    -0.237 OA
ATOM     74  O   UNL A   1      32.520  35.042  29.825  1.00  0.00    -0.237 OA
ATOM     75  O   UNL A   1      34.320  35.842  28.335  1.00  0.00    -0.744 OA
ENDBRANCH  69  72
ENDBRANCH  51  65
BRANCH  52  76
ATOM     76  C   UNL A   1      44.889  27.513  29.332  1.00  0.00     0.023 A 
ATOM     77  C   UNL A   1      45.206  26.183  29.705  1.00  0.00     0.012 A 
ATOM     78  C   UNL A   1      44.677  27.798  27.973  1.00  0.00     0.148 A 
ATOM     79  C   UNL A   1      45.136  25.143  28.776  1.00  0.00     0.002 A 
ATOM     80  C   UNL A   1      44.628  26.757  27.050  1.00  0.00     0.091 A 
ATOM     81  F   UNL A   1      44.440  29.064  27.606  1.00  0.00    -0.205 F 
ATOM     82  C   UNL A   1      44.805  25.427  27.456  1.00  0.00     0.022 A 
BRANCH  80  83
ATOM     83  S   UNL A   1      44.210  27.082  25.333  1.00  0.00     0.127 S 
ATOM     84  O   UNL A   1      43.746  25.769  24.894  1.00  0.00    -0.237 OA
ATOM     85  O   UNL A   1      43.165  28.097  25.445  1.00  0.00    -0.237 OA
ATOM     86  O   UNL A   1      45.450  27.565  24.743  1.00  0.00    -0.744 OA
ENDBRANCH  80  83
ENDBRANCH  52  76
BRANCH  64  87
ATOM     87  C   UNL A   1      43.391  34.560  30.433  1.00  0.00     0.023 A 
ATOM     88  C   UNL A   1      43.520  35.553  31.424  1.00  0.00     0.012 A 
ATOM     89  C   UNL A   1      43.458  35.019  29.087  1.00  0.00     0.148 A 
ATOM     90  C   UNL A   1      43.850  36.879  31.115  1.00  0.00     0.002 A 
ATOM     91  C   UNL A   1      43.761  36.342  28.777  1.00  0.00     0.091 A 
ATOM     92  F   UNL A   1      43.174  34.188  28.080  1.00  0.00    -0.205 F 
ATOM     93  C   UNL A   1      43.994  37.269  29.793  1.00  0.00     0.022 A 
BRANCH  91  94
ATOM     94  S   UNL A   1      43.836  36.946  27.084  1.00  0.00     0.127 S 
ATOM     95  O   UNL A   1      44.879  36.092  26.515  1.00  0.00    -0.237 OA
ATOM     96  O   UNL A   1      42.484  36.661  26.603  1.00  0.00    -0.237 OA
ATOM     97  O   UNL A   1      44.168  38.360  27.166  1.00  0.00    -0.744 OA
ENDBRANCH  91  94
ENDBRANCH  64  87
ENDBRANCH  38  39
ENDBRANCH  30  33
ENDBRANCH  28  29
ENDBRANCH  27  28
ENDBRANCH   1  27
TORSDOF 19
ENDMDL
MODEL 3
REMARK VINA RESULT:     -11.6      1.839      2.575
REMARK SMILES COc1ccc(-c2cnc(N)c(C(=O)NCCCCCCNC(=O)c3ccc(-c4c5nc(c(-c6cccc(S(=O)(=O)[O-])c6F)c6ccc([nH]6)c(-c6cccc(S(=O)(=O)[O-])c6F)c6nc(c(-c7cccc(S(=O)(=O)[O-])c7F)c7ccc4[nH]7)C=C6)C=C5)cc3)c2)c(C)c1
REMARK SMILES IDX 19 1 18 2 17 3 16 4 15 5 13 6 14 7 12 9 7 10 8 11 88 12 9 13
REMARK SMILES IDX 10 14 6 15 3 16 4 17 91 18 5 19 89 20 90 21 2 22 1 23 11 24
REMARK SMILES IDX 20 27 21 28 22 29 23 30 24 32 25 33 26 34 87 35 27 36 86 37
REMARK SMILES IDX 28 38 29 39 30 40 80 41 31 42 85 43 79 44 81 45 32 46 84 47
REMARK SMILES IDX 78 48 77 49 33 51 65 52 45 53 64 54 46 55 49 56 63 57 82 58
REMARK SMILES IDX 47 59 48 60 62 62 83 63 50 64 34 65 35 66 43 67 36 68 38 69
REMARK SMILES IDX 44 70 37 71 39 72 40 73 41 74 42 75 66 76 67 77 75 78 68 79
REMARK SMILES IDX 70 80 76 81 69 82 71 83 72 84 73 85 74 86 51 87 52 88 60 89
REMARK SMILES IDX 53 90 55 91 61 92 54 93 56 94 57 95 58 96 59 97
REMARK H PARENT 15 8 11 25 11 26 22 31 81 50 49 61
REMARK Flexibility Score: inf
ROOT
ATOM      1  C   UNL A   1      35.777  21.125  25.508  1.00  0.00     0.002 C 
ENDROOT
BRANCH   1   2
ATOM      2  C   UNL A   1      34.754  20.219  24.808  1.00  0.00     0.002 C 
BRANCH   2   3
ATOM      3  C   UNL A   1      33.256  20.438  25.041  1.00  0.00     0.021 C 
BRANCH   3   4
ATOM      4  C   UNL A   1      32.498  21.387  24.120  1.00  0.00     0.116 C 
BRANCH   4   5
ATOM      5  N   UNL A   1      33.299  22.278  23.304  1.00  0.00    -0.352 N 
ATOM      6  C   UNL A   1      33.502  23.637  23.444  1.00  0.00     0.255 C 
ATOM      7  O   UNL A   1      34.315  24.181  22.694  1.00  0.00    -0.269 OA
ATOM      8  H   UNL A   1      33.763  21.856  22.545  1.00  0.00     0.163 HD
BRANCH   6   9
ATOM      9  C   UNL A   1      32.733  24.493  24.393  1.00  0.00     0.082 A 
ATOM     10  C   UNL A   1      31.110  26.310  24.621  1.00  0.00     0.001 A 
ATOM     11  C   UNL A   1      31.156  26.056  25.988  1.00  0.00     0.122 A 
ATOM     12  C   UNL A   1      31.886  25.465  23.819  1.00  0.00     0.028 A 
ATOM     13  N   UNL A   1      32.011  25.194  26.578  1.00  0.00    -0.238 NA
ATOM     14  C   UNL A   1      32.846  24.496  25.784  1.00  0.00     0.136 A 
BRANCH  10  15
ATOM     15  C   UNL A   1      30.415  27.509  24.116  1.00  0.00    -0.014 A 
ATOM     16  C   UNL A   1      28.846  29.653  23.126  1.00  0.00     0.119 A 
ATOM     17  C   UNL A   1      28.387  28.351  23.001  1.00  0.00     0.047 A 
ATOM     18  C   UNL A   1      30.097  29.887  23.700  1.00  0.00     0.050 A 
ATOM     19  C   UNL A   1      29.158  27.302  23.500  1.00  0.00     0.013 A 
ATOM     20  C   UNL A   1      30.893  28.831  24.202  1.00  0.00    -0.040 A 
ATOM     21  C   UNL A   1      32.214  29.205  24.819  1.00  0.00     0.045 C 
BRANCH  16  22
ATOM     22  O   UNL A   1      28.163  30.748  22.673  1.00  0.00    -0.497 OA
ATOM     23  C   UNL A   1      28.031  30.795  21.254  1.00  0.00     0.278 C 
ENDBRANCH  16  22
ENDBRANCH  10  15
BRANCH  14  24
ATOM     24  N   UNL A   1      33.834  23.859  26.503  1.00  0.00    -0.383 N 
ATOM     25  H   UNL A   1      34.747  23.799  26.137  1.00  0.00     0.158 HD
ATOM     26  H   UNL A   1      33.627  23.464  27.380  1.00  0.00     0.158 HD
ENDBRANCH  14  24
ENDBRANCH   6   9
ENDBRANCH   4   5
ENDBRANCH   3   4
ENDBRANCH   2   3
ENDBRANCH   1   2
BRANCH   1  27
ATOM     27  C   UNL A   1      37.216  21.139  24.998  1.00  0.00     0.021 C 
BRANCH  27  28
ATOM     28  C   UNL A   1      38.050  22.354  25.378  1.00  0.00     0.116 C 
BRANCH  28  29
ATOM     29  N   UNL A   1      39.318  22.021  26.018  1.00  0.00    -0.352 N 
ATOM     30  C   UNL A   1      40.223  22.867  26.640  1.00  0.00     0.251 C 
ATOM     31  H   UNL A   1      39.564  21.068  26.006  1.00  0.00     0.163 HD
ATOM     32  O   UNL A   1      41.302  22.431  27.031  1.00  0.00    -0.269 OA
BRANCH  30  33
ATOM     33  C   UNL A   1      39.815  24.263  26.912  1.00  0.00     0.039 A 
ATOM     34  C   UNL A   1      40.364  25.275  26.118  1.00  0.00     0.014 A 
ATOM     35  C   UNL A   1      39.138  24.575  28.088  1.00  0.00     0.014 A 
ATOM     36  C   UNL A   1      40.478  26.561  26.638  1.00  0.00     0.010 A 
ATOM     37  C   UNL A   1      39.332  25.818  28.646  1.00  0.00     0.010 A 
ATOM     38  C   UNL A   1      40.067  26.783  27.949  1.00  0.00    -0.014 A 
BRANCH  38  39
ATOM     39  C   UNL A   1      40.368  27.984  28.705  1.00  0.00     0.031 A 
ATOM     40  C   UNL A   1      39.404  29.092  28.725  1.00  0.00     0.074 A 
ATOM     41  C   UNL A   1      41.462  28.005  29.496  1.00  0.00     0.049 A 
ATOM     42  N   UNL A   1      39.702  30.292  29.080  1.00  0.00    -0.248 NA
ATOM     43  C   UNL A   1      38.018  28.926  28.317  1.00  0.00     0.031 C 
ATOM     44  C   UNL A   1      41.752  28.925  30.589  1.00  0.00     0.029 A 
ATOM     45  N   UNL A   1      42.653  27.297  29.320  1.00  0.00    -0.354 N 
ATOM     46  C   UNL A   1      38.520  30.984  29.217  1.00  0.00     0.074 A 
ATOM     47  C   UNL A   1      37.512  30.117  28.649  1.00  0.00     0.031 C 
ATOM     48  C   UNL A   1      43.076  28.935  30.802  1.00  0.00     0.029 A 
ATOM     49  C   UNL A   1      43.685  28.160  29.735  1.00  0.00     0.049 A 
ATOM     50  H   UNL A   1      42.751  26.380  28.975  1.00  0.00     0.167 HD
ATOM     51  C   UNL A   1      38.519  32.142  29.936  1.00  0.00     0.034 A 
ATOM     52  C   UNL A   1      44.684  28.587  28.906  1.00  0.00     0.034 A 
ATOM     53  C   UNL A   1      39.881  32.480  30.385  1.00  0.00     0.049 A 
ATOM     54  C   UNL A   1      44.729  30.103  28.754  1.00  0.00     0.074 A 
ATOM     55  C   UNL A   1      40.570  32.319  31.578  1.00  0.00     0.029 A 
ATOM     56  N   UNL A   1      40.836  32.816  29.439  1.00  0.00    -0.354 N 
ATOM     57  N   UNL A   1      43.955  30.946  29.383  1.00  0.00    -0.248 NA
ATOM     58  C   UNL A   1      45.589  30.774  27.779  1.00  0.00     0.031 C 
ATOM     59  C   UNL A   1      41.954  32.555  31.331  1.00  0.00     0.029 A 
ATOM     60  C   UNL A   1      42.104  32.887  29.997  1.00  0.00     0.049 A 
ATOM     61  H   UNL A   1      40.638  32.983  28.490  1.00  0.00     0.167 HD
ATOM     62  C   UNL A   1      44.063  32.192  28.812  1.00  0.00     0.074 A 
ATOM     63  C   UNL A   1      45.125  32.033  27.831  1.00  0.00     0.031 C 
ATOM     64  C   UNL A   1      43.224  33.232  29.129  1.00  0.00     0.034 A 
BRANCH  51  65
ATOM     65  C   UNL A   1      37.275  32.818  30.489  1.00  0.00     0.023 A 
ATOM     66  C   UNL A   1      36.308  33.252  29.553  1.00  0.00     0.012 A 
ATOM     67  C   UNL A   1      36.998  33.120  31.843  1.00  0.00     0.148 A 
ATOM     68  C   UNL A   1      35.204  34.031  29.913  1.00  0.00     0.002 A 
ATOM     69  C   UNL A   1      35.936  33.960  32.198  1.00  0.00     0.091 A 
ATOM     70  F   UNL A   1      37.699  32.526  32.813  1.00  0.00    -0.205 F 
ATOM     71  C   UNL A   1      35.040  34.422  31.232  1.00  0.00     0.022 A 
BRANCH  69  72
ATOM     72  S   UNL A   1      35.703  34.576  33.876  1.00  0.00     0.127 S 
ATOM     73  O   UNL A   1      34.826  35.730  33.660  1.00  0.00    -0.237 OA
ATOM     74  O   UNL A   1      35.061  33.446  34.543  1.00  0.00    -0.237 OA
ATOM     75  O   UNL A   1      37.030  34.926  34.367  1.00  0.00    -0.744 OA
ENDBRANCH  69  72
ENDBRANCH  51  65
BRANCH  52  76
ATOM     76  C   UNL A   1      45.006  27.601  27.829  1.00  0.00     0.023 A 
ATOM     77  C   UNL A   1      44.272  27.705  26.622  1.00  0.00     0.012 A 
ATOM     78  C   UNL A   1      46.226  26.905  27.817  1.00  0.00     0.148 A 
ATOM     79  C   UNL A   1      44.823  27.285  25.409  1.00  0.00     0.002 A 
ATOM     80  C   UNL A   1      46.760  26.472  26.606  1.00  0.00     0.091 A 
ATOM     81  F   UNL A   1      46.894  26.747  28.966  1.00  0.00    -0.205 F 
ATOM     82  C   UNL A   1      46.088  26.707  25.398  1.00  0.00     0.022 A 
BRANCH  80  83
ATOM     83  S   UNL A   1      48.388  25.714  26.548  1.00  0.00     0.127 S 
ATOM     84  O   UNL A   1      48.148  24.457  27.251  1.00  0.00    -0.237 OA
ATOM     85  O   UNL A   1      48.626  25.578  25.112  1.00  0.00    -0.237 OA
ATOM     86  O   UNL A   1      49.258  26.675  27.209  1.00  0.00    -0.744 OA
ENDBRANCH  80  83
ENDBRANCH  52  76
BRANCH  64  87
ATOM     87  C   UNL A   1      43.334  34.655  28.580  1.00  0.00     0.023 A 
ATOM     88  C   UNL A   1      42.990  34.967  27.251  1.00  0.00     0.012 A 
ATOM     89  C   UNL A   1      43.879  35.725  29.345  1.00  0.00     0.148 A 
ATOM     90  C   UNL A   1      43.030  36.277  26.757  1.00  0.00     0.002 A 
ATOM     91  C   UNL A   1      43.944  37.024  28.847  1.00  0.00     0.091 A 
ATOM     92  F   UNL A   1      44.397  35.491  30.554  1.00  0.00    -0.205 F 
ATOM     93  C   UNL A   1      43.485  37.311  27.561  1.00  0.00     0.022 A 
BRANCH  91  94
ATOM     94  S   UNL A   1      44.641  38.389  29.790  1.00  0.00     0.127 S 
ATOM     95  O   UNL A   1      45.990  37.893  30.066  1.00  0.00    -0.237 OA
ATOM     96  O   UNL A   1      44.581  39.484  28.823  1.00  0.00    -0.237 OA
ATOM     97  O   UNL A   1      43.790  38.559  30.957  1.00  0.00    -0.744 OA
ENDBRANCH  91  94
ENDBRANCH  64  87
ENDBRANCH  38  39
ENDBRANCH  30  33
ENDBRANCH  28  29
ENDBRANCH  27  28
ENDBRANCH   1  27
TORSDOF 19
ENDMDL
