MODEL 1
REMARK VINA RESULT:     -11.5      0.000      0.000
REMARK SMILES C[C@@H](C(=O)NCCCCCCNC(=O)c1ccc(-c2c3nc(c(-c4cccc(S(=O)(=O)[O-])c4F)c4ccc([nH]4)c(-c4cccc(S(=O)(=O)[O-])c4F)c4nc(c(-c5cccc(S(=O)(=O)[O-])c5F)c5ccc2[nH]5)C=C4)C=C3)cc1)[C@H]1CCOC2(CCCCC2)C1
REMARK SMILES IDX 9 1 8 2 7 3 6 4 5 5 3 6 4 7 2 9 1 10 78 11 79 12 88 13 80 14
REMARK SMILES IDX 82 15 81 16 83 17 87 18 84 19 86 20 85 21 10 22 11 23 12 24
REMARK SMILES IDX 13 25 14 27 15 28 16 29 77 30 17 31 76 32 18 33 19 34 20 35
REMARK SMILES IDX 70 36 21 37 75 38 69 39 71 40 22 41 74 42 68 43 67 44 23 46
REMARK SMILES IDX 55 47 35 48 54 49 36 50 39 51 53 52 72 53 37 54 38 55 52 57
REMARK SMILES IDX 73 58 40 59 24 60 25 61 33 62 26 63 28 64 34 65 27 66 29 67
REMARK SMILES IDX 30 68 31 69 32 70 56 71 57 72 65 73 58 74 60 75 66 76 59 77
REMARK SMILES IDX 61 78 62 79 63 80 64 81 41 82 42 83 50 84 43 85 45 86 51 87
REMARK SMILES IDX 44 88 46 89 47 90 48 91 49 92
REMARK H PARENT 5 8 12 26 71 45 39 56
REMARK Flexibility Score: inf
ROOT
ATOM      1  C   UNL A   1      33.365  28.878  24.757  1.00  0.00     0.002 C 
ENDROOT
BRANCH   1   2
ATOM      2  C   UNL A   1      34.064  28.337  23.506  1.00  0.00     0.002 C 
BRANCH   2   3
ATOM      3  C   UNL A   1      33.580  26.953  23.049  1.00  0.00     0.021 C 
BRANCH   3   4
ATOM      4  C   UNL A   1      32.533  27.006  21.933  1.00  0.00     0.116 C 
BRANCH   4   5
ATOM      5  N   UNL A   1      31.621  25.891  22.073  1.00  0.00    -0.356 N 
ATOM      6  C   UNL A   1      30.798  25.567  23.105  1.00  0.00     0.223 C 
ATOM      7  O   UNL A   1      30.372  24.410  23.140  1.00  0.00    -0.275 OA
ATOM      8  H   UNL A   1      31.594  25.274  21.306  1.00  0.00     0.163 HD
BRANCH   6   9
ATOM      9  C   UNL A   1      30.392  26.638  24.131  1.00  0.00     0.078 C 
ATOM     10  C   UNL A   1      29.849  26.011  25.417  1.00  0.00     0.018 C 
BRANCH   9  11
ATOM     11  C   UNL A   1      29.402  27.649  23.461  1.00  0.00     0.006 C 
ATOM     12  C   UNL A   1      27.916  27.388  23.746  1.00  0.00     0.033 C 
ATOM     13  C   UNL A   1      29.737  29.107  23.820  1.00  0.00     0.040 C 
ATOM     14  C   UNL A   1      27.032  28.429  23.079  1.00  0.00     0.161 C 
ATOM     15  C   UNL A   1      28.780  30.097  23.115  1.00  0.00     0.069 C 
ATOM     16  O   UNL A   1      27.421  29.752  23.437  1.00  0.00    -0.375 OA
ATOM     17  C   UNL A   1      29.002  30.141  21.583  1.00  0.00     0.035 C 
ATOM     18  C   UNL A   1      29.014  31.518  23.672  1.00  0.00     0.035 C 
ATOM     19  C   UNL A   1      28.079  31.149  20.901  1.00  0.00     0.003 C 
ATOM     20  C   UNL A   1      28.117  32.560  22.999  1.00  0.00     0.003 C 
ATOM     21  C   UNL A   1      28.260  32.547  21.480  1.00  0.00     0.000 C 
ENDBRANCH   9  11
ENDBRANCH   6   9
ENDBRANCH   4   5
ENDBRANCH   3   4
ENDBRANCH   2   3
ENDBRANCH   1   2
BRANCH   1  22
ATOM     22  C   UNL A   1      33.199  27.859  25.886  1.00  0.00     0.021 C 
BRANCH  22  23
ATOM     23  C   UNL A   1      33.627  28.369  27.258  1.00  0.00     0.116 C 
BRANCH  23  24
ATOM     24  N   UNL A   1      33.588  29.821  27.329  1.00  0.00    -0.352 N 
ATOM     25  C   UNL A   1      34.494  30.678  27.894  1.00  0.00     0.251 C 
ATOM     26  H   UNL A   1      32.803  30.246  26.914  1.00  0.00     0.163 HD
ATOM     27  O   UNL A   1      34.199  31.865  28.051  1.00  0.00    -0.269 OA
BRANCH  25  28
ATOM     28  C   UNL A   1      35.818  30.180  28.320  1.00  0.00     0.039 A 
ATOM     29  C   UNL A   1      36.901  30.299  27.445  1.00  0.00     0.014 A 
ATOM     30  C   UNL A   1      35.988  29.577  29.570  1.00  0.00     0.014 A 
ATOM     31  C   UNL A   1      38.160  29.840  27.837  1.00  0.00     0.010 A 
ATOM     32  C   UNL A   1      37.258  29.193  29.989  1.00  0.00     0.010 A 
ATOM     33  C   UNL A   1      38.353  29.297  29.118  1.00  0.00    -0.014 A 
BRANCH  33  34
ATOM     34  C   UNL A   1      39.685  28.810  29.552  1.00  0.00     0.031 A 
ATOM     35  C   UNL A   1      40.417  29.502  30.672  1.00  0.00     0.074 A 
ATOM     36  C   UNL A   1      40.268  27.787  28.898  1.00  0.00     0.049 A 
ATOM     37  N   UNL A   1      41.590  29.233  31.182  1.00  0.00    -0.248 NA
ATOM     38  C   UNL A   1      39.758  30.671  31.279  1.00  0.00     0.031 C 
ATOM     39  C   UNL A   1      39.697  27.083  27.747  1.00  0.00     0.029 A 
ATOM     40  N   UNL A   1      41.479  27.172  29.095  1.00  0.00    -0.354 N 
ATOM     41  C   UNL A   1      41.827  30.216  32.135  1.00  0.00     0.074 A 
ATOM     42  C   UNL A   1      40.692  31.111  32.109  1.00  0.00     0.031 C 
ATOM     43  C   UNL A   1      40.548  26.123  27.352  1.00  0.00     0.029 A 
ATOM     44  C   UNL A   1      41.734  26.157  28.202  1.00  0.00     0.049 A 
ATOM     45  H   UNL A   1      42.106  27.431  29.808  1.00  0.00     0.167 HD
ATOM     46  C   UNL A   1      42.880  30.349  32.977  1.00  0.00     0.034 A 
ATOM     47  C   UNL A   1      42.801  25.342  28.086  1.00  0.00     0.034 A 
ATOM     48  C   UNL A   1      43.980  29.426  33.037  1.00  0.00     0.049 A 
ATOM     49  C   UNL A   1      43.932  25.477  29.071  1.00  0.00     0.074 A 
ATOM     50  C   UNL A   1      45.041  29.408  33.924  1.00  0.00     0.029 A 
ATOM     51  N   UNL A   1      44.165  28.359  32.170  1.00  0.00    -0.354 N 
ATOM     52  N   UNL A   1      44.057  26.308  30.077  1.00  0.00    -0.248 NA
ATOM     53  C   UNL A   1      45.050  24.534  28.928  1.00  0.00     0.031 C 
ATOM     54  C   UNL A   1      45.883  28.346  33.576  1.00  0.00     0.029 A 
ATOM     55  C   UNL A   1      45.330  27.684  32.492  1.00  0.00     0.049 A 
ATOM     56  H   UNL A   1      43.557  28.118  31.435  1.00  0.00     0.167 HD
ATOM     57  C   UNL A   1      45.243  25.960  30.714  1.00  0.00     0.074 A 
ATOM     58  C   UNL A   1      45.790  24.831  29.988  1.00  0.00     0.031 C 
ATOM     59  C   UNL A   1      45.833  26.528  31.794  1.00  0.00     0.034 A 
BRANCH  46  60
ATOM     60  C   UNL A   1      42.868  31.512  33.936  1.00  0.00     0.023 A 
ATOM     61  C   UNL A   1      43.444  32.741  33.556  1.00  0.00     0.012 A 
ATOM     62  C   UNL A   1      42.246  31.403  35.196  1.00  0.00     0.148 A 
ATOM     63  C   UNL A   1      43.439  33.829  34.427  1.00  0.00     0.002 A 
ATOM     64  C   UNL A   1      42.202  32.507  36.040  1.00  0.00     0.091 A 
ATOM     65  F   UNL A   1      41.722  30.221  35.552  1.00  0.00    -0.205 F 
ATOM     66  C   UNL A   1      42.809  33.716  35.663  1.00  0.00     0.022 A 
BRANCH  64  67
ATOM     67  S   UNL A   1      41.342  32.484  37.617  1.00  0.00     0.127 S 
ATOM     68  O   UNL A   1      41.363  33.898  37.986  1.00  0.00    -0.237 OA
ATOM     69  O   UNL A   1      40.024  31.971  37.241  1.00  0.00    -0.237 OA
ATOM     70  O   UNL A   1      42.112  31.599  38.479  1.00  0.00    -0.744 OA
ENDBRANCH  64  67
ENDBRANCH  46  60
BRANCH  47  71
ATOM     71  C   UNL A   1      42.811  24.267  27.055  1.00  0.00     0.023 A 
ATOM     72  C   UNL A   1      43.506  24.479  25.848  1.00  0.00     0.012 A 
ATOM     73  C   UNL A   1      42.161  23.036  27.266  1.00  0.00     0.148 A 
ATOM     74  C   UNL A   1      43.526  23.498  24.856  1.00  0.00     0.002 A 
ATOM     75  C   UNL A   1      42.231  22.042  26.296  1.00  0.00     0.091 A 
ATOM     76  F   UNL A   1      41.498  22.857  28.417  1.00  0.00    -0.205 F 
ATOM     77  C   UNL A   1      42.898  22.277  25.083  1.00  0.00     0.022 A 
BRANCH  75  78
ATOM     78  S   UNL A   1      41.561  20.395  26.553  1.00  0.00     0.127 S 
ATOM     79  O   UNL A   1      40.123  20.645  26.496  1.00  0.00    -0.237 OA
ATOM     80  O   UNL A   1      42.106  19.666  25.407  1.00  0.00    -0.237 OA
ATOM     81  O   UNL A   1      42.077  19.958  27.843  1.00  0.00    -0.744 OA
ENDBRANCH  75  78
ENDBRANCH  47  71
BRANCH  59  82
ATOM     82  C   UNL A   1      47.116  25.916  32.294  1.00  0.00     0.023 A 
ATOM     83  C   UNL A   1      48.349  26.322  31.747  1.00  0.00     0.012 A 
ATOM     84  C   UNL A   1      47.102  24.988  33.354  1.00  0.00     0.148 A 
ATOM     85  C   UNL A   1      49.545  25.785  32.222  1.00  0.00     0.002 A 
ATOM     86  C   UNL A   1      48.300  24.497  33.856  1.00  0.00     0.091 A 
ATOM     87  F   UNL A   1      45.917  24.599  33.848  1.00  0.00    -0.205 F 
ATOM     88  C   UNL A   1      49.522  24.883  33.284  1.00  0.00     0.022 A 
BRANCH  86  89
ATOM     89  S   UNL A   1      48.366  23.411  35.287  1.00  0.00     0.127 S 
ATOM     90  O   UNL A   1      47.652  22.233  34.799  1.00  0.00    -0.237 OA
ATOM     91  O   UNL A   1      49.806  23.221  35.467  1.00  0.00    -0.237 OA
ATOM     92  O   UNL A   1      47.715  24.137  36.369  1.00  0.00    -0.744 OA
ENDBRANCH  86  89
ENDBRANCH  59  82
ENDBRANCH  33  34
ENDBRANCH  25  28
ENDBRANCH  23  24
ENDBRANCH  22  23
ENDBRANCH   1  22
TORSDOF 17
ENDMDL
MODEL 2
REMARK VINA RESULT:     -11.3      2.282      4.366
REMARK SMILES C[C@@H](C(=O)NCCCCCCNC(=O)c1ccc(-c2c3nc(c(-c4cccc(S(=O)(=O)[O-])c4F)c4ccc([nH]4)c(-c4cccc(S(=O)(=O)[O-])c4F)c4nc(c(-c5cccc(S(=O)(=O)[O-])c5F)c5ccc2[nH]5)C=C4)C=C3)cc1)[C@H]1CCOC2(CCCCC2)C1
REMARK SMILES IDX 9 1 8 2 7 3 6 4 5 5 3 6 4 7 2 9 1 10 78 11 79 12 88 13 80 14
REMARK SMILES IDX 82 15 81 16 83 17 87 18 84 19 86 20 85 21 10 22 11 23 12 24
REMARK SMILES IDX 13 25 14 27 15 28 16 29 77 30 17 31 76 32 18 33 19 34 20 35
REMARK SMILES IDX 70 36 21 37 75 38 69 39 71 40 22 41 74 42 68 43 67 44 23 46
REMARK SMILES IDX 55 47 35 48 54 49 36 50 39 51 53 52 72 53 37 54 38 55 52 57
REMARK SMILES IDX 73 58 40 59 24 60 25 61 33 62 26 63 28 64 34 65 27 66 29 67
REMARK SMILES IDX 30 68 31 69 32 70 56 71 57 72 65 73 58 74 60 75 66 76 59 77
REMARK SMILES IDX 61 78 62 79 63 80 64 81 41 82 42 83 50 84 43 85 45 86 51 87
REMARK SMILES IDX 44 88 46 89 47 90 48 91 49 92
REMARK H PARENT 5 8 12 26 71 45 39 56
REMARK Flexibility Score: inf
ROOT
ATOM      1  C   UNL A   1      32.018  27.900  26.820  1.00  0.00     0.002 C 
ENDROOT
BRANCH   1   2
ATOM      2  C   UNL A   1      31.026  27.686  25.672  1.00  0.00     0.002 C 
BRANCH   2   3
ATOM      3  C   UNL A   1      30.326  26.319  25.677  1.00  0.00     0.021 C 
BRANCH   3   4
ATOM      4  C   UNL A   1      29.857  25.864  24.292  1.00  0.00     0.116 C 
BRANCH   4   5
ATOM      5  N   UNL A   1      30.295  24.504  24.056  1.00  0.00    -0.356 N 
ATOM      6  C   UNL A   1      31.466  24.047  23.537  1.00  0.00     0.223 C 
ATOM      7  O   UNL A   1      31.479  22.885  23.126  1.00  0.00    -0.275 OA
ATOM      8  H   UNL A   1      29.648  23.807  24.309  1.00  0.00     0.163 HD
BRANCH   6   9
ATOM      9  C   UNL A   1      32.710  24.950  23.532  1.00  0.00     0.078 C 
ATOM     10  C   UNL A   1      33.285  25.113  22.123  1.00  0.00     0.018 C 
BRANCH   9  11
ATOM     11  C   UNL A   1      33.747  24.407  24.572  1.00  0.00     0.006 C 
ATOM     12  C   UNL A   1      33.136  23.729  25.806  1.00  0.00     0.033 C 
ATOM     13  C   UNL A   1      34.767  23.453  23.926  1.00  0.00     0.040 C 
ATOM     14  C   UNL A   1      34.211  23.212  26.747  1.00  0.00     0.161 C 
ATOM     15  C   UNL A   1      35.812  22.961  24.954  1.00  0.00     0.069 C 
ATOM     16  O   UNL A   1      35.131  22.360  26.070  1.00  0.00    -0.375 OA
ATOM     17  C   UNL A   1      36.762  24.094  25.416  1.00  0.00     0.035 C 
ATOM     18  C   UNL A   1      36.672  21.849  24.316  1.00  0.00     0.035 C 
ATOM     19  C   UNL A   1      37.814  23.590  26.403  1.00  0.00     0.003 C 
ATOM     20  C   UNL A   1      37.751  21.329  25.270  1.00  0.00     0.003 C 
ATOM     21  C   UNL A   1      38.634  22.453  25.805  1.00  0.00     0.000 C 
ENDBRANCH   9  11
ENDBRANCH   6   9
ENDBRANCH   4   5
ENDBRANCH   3   4
ENDBRANCH   2   3
ENDBRANCH   1   2
BRANCH   1  22
ATOM     22  C   UNL A   1      33.480  27.640  26.455  1.00  0.00     0.021 C 
BRANCH  22  23
ATOM     23  C   UNL A   1      34.150  28.781  25.697  1.00  0.00     0.116 C 
BRANCH  23  24
ATOM     24  N   UNL A   1      33.863  30.072  26.303  1.00  0.00    -0.352 N 
ATOM     25  C   UNL A   1      34.459  30.665  27.384  1.00  0.00     0.251 C 
ATOM     26  H   UNL A   1      33.142  30.590  25.878  1.00  0.00     0.163 HD
ATOM     27  O   UNL A   1      33.948  31.666  27.892  1.00  0.00    -0.269 OA
BRANCH  25  28
ATOM     28  C   UNL A   1      35.705  30.103  27.944  1.00  0.00     0.039 A 
ATOM     29  C   UNL A   1      36.897  30.252  27.230  1.00  0.00     0.014 A 
ATOM     30  C   UNL A   1      35.695  29.409  29.158  1.00  0.00     0.014 A 
ATOM     31  C   UNL A   1      38.084  29.733  27.750  1.00  0.00     0.010 A 
ATOM     32  C   UNL A   1      36.891  28.962  29.711  1.00  0.00     0.010 A 
ATOM     33  C   UNL A   1      38.094  29.097  29.002  1.00  0.00    -0.014 A 
BRANCH  33  34
ATOM     34  C   UNL A   1      39.348  28.544  29.572  1.00  0.00     0.031 A 
ATOM     35  C   UNL A   1      39.962  29.167  30.797  1.00  0.00     0.074 A 
ATOM     36  C   UNL A   1      39.971  27.524  28.950  1.00  0.00     0.049 A 
ATOM     37  N   UNL A   1      41.056  28.835  31.432  1.00  0.00    -0.248 NA
ATOM     38  C   UNL A   1      39.274  30.337  31.369  1.00  0.00     0.031 C 
ATOM     39  C   UNL A   1      39.520  26.885  27.712  1.00  0.00     0.029 A 
ATOM     40  N   UNL A   1      41.128  26.857  29.264  1.00  0.00    -0.354 N 
ATOM     41  C   UNL A   1      41.209  29.774  32.445  1.00  0.00     0.074 A 
ATOM     42  C   UNL A   1      40.116  30.711  32.321  1.00  0.00     0.031 C 
ATOM     43  C   UNL A   1      40.379  25.908  27.383  1.00  0.00     0.029 A 
ATOM     44  C   UNL A   1      41.455  25.866  28.368  1.00  0.00     0.049 A 
ATOM     45  H   UNL A   1      41.673  27.066  30.057  1.00  0.00     0.167 HD
ATOM     46  C   UNL A   1      42.157  29.836  33.411  1.00  0.00     0.034 A 
ATOM     47  C   UNL A   1      42.501  25.017  28.347  1.00  0.00     0.034 A 
ATOM     48  C   UNL A   1      43.211  28.870  33.565  1.00  0.00     0.049 A 
ATOM     49  C   UNL A   1      43.509  25.073  29.464  1.00  0.00     0.074 A 
ATOM     50  C   UNL A   1      44.156  28.780  34.570  1.00  0.00     0.029 A 
ATOM     51  N   UNL A   1      43.463  27.830  32.683  1.00  0.00    -0.354 N 
ATOM     52  N   UNL A   1      43.540  25.861  30.511  1.00  0.00    -0.248 NA
ATOM     53  C   UNL A   1      44.604  24.094  29.416  1.00  0.00     0.031 C 
ATOM     54  C   UNL A   1      44.998  27.701  34.281  1.00  0.00     0.029 A 
ATOM     55  C   UNL A   1      44.558  27.100  33.113  1.00  0.00     0.049 A 
ATOM     56  H   UNL A   1      42.940  27.638  31.871  1.00  0.00     0.167 HD
ATOM     57  C   UNL A   1      44.628  25.446  31.269  1.00  0.00     0.074 A 
ATOM     58  C   UNL A   1      45.220  24.324  30.568  1.00  0.00     0.031 C 
ATOM     59  C   UNL A   1      45.102  25.952  32.434  1.00  0.00     0.034 A 
BRANCH  46  60
ATOM     60  C   UNL A   1      42.068  30.963  34.409  1.00  0.00     0.023 A 
ATOM     61  C   UNL A   1      41.352  30.782  35.610  1.00  0.00     0.012 A 
ATOM     62  C   UNL A   1      42.732  32.185  34.180  1.00  0.00     0.148 A 
ATOM     63  C   UNL A   1      41.263  31.809  36.547  1.00  0.00     0.002 A 
ATOM     64  C   UNL A   1      42.679  33.188  35.141  1.00  0.00     0.091 A 
ATOM     65  F   UNL A   1      43.390  32.350  33.023  1.00  0.00    -0.205 F 
ATOM     66  C   UNL A   1      41.934  33.007  36.318  1.00  0.00     0.022 A 
BRANCH  64  67
ATOM     67  S   UNL A   1      43.577  34.734  34.975  1.00  0.00     0.127 S 
ATOM     68  O   UNL A   1      42.984  35.537  36.042  1.00  0.00    -0.237 OA
ATOM     69  O   UNL A   1      44.958  34.316  35.223  1.00  0.00    -0.237 OA
ATOM     70  O   UNL A   1      43.321  35.202  33.620  1.00  0.00    -0.744 OA
ENDBRANCH  64  67
ENDBRANCH  46  60
BRANCH  47  71
ATOM     71  C   UNL A   1      42.598  23.980  27.281  1.00  0.00     0.023 A 
ATOM     72  C   UNL A   1      43.252  24.295  26.074  1.00  0.00     0.012 A 
ATOM     73  C   UNL A   1      42.074  22.686  27.460  1.00  0.00     0.148 A 
ATOM     74  C   UNL A   1      43.352  23.353  25.051  1.00  0.00     0.002 A 
ATOM     75  C   UNL A   1      42.224  21.734  26.457  1.00  0.00     0.091 A 
ATOM     76  F   UNL A   1      41.448  22.408  28.612  1.00  0.00    -0.205 F 
ATOM     77  C   UNL A   1      42.848  22.071  25.245  1.00  0.00     0.022 A 
BRANCH  75  78
ATOM     78  S   UNL A   1      41.720  20.023  26.668  1.00  0.00     0.127 S 
ATOM     79  O   UNL A   1      42.093  19.441  25.381  1.00  0.00    -0.237 OA
ATOM     80  O   UNL A   1      42.548  19.602  27.799  1.00  0.00    -0.237 OA
ATOM     81  O   UNL A   1      40.292  20.066  26.953  1.00  0.00    -0.744 OA
ENDBRANCH  75  78
ENDBRANCH  47  71
BRANCH  59  82
ATOM     82  C   UNL A   1      46.295  25.274  33.058  1.00  0.00     0.023 A 
ATOM     83  C   UNL A   1      47.596  25.724  32.759  1.00  0.00     0.012 A 
ATOM     84  C   UNL A   1      46.120  24.234  33.992  1.00  0.00     0.148 A 
ATOM     85  C   UNL A   1      48.706  25.124  33.353  1.00  0.00     0.002 A 
ATOM     86  C   UNL A   1      47.228  23.678  34.619  1.00  0.00     0.091 A 
ATOM     87  F   UNL A   1      44.875  23.806  34.248  1.00  0.00    -0.205 F 
ATOM     88  C   UNL A   1      48.522  24.111  34.291  1.00  0.00     0.022 A 
BRANCH  86  89
ATOM     89  S   UNL A   1      47.076  22.439  35.913  1.00  0.00     0.127 S 
ATOM     90  O   UNL A   1      48.475  22.211  36.272  1.00  0.00    -0.237 OA
ATOM     91  O   UNL A   1      46.293  23.144  36.927  1.00  0.00    -0.237 OA
ATOM     92  O   UNL A   1      46.391  21.308  35.303  1.00  0.00    -0.744 OA
ENDBRANCH  86  89
ENDBRANCH  59  82
ENDBRANCH  33  34
ENDBRANCH  25  28
ENDBRANCH  23  24
ENDBRANCH  22  23
ENDBRANCH   1  22
TORSDOF 17
ENDMDL
MODEL 3
REMARK VINA RESULT:     -11.2      2.670      4.613
REMARK SMILES C[C@@H](C(=O)NCCCCCCNC(=O)c1ccc(-c2c3nc(c(-c4cccc(S(=O)(=O)[O-])c4F)c4ccc([nH]4)c(-c4cccc(S(=O)(=O)[O-])c4F)c4nc(c(-c5cccc(S(=O)(=O)[O-])c5F)c5ccc2[nH]5)C=C4)C=C3)cc1)[C@H]1CCOC2(CCCCC2)C1
REMARK SMILES IDX 9 1 8 2 7 3 6 4 5 5 3 6 4 7 2 9 1 10 78 11 79 12 88 13 80 14
REMARK SMILES IDX 82 15 81 16 83 17 87 18 84 19 86 20 85 21 10 22 11 23 12 24
REMARK SMILES IDX 13 25 14 27 15 28 16 29 77 30 17 31 76 32 18 33 19 34 20 35
REMARK SMILES IDX 70 36 21 37 75 38 69 39 71 40 22 41 74 42 68 43 67 44 23 46
REMARK SMILES IDX 55 47 35 48 54 49 36 50 39 51 53 52 72 53 37 54 38 55 52 57
REMARK SMILES IDX 73 58 40 59 24 60 25 61 33 62 26 63 28 64 34 65 27 66 29 67
REMARK SMILES IDX 30 68 31 69 32 70 56 71 57 72 65 73 58 74 60 75 66 76 59 77
REMARK SMILES IDX 61 78 62 79 63 80 64 81 41 82 42 83 50 84 43 85 45 86 51 87
REMARK SMILES IDX 44 88 46 89 47 90 48 91 49 92
REMARK H PARENT 5 8 12 26 71 45 39 56
REMARK Flexibility Score: inf
ROOT
ATOM      1  C   UNL A   1      33.532  28.055  23.141  1.00  0.00     0.002 C 
ENDROOT
BRANCH   1   2
ATOM      2  C   UNL A   1      32.825  26.700  23.036  1.00  0.00     0.002 C 
BRANCH   2   3
ATOM      3  C   UNL A   1      31.345  26.779  22.634  1.00  0.00     0.021 C 
BRANCH   3   4
ATOM      4  C   UNL A   1      30.396  26.146  23.656  1.00  0.00     0.116 C 
BRANCH   4   5
ATOM      5  N   UNL A   1      31.002  26.192  24.970  1.00  0.00    -0.356 N 
ATOM      6  C   UNL A   1      31.043  25.240  25.940  1.00  0.00     0.223 C 
ATOM      7  O   UNL A   1      31.317  25.617  27.082  1.00  0.00    -0.275 OA
ATOM      8  H   UNL A   1      31.450  27.039  25.194  1.00  0.00     0.163 HD
BRANCH   6   9
ATOM      9  C   UNL A   1      30.811  23.764  25.581  1.00  0.00     0.078 C 
ATOM     10  C   UNL A   1      30.221  22.982  26.757  1.00  0.00     0.018 C 
BRANCH   9  11
ATOM     11  C   UNL A   1      32.140  23.150  25.025  1.00  0.00     0.006 C 
ATOM     12  C   UNL A   1      32.261  23.143  23.494  1.00  0.00     0.033 C 
ATOM     13  C   UNL A   1      33.384  23.828  25.627  1.00  0.00     0.040 C 
ATOM     14  C   UNL A   1      33.589  22.556  23.045  1.00  0.00     0.161 C 
ATOM     15  C   UNL A   1      34.688  23.182  25.104  1.00  0.00     0.069 C 
ATOM     16  O   UNL A   1      34.688  23.215  23.665  1.00  0.00    -0.375 OA
ATOM     17  C   UNL A   1      34.885  21.741  25.634  1.00  0.00     0.035 C 
ATOM     18  C   UNL A   1      35.896  24.029  25.561  1.00  0.00     0.035 C 
ATOM     19  C   UNL A   1      36.195  21.126  25.143  1.00  0.00     0.003 C 
ATOM     20  C   UNL A   1      37.229  23.433  25.102  1.00  0.00     0.003 C 
ATOM     21  C   UNL A   1      37.392  21.981  25.541  1.00  0.00     0.000 C 
ENDBRANCH   9  11
ENDBRANCH   6   9
ENDBRANCH   4   5
ENDBRANCH   3   4
ENDBRANCH   2   3
ENDBRANCH   1   2
BRANCH   1  22
ATOM     22  C   UNL A   1      32.760  29.117  23.927  1.00  0.00     0.021 C 
BRANCH  22  23
ATOM     23  C   UNL A   1      33.344  29.429  25.301  1.00  0.00     0.116 C 
BRANCH  23  24
ATOM     24  N   UNL A   1      32.870  30.706  25.810  1.00  0.00    -0.352 N 
ATOM     25  C   UNL A   1      33.285  31.397  26.916  1.00  0.00     0.251 C 
ATOM     26  H   UNL A   1      32.153  31.133  25.286  1.00  0.00     0.163 HD
ATOM     27  O   UNL A   1      32.629  32.361  27.319  1.00  0.00    -0.269 OA
BRANCH  25  28
ATOM     28  C   UNL A   1      34.511  30.985  27.630  1.00  0.00     0.039 A 
ATOM     29  C   UNL A   1      35.551  31.906  27.781  1.00  0.00     0.014 A 
ATOM     30  C   UNL A   1      34.645  29.686  28.131  1.00  0.00     0.014 A 
ATOM     31  C   UNL A   1      36.712  31.534  28.460  1.00  0.00     0.010 A 
ATOM     32  C   UNL A   1      35.770  29.342  28.875  1.00  0.00     0.010 A 
ATOM     33  C   UNL A   1      36.825  30.253  29.026  1.00  0.00    -0.014 A 
BRANCH  33  34
ATOM     34  C   UNL A   1      38.051  29.843  29.756  1.00  0.00     0.031 A 
ATOM     35  C   UNL A   1      38.297  30.334  31.158  1.00  0.00     0.074 A 
ATOM     36  C   UNL A   1      38.974  29.083  29.136  1.00  0.00     0.049 A 
ATOM     37  N   UNL A   1      39.310  30.096  31.949  1.00  0.00    -0.248 NA
ATOM     38  C   UNL A   1      37.287  31.236  31.738  1.00  0.00     0.031 C 
ATOM     39  C   UNL A   1      38.890  28.608  27.753  1.00  0.00     0.029 A 
ATOM     40  N   UNL A   1      40.175  28.591  29.582  1.00  0.00    -0.354 N 
ATOM     41  C   UNL A   1      39.083  30.847  33.096  1.00  0.00     0.074 A 
ATOM     42  C   UNL A   1      37.853  31.578  32.885  1.00  0.00     0.031 C 
ATOM     43  C   UNL A   1      39.981  27.880  27.470  1.00  0.00     0.029 A 
ATOM     44  C   UNL A   1      40.855  27.856  28.639  1.00  0.00     0.049 A 
ATOM     45  H   UNL A   1      40.518  28.748  30.491  1.00  0.00     0.167 HD
ATOM     46  C   UNL A   1      39.814  30.904  34.235  1.00  0.00     0.034 A 
ATOM     47  C   UNL A   1      42.045  27.228  28.712  1.00  0.00     0.034 A 
ATOM     48  C   UNL A   1      41.007  30.134  34.462  1.00  0.00     0.049 A 
ATOM     49  C   UNL A   1      42.810  27.262  30.008  1.00  0.00     0.074 A 
ATOM     50  C   UNL A   1      41.762  30.036  35.616  1.00  0.00     0.029 A 
ATOM     51  N   UNL A   1      41.623  29.334  33.510  1.00  0.00    -0.354 N 
ATOM     52  N   UNL A   1      42.491  27.840  31.141  1.00  0.00    -0.248 NA
ATOM     53  C   UNL A   1      44.080  26.523  30.047  1.00  0.00     0.031 C 
ATOM     54  C   UNL A   1      42.852  29.197  35.355  1.00  0.00     0.029 A 
ATOM     55  C   UNL A   1      42.757  28.749  34.048  1.00  0.00     0.049 A 
ATOM     56  H   UNL A   1      41.301  29.201  32.590  1.00  0.00     0.167 HD
ATOM     57  C   UNL A   1      43.496  27.498  32.039  1.00  0.00     0.074 A 
ATOM     58  C   UNL A   1      44.425  26.649  31.321  1.00  0.00     0.031 C 
ATOM     59  C   UNL A   1      43.643  27.861  33.337  1.00  0.00     0.034 A 
BRANCH  46  60
ATOM     60  C   UNL A   1      39.317  31.796  35.344  1.00  0.00     0.023 A 
ATOM     61  C   UNL A   1      38.407  31.291  36.295  1.00  0.00     0.012 A 
ATOM     62  C   UNL A   1      39.786  33.118  35.474  1.00  0.00     0.148 A 
ATOM     63  C   UNL A   1      37.939  32.098  37.331  1.00  0.00     0.002 A 
ATOM     64  C   UNL A   1      39.352  33.902  36.537  1.00  0.00     0.091 A 
ATOM     65  F   UNL A   1      40.634  33.591  34.548  1.00  0.00    -0.205 F 
ATOM     66  C   UNL A   1      38.419  33.398  37.458  1.00  0.00     0.022 A 
BRANCH  64  67
ATOM     67  S   UNL A   1      39.976  35.560  36.832  1.00  0.00     0.127 S 
ATOM     68  O   UNL A   1      41.419  35.330  36.872  1.00  0.00    -0.237 OA
ATOM     69  O   UNL A   1      39.507  36.280  35.648  1.00  0.00    -0.237 OA
ATOM     70  O   UNL A   1      39.375  35.997  38.084  1.00  0.00    -0.744 OA
ENDBRANCH  64  67
ENDBRANCH  46  60
BRANCH  47  71
ATOM     71  C   UNL A   1      42.544  26.438  27.551  1.00  0.00     0.023 A 
ATOM     72  C   UNL A   1      43.414  27.048  26.627  1.00  0.00     0.012 A 
ATOM     73  C   UNL A   1      42.185  25.089  27.369  1.00  0.00     0.148 A 
ATOM     74  C   UNL A   1      43.891  26.341  25.524  1.00  0.00     0.002 A 
ATOM     75  C   UNL A   1      42.707  24.373  26.297  1.00  0.00     0.091 A 
ATOM     76  F   UNL A   1      41.350  24.527  28.254  1.00  0.00    -0.205 F 
ATOM     77  C   UNL A   1      43.546  25.003  25.363  1.00  0.00     0.022 A 
BRANCH  75  78
ATOM     78  S   UNL A   1      42.422  22.613  26.080  1.00  0.00     0.127 S 
ATOM     79  O   UNL A   1      43.094  22.355  24.810  1.00  0.00    -0.237 OA
ATOM     80  O   UNL A   1      43.088  22.052  27.257  1.00  0.00    -0.237 OA
ATOM     81  O   UNL A   1      40.974  22.447  26.076  1.00  0.00    -0.744 OA
ENDBRANCH  75  78
ENDBRANCH  47  71
BRANCH  59  82
ATOM     82  C   UNL A   1      44.827  27.309  34.089  1.00  0.00     0.023 A 
ATOM     83  C   UNL A   1      46.038  28.027  34.119  1.00  0.00     0.012 A 
ATOM     84  C   UNL A   1      44.714  26.111  34.822  1.00  0.00     0.148 A 
ATOM     85  C   UNL A   1      47.132  27.541  34.835  1.00  0.00     0.002 A 
ATOM     86  C   UNL A   1      45.791  25.661  35.575  1.00  0.00     0.091 A 
ATOM     87  F   UNL A   1      43.559  25.432  34.764  1.00  0.00    -0.205 F 
ATOM     88  C   UNL A   1      47.004  26.366  35.573  1.00  0.00     0.022 A 
BRANCH  86  89
ATOM     89  S   UNL A   1      45.681  24.213  36.634  1.00  0.00     0.127 S 
ATOM     90  O   UNL A   1      45.215  23.193  35.696  1.00  0.00    -0.237 OA
ATOM     91  O   UNL A   1      47.065  24.046  37.078  1.00  0.00    -0.237 OA
ATOM     92  O   UNL A   1      44.747  24.565  37.695  1.00  0.00    -0.744 OA
ENDBRANCH  86  89
ENDBRANCH  59  82
ENDBRANCH  33  34
ENDBRANCH  25  28
ENDBRANCH  23  24
ENDBRANCH  22  23
ENDBRANCH   1  22
TORSDOF 17
ENDMDL
