MODEL 1
REMARK VINA RESULT:     -12.0      0.000      0.000
REMARK SMILES O=C(NCCCCCCNC(=O)c1cc(/N=C/c2ccc([N+](=O)[O-])cc2)ccc1O)c1ccc(-c2c3nc(c(-c4cccc(S(=O)(=O)[O-])c4F)c4ccc([nH]4)c(-c4cccc(S(=O)(=O)[O-])c4F)c4nc(c(-c5cccc(S(=O)(=O)[O-])c5F)c5ccc2[nH]5)C=C4)C=C3)cc1
REMARK SMILES IDX 6 1 5 2 4 3 3 4 1 5 2 6 31 8 32 9 93 10 33 11 92 12 34 13
REMARK SMILES IDX 35 14 36 15 86 16 37 17 91 18 85 19 87 20 38 21 90 22 84 23
REMARK SMILES IDX 83 24 39 26 71 27 51 28 70 29 52 30 55 31 69 32 88 33 53 34
REMARK SMILES IDX 54 35 68 37 89 38 56 39 40 40 41 41 49 42 42 43 44 44 50 45
REMARK SMILES IDX 43 46 45 47 46 48 47 49 48 50 72 51 73 52 81 53 74 54 76 55
REMARK SMILES IDX 82 56 75 57 77 58 78 59 79 60 80 61 57 62 58 63 66 64 59 65
REMARK SMILES IDX 61 66 67 67 60 68 62 69 63 70 64 71 65 72 7 73 8 74 9 75
REMARK SMILES IDX 10 76 11 77 12 79 13 80 14 81 29 82 15 83 28 84 27 85 30 86
REMARK SMILES IDX 16 88 17 89 18 90 19 91 26 92 20 93 25 94 21 95 22 96 23 97
REMARK SMILES IDX 24 98
REMARK H PARENT 3 7 87 25 55 36 10 78 30 87
REMARK Flexibility Score: inf
ROOT
ATOM      1  C   UNL A   1      31.404  31.096  26.211  1.00  0.00     0.002 C 
ENDROOT
BRANCH   1   2
ATOM      2  C   UNL A   1      31.394  32.588  26.545  1.00  0.00     0.021 C 
BRANCH   2   3
ATOM      3  C   UNL A   1      32.624  33.101  27.282  1.00  0.00     0.116 C 
BRANCH   3   4
ATOM      4  N   UNL A   1      32.447  34.447  27.801  1.00  0.00    -0.352 N 
ATOM      5  O   UNL A   1      32.695  36.157  29.246  1.00  0.00    -0.269 OA
ATOM      6  C   UNL A   1      33.087  35.060  28.852  1.00  0.00     0.251 C 
ATOM      7  H   UNL A   1      31.776  34.996  27.334  1.00  0.00     0.163 HD
BRANCH   6   8
ATOM      8  C   UNL A   1      34.221  34.386  29.522  1.00  0.00     0.039 A 
ATOM      9  C   UNL A   1      34.012  33.574  30.640  1.00  0.00     0.014 A 
ATOM     10  C   UNL A   1      35.513  34.559  29.018  1.00  0.00     0.014 A 
ATOM     11  C   UNL A   1      35.100  33.044  31.327  1.00  0.00     0.010 A 
ATOM     12  C   UNL A   1      36.599  33.960  29.663  1.00  0.00     0.010 A 
ATOM     13  C   UNL A   1      36.405  33.219  30.838  1.00  0.00    -0.014 A 
BRANCH  13  14
ATOM     14  C   UNL A   1      37.537  32.541  31.522  1.00  0.00     0.031 A 
ATOM     15  C   UNL A   1      38.273  31.397  30.878  1.00  0.00     0.074 A 
ATOM     16  C   UNL A   1      37.892  32.967  32.750  1.00  0.00     0.049 A 
ATOM     17  N   UNL A   1      39.295  30.720  31.336  1.00  0.00    -0.248 NA
ATOM     18  C   UNL A   1      37.804  30.950  29.557  1.00  0.00     0.031 C 
ATOM     19  C   UNL A   1      37.215  34.032  33.497  1.00  0.00     0.029 A 
ATOM     20  N   UNL A   1      38.896  32.561  33.590  1.00  0.00    -0.354 N 
ATOM     21  C   UNL A   1      39.569  29.746  30.384  1.00  0.00     0.074 A 
ATOM     22  C   UNL A   1      38.602  29.916  29.320  1.00  0.00     0.031 C 
ATOM     23  C   UNL A   1      37.834  34.207  34.673  1.00  0.00     0.029 A 
ATOM     24  C   UNL A   1      38.919  33.240  34.787  1.00  0.00     0.049 A 
ATOM     25  H   UNL A   1      39.540  31.853  33.359  1.00  0.00     0.167 HD
ATOM     26  C   UNL A   1      40.546  28.806  30.392  1.00  0.00     0.034 A 
ATOM     27  C   UNL A   1      39.713  33.092  35.864  1.00  0.00     0.034 A 
ATOM     28  C   UNL A   1      41.528  28.668  31.435  1.00  0.00     0.049 A 
ATOM     29  C   UNL A   1      40.806  32.063  35.825  1.00  0.00     0.074 A 
ATOM     30  C   UNL A   1      42.602  27.796  31.494  1.00  0.00     0.029 A 
ATOM     31  N   UNL A   1      41.555  29.411  32.605  1.00  0.00    -0.354 N 
ATOM     32  N   UNL A   1      41.138  31.252  34.851  1.00  0.00    -0.248 NA
ATOM     33  C   UNL A   1      41.652  31.949  37.021  1.00  0.00     0.031 C 
ATOM     34  C   UNL A   1      43.267  28.000  32.708  1.00  0.00     0.029 A 
ATOM     35  C   UNL A   1      42.619  29.012  33.397  1.00  0.00     0.049 A 
ATOM     36  H   UNL A   1      40.912  30.119  32.839  1.00  0.00     0.167 HD
ATOM     37  C   UNL A   1      42.246  30.547  35.305  1.00  0.00     0.074 A 
ATOM     38  C   UNL A   1      42.545  31.050  36.631  1.00  0.00     0.031 C 
ATOM     39  C   UNL A   1      42.937  29.557  34.691  1.00  0.00     0.034 A 
BRANCH  26  40
ATOM     40  C   UNL A   1      40.644  27.873  29.213  1.00  0.00     0.023 A 
ATOM     41  C   UNL A   1      39.768  26.773  29.125  1.00  0.00     0.012 A 
ATOM     42  C   UNL A   1      41.527  28.142  28.146  1.00  0.00     0.148 A 
ATOM     43  C   UNL A   1      39.780  25.943  28.004  1.00  0.00     0.002 A 
ATOM     44  C   UNL A   1      41.507  27.332  27.016  1.00  0.00     0.091 A 
ATOM     45  F   UNL A   1      42.363  29.183  28.256  1.00  0.00    -0.205 F 
ATOM     46  C   UNL A   1      40.639  26.229  26.946  1.00  0.00     0.022 A 
BRANCH  44  47
ATOM     47  S   UNL A   1      42.520  27.658  25.568  1.00  0.00     0.127 S 
ATOM     48  O   UNL A   1      42.232  26.489  24.738  1.00  0.00    -0.237 OA
ATOM     49  O   UNL A   1      41.954  28.913  25.072  1.00  0.00    -0.237 OA
ATOM     50  O   UNL A   1      43.890  27.759  26.052  1.00  0.00    -0.744 OA
ENDBRANCH  44  47
ENDBRANCH  26  40
BRANCH  27  51
ATOM     51  C   UNL A   1      39.525  33.977  37.047  1.00  0.00     0.023 A 
ATOM     52  C   UNL A   1      39.906  35.330  36.969  1.00  0.00     0.012 A 
ATOM     53  C   UNL A   1      38.935  33.497  38.232  1.00  0.00     0.148 A 
ATOM     54  C   UNL A   1      39.723  36.183  38.057  1.00  0.00     0.002 A 
ATOM     55  C   UNL A   1      38.701  34.365  39.291  1.00  0.00     0.091 A 
ATOM     56  F   UNL A   1      38.599  32.201  38.297  1.00  0.00    -0.205 F 
ATOM     57  C   UNL A   1      39.109  35.705  39.213  1.00  0.00     0.022 A 
BRANCH  55  58
ATOM     58  S   UNL A   1      37.783  33.856  40.748  1.00  0.00     0.127 S 
ATOM     59  O   UNL A   1      36.606  33.226  40.155  1.00  0.00    -0.237 OA
ATOM     60  O   UNL A   1      38.716  32.934  41.397  1.00  0.00    -0.237 OA
ATOM     61  O   UNL A   1      37.544  35.083  41.497  1.00  0.00    -0.744 OA
ENDBRANCH  55  58
ENDBRANCH  27  51
BRANCH  39  62
ATOM     62  C   UNL A   1      44.104  28.964  35.433  1.00  0.00     0.023 A 
ATOM     63  C   UNL A   1      45.385  29.532  35.283  1.00  0.00     0.012 A 
ATOM     64  C   UNL A   1      43.923  27.889  36.324  1.00  0.00     0.148 A 
ATOM     65  C   UNL A   1      46.474  29.016  35.983  1.00  0.00     0.002 A 
ATOM     66  C   UNL A   1      45.004  27.410  37.054  1.00  0.00     0.091 A 
ATOM     67  F   UNL A   1      42.700  27.349  36.436  1.00  0.00    -0.205 F 
ATOM     68  C   UNL A   1      46.282  27.964  36.877  1.00  0.00     0.022 A 
BRANCH  66  69
ATOM     69  S   UNL A   1      44.828  26.119  38.290  1.00  0.00     0.127 S 
ATOM     70  O   UNL A   1      46.213  25.691  38.475  1.00  0.00    -0.237 OA
ATOM     71  O   UNL A   1      44.259  26.848  39.425  1.00  0.00    -0.237 OA
ATOM     72  O   UNL A   1      43.935  25.126  37.705  1.00  0.00    -0.744 OA
ENDBRANCH  66  69
ENDBRANCH  39  62
ENDBRANCH  13  14
ENDBRANCH   6   8
ENDBRANCH   3   4
ENDBRANCH   2   3
ENDBRANCH   1   2
BRANCH   1  73
ATOM     73  C   UNL A   1      32.499  30.269  26.890  1.00  0.00     0.002 C 
BRANCH  73  74
ATOM     74  C   UNL A   1      32.167  28.794  27.140  1.00  0.00     0.021 C 
BRANCH  74  75
ATOM     75  C   UNL A   1      33.234  27.799  26.693  1.00  0.00     0.116 C 
BRANCH  75  76
ATOM     76  N   UNL A   1      33.802  28.136  25.400  1.00  0.00    -0.352 N 
ATOM     77  C   UNL A   1      33.435  27.661  24.163  1.00  0.00     0.255 C 
ATOM     78  H   UNL A   1      34.543  28.785  25.410  1.00  0.00     0.163 HD
ATOM     79  O   UNL A   1      34.049  28.000  23.154  1.00  0.00    -0.269 OA
BRANCH  77  80
ATOM     80  C   UNL A   1      32.343  26.674  24.057  1.00  0.00     0.083 A 
ATOM     81  C   UNL A   1      32.681  25.321  24.196  1.00  0.00     0.046 A 
ATOM     82  C   UNL A   1      31.014  27.048  23.838  1.00  0.00     0.128 A 
ATOM     83  C   UNL A   1      31.688  24.341  24.168  1.00  0.00     0.064 A 
ATOM     84  C   UNL A   1      30.013  26.079  23.832  1.00  0.00     0.049 A 
ATOM     85  C   UNL A   1      30.351  24.736  24.019  1.00  0.00     0.032 A 
BRANCH  82  86
ATOM     86  O   UNL A   1      30.685  28.360  23.647  1.00  0.00    -0.507 OA
ATOM     87  H   UNL A   1      30.190  28.818  24.298  1.00  0.00     0.293 HD
ENDBRANCH  82  86
BRANCH  83  88
ATOM     88  N   UNL A   1      32.066  22.997  24.342  1.00  0.00    -0.256 NA
ATOM     89  C   UNL A   1      31.984  22.212  23.316  1.00  0.00     0.119 C 
BRANCH  89  90
ATOM     90  C   UNL A   1      32.386  20.793  23.374  1.00  0.00    -0.007 A 
ATOM     91  C   UNL A   1      33.016  20.327  24.533  1.00  0.00     0.017 A 
ATOM     92  C   UNL A   1      32.115  19.920  22.315  1.00  0.00     0.017 A 
ATOM     93  C   UNL A   1      33.358  18.977  24.646  1.00  0.00     0.086 A 
ATOM     94  C   UNL A   1      32.452  18.567  22.422  1.00  0.00     0.086 A 
ATOM     95  C   UNL A   1      33.065  18.099  23.594  1.00  0.00     0.269 A 
BRANCH  95  96
ATOM     96  N   UNL A   1      33.387  16.671  23.731  1.00  0.00     0.062 N 
ATOM     97  O   UNL A   1      34.049  16.143  22.826  1.00  0.00    -0.258 OA
ATOM     98  O   UNL A   1      32.987  16.083  24.745  1.00  0.00    -0.258 OA
ENDBRANCH  95  96
ENDBRANCH  89  90
ENDBRANCH  83  88
ENDBRANCH  77  80
ENDBRANCH  75  76
ENDBRANCH  74  75
ENDBRANCH  73  74
ENDBRANCH   1  73
TORSDOF 20
ENDMDL
MODEL 2
REMARK VINA RESULT:     -11.9      4.026      9.527
REMARK SMILES O=C(NCCCCCCNC(=O)c1cc(/N=C/c2ccc([N+](=O)[O-])cc2)ccc1O)c1ccc(-c2c3nc(c(-c4cccc(S(=O)(=O)[O-])c4F)c4ccc([nH]4)c(-c4cccc(S(=O)(=O)[O-])c4F)c4nc(c(-c5cccc(S(=O)(=O)[O-])c5F)c5ccc2[nH]5)C=C4)C=C3)cc1
REMARK SMILES IDX 6 1 5 2 4 3 3 4 1 5 2 6 31 8 32 9 93 10 33 11 92 12 34 13
REMARK SMILES IDX 35 14 36 15 86 16 37 17 91 18 85 19 87 20 38 21 90 22 84 23
REMARK SMILES IDX 83 24 39 26 71 27 51 28 70 29 52 30 55 31 69 32 88 33 53 34
REMARK SMILES IDX 54 35 68 37 89 38 56 39 40 40 41 41 49 42 42 43 44 44 50 45
REMARK SMILES IDX 43 46 45 47 46 48 47 49 48 50 72 51 73 52 81 53 74 54 76 55
REMARK SMILES IDX 82 56 75 57 77 58 78 59 79 60 80 61 57 62 58 63 66 64 59 65
REMARK SMILES IDX 61 66 67 67 60 68 62 69 63 70 64 71 65 72 7 73 8 74 9 75
REMARK SMILES IDX 10 76 11 77 12 79 13 80 14 81 29 82 15 83 28 84 27 85 30 86
REMARK SMILES IDX 16 88 17 89 18 90 19 91 26 92 20 93 25 94 21 95 22 96 23 97
REMARK SMILES IDX 24 98
REMARK H PARENT 3 7 87 25 55 36 10 78 30 87
REMARK Flexibility Score: inf
ROOT
ATOM      1  C   UNL A   1      33.643  26.998  24.579  1.00  0.00     0.002 C 
ENDROOT
BRANCH   1   2
ATOM      2  C   UNL A   1      32.932  27.982  25.509  1.00  0.00     0.021 C 
BRANCH   2   3
ATOM      3  C   UNL A   1      33.749  28.461  26.701  1.00  0.00     0.116 C 
BRANCH   3   4
ATOM      4  N   UNL A   1      33.670  29.899  26.895  1.00  0.00    -0.352 N 
ATOM      5  O   UNL A   1      34.211  31.902  27.772  1.00  0.00    -0.269 OA
ATOM      6  C   UNL A   1      34.523  30.728  27.584  1.00  0.00     0.251 C 
ATOM      7  H   UNL A   1      32.898  30.341  26.474  1.00  0.00     0.163 HD
BRANCH   6   8
ATOM      8  C   UNL A   1      35.796  30.198  28.122  1.00  0.00     0.039 A 
ATOM      9  C   UNL A   1      35.847  29.607  29.388  1.00  0.00     0.014 A 
ATOM     10  C   UNL A   1      36.953  30.282  27.343  1.00  0.00     0.014 A 
ATOM     11  C   UNL A   1      37.072  29.221  29.925  1.00  0.00     0.010 A 
ATOM     12  C   UNL A   1      38.171  29.819  27.853  1.00  0.00     0.010 A 
ATOM     13  C   UNL A   1      38.245  29.310  29.158  1.00  0.00    -0.014 A 
BRANCH  13  14
ATOM     14  C   UNL A   1      39.519  28.778  29.710  1.00  0.00     0.031 A 
ATOM     15  C   UNL A   1      40.162  29.383  30.928  1.00  0.00     0.074 A 
ATOM     16  C   UNL A   1      40.102  27.735  29.086  1.00  0.00     0.049 A 
ATOM     17  N   UNL A   1      41.258  29.018  31.542  1.00  0.00    -0.248 NA
ATOM     18  C   UNL A   1      39.500  30.550  31.532  1.00  0.00     0.031 C 
ATOM     19  C   UNL A   1      39.598  27.101  27.863  1.00  0.00     0.029 A 
ATOM     20  N   UNL A   1      41.239  27.030  29.379  1.00  0.00    -0.354 N 
ATOM     21  C   UNL A   1      41.440  29.925  32.579  1.00  0.00     0.074 A 
ATOM     22  C   UNL A   1      40.341  30.865  32.510  1.00  0.00     0.031 C 
ATOM     23  C   UNL A   1      40.412  26.090  27.524  1.00  0.00     0.029 A 
ATOM     24  C   UNL A   1      41.517  26.032  28.473  1.00  0.00     0.049 A 
ATOM     25  H   UNL A   1      41.804  27.218  30.164  1.00  0.00     0.167 HD
ATOM     26  C   UNL A   1      42.425  29.961  33.509  1.00  0.00     0.034 A 
ATOM     27  C   UNL A   1      42.553  25.176  28.400  1.00  0.00     0.034 A 
ATOM     28  C   UNL A   1      43.493  29.000  33.595  1.00  0.00     0.049 A 
ATOM     29  C   UNL A   1      43.609  25.222  29.467  1.00  0.00     0.074 A 
ATOM     30  C   UNL A   1      44.493  28.910  34.547  1.00  0.00     0.029 A 
ATOM     31  N   UNL A   1      43.709  27.969  32.693  1.00  0.00    -0.354 N 
ATOM     32  N   UNL A   1      43.680  25.996  30.522  1.00  0.00    -0.248 NA
ATOM     33  C   UNL A   1      44.713  24.259  29.349  1.00  0.00     0.031 C 
ATOM     34  C   UNL A   1      45.324  27.836  34.212  1.00  0.00     0.029 A 
ATOM     35  C   UNL A   1      44.831  27.245  33.060  1.00  0.00     0.049 A 
ATOM     36  H   UNL A   1      43.147  27.780  31.907  1.00  0.00     0.167 HD
ATOM     37  C   UNL A   1      44.821  25.599  31.208  1.00  0.00     0.074 A 
ATOM     38  C   UNL A   1      45.392  24.495  30.463  1.00  0.00     0.031 C 
ATOM     39  C   UNL A   1      45.359  26.116  32.339  1.00  0.00     0.034 A 
BRANCH  26  40
ATOM     40  C   UNL A   1      42.377  31.047  34.552  1.00  0.00     0.023 A 
ATOM     41  C   UNL A   1      41.766  30.788  35.795  1.00  0.00     0.012 A 
ATOM     42  C   UNL A   1      43.026  32.282  34.344  1.00  0.00     0.148 A 
ATOM     43  C   UNL A   1      41.783  31.746  36.808  1.00  0.00     0.002 A 
ATOM     44  C   UNL A   1      43.070  33.218  35.372  1.00  0.00     0.091 A 
ATOM     45  F   UNL A   1      43.587  32.516  33.150  1.00  0.00    -0.205 F 
ATOM     46  C   UNL A   1      42.444  32.954  36.602  1.00  0.00     0.022 A 
BRANCH  44  47
ATOM     47  S   UNL A   1      43.960  34.773  35.233  1.00  0.00     0.127 S 
ATOM     48  O   UNL A   1      43.212  35.445  34.172  1.00  0.00    -0.237 OA
ATOM     49  O   UNL A   1      43.781  35.351  36.566  1.00  0.00    -0.237 OA
ATOM     50  O   UNL A   1      45.333  34.421  34.903  1.00  0.00    -0.744 OA
ENDBRANCH  44  47
ENDBRANCH  26  40
BRANCH  27  51
ATOM     51  C   UNL A   1      42.608  24.174  27.300  1.00  0.00     0.023 A 
ATOM     52  C   UNL A   1      43.323  24.472  26.125  1.00  0.00     0.012 A 
ATOM     53  C   UNL A   1      41.992  22.915  27.428  1.00  0.00     0.148 A 
ATOM     54  C   UNL A   1      43.404  23.542  25.088  1.00  0.00     0.002 A 
ATOM     55  C   UNL A   1      42.126  21.971  26.418  1.00  0.00     0.091 A 
ATOM     56  F   UNL A   1      41.296  22.655  28.546  1.00  0.00    -0.205 F 
ATOM     57  C   UNL A   1      42.817  22.288  25.239  1.00  0.00     0.022 A 
BRANCH  55  58
ATOM     58  S   UNL A   1      41.527  20.288  26.607  1.00  0.00     0.127 S 
ATOM     59  O   UNL A   1      41.957  19.674  25.354  1.00  0.00    -0.237 OA
ATOM     60  O   UNL A   1      42.248  19.834  27.797  1.00  0.00    -0.237 OA
ATOM     61  O   UNL A   1      40.088  20.415  26.798  1.00  0.00    -0.744 OA
ENDBRANCH  55  58
ENDBRANCH  27  51
BRANCH  39  62
ATOM     62  C   UNL A   1      46.620  25.480  32.858  1.00  0.00     0.023 A 
ATOM     63  C   UNL A   1      47.871  25.985  32.452  1.00  0.00     0.012 A 
ATOM     64  C   UNL A   1      46.567  24.428  33.792  1.00  0.00     0.148 A 
ATOM     65  C   UNL A   1      49.052  25.431  32.943  1.00  0.00     0.002 A 
ATOM     66  C   UNL A   1      47.748  23.910  34.313  1.00  0.00     0.091 A 
ATOM     67  F   UNL A   1      45.367  23.947  34.148  1.00  0.00    -0.205 F 
ATOM     68  C   UNL A   1      48.990  24.402  33.882  1.00  0.00     0.022 A 
BRANCH  66  69
ATOM     69  S   UNL A   1      47.757  22.648  35.590  1.00  0.00     0.127 S 
ATOM     70  O   UNL A   1      47.084  23.333  36.692  1.00  0.00    -0.237 OA
ATOM     71  O   UNL A   1      46.978  21.572  34.973  1.00  0.00    -0.237 OA
ATOM     72  O   UNL A   1      49.160  22.320  35.816  1.00  0.00    -0.744 OA
ENDBRANCH  66  69
ENDBRANCH  39  62
ENDBRANCH  13  14
ENDBRANCH   6   8
ENDBRANCH   3   4
ENDBRANCH   2   3
ENDBRANCH   1   2
BRANCH   1  73
ATOM     73  C   UNL A   1      34.139  25.704  25.231  1.00  0.00     0.002 C 
BRANCH  73  74
ATOM     74  C   UNL A   1      34.674  24.635  24.273  1.00  0.00     0.021 C 
BRANCH  74  75
ATOM     75  C   UNL A   1      34.606  23.201  24.792  1.00  0.00     0.116 C 
BRANCH  75  76
ATOM     76  N   UNL A   1      33.832  22.332  23.925  1.00  0.00    -0.352 N 
ATOM     77  C   UNL A   1      32.470  22.313  23.741  1.00  0.00     0.255 C 
ATOM     78  H   UNL A   1      34.346  21.673  23.404  1.00  0.00     0.163 HD
ATOM     79  O   UNL A   1      31.948  21.477  23.008  1.00  0.00    -0.269 OA
BRANCH  77  80
ATOM     80  C   UNL A   1      31.620  23.258  24.493  1.00  0.00     0.083 A 
ATOM     81  C   UNL A   1      31.031  24.306  23.774  1.00  0.00     0.046 A 
ATOM     82  C   UNL A   1      31.387  23.127  25.865  1.00  0.00     0.128 A 
ATOM     83  C   UNL A   1      30.168  25.199  24.410  1.00  0.00     0.064 A 
ATOM     84  C   UNL A   1      30.508  23.998  26.504  1.00  0.00     0.049 A 
ATOM     85  C   UNL A   1      29.887  25.014  25.771  1.00  0.00     0.032 A 
BRANCH  82  86
ATOM     86  O   UNL A   1      32.001  22.141  26.583  1.00  0.00    -0.507 OA
ATOM     87  H   UNL A   1      31.689  21.259  26.528  1.00  0.00     0.293 HD
ENDBRANCH  82  86
BRANCH  83  88
ATOM     88  N   UNL A   1      29.572  26.219  23.646  1.00  0.00    -0.256 NA
ATOM     89  C   UNL A   1      30.014  27.425  23.806  1.00  0.00     0.119 C 
BRANCH  89  90
ATOM     90  C   UNL A   1      29.489  28.567  23.033  1.00  0.00    -0.007 A 
ATOM     91  C   UNL A   1      28.125  28.866  23.130  1.00  0.00     0.017 A 
ATOM     92  C   UNL A   1      30.334  29.361  22.249  1.00  0.00     0.017 A 
ATOM     93  C   UNL A   1      27.605  29.974  22.458  1.00  0.00     0.086 A 
ATOM     94  C   UNL A   1      29.820  30.474  21.576  1.00  0.00     0.086 A 
ATOM     95  C   UNL A   1      28.457  30.782  21.692  1.00  0.00     0.269 A 
BRANCH  95  96
ATOM     96  N   UNL A   1      27.917  31.972  21.020  1.00  0.00     0.062 N 
ATOM     97  O   UNL A   1      28.007  33.057  21.613  1.00  0.00    -0.258 OA
ATOM     98  O   UNL A   1      27.412  31.823  19.899  1.00  0.00    -0.258 OA
ENDBRANCH  95  96
ENDBRANCH  89  90
ENDBRANCH  83  88
ENDBRANCH  77  80
ENDBRANCH  75  76
ENDBRANCH  74  75
ENDBRANCH  73  74
ENDBRANCH   1  73
TORSDOF 20
ENDMDL
MODEL 3
REMARK VINA RESULT:     -11.8      3.960      9.641
REMARK SMILES O=C(NCCCCCCNC(=O)c1cc(/N=C/c2ccc([N+](=O)[O-])cc2)ccc1O)c1ccc(-c2c3nc(c(-c4cccc(S(=O)(=O)[O-])c4F)c4ccc([nH]4)c(-c4cccc(S(=O)(=O)[O-])c4F)c4nc(c(-c5cccc(S(=O)(=O)[O-])c5F)c5ccc2[nH]5)C=C4)C=C3)cc1
REMARK SMILES IDX 6 1 5 2 4 3 3 4 1 5 2 6 31 8 32 9 93 10 33 11 92 12 34 13
REMARK SMILES IDX 35 14 36 15 86 16 37 17 91 18 85 19 87 20 38 21 90 22 84 23
REMARK SMILES IDX 83 24 39 26 71 27 51 28 70 29 52 30 55 31 69 32 88 33 53 34
REMARK SMILES IDX 54 35 68 37 89 38 56 39 40 40 41 41 49 42 42 43 44 44 50 45
REMARK SMILES IDX 43 46 45 47 46 48 47 49 48 50 72 51 73 52 81 53 74 54 76 55
REMARK SMILES IDX 82 56 75 57 77 58 78 59 79 60 80 61 57 62 58 63 66 64 59 65
REMARK SMILES IDX 61 66 67 67 60 68 62 69 63 70 64 71 65 72 7 73 8 74 9 75
REMARK SMILES IDX 10 76 11 77 12 79 13 80 14 81 29 82 15 83 28 84 27 85 30 86
REMARK SMILES IDX 16 88 17 89 18 90 19 91 26 92 20 93 25 94 21 95 22 96 23 97
REMARK SMILES IDX 24 98
REMARK H PARENT 3 7 87 25 55 36 10 78 30 87
REMARK Flexibility Score: inf
ROOT
ATOM      1  C   UNL A   1      34.001  26.228  25.445  1.00  0.00     0.002 C 
ENDROOT
BRANCH   1   2
ATOM      2  C   UNL A   1      33.597  27.496  26.198  1.00  0.00     0.021 C 
BRANCH   2   3
ATOM      3  C   UNL A   1      34.302  28.772  25.755  1.00  0.00     0.116 C 
BRANCH   3   4
ATOM      4  N   UNL A   1      33.865  29.941  26.498  1.00  0.00    -0.352 N 
ATOM      5  O   UNL A   1      33.854  31.439  28.180  1.00  0.00    -0.269 OA
ATOM      6  C   UNL A   1      34.452  30.546  27.584  1.00  0.00     0.251 C 
ATOM      7  H   UNL A   1      33.034  30.360  26.178  1.00  0.00     0.163 HD
BRANCH   6   8
ATOM      8  C   UNL A   1      35.784  30.097  28.050  1.00  0.00     0.039 A 
ATOM      9  C   UNL A   1      35.917  29.346  29.221  1.00  0.00     0.014 A 
ATOM     10  C   UNL A   1      36.915  30.424  27.298  1.00  0.00     0.014 A 
ATOM     11  C   UNL A   1      37.184  29.035  29.706  1.00  0.00     0.010 A 
ATOM     12  C   UNL A   1      38.183  30.040  27.745  1.00  0.00     0.010 A 
ATOM     13  C   UNL A   1      38.331  29.366  28.967  1.00  0.00    -0.014 A 
BRANCH  13  14
ATOM     14  C   UNL A   1      39.663  28.914  29.446  1.00  0.00     0.031 A 
ATOM     15  C   UNL A   1      40.369  29.611  30.577  1.00  0.00     0.074 A 
ATOM     16  C   UNL A   1      40.241  27.862  28.835  1.00  0.00     0.049 A 
ATOM     17  N   UNL A   1      41.523  29.322  31.124  1.00  0.00    -0.248 NA
ATOM     18  C   UNL A   1      39.705  30.784  31.168  1.00  0.00     0.031 C 
ATOM     19  C   UNL A   1      39.675  27.141  27.690  1.00  0.00     0.029 A 
ATOM     20  N   UNL A   1      41.426  27.218  29.077  1.00  0.00    -0.354 N 
ATOM     21  C   UNL A   1      41.743  30.292  32.094  1.00  0.00     0.074 A 
ATOM     22  C   UNL A   1      40.603  31.185  32.060  1.00  0.00     0.031 C 
ATOM     23  C   UNL A   1      40.503  26.145  27.343  1.00  0.00     0.029 A 
ATOM     24  C   UNL A   1      41.677  26.182  28.206  1.00  0.00     0.049 A 
ATOM     25  H   UNL A   1      42.040  27.471  29.805  1.00  0.00     0.167 HD
ATOM     26  C   UNL A   1      42.792  30.418  32.943  1.00  0.00     0.034 A 
ATOM     27  C   UNL A   1      42.740  25.363  28.099  1.00  0.00     0.034 A 
ATOM     28  C   UNL A   1      43.904  29.505  32.997  1.00  0.00     0.049 A 
ATOM     29  C   UNL A   1      43.870  25.509  29.078  1.00  0.00     0.074 A 
ATOM     30  C   UNL A   1      44.975  29.507  33.873  1.00  0.00     0.029 A 
ATOM     31  N   UNL A   1      44.095  28.434  32.137  1.00  0.00    -0.354 N 
ATOM     32  N   UNL A   1      43.987  26.343  30.082  1.00  0.00    -0.248 NA
ATOM     33  C   UNL A   1      45.002  24.584  28.927  1.00  0.00     0.031 C 
ATOM     34  C   UNL A   1      45.823  28.448  33.532  1.00  0.00     0.029 A 
ATOM     35  C   UNL A   1      45.270  27.775  32.454  1.00  0.00     0.049 A 
ATOM     36  H   UNL A   1      43.484  28.180  31.407  1.00  0.00     0.167 HD
ATOM     37  C   UNL A   1      45.192  26.029  30.698  1.00  0.00     0.074 A 
ATOM     38  C   UNL A   1      45.752  24.908  29.971  1.00  0.00     0.031 C 
ATOM     39  C   UNL A   1      45.790  26.628  31.756  1.00  0.00     0.034 A 
BRANCH  26  40
ATOM     40  C   UNL A   1      42.777  31.558  33.928  1.00  0.00     0.023 A 
ATOM     41  C   UNL A   1      43.279  32.816  33.539  1.00  0.00     0.012 A 
ATOM     42  C   UNL A   1      42.174  31.415  35.194  1.00  0.00     0.148 A 
ATOM     43  C   UNL A   1      43.200  33.910  34.401  1.00  0.00     0.002 A 
ATOM     44  C   UNL A   1      42.066  32.519  36.033  1.00  0.00     0.091 A 
ATOM     45  F   UNL A   1      41.717  30.207  35.552  1.00  0.00    -0.205 F 
ATOM     46  C   UNL A   1      42.584  33.765  35.641  1.00  0.00     0.022 A 
BRANCH  44  47
ATOM     47  S   UNL A   1      41.223  32.455  37.619  1.00  0.00     0.127 S 
ATOM     48  O   UNL A   1      42.078  31.536  38.369  1.00  0.00    -0.237 OA
ATOM     49  O   UNL A   1      41.291  33.849  38.061  1.00  0.00    -0.237 OA
ATOM     50  O   UNL A   1      39.879  31.971  37.341  1.00  0.00    -0.744 OA
ENDBRANCH  44  47
ENDBRANCH  26  40
BRANCH  27  51
ATOM     51  C   UNL A   1      42.755  24.304  27.053  1.00  0.00     0.023 A 
ATOM     52  C   UNL A   1      43.473  24.516  25.861  1.00  0.00     0.012 A 
ATOM     53  C   UNL A   1      42.097  23.075  27.249  1.00  0.00     0.148 A 
ATOM     54  C   UNL A   1      43.517  23.531  24.874  1.00  0.00     0.002 A 
ATOM     55  C   UNL A   1      42.194  22.076  26.288  1.00  0.00     0.091 A 
ATOM     56  F   UNL A   1      41.400  22.898  28.380  1.00  0.00    -0.205 F 
ATOM     57  C   UNL A   1      42.889  22.307  25.092  1.00  0.00     0.022 A 
BRANCH  55  58
ATOM     58  S   UNL A   1      41.539  20.427  26.567  1.00  0.00     0.127 S 
ATOM     59  O   UNL A   1      40.099  20.668  26.540  1.00  0.00    -0.237 OA
ATOM     60  O   UNL A   1      42.062  19.687  25.418  1.00  0.00    -0.237 OA
ATOM     61  O   UNL A   1      42.095  20.006  27.846  1.00  0.00    -0.744 OA
ENDBRANCH  55  58
ENDBRANCH  27  51
BRANCH  39  62
ATOM     62  C   UNL A   1      47.113  26.071  32.209  1.00  0.00     0.023 A 
ATOM     63  C   UNL A   1      47.152  25.159  33.282  1.00  0.00     0.012 A 
ATOM     64  C   UNL A   1      48.304  26.402  31.537  1.00  0.00     0.148 A 
ATOM     65  C   UNL A   1      48.362  24.609  33.700  1.00  0.00     0.002 A 
ATOM     66  C   UNL A   1      49.502  25.815  31.929  1.00  0.00     0.091 A 
ATOM     67  F   UNL A   1      48.249  27.290  30.533  1.00  0.00    -0.205 F 
ATOM     68  C   UNL A   1      49.534  24.927  33.017  1.00  0.00     0.022 A 
BRANCH  66  69
ATOM     69  S   UNL A   1      51.041  26.099  31.049  1.00  0.00     0.127 S 
ATOM     70  O   UNL A   1      50.711  25.621  29.708  1.00  0.00    -0.237 OA
ATOM     71  O   UNL A   1      51.199  27.551  31.156  1.00  0.00    -0.237 OA
ATOM     72  O   UNL A   1      52.055  25.330  31.759  1.00  0.00    -0.744 OA
ENDBRANCH  66  69
ENDBRANCH  39  62
ENDBRANCH  13  14
ENDBRANCH   6   8
ENDBRANCH   3   4
ENDBRANCH   2   3
ENDBRANCH   1   2
BRANCH   1  73
ATOM     73  C   UNL A   1      34.907  25.259  26.209  1.00  0.00     0.002 C 
BRANCH  73  74
ATOM     74  C   UNL A   1      35.457  24.078  25.403  1.00  0.00     0.021 C 
BRANCH  74  75
ATOM     75  C   UNL A   1      35.695  22.798  26.198  1.00  0.00     0.116 C 
BRANCH  75  76
ATOM     76  N   UNL A   1      34.753  22.639  27.292  1.00  0.00    -0.352 N 
ATOM     77  C   UNL A   1      33.420  22.312  27.221  1.00  0.00     0.255 C 
ATOM     78  H   UNL A   1      35.115  22.785  28.196  1.00  0.00     0.163 HD
ATOM     79  O   UNL A   1      32.732  22.265  28.238  1.00  0.00    -0.269 OA
BRANCH  77  80
ATOM     80  C   UNL A   1      32.793  22.088  25.904  1.00  0.00     0.083 A 
ATOM     81  C   UNL A   1      31.994  23.117  25.388  1.00  0.00     0.046 A 
ATOM     82  C   UNL A   1      32.983  20.911  25.173  1.00  0.00     0.128 A 
ATOM     83  C   UNL A   1      31.422  22.997  24.121  1.00  0.00     0.064 A 
ATOM     84  C   UNL A   1      32.436  20.791  23.898  1.00  0.00     0.049 A 
ATOM     85  C   UNL A   1      31.679  21.840  23.370  1.00  0.00     0.032 A 
BRANCH  82  86
ATOM     86  O   UNL A   1      33.716  19.883  25.693  1.00  0.00    -0.507 OA
ATOM     87  H   UNL A   1      34.652  19.915  25.668  1.00  0.00     0.293 HD
ENDBRANCH  82  86
BRANCH  83  88
ATOM     88  N   UNL A   1      30.651  24.065  23.627  1.00  0.00    -0.256 NA
ATOM     89  C   UNL A   1      30.722  25.196  24.252  1.00  0.00     0.119 C 
BRANCH  89  90
ATOM     90  C   UNL A   1      29.986  26.393  23.803  1.00  0.00    -0.007 A 
ATOM     91  C   UNL A   1      30.700  27.408  23.155  1.00  0.00     0.017 A 
ATOM     92  C   UNL A   1      28.602  26.503  23.981  1.00  0.00     0.017 A 
ATOM     93  C   UNL A   1      30.027  28.529  22.664  1.00  0.00     0.086 A 
ATOM     94  C   UNL A   1      27.922  27.622  23.490  1.00  0.00     0.086 A 
ATOM     95  C   UNL A   1      28.637  28.627  22.823  1.00  0.00     0.269 A 
BRANCH  95  96
ATOM     96  N   UNL A   1      27.924  29.787  22.269  1.00  0.00     0.062 N 
ATOM     97  O   UNL A   1      27.197  30.434  23.036  1.00  0.00    -0.258 OA
ATOM     98  O   UNL A   1      28.100  30.055  21.072  1.00  0.00    -0.258 OA
ENDBRANCH  95  96
ENDBRANCH  89  90
ENDBRANCH  83  88
ENDBRANCH  77  80
ENDBRANCH  75  76
ENDBRANCH  74  75
ENDBRANCH  73  74
ENDBRANCH   1  73
TORSDOF 20
ENDMDL
