MODEL 1
REMARK VINA RESULT:     -12.5      0.000      0.000
REMARK SMILES O=C(NCCCCCCNC(=O)c1cccc(N2NC(=O)[C@H]3CC=CC[C@H]3C2=O)c1)c1ccc(-c2c3nc(c(-c4cccc(S(=O)(=O)[O-])c4F)c4ccc([nH]4)c(-c4cccc(S(=O)(=O)[O-])c4F)c4nc(c(-c5cccc(S(=O)(=O)[O-])c5F)c5ccc2[nH]5)C=C4)C=C3)cc1
REMARK SMILES IDX 5 1 4 2 3 3 1 4 2 5 31 7 32 8 93 9 33 10 92 11 34 12 35 13
REMARK SMILES IDX 36 14 86 15 37 16 91 17 85 18 87 19 38 20 90 21 84 22 83 23
REMARK SMILES IDX 39 25 71 26 51 27 70 28 52 29 55 30 69 31 88 32 53 33 54 34
REMARK SMILES IDX 68 36 89 37 56 38 40 39 41 40 49 41 42 42 44 43 50 44 43 45
REMARK SMILES IDX 45 46 46 47 47 48 48 49 72 50 73 51 81 52 74 53 76 54 82 55
REMARK SMILES IDX 75 56 77 57 78 58 79 59 80 60 57 61 58 62 66 63 59 64 61 65
REMARK SMILES IDX 67 66 60 67 62 68 63 69 64 70 65 71 6 72 7 73 8 74 9 75
REMARK SMILES IDX 10 76 11 77 12 79 13 80 14 81 30 82 15 83 17 84 16 85 18 86
REMARK SMILES IDX 19 87 28 88 20 89 27 91 29 92 21 93 22 94 26 95 23 96 25 97
REMARK SMILES IDX 24 98
REMARK H PARENT 3 6 87 24 55 35 10 78 19 90
REMARK Flexibility Score: inf
ROOT
ATOM      1  C   UNL A   1      33.001  28.016  25.582  1.00  0.00     0.021 C 
ENDROOT
BRANCH   1   2
ATOM      2  C   UNL A   1      33.631  29.326  25.127  1.00  0.00     0.116 C 
BRANCH   2   3
ATOM      3  N   UNL A   1      32.990  30.490  25.716  1.00  0.00    -0.352 N 
ATOM      4  O   UNL A   1      32.553  32.032  27.297  1.00  0.00    -0.269 OA
ATOM      5  C   UNL A   1      33.305  31.158  26.874  1.00  0.00     0.251 C 
ATOM      6  H   UNL A   1      32.224  30.850  25.214  1.00  0.00     0.163 HD
BRANCH   5   7
ATOM      7  C   UNL A   1      34.532  30.801  27.622  1.00  0.00     0.039 A 
ATOM      8  C   UNL A   1      34.624  29.587  28.307  1.00  0.00     0.014 A 
ATOM      9  C   UNL A   1      35.608  31.693  27.632  1.00  0.00     0.014 A 
ATOM     10  C   UNL A   1      35.730  29.326  29.110  1.00  0.00     0.010 A 
ATOM     11  C   UNL A   1      36.754  31.393  28.376  1.00  0.00     0.010 A 
ATOM     12  C   UNL A   1      36.813  30.221  29.145  1.00  0.00    -0.014 A 
BRANCH  12  13
ATOM     13  C   UNL A   1      38.025  29.868  29.930  1.00  0.00     0.031 A 
ATOM     14  C   UNL A   1      38.246  30.405  31.316  1.00  0.00     0.074 A 
ATOM     15  C   UNL A   1      38.937  29.051  29.368  1.00  0.00     0.049 A 
ATOM     16  N   UNL A   1      39.234  30.164  32.140  1.00  0.00    -0.248 NA
ATOM     17  C   UNL A   1      37.240  31.337  31.848  1.00  0.00     0.031 C 
ATOM     18  C   UNL A   1      38.858  28.514  28.007  1.00  0.00     0.029 A 
ATOM     19  N   UNL A   1      40.107  28.533  29.861  1.00  0.00    -0.354 N 
ATOM     20  C   UNL A   1      38.993  30.939  33.267  1.00  0.00     0.074 A 
ATOM     21  C   UNL A   1      37.765  31.665  33.023  1.00  0.00     0.031 C 
ATOM     22  C   UNL A   1      39.918  27.727  27.782  1.00  0.00     0.029 A 
ATOM     23  C   UNL A   1      40.775  27.736  28.961  1.00  0.00     0.049 A 
ATOM     24  H   UNL A   1      40.436  28.714  30.771  1.00  0.00     0.167 HD
ATOM     25  C   UNL A   1      39.720  31.024  34.408  1.00  0.00     0.034 A 
ATOM     26  C   UNL A   1      41.953  27.093  29.066  1.00  0.00     0.034 A 
ATOM     27  C   UNL A   1      40.919  30.268  34.663  1.00  0.00     0.049 A 
ATOM     28  C   UNL A   1      42.713  27.170  30.359  1.00  0.00     0.074 A 
ATOM     29  C   UNL A   1      41.683  30.230  35.817  1.00  0.00     0.029 A 
ATOM     30  N   UNL A   1      41.534  29.424  33.751  1.00  0.00    -0.354 N 
ATOM     31  N   UNL A   1      42.391  27.795  31.465  1.00  0.00    -0.248 NA
ATOM     32  C   UNL A   1      43.982  26.432  30.429  1.00  0.00     0.031 C 
ATOM     33  C   UNL A   1      42.768  29.374  35.598  1.00  0.00     0.029 A 
ATOM     34  C   UNL A   1      42.672  28.867  34.312  1.00  0.00     0.049 A 
ATOM     35  H   UNL A   1      41.210  29.246  32.838  1.00  0.00     0.167 HD
ATOM     36  C   UNL A   1      43.406  27.511  32.370  1.00  0.00     0.074 A 
ATOM     37  C   UNL A   1      44.336  26.632  31.692  1.00  0.00     0.031 C 
ATOM     38  C   UNL A   1      43.564  27.956  33.641  1.00  0.00     0.034 A 
BRANCH  25  39
ATOM     39  C   UNL A   1      39.217  31.933  35.500  1.00  0.00     0.023 A 
ATOM     40  C   UNL A   1      38.288  31.439  36.438  1.00  0.00     0.012 A 
ATOM     41  C   UNL A   1      39.724  33.239  35.651  1.00  0.00     0.148 A 
ATOM     42  C   UNL A   1      37.852  32.239  37.495  1.00  0.00     0.002 A 
ATOM     43  C   UNL A   1      39.312  34.017  36.728  1.00  0.00     0.091 A 
ATOM     44  F   UNL A   1      40.591  33.698  34.738  1.00  0.00    -0.205 F 
ATOM     45  C   UNL A   1      38.371  33.521  37.645  1.00  0.00     0.022 A 
BRANCH  43  46
ATOM     46  S   UNL A   1      39.979  35.655  37.048  1.00  0.00     0.127 S 
ATOM     47  O   UNL A   1      39.277  36.023  38.277  1.00  0.00    -0.237 OA
ATOM     48  O   UNL A   1      41.407  35.380  37.220  1.00  0.00    -0.237 OA
ATOM     49  O   UNL A   1      39.655  36.454  35.875  1.00  0.00    -0.744 OA
ENDBRANCH  43  46
ENDBRANCH  25  39
BRANCH  26  50
ATOM     50  C   UNL A   1      42.445  26.275  27.922  1.00  0.00     0.023 A 
ATOM     51  C   UNL A   1      43.431  26.801  27.067  1.00  0.00     0.012 A 
ATOM     52  C   UNL A   1      41.990  24.957  27.720  1.00  0.00     0.148 A 
ATOM     53  C   UNL A   1      43.943  26.036  26.020  1.00  0.00     0.002 A 
ATOM     54  C   UNL A   1      42.547  24.180  26.712  1.00  0.00     0.091 A 
ATOM     55  F   UNL A   1      41.036  24.482  28.534  1.00  0.00    -0.205 F 
ATOM     56  C   UNL A   1      43.513  24.722  25.851  1.00  0.00     0.022 A 
BRANCH  54  57
ATOM     57  S   UNL A   1      42.156  22.436  26.529  1.00  0.00     0.127 S 
ATOM     58  O   UNL A   1      42.656  21.884  27.784  1.00  0.00    -0.237 OA
ATOM     59  O   UNL A   1      40.698  22.461  26.402  1.00  0.00    -0.237 OA
ATOM     60  O   UNL A   1      42.850  22.009  25.321  1.00  0.00    -0.744 OA
ENDBRANCH  54  57
ENDBRANCH  26  50
BRANCH  38  61
ATOM     61  C   UNL A   1      44.784  27.490  34.390  1.00  0.00     0.023 A 
ATOM     62  C   UNL A   1      45.961  28.265  34.349  1.00  0.00     0.012 A 
ATOM     63  C   UNL A   1      44.747  26.327  35.181  1.00  0.00     0.148 A 
ATOM     64  C   UNL A   1      47.092  27.871  35.061  1.00  0.00     0.002 A 
ATOM     65  C   UNL A   1      45.865  25.963  35.922  1.00  0.00     0.091 A 
ATOM     66  F   UNL A   1      43.625  25.591  35.188  1.00  0.00    -0.205 F 
ATOM     67  C   UNL A   1      47.041  26.728  35.855  1.00  0.00     0.022 A 
BRANCH  65  68
ATOM     68  S   UNL A   1      45.855  24.556  37.038  1.00  0.00     0.127 S 
ATOM     69  O   UNL A   1      45.772  23.434  36.105  1.00  0.00    -0.237 OA
ATOM     70  O   UNL A   1      47.144  24.687  37.721  1.00  0.00    -0.237 OA
ATOM     71  O   UNL A   1      44.697  24.744  37.903  1.00  0.00    -0.744 OA
ENDBRANCH  65  68
ENDBRANCH  38  61
ENDBRANCH  12  13
ENDBRANCH   5   7
ENDBRANCH   2   3
ENDBRANCH   1   2
BRANCH   1  72
ATOM     72  C   UNL A   1      33.411  26.780  24.779  1.00  0.00     0.002 C 
BRANCH  72  73
ATOM     73  C   UNL A   1      34.148  25.692  25.564  1.00  0.00     0.002 C 
BRANCH  73  74
ATOM     74  C   UNL A   1      34.591  24.470  24.754  1.00  0.00     0.021 C 
BRANCH  74  75
ATOM     75  C   UNL A   1      34.031  24.385  23.337  1.00  0.00     0.116 C 
BRANCH  75  76
ATOM     76  N   UNL A   1      33.315  23.141  23.090  1.00  0.00    -0.352 N 
ATOM     77  C   UNL A   1      32.032  22.806  23.441  1.00  0.00     0.251 C 
ATOM     78  H   UNL A   1      33.819  22.448  22.606  1.00  0.00     0.163 HD
ATOM     79  O   UNL A   1      31.589  21.679  23.249  1.00  0.00    -0.269 OA
BRANCH  77  80
ATOM     80  C   UNL A   1      31.192  23.821  24.098  1.00  0.00     0.041 A 
ATOM     81  C   UNL A   1      31.039  23.754  25.485  1.00  0.00     0.014 A 
ATOM     82  C   UNL A   1      30.621  24.860  23.352  1.00  0.00     0.042 A 
ATOM     83  C   UNL A   1      30.386  24.786  26.148  1.00  0.00     0.003 A 
ATOM     84  C   UNL A   1      30.001  25.915  24.022  1.00  0.00     0.067 A 
ATOM     85  C   UNL A   1      29.902  25.876  25.424  1.00  0.00     0.028 A 
BRANCH  84  86
ATOM     86  N   UNL A   1      29.427  27.000  23.304  1.00  0.00    -0.221 N 
ATOM     87  N   UNL A   1      28.063  27.238  23.497  1.00  0.00    -0.260 N 
ATOM     88  C   UNL A   1      30.235  27.912  22.626  1.00  0.00     0.249 C 
ATOM     89  C   UNL A   1      27.429  28.404  23.165  1.00  0.00     0.243 C 
ATOM     90  H   UNL A   1      27.522  26.520  23.898  1.00  0.00     0.192 HD
ATOM     91  C   UNL A   1      29.696  29.317  22.551  1.00  0.00     0.097 C 
ATOM     92  O   UNL A   1      31.380  27.668  22.240  1.00  0.00    -0.272 OA
ATOM     93  O   UNL A   1      26.260  28.576  23.504  1.00  0.00    -0.273 OA
ATOM     94  C   UNL A   1      28.198  29.366  22.281  1.00  0.00     0.097 C 
ATOM     95  C   UNL A   1      30.114  30.000  23.865  1.00  0.00     0.041 C 
ATOM     96  C   UNL A   1      27.655  30.803  22.384  1.00  0.00     0.041 C 
ATOM     97  C   UNL A   1      29.350  31.244  24.172  1.00  0.00    -0.030 C 
ATOM     98  C   UNL A   1      28.252  31.610  23.501  1.00  0.00    -0.030 C 
ENDBRANCH  84  86
ENDBRANCH  77  80
ENDBRANCH  75  76
ENDBRANCH  74  75
ENDBRANCH  73  74
ENDBRANCH  72  73
ENDBRANCH   1  72
TORSDOF 17
ENDMDL
MODEL 2
REMARK VINA RESULT:     -12.2      4.698      9.907
REMARK SMILES O=C(NCCCCCCNC(=O)c1cccc(N2NC(=O)[C@H]3CC=CC[C@H]3C2=O)c1)c1ccc(-c2c3nc(c(-c4cccc(S(=O)(=O)[O-])c4F)c4ccc([nH]4)c(-c4cccc(S(=O)(=O)[O-])c4F)c4nc(c(-c5cccc(S(=O)(=O)[O-])c5F)c5ccc2[nH]5)C=C4)C=C3)cc1
REMARK SMILES IDX 5 1 4 2 3 3 1 4 2 5 31 7 32 8 93 9 33 10 92 11 34 12 35 13
REMARK SMILES IDX 36 14 86 15 37 16 91 17 85 18 87 19 38 20 90 21 84 22 83 23
REMARK SMILES IDX 39 25 71 26 51 27 70 28 52 29 55 30 69 31 88 32 53 33 54 34
REMARK SMILES IDX 68 36 89 37 56 38 40 39 41 40 49 41 42 42 44 43 50 44 43 45
REMARK SMILES IDX 45 46 46 47 47 48 48 49 72 50 73 51 81 52 74 53 76 54 82 55
REMARK SMILES IDX 75 56 77 57 78 58 79 59 80 60 57 61 58 62 66 63 59 64 61 65
REMARK SMILES IDX 67 66 60 67 62 68 63 69 64 70 65 71 6 72 7 73 8 74 9 75
REMARK SMILES IDX 10 76 11 77 12 79 13 80 14 81 30 82 15 83 17 84 16 85 18 86
REMARK SMILES IDX 19 87 28 88 20 89 27 91 29 92 21 93 22 94 26 95 23 96 25 97
REMARK SMILES IDX 24 98
REMARK H PARENT 3 6 87 24 55 35 10 78 19 90
REMARK Flexibility Score: inf
ROOT
ATOM      1  C   UNL A   1      35.252  23.205  25.437  1.00  0.00     0.021 C 
ENDROOT
BRANCH   1   2
ATOM      2  C   UNL A   1      36.637  23.749  25.765  1.00  0.00     0.116 C 
BRANCH   2   3
ATOM      3  N   UNL A   1      37.616  22.697  25.979  1.00  0.00    -0.352 N 
ATOM      4  O   UNL A   1      39.643  21.813  26.404  1.00  0.00    -0.269 OA
ATOM      5  C   UNL A   1      38.909  22.798  26.434  1.00  0.00     0.251 C 
ATOM      6  H   UNL A   1      37.310  21.786  25.769  1.00  0.00     0.163 HD
BRANCH   5   7
ATOM      7  C   UNL A   1      39.419  24.097  26.928  1.00  0.00     0.039 A 
ATOM      8  C   UNL A   1      39.308  24.443  28.277  1.00  0.00     0.014 A 
ATOM      9  C   UNL A   1      40.021  24.980  26.027  1.00  0.00     0.014 A 
ATOM     10  C   UNL A   1      39.672  25.717  28.698  1.00  0.00     0.010 A 
ATOM     11  C   UNL A   1      40.461  26.232  26.469  1.00  0.00     0.010 A 
ATOM     12  C   UNL A   1      40.263  26.623  27.801  1.00  0.00    -0.014 A 
BRANCH  12  13
ATOM     13  C   UNL A   1      40.738  27.940  28.302  1.00  0.00     0.031 A 
ATOM     14  C   UNL A   1      42.197  28.301  28.301  1.00  0.00     0.074 A 
ATOM     15  C   UNL A   1      39.825  28.815  28.768  1.00  0.00     0.049 A 
ATOM     16  N   UNL A   1      42.764  29.420  28.673  1.00  0.00    -0.248 NA
ATOM     17  C   UNL A   1      43.145  27.279  27.832  1.00  0.00     0.031 C 
ATOM     18  C   UNL A   1      38.387  28.554  28.871  1.00  0.00     0.029 A 
ATOM     19  N   UNL A   1      39.965  30.093  29.245  1.00  0.00    -0.354 N 
ATOM     20  C   UNL A   1      44.131  29.228  28.522  1.00  0.00     0.074 A 
ATOM     21  C   UNL A   1      44.313  27.879  28.028  1.00  0.00     0.031 C 
ATOM     22  C   UNL A   1      37.775  29.641  29.358  1.00  0.00     0.029 A 
ATOM     23  C   UNL A   1      38.778  30.662  29.643  1.00  0.00     0.049 A 
ATOM     24  H   UNL A   1      40.831  30.558  29.297  1.00  0.00     0.167 HD
ATOM     25  C   UNL A   1      45.141  30.101  28.758  1.00  0.00     0.034 A 
ATOM     26  C   UNL A   1      38.521  31.866  30.188  1.00  0.00     0.034 A 
ATOM     27  C   UNL A   1      44.952  31.455  29.210  1.00  0.00     0.049 A 
ATOM     28  C   UNL A   1      39.656  32.827  30.395  1.00  0.00     0.074 A 
ATOM     29  C   UNL A   1      45.907  32.438  29.406  1.00  0.00     0.029 A 
ATOM     30  N   UNL A   1      43.729  32.016  29.546  1.00  0.00    -0.354 N 
ATOM     31  N   UNL A   1      40.925  32.675  30.109  1.00  0.00    -0.248 NA
ATOM     32  C   UNL A   1      39.319  34.136  30.973  1.00  0.00     0.031 C 
ATOM     33  C   UNL A   1      45.264  33.588  29.873  1.00  0.00     0.029 A 
ATOM     34  C   UNL A   1      43.905  33.328  29.955  1.00  0.00     0.049 A 
ATOM     35  H   UNL A   1      42.863  31.551  29.500  1.00  0.00     0.167 HD
ATOM     36  C   UNL A   1      41.539  33.873  30.452  1.00  0.00     0.074 A 
ATOM     37  C   UNL A   1      40.494  34.752  30.938  1.00  0.00     0.031 C 
ATOM     38  C   UNL A   1      42.851  34.207  30.392  1.00  0.00     0.034 A 
BRANCH  25  39
ATOM     39  C   UNL A   1      46.550  29.641  28.485  1.00  0.00     0.023 A 
ATOM     40  C   UNL A   1      47.135  29.910  27.231  1.00  0.00     0.012 A 
ATOM     41  C   UNL A   1      47.322  29.024  29.490  1.00  0.00     0.148 A 
ATOM     42  C   UNL A   1      48.458  29.551  26.973  1.00  0.00     0.002 A 
ATOM     43  C   UNL A   1      48.651  28.702  29.237  1.00  0.00     0.091 A 
ATOM     44  F   UNL A   1      46.742  28.758  30.669  1.00  0.00    -0.205 F 
ATOM     45  C   UNL A   1      49.217  28.957  27.977  1.00  0.00     0.022 A 
BRANCH  43  46
ATOM     46  S   UNL A   1      49.732  28.002  30.491  1.00  0.00     0.127 S 
ATOM     47  O   UNL A   1      51.013  27.963  29.786  1.00  0.00    -0.237 OA
ATOM     48  O   UNL A   1      49.654  29.000  31.559  1.00  0.00    -0.237 OA
ATOM     49  O   UNL A   1      49.162  26.707  30.831  1.00  0.00    -0.744 OA
ENDBRANCH  43  46
ENDBRANCH  25  39
BRANCH  26  50
ATOM     50  C   UNL A   1      37.117  32.237  30.518  1.00  0.00     0.023 A 
ATOM     51  C   UNL A   1      36.646  32.071  31.833  1.00  0.00     0.012 A 
ATOM     52  C   UNL A   1      36.270  32.813  29.551  1.00  0.00     0.148 A 
ATOM     53  C   UNL A   1      35.351  32.457  32.178  1.00  0.00     0.002 A 
ATOM     54  C   UNL A   1      35.003  33.251  29.915  1.00  0.00     0.091 A 
ATOM     55  F   UNL A   1      36.731  32.945  28.299  1.00  0.00    -0.205 F 
ATOM     56  C   UNL A   1      34.535  33.060  31.223  1.00  0.00     0.022 A 
BRANCH  54  57
ATOM     57  S   UNL A   1      33.953  34.172  28.784  1.00  0.00     0.127 S 
ATOM     58  O   UNL A   1      32.887  34.628  29.671  1.00  0.00    -0.237 OA
ATOM     59  O   UNL A   1      34.856  35.222  28.314  1.00  0.00    -0.237 OA
ATOM     60  O   UNL A   1      33.563  33.218  27.754  1.00  0.00    -0.744 OA
ENDBRANCH  54  57
ENDBRANCH  26  50
BRANCH  38  61
ATOM     61  C   UNL A   1      43.235  35.588  30.851  1.00  0.00     0.023 A 
ATOM     62  C   UNL A   1      43.548  35.806  32.208  1.00  0.00     0.012 A 
ATOM     63  C   UNL A   1      43.347  36.651  29.934  1.00  0.00     0.148 A 
ATOM     64  C   UNL A   1      43.938  37.069  32.650  1.00  0.00     0.002 A 
ATOM     65  C   UNL A   1      43.777  37.897  30.375  1.00  0.00     0.091 A 
ATOM     66  F   UNL A   1      43.022  36.429  28.651  1.00  0.00    -0.205 F 
ATOM     67  C   UNL A   1      44.063  38.110  31.733  1.00  0.00     0.022 A 
BRANCH  65  68
ATOM     68  S   UNL A   1      44.051  39.267  29.246  1.00  0.00     0.127 S 
ATOM     69  O   UNL A   1      42.700  39.518  28.748  1.00  0.00    -0.237 OA
ATOM     70  O   UNL A   1      44.576  40.306  30.134  1.00  0.00    -0.237 OA
ATOM     71  O   UNL A   1      45.007  38.783  28.258  1.00  0.00    -0.744 OA
ENDBRANCH  65  68
ENDBRANCH  38  61
ENDBRANCH  12  13
ENDBRANCH   5   7
ENDBRANCH   2   3
ENDBRANCH   1   2
BRANCH   1  72
ATOM     72  C   UNL A   1      34.082  24.073  25.901  1.00  0.00     0.002 C 
BRANCH  72  73
ATOM     73  C   UNL A   1      34.185  25.563  25.565  1.00  0.00     0.002 C 
BRANCH  73  74
ATOM     74  C   UNL A   1      32.936  26.401  25.858  1.00  0.00     0.021 C 
BRANCH  74  75
ATOM     75  C   UNL A   1      31.689  25.607  26.237  1.00  0.00     0.116 C 
BRANCH  75  76
ATOM     76  N   UNL A   1      30.531  25.963  25.429  1.00  0.00    -0.352 N 
ATOM     77  C   UNL A   1      30.225  25.572  24.150  1.00  0.00     0.251 C 
ATOM     78  H   UNL A   1      29.880  26.564  25.858  1.00  0.00     0.163 HD
ATOM     79  O   UNL A   1      29.255  26.028  23.555  1.00  0.00    -0.269 OA
BRANCH  77  80
ATOM     80  C   UNL A   1      31.112  24.611  23.475  1.00  0.00     0.041 A 
ATOM     81  C   UNL A   1      32.048  25.104  22.562  1.00  0.00     0.014 A 
ATOM     82  C   UNL A   1      31.057  23.248  23.795  1.00  0.00     0.042 A 
ATOM     83  C   UNL A   1      33.001  24.243  22.031  1.00  0.00     0.003 A 
ATOM     84  C   UNL A   1      32.038  22.392  23.294  1.00  0.00     0.067 A 
ATOM     85  C   UNL A   1      33.016  22.904  22.423  1.00  0.00     0.028 A 
BRANCH  84  86
ATOM     86  N   UNL A   1      32.031  21.007  23.610  1.00  0.00    -0.221 N 
ATOM     87  N   UNL A   1      31.964  20.110  22.540  1.00  0.00    -0.260 N 
ATOM     88  C   UNL A   1      32.309  20.572  24.906  1.00  0.00     0.249 C 
ATOM     89  C   UNL A   1      32.277  18.781  22.627  1.00  0.00     0.243 C 
ATOM     90  H   UNL A   1      31.673  20.457  21.666  1.00  0.00     0.192 HD
ATOM     91  C   UNL A   1      32.985  19.228  25.003  1.00  0.00     0.097 C 
ATOM     92  O   UNL A   1      32.171  21.268  25.914  1.00  0.00    -0.272 OA
ATOM     93  O   UNL A   1      32.328  18.103  21.602  1.00  0.00    -0.273 OA
ATOM     94  C   UNL A   1      32.423  18.208  24.022  1.00  0.00     0.097 C 
ATOM     95  C   UNL A   1      34.488  19.499  24.826  1.00  0.00     0.041 C 
ATOM     96  C   UNL A   1      33.249  16.909  24.028  1.00  0.00     0.041 C 
ATOM     97  C   UNL A   1      35.288  18.286  24.486  1.00  0.00    -0.030 C 
ATOM     98  C   UNL A   1      34.732  17.120  24.138  1.00  0.00    -0.030 C 
ENDBRANCH  84  86
ENDBRANCH  77  80
ENDBRANCH  75  76
ENDBRANCH  74  75
ENDBRANCH  73  74
ENDBRANCH  72  73
ENDBRANCH   1  72
TORSDOF 17
ENDMDL
MODEL 3
REMARK VINA RESULT:     -12.0      5.225     10.171
REMARK SMILES O=C(NCCCCCCNC(=O)c1cccc(N2NC(=O)[C@H]3CC=CC[C@H]3C2=O)c1)c1ccc(-c2c3nc(c(-c4cccc(S(=O)(=O)[O-])c4F)c4ccc([nH]4)c(-c4cccc(S(=O)(=O)[O-])c4F)c4nc(c(-c5cccc(S(=O)(=O)[O-])c5F)c5ccc2[nH]5)C=C4)C=C3)cc1
REMARK SMILES IDX 5 1 4 2 3 3 1 4 2 5 31 7 32 8 93 9 33 10 92 11 34 12 35 13
REMARK SMILES IDX 36 14 86 15 37 16 91 17 85 18 87 19 38 20 90 21 84 22 83 23
REMARK SMILES IDX 39 25 71 26 51 27 70 28 52 29 55 30 69 31 88 32 53 33 54 34
REMARK SMILES IDX 68 36 89 37 56 38 40 39 41 40 49 41 42 42 44 43 50 44 43 45
REMARK SMILES IDX 45 46 46 47 47 48 48 49 72 50 73 51 81 52 74 53 76 54 82 55
REMARK SMILES IDX 75 56 77 57 78 58 79 59 80 60 57 61 58 62 66 63 59 64 61 65
REMARK SMILES IDX 67 66 60 67 62 68 63 69 64 70 65 71 6 72 7 73 8 74 9 75
REMARK SMILES IDX 10 76 11 77 12 79 13 80 14 81 30 82 15 83 17 84 16 85 18 86
REMARK SMILES IDX 19 87 28 88 20 89 27 91 29 92 21 93 22 94 26 95 23 96 25 97
REMARK SMILES IDX 24 98
REMARK H PARENT 3 6 87 24 55 35 10 78 19 90
REMARK Flexibility Score: inf
ROOT
ATOM      1  C   UNL A   1      35.471  23.218  25.281  1.00  0.00     0.021 C 
ENDROOT
BRANCH   1   2
ATOM      2  C   UNL A   1      36.168  22.568  26.469  1.00  0.00     0.116 C 
BRANCH   2   3
ATOM      3  N   UNL A   1      37.179  21.604  26.067  1.00  0.00    -0.352 N 
ATOM      4  O   UNL A   1      39.227  20.878  25.475  1.00  0.00    -0.269 OA
ATOM      5  C   UNL A   1      38.541  21.760  25.986  1.00  0.00     0.251 C 
ATOM      6  H   UNL A   1      36.839  20.715  25.818  1.00  0.00     0.163 HD
BRANCH   5   7
ATOM      7  C   UNL A   1      39.172  23.002  26.487  1.00  0.00     0.039 A 
ATOM      8  C   UNL A   1      38.909  24.233  25.880  1.00  0.00     0.014 A 
ATOM      9  C   UNL A   1      40.036  22.934  27.584  1.00  0.00     0.014 A 
ATOM     10  C   UNL A   1      39.610  25.366  26.279  1.00  0.00     0.010 A 
ATOM     11  C   UNL A   1      40.679  24.091  28.036  1.00  0.00     0.010 A 
ATOM     12  C   UNL A   1      40.495  25.311  27.369  1.00  0.00    -0.014 A 
BRANCH  12  13
ATOM     13  C   UNL A   1      41.152  26.558  27.839  1.00  0.00     0.031 A 
ATOM     14  C   UNL A   1      42.605  26.831  27.570  1.00  0.00     0.074 A 
ATOM     15  C   UNL A   1      40.413  27.453  28.525  1.00  0.00     0.049 A 
ATOM     16  N   UNL A   1      43.313  27.885  27.884  1.00  0.00    -0.248 NA
ATOM     17  C   UNL A   1      43.368  25.788  26.866  1.00  0.00     0.031 C 
ATOM     18  C   UNL A   1      39.007  27.272  28.897  1.00  0.00     0.029 A 
ATOM     19  N   UNL A   1      40.735  28.684  29.036  1.00  0.00    -0.354 N 
ATOM     20  C   UNL A   1      44.608  27.622  27.455  1.00  0.00     0.074 A 
ATOM     21  C   UNL A   1      44.592  26.303  26.860  1.00  0.00     0.031 C 
ATOM     22  C   UNL A   1      38.582  28.358  29.554  1.00  0.00     0.029 A 
ATOM     23  C   UNL A   1      39.692  29.294  29.692  1.00  0.00     0.049 A 
ATOM     24  H   UNL A   1      41.626  29.092  28.941  1.00  0.00     0.167 HD
ATOM     25  C   UNL A   1      45.705  28.414  27.535  1.00  0.00     0.034 A 
ATOM     26  C   UNL A   1      39.633  30.471  30.344  1.00  0.00     0.034 A 
ATOM     27  C   UNL A   1      45.706  29.742  28.091  1.00  0.00     0.049 A 
ATOM     28  C   UNL A   1      40.854  31.346  30.376  1.00  0.00     0.074 A 
ATOM     29  C   UNL A   1      46.750  30.650  28.148  1.00  0.00     0.029 A 
ATOM     30  N   UNL A   1      44.616  30.351  28.693  1.00  0.00    -0.354 N 
ATOM     31  N   UNL A   1      42.029  31.137  29.836  1.00  0.00    -0.248 NA
ATOM     32  C   UNL A   1      40.732  32.629  31.081  1.00  0.00     0.031 C 
ATOM     33  C   UNL A   1      46.295  31.802  28.798  1.00  0.00     0.029 A 
ATOM     34  C   UNL A   1      44.963  31.619  29.132  1.00  0.00     0.049 A 
ATOM     35  H   UNL A   1      43.725  29.944  28.794  1.00  0.00     0.167 HD
ATOM     36  C   UNL A   1      42.783  32.269  30.118  1.00  0.00     0.074 A 
ATOM     37  C   UNL A   1      41.919  33.174  30.850  1.00  0.00     0.031 C 
ATOM     38  C   UNL A   1      44.079  32.528  29.818  1.00  0.00     0.034 A 
BRANCH  25  39
ATOM     39  C   UNL A   1      46.997  27.890  26.963  1.00  0.00     0.023 A 
ATOM     40  C   UNL A   1      47.962  27.335  27.827  1.00  0.00     0.012 A 
ATOM     41  C   UNL A   1      47.220  27.866  25.572  1.00  0.00     0.148 A 
ATOM     42  C   UNL A   1      49.140  26.786  27.319  1.00  0.00     0.002 A 
ATOM     43  C   UNL A   1      48.380  27.284  25.070  1.00  0.00     0.091 A 
ATOM     44  F   UNL A   1      46.300  28.417  24.767  1.00  0.00    -0.205 F 
ATOM     45  C   UNL A   1      49.343  26.752  25.943  1.00  0.00     0.022 A 
BRANCH  43  46
ATOM     46  S   UNL A   1      48.699  27.126  23.308  1.00  0.00     0.127 S 
ATOM     47  O   UNL A   1      48.114  25.817  23.020  1.00  0.00    -0.237 OA
ATOM     48  O   UNL A   1      47.955  28.260  22.756  1.00  0.00    -0.237 OA
ATOM     49  O   UNL A   1      50.143  27.218  23.155  1.00  0.00    -0.744 OA
ENDBRANCH  43  46
ENDBRANCH  25  39
BRANCH  26  50
ATOM     50  C   UNL A   1      38.351  30.902  30.965  1.00  0.00     0.023 A 
ATOM     51  C   UNL A   1      38.146  30.703  32.343  1.00  0.00     0.012 A 
ATOM     52  C   UNL A   1      37.363  31.566  30.212  1.00  0.00     0.148 A 
ATOM     53  C   UNL A   1      36.974  31.142  32.957  1.00  0.00     0.002 A 
ATOM     54  C   UNL A   1      36.225  32.054  30.840  1.00  0.00     0.091 A 
ATOM     55  F   UNL A   1      37.569  31.729  28.897  1.00  0.00    -0.205 F 
ATOM     56  C   UNL A   1      36.021  31.831  32.210  1.00  0.00     0.022 A 
BRANCH  54  57
ATOM     57  S   UNL A   1      35.028  33.080  29.979  1.00  0.00     0.127 S 
ATOM     58  O   UNL A   1      35.884  34.097  29.376  1.00  0.00    -0.237 OA
ATOM     59  O   UNL A   1      34.435  32.132  29.035  1.00  0.00    -0.237 OA
ATOM     60  O   UNL A   1      34.107  33.547  31.008  1.00  0.00    -0.744 OA
ENDBRANCH  54  57
ENDBRANCH  26  50
BRANCH  38  61
ATOM     61  C   UNL A   1      44.644  33.848  30.268  1.00  0.00     0.023 A 
ATOM     62  C   UNL A   1      45.291  33.936  31.517  1.00  0.00     0.012 A 
ATOM     63  C   UNL A   1      44.591  34.981  29.434  1.00  0.00     0.148 A 
ATOM     64  C   UNL A   1      45.851  35.140  31.941  1.00  0.00     0.002 A 
ATOM     65  C   UNL A   1      45.188  36.167  29.845  1.00  0.00     0.091 A 
ATOM     66  F   UNL A   1      43.950  34.883  28.259  1.00  0.00    -0.205 F 
ATOM     67  C   UNL A   1      45.809  36.251  31.102  1.00  0.00     0.022 A 
BRANCH  65  68
ATOM     68  S   UNL A   1      45.258  37.618  28.789  1.00  0.00     0.127 S 
ATOM     69  O   UNL A   1      43.880  37.705  28.309  1.00  0.00    -0.237 OA
ATOM     70  O   UNL A   1      45.644  38.672  29.728  1.00  0.00    -0.237 OA
ATOM     71  O   UNL A   1      46.261  37.322  27.774  1.00  0.00    -0.744 OA
ENDBRANCH  65  68
ENDBRANCH  38  61
ENDBRANCH  12  13
ENDBRANCH   5   7
ENDBRANCH   2   3
ENDBRANCH   1   2
BRANCH   1  72
ATOM     72  C   UNL A   1      34.256  24.080  25.628  1.00  0.00     0.002 C 
BRANCH  72  73
ATOM     73  C   UNL A   1      34.405  25.579  25.355  1.00  0.00     0.002 C 
BRANCH  73  74
ATOM     74  C   UNL A   1      33.174  26.437  25.662  1.00  0.00     0.021 C 
BRANCH  74  75
ATOM     75  C   UNL A   1      31.933  25.669  26.109  1.00  0.00     0.116 C 
BRANCH  75  76
ATOM     76  N   UNL A   1      30.747  26.024  25.343  1.00  0.00    -0.352 N 
ATOM     77  C   UNL A   1      30.378  25.605  24.090  1.00  0.00     0.251 C 
ATOM     78  H   UNL A   1      30.126  26.647  25.784  1.00  0.00     0.163 HD
ATOM     79  O   UNL A   1      29.391  26.062  23.526  1.00  0.00    -0.269 OA
BRANCH  77  80
ATOM     80  C   UNL A   1      31.219  24.610  23.403  1.00  0.00     0.041 A 
ATOM     81  C   UNL A   1      32.132  25.065  22.447  1.00  0.00     0.014 A 
ATOM     82  C   UNL A   1      31.145  23.256  23.752  1.00  0.00     0.042 A 
ATOM     83  C   UNL A   1      33.045  24.172  21.901  1.00  0.00     0.003 A 
ATOM     84  C   UNL A   1      32.088  22.368  23.232  1.00  0.00     0.067 A 
ATOM     85  C   UNL A   1      33.045  22.840  22.317  1.00  0.00     0.028 A 
BRANCH  84  86
ATOM     86  N   UNL A   1      32.061  20.989  23.576  1.00  0.00    -0.221 N 
ATOM     87  N   UNL A   1      31.981  20.073  22.524  1.00  0.00    -0.260 N 
ATOM     88  C   UNL A   1      32.332  20.576  24.881  1.00  0.00     0.249 C 
ATOM     89  C   UNL A   1      32.275  18.742  22.637  1.00  0.00     0.243 C 
ATOM     90  H   UNL A   1      31.695  20.407  21.643  1.00  0.00     0.192 HD
ATOM     91  C   UNL A   1      32.989  19.226  25.004  1.00  0.00     0.097 C 
ATOM     92  O   UNL A   1      32.205  21.294  25.874  1.00  0.00    -0.272 OA
ATOM     93  O   UNL A   1      32.316  18.043  21.626  1.00  0.00    -0.273 OA
ATOM     94  C   UNL A   1      32.413  18.194  24.043  1.00  0.00     0.097 C 
ATOM     95  C   UNL A   1      34.496  19.471  24.822  1.00  0.00     0.041 C 
ATOM     96  C   UNL A   1      33.220  16.883  24.075  1.00  0.00     0.041 C 
ATOM     97  C   UNL A   1      35.279  18.241  24.506  1.00  0.00    -0.030 C 
ATOM     98  C   UNL A   1      34.706  17.076  24.181  1.00  0.00    -0.030 C 
ENDBRANCH  84  86
ENDBRANCH  77  80
ENDBRANCH  75  76
ENDBRANCH  74  75
ENDBRANCH  73  74
ENDBRANCH  72  73
ENDBRANCH   1  72
TORSDOF 17
ENDMDL
