MODEL 1
REMARK VINA RESULT:     -10.2      0.000      0.000
REMARK SMILES CCCC(=O)Nc1cccc(C(=O)N[C@@H](C(=O)NCCCCCCNC(=O)c2ccc(-c3c4nc(c(-c5cccc(S(=O)(=O)[O-])c5F)c5ccc([nH]5)c(-c5cccc(S(=O)(=O)[O-])c5F)c5nc(c(-c6cccc(S(=O)(=O)[O-])c6F)c6ccc3[nH]6)C=C5)C=C4)cc2)C2=C(C)N=N[C@@H]2C)c1
REMARK SMILES IDX 20 1 19 2 18 3 16 4 17 5 15 7 14 8 12 9 13 10 11 12 7 13
REMARK SMILES IDX 8 14 98 15 9 16 10 17 6 18 4 19 5 20 3 22 2 23 1 24 91 25
REMARK SMILES IDX 92 26 96 27 93 28 94 29 95 30 97 31 21 32 22 33 23 34 24 35
REMARK SMILES IDX 25 36 26 37 27 39 28 40 29 41 90 42 30 43 89 44 31 45 32 46
REMARK SMILES IDX 33 47 83 48 34 49 88 50 82 51 84 52 35 53 87 54 81 55 80 56
REMARK SMILES IDX 36 58 68 59 48 60 67 61 49 62 52 63 66 64 85 65 50 66 51 67
REMARK SMILES IDX 65 69 86 70 53 71 37 72 38 73 46 74 39 75 41 76 47 77 40 78
REMARK SMILES IDX 42 79 43 80 44 81 45 82 69 83 70 84 78 85 71 86 73 87 79 88
REMARK SMILES IDX 72 89 74 90 75 91 76 92 77 93 54 94 55 95 63 96 56 97 58 98
REMARK SMILES IDX 64 99 57 100 59 101 60 102 61 103 62 104
REMARK H PARENT 18 6 14 11 6 21 25 38 84 57 52 68
REMARK Flexibility Score: inf
ROOT
ATOM      1  C   UNL A   1      47.810  40.031  25.908  1.00  0.00     0.021 C 
ENDROOT
BRANCH   1   2
ATOM      2  C   UNL A   1      46.850  41.149  26.297  1.00  0.00     0.116 C 
BRANCH   2   3
ATOM      3  N   UNL A   1      45.679  41.137  25.453  1.00  0.00    -0.354 N 
ATOM      4  C   UNL A   1      45.313  42.000  24.462  1.00  0.00     0.247 C 
ATOM      5  O   UNL A   1      44.250  41.747  23.883  1.00  0.00    -0.272 OA
ATOM      6  H   UNL A   1      45.052  40.395  25.617  1.00  0.00     0.163 HD
BRANCH   4   7
ATOM      7  C   UNL A   1      46.289  43.131  23.992  1.00  0.00     0.202 C 
BRANCH   7   8
ATOM      8  N   UNL A   1      45.610  44.424  23.849  1.00  0.00    -0.337 N 
ATOM      9  C   UNL A   1      44.696  45.020  23.012  1.00  0.00     0.252 C 
ATOM     10  O   UNL A   1      44.484  46.214  23.247  1.00  0.00    -0.269 OA
ATOM     11  H   UNL A   1      45.891  45.046  24.559  1.00  0.00     0.165 HD
BRANCH   9  12
ATOM     12  C   UNL A   1      43.956  44.394  21.866  1.00  0.00     0.041 A 
ATOM     13  C   UNL A   1      43.619  43.793  19.526  1.00  0.00     0.041 A 
ATOM     14  C   UNL A   1      42.430  43.145  19.816  1.00  0.00     0.026 A 
ATOM     15  C   UNL A   1      44.333  44.462  20.528  1.00  0.00     0.040 A 
ATOM     16  C   UNL A   1      42.014  43.078  21.143  1.00  0.00     0.003 A 
ATOM     17  C   UNL A   1      42.776  43.684  22.156  1.00  0.00     0.014 A 
BRANCH  13  18
ATOM     18  N   UNL A   1      44.114  43.823  18.217  1.00  0.00    -0.326 N 
ATOM     19  C   UNL A   1      43.399  44.273  17.132  1.00  0.00     0.224 C 
ATOM     20  O   UNL A   1      43.546  43.766  16.020  1.00  0.00    -0.275 OA
ATOM     21  H   UNL A   1      45.032  43.502  18.065  1.00  0.00     0.169 HD
BRANCH  19  22
ATOM     22  C   UNL A   1      42.517  45.503  17.346  1.00  0.00     0.100 C 
BRANCH  22  23
ATOM     23  C   UNL A   1      43.103  46.830  16.881  1.00  0.00     0.006 C 
ATOM     24  C   UNL A   1      42.379  48.065  17.409  1.00  0.00     0.004 C 
ENDBRANCH  22  23
ENDBRANCH  19  22
ENDBRANCH  13  18
ENDBRANCH   9  12
ENDBRANCH   7   8
BRANCH   7  25
ATOM     25  C   UNL A   1      46.936  42.714  22.706  1.00  0.00     0.011 C 
ATOM     26  C   UNL A   1      47.956  43.304  22.061  1.00  0.00     0.064 C 
ATOM     27  C   UNL A   1      46.769  41.398  22.021  1.00  0.00     0.156 C 
ATOM     28  C   UNL A   1      48.701  44.551  22.404  1.00  0.00     0.069 C 
ATOM     29  N   UNL A   1      48.434  42.545  21.024  1.00  0.00    -0.160 NA
ATOM     30  N   UNL A   1      47.834  41.439  20.979  1.00  0.00    -0.181 NA
ATOM     31  C   UNL A   1      45.449  41.174  21.297  1.00  0.00     0.040 C 
ENDBRANCH   7  25
ENDBRANCH   4   7
ENDBRANCH   2   3
ENDBRANCH   1   2
BRANCH   1  32
ATOM     32  C   UNL A   1      47.079  38.827  25.309  1.00  0.00     0.002 C 
BRANCH  32  33
ATOM     33  C   UNL A   1      47.395  37.496  26.005  1.00  0.00     0.002 C 
BRANCH  33  34
ATOM     34  C   UNL A   1      48.520  37.572  27.041  1.00  0.00     0.021 C 
BRANCH  34  35
ATOM     35  C   UNL A   1      48.394  36.549  28.165  1.00  0.00     0.116 C 
BRANCH  35  36
ATOM     36  N   UNL A   1      47.699  37.112  29.315  1.00  0.00    -0.352 N 
ATOM     37  C   UNL A   1      46.546  36.690  29.923  1.00  0.00     0.251 C 
ATOM     38  H   UNL A   1      48.118  37.909  29.712  1.00  0.00     0.163 HD
ATOM     39  O   UNL A   1      45.958  37.425  30.709  1.00  0.00    -0.269 OA
BRANCH  37  40
ATOM     40  C   UNL A   1      46.024  35.343  29.623  1.00  0.00     0.039 A 
ATOM     41  C   UNL A   1      46.269  34.303  30.522  1.00  0.00     0.014 A 
ATOM     42  C   UNL A   1      45.303  35.113  28.448  1.00  0.00     0.014 A 
ATOM     43  C   UNL A   1      45.749  33.034  30.259  1.00  0.00     0.010 A 
ATOM     44  C   UNL A   1      44.725  33.870  28.226  1.00  0.00     0.010 A 
ATOM     45  C   UNL A   1      44.953  32.816  29.122  1.00  0.00    -0.014 A 
BRANCH  45  46
ATOM     46  C   UNL A   1      44.348  31.489  28.851  1.00  0.00     0.031 A 
ATOM     47  C   UNL A   1      45.087  30.479  28.018  1.00  0.00     0.074 A 
ATOM     48  C   UNL A   1      43.098  31.234  29.281  1.00  0.00     0.049 A 
ATOM     49  N   UNL A   1      44.699  29.293  27.627  1.00  0.00    -0.248 NA
ATOM     50  C   UNL A   1      46.426  30.861  27.536  1.00  0.00     0.031 C 
ATOM     51  C   UNL A   1      42.252  32.169  30.028  1.00  0.00     0.029 A 
ATOM     52  N   UNL A   1      42.308  30.123  29.127  1.00  0.00    -0.354 N 
ATOM     53  C   UNL A   1      45.724  28.804  26.825  1.00  0.00     0.074 A 
ATOM     54  C   UNL A   1      46.737  29.835  26.758  1.00  0.00     0.031 C 
ATOM     55  C   UNL A   1      41.065  31.590  30.269  1.00  0.00     0.029 A 
ATOM     56  C   UNL A   1      41.053  30.259  29.670  1.00  0.00     0.049 A 
ATOM     57  H   UNL A   1      42.612  29.304  28.671  1.00  0.00     0.167 HD
ATOM     58  C   UNL A   1      45.826  27.595  26.225  1.00  0.00     0.034 A 
ATOM     59  C   UNL A   1      40.006  29.411  29.677  1.00  0.00     0.034 A 
ATOM     60  C   UNL A   1      44.835  26.559  26.335  1.00  0.00     0.049 A 
ATOM     61  C   UNL A   1      40.164  28.056  29.042  1.00  0.00     0.074 A 
ATOM     62  C   UNL A   1      44.884  25.267  25.844  1.00  0.00     0.029 A 
ATOM     63  N   UNL A   1      43.612  26.701  26.970  1.00  0.00    -0.354 N 
ATOM     64  N   UNL A   1      41.206  27.550  28.429  1.00  0.00    -0.248 NA
ATOM     65  C   UNL A   1      39.016  27.143  29.131  1.00  0.00     0.031 C 
ATOM     66  C   UNL A   1      43.678  24.635  26.161  1.00  0.00     0.029 A 
ATOM     67  C   UNL A   1      42.891  25.523  26.877  1.00  0.00     0.049 A 
ATOM     68  H   UNL A   1      43.301  27.519  27.423  1.00  0.00     0.167 HD
ATOM     69  C   UNL A   1      40.855  26.247  28.092  1.00  0.00     0.074 A 
ATOM     70  C   UNL A   1      39.509  26.038  28.587  1.00  0.00     0.031 C 
ATOM     71  C   UNL A   1      41.574  25.314  27.421  1.00  0.00     0.034 A 
BRANCH  58  72
ATOM     72  C   UNL A   1      47.078  27.307  25.437  1.00  0.00     0.023 A 
ATOM     73  C   UNL A   1      48.142  26.614  26.049  1.00  0.00     0.012 A 
ATOM     74  C   UNL A   1      47.179  27.668  24.080  1.00  0.00     0.148 A 
ATOM     75  C   UNL A   1      49.302  26.315  25.334  1.00  0.00     0.002 A 
ATOM     76  C   UNL A   1      48.319  27.326  23.361  1.00  0.00     0.091 A 
ATOM     77  F   UNL A   1      46.167  28.345  23.520  1.00  0.00    -0.205 F 
ATOM     78  C   UNL A   1      49.384  26.661  23.989  1.00  0.00     0.022 A 
BRANCH  76  79
ATOM     79  S   UNL A   1      48.490  27.654  21.603  1.00  0.00     0.127 S 
ATOM     80  O   UNL A   1      48.756  26.316  21.077  1.00  0.00    -0.237 OA
ATOM     81  O   UNL A   1      47.173  28.192  21.262  1.00  0.00    -0.237 OA
ATOM     82  O   UNL A   1      49.586  28.605  21.477  1.00  0.00    -0.744 OA
ENDBRANCH  76  79
ENDBRANCH  58  72
BRANCH  59  83
ATOM     83  C   UNL A   1      38.743  29.794  30.369  1.00  0.00     0.023 A 
ATOM     84  C   UNL A   1      38.527  29.375  31.696  1.00  0.00     0.012 A 
ATOM     85  C   UNL A   1      37.773  30.593  29.734  1.00  0.00     0.148 A 
ATOM     86  C   UNL A   1      37.352  29.717  32.367  1.00  0.00     0.002 A 
ATOM     87  C   UNL A   1      36.631  30.978  30.427  1.00  0.00     0.091 A 
ATOM     88  F   UNL A   1      37.994  30.975  28.468  1.00  0.00    -0.205 F 
ATOM     89  C   UNL A   1      36.410  30.525  31.737  1.00  0.00     0.022 A 
BRANCH  87  90
ATOM     90  S   UNL A   1      35.430  32.125  29.742  1.00  0.00     0.127 S 
ATOM     91  O   UNL A   1      34.519  32.314  30.867  1.00  0.00    -0.237 OA
ATOM     92  O   UNL A   1      36.266  33.284  29.424  1.00  0.00    -0.237 OA
ATOM     93  O   UNL A   1      34.867  31.458  28.575  1.00  0.00    -0.744 OA
ENDBRANCH  87  90
ENDBRANCH  59  83
BRANCH  71  94
ATOM     94  C   UNL A   1      40.941  23.963  27.211  1.00  0.00     0.023 A 
ATOM     95  C   UNL A   1      41.515  22.820  27.801  1.00  0.00     0.012 A 
ATOM     96  C   UNL A   1      39.734  23.841  26.496  1.00  0.00     0.148 A 
ATOM     97  C   UNL A   1      40.916  21.569  27.653  1.00  0.00     0.002 A 
ATOM     98  C   UNL A   1      39.115  22.601  26.396  1.00  0.00     0.091 A 
ATOM     99  F   UNL A   1      39.213  24.938  25.928  1.00  0.00    -0.205 F 
ATOM    100  C   UNL A   1      39.711  21.462  26.962  1.00  0.00     0.022 A 
BRANCH  98 101
ATOM    101  S   UNL A   1      37.513  22.385  25.611  1.00  0.00     0.127 S 
ATOM    102  O   UNL A   1      37.203  20.995  25.945  1.00  0.00    -0.237 OA
ATOM    103  O   UNL A   1      36.692  23.377  26.306  1.00  0.00    -0.237 OA
ATOM    104  O   UNL A   1      37.720  22.656  24.195  1.00  0.00    -0.744 OA
ENDBRANCH  98 101
ENDBRANCH  71  94
ENDBRANCH  45  46
ENDBRANCH  37  40
ENDBRANCH  35  36
ENDBRANCH  34  35
ENDBRANCH  33  34
ENDBRANCH  32  33
ENDBRANCH   1  32
TORSDOF 22
ENDMDL
MODEL 2
REMARK VINA RESULT:     -10.0      6.833     11.979
REMARK SMILES CCCC(=O)Nc1cccc(C(=O)N[C@@H](C(=O)NCCCCCCNC(=O)c2ccc(-c3c4nc(c(-c5cccc(S(=O)(=O)[O-])c5F)c5ccc([nH]5)c(-c5cccc(S(=O)(=O)[O-])c5F)c5nc(c(-c6cccc(S(=O)(=O)[O-])c6F)c6ccc3[nH]6)C=C5)C=C4)cc2)C2=C(C)N=N[C@@H]2C)c1
REMARK SMILES IDX 20 1 19 2 18 3 16 4 17 5 15 7 14 8 12 9 13 10 11 12 7 13
REMARK SMILES IDX 8 14 98 15 9 16 10 17 6 18 4 19 5 20 3 22 2 23 1 24 91 25
REMARK SMILES IDX 92 26 96 27 93 28 94 29 95 30 97 31 21 32 22 33 23 34 24 35
REMARK SMILES IDX 25 36 26 37 27 39 28 40 29 41 90 42 30 43 89 44 31 45 32 46
REMARK SMILES IDX 33 47 83 48 34 49 88 50 82 51 84 52 35 53 87 54 81 55 80 56
REMARK SMILES IDX 36 58 68 59 48 60 67 61 49 62 52 63 66 64 85 65 50 66 51 67
REMARK SMILES IDX 65 69 86 70 53 71 37 72 38 73 46 74 39 75 41 76 47 77 40 78
REMARK SMILES IDX 42 79 43 80 44 81 45 82 69 83 70 84 78 85 71 86 73 87 79 88
REMARK SMILES IDX 72 89 74 90 75 91 76 92 77 93 54 94 55 95 63 96 56 97 58 98
REMARK SMILES IDX 64 99 57 100 59 101 60 102 61 103 62 104
REMARK H PARENT 18 6 14 11 6 21 25 38 84 57 52 68
REMARK Flexibility Score: inf
ROOT
ATOM      1  C   UNL A   1      46.553  42.167  37.204  1.00  0.00     0.021 C 
ENDROOT
BRANCH   1   2
ATOM      2  C   UNL A   1      46.351  42.368  35.707  1.00  0.00     0.116 C 
BRANCH   2   3
ATOM      3  N   UNL A   1      45.461  43.476  35.453  1.00  0.00    -0.354 N 
ATOM      4  C   UNL A   1      44.988  43.958  34.268  1.00  0.00     0.247 C 
ATOM      5  O   UNL A   1      44.221  44.924  34.337  1.00  0.00    -0.272 OA
ATOM      6  H   UNL A   1      45.148  43.955  36.255  1.00  0.00     0.163 HD
BRANCH   4   7
ATOM      7  C   UNL A   1      45.280  43.199  32.928  1.00  0.00     0.202 C 
BRANCH   7   8
ATOM      8  N   UNL A   1      44.987  44.023  31.750  1.00  0.00    -0.337 N 
ATOM      9  C   UNL A   1      44.984  43.897  30.380  1.00  0.00     0.252 C 
ATOM     10  O   UNL A   1      44.741  44.941  29.768  1.00  0.00    -0.269 OA
ATOM     11  H   UNL A   1      44.715  44.930  32.018  1.00  0.00     0.165 HD
BRANCH   9  12
ATOM     12  C   UNL A   1      45.249  42.659  29.572  1.00  0.00     0.041 A 
ATOM     13  C   UNL A   1      44.613  40.634  28.370  1.00  0.00     0.041 A 
ATOM     14  C   UNL A   1      45.929  40.361  28.041  1.00  0.00     0.026 A 
ATOM     15  C   UNL A   1      44.290  41.731  29.180  1.00  0.00     0.040 A 
ATOM     16  C   UNL A   1      46.916  41.260  28.438  1.00  0.00     0.003 A 
ATOM     17  C   UNL A   1      46.576  42.402  29.183  1.00  0.00     0.014 A 
BRANCH  13  18
ATOM     18  N   UNL A   1      43.579  39.799  27.931  1.00  0.00    -0.326 N 
ATOM     19  C   UNL A   1      42.790  40.058  26.835  1.00  0.00     0.224 C 
ATOM     20  O   UNL A   1      41.606  39.726  26.812  1.00  0.00    -0.275 OA
ATOM     21  H   UNL A   1      43.407  38.973  28.439  1.00  0.00     0.169 HD
BRANCH  19  22
ATOM     22  C   UNL A   1      43.482  40.660  25.612  1.00  0.00     0.100 C 
BRANCH  22  23
ATOM     23  C   UNL A   1      43.291  42.159  25.410  1.00  0.00     0.006 C 
ATOM     24  C   UNL A   1      44.562  42.916  25.038  1.00  0.00     0.004 C 
ENDBRANCH  22  23
ENDBRANCH  19  22
ENDBRANCH  13  18
ENDBRANCH   9  12
ENDBRANCH   7   8
BRANCH   7  25
ATOM     25  C   UNL A   1      44.490  41.925  32.908  1.00  0.00     0.011 C 
ATOM     26  C   UNL A   1      44.927  40.682  32.642  1.00  0.00     0.064 C 
ATOM     27  C   UNL A   1      43.116  41.730  33.458  1.00  0.00     0.156 C 
ATOM     28  C   UNL A   1      46.291  40.221  32.248  1.00  0.00     0.069 C 
ATOM     29  N   UNL A   1      43.987  39.723  32.914  1.00  0.00    -0.160 NA
ATOM     30  N   UNL A   1      42.960  40.248  33.419  1.00  0.00    -0.181 NA
ATOM     31  C   UNL A   1      41.971  42.317  32.644  1.00  0.00     0.040 C 
ENDBRANCH   7  25
ENDBRANCH   4   7
ENDBRANCH   2   3
ENDBRANCH   1   2
BRANCH   1  32
ATOM     32  C   UNL A   1      45.646  41.070  37.766  1.00  0.00     0.002 C 
BRANCH  32  33
ATOM     33  C   UNL A   1      46.351  40.112  38.734  1.00  0.00     0.002 C 
BRANCH  33  34
ATOM     34  C   UNL A   1      47.864  40.321  38.845  1.00  0.00     0.021 C 
BRANCH  34  35
ATOM     35  C   UNL A   1      48.665  39.024  38.887  1.00  0.00     0.116 C 
BRANCH  35  36
ATOM     36  N   UNL A   1      49.672  38.991  37.836  1.00  0.00    -0.352 N 
ATOM     37  C   UNL A   1      49.639  38.354  36.623  1.00  0.00     0.251 C 
ATOM     38  H   UNL A   1      50.494  39.500  38.023  1.00  0.00     0.163 HD
ATOM     39  O   UNL A   1      50.668  38.212  35.972  1.00  0.00    -0.269 OA
BRANCH  37  40
ATOM     40  C   UNL A   1      48.352  37.847  36.111  1.00  0.00     0.039 A 
ATOM     41  C   UNL A   1      48.097  36.475  36.152  1.00  0.00     0.014 A 
ATOM     42  C   UNL A   1      47.407  38.730  35.582  1.00  0.00     0.014 A 
ATOM     43  C   UNL A   1      46.868  35.993  35.698  1.00  0.00     0.010 A 
ATOM     44  C   UNL A   1      46.158  38.257  35.201  1.00  0.00     0.010 A 
ATOM     45  C   UNL A   1      45.881  36.883  35.244  1.00  0.00    -0.014 A 
BRANCH  45  46
ATOM     46  C   UNL A   1      44.550  36.397  34.807  1.00  0.00     0.031 A 
ATOM     47  C   UNL A   1      43.500  36.056  35.828  1.00  0.00     0.074 A 
ATOM     48  C   UNL A   1      44.324  36.179  33.498  1.00  0.00     0.049 A 
ATOM     49  N   UNL A   1      42.302  35.565  35.643  1.00  0.00    -0.248 NA
ATOM     50  C   UNL A   1      43.849  36.266  37.243  1.00  0.00     0.031 C 
ATOM     51  C   UNL A   1      45.296  36.396  32.423  1.00  0.00     0.029 A 
ATOM     52  N   UNL A   1      43.214  35.701  32.849  1.00  0.00    -0.354 N 
ATOM     53  C   UNL A   1      41.771  35.373  36.913  1.00  0.00     0.074 A 
ATOM     54  C   UNL A   1      42.789  35.768  37.861  1.00  0.00     0.031 C 
ATOM     55  C   UNL A   1      44.738  36.055  31.251  1.00  0.00     0.029 A 
ATOM     56  C   UNL A   1      43.383  35.567  31.491  1.00  0.00     0.049 A 
ATOM     57  H   UNL A   1      42.374  35.475  33.311  1.00  0.00     0.167 HD
ATOM     58  C   UNL A   1      40.537  34.936  37.257  1.00  0.00     0.034 A 
ATOM     59  C   UNL A   1      42.545  35.098  30.547  1.00  0.00     0.034 A 
ATOM     60  C   UNL A   1      39.515  34.588  36.307  1.00  0.00     0.049 A 
ATOM     61  C   UNL A   1      41.164  34.661  30.953  1.00  0.00     0.074 A 
ATOM     62  C   UNL A   1      38.203  34.224  36.551  1.00  0.00     0.029 A 
ATOM     63  N   UNL A   1      39.693  34.551  34.934  1.00  0.00    -0.354 N 
ATOM     64  N   UNL A   1      40.623  34.643  32.147  1.00  0.00    -0.248 NA
ATOM     65  C   UNL A   1      40.265  34.216  29.879  1.00  0.00     0.031 C 
ATOM     66  C   UNL A   1      37.595  33.941  35.323  1.00  0.00     0.029 A 
ATOM     67  C   UNL A   1      38.519  34.160  34.314  1.00  0.00     0.049 A 
ATOM     68  H   UNL A   1      40.532  34.771  34.467  1.00  0.00     0.167 HD
ATOM     69  C   UNL A   1      39.311  34.220  31.965  1.00  0.00     0.074 A 
ATOM     70  C   UNL A   1      39.134  34.013  30.542  1.00  0.00     0.031 C 
ATOM     71  C   UNL A   1      38.345  34.009  32.892  1.00  0.00     0.034 A 
BRANCH  58  72
ATOM     72  C   UNL A   1      40.205  34.858  38.725  1.00  0.00     0.023 A 
ATOM     73  C   UNL A   1      39.753  36.011  39.399  1.00  0.00     0.012 A 
ATOM     74  C   UNL A   1      40.283  33.636  39.422  1.00  0.00     0.148 A 
ATOM     75  C   UNL A   1      39.418  35.959  40.752  1.00  0.00     0.002 A 
ATOM     76  C   UNL A   1      39.902  33.582  40.758  1.00  0.00     0.091 A 
ATOM     77  F   UNL A   1      40.735  32.556  38.771  1.00  0.00    -0.205 F 
ATOM     78  C   UNL A   1      39.483  34.743  41.427  1.00  0.00     0.022 A 
BRANCH  76  79
ATOM     79  S   UNL A   1      39.872  32.050  41.695  1.00  0.00     0.127 S 
ATOM     80  O   UNL A   1      41.209  31.518  41.434  1.00  0.00    -0.237 OA
ATOM     81  O   UNL A   1      39.663  32.530  43.061  1.00  0.00    -0.237 OA
ATOM     82  O   UNL A   1      38.771  31.267  41.151  1.00  0.00    -0.744 OA
ENDBRANCH  76  79
ENDBRANCH  58  72
BRANCH  59  83
ATOM     83  C   UNL A   1      42.968  35.082  29.118  1.00  0.00     0.023 A 
ATOM     84  C   UNL A   1      42.842  36.254  28.347  1.00  0.00     0.012 A 
ATOM     85  C   UNL A   1      43.521  33.929  28.530  1.00  0.00     0.148 A 
ATOM     86  C   UNL A   1      43.227  36.268  27.006  1.00  0.00     0.002 A 
ATOM     87  C   UNL A   1      43.956  33.966  27.210  1.00  0.00     0.091 A 
ATOM     88  F   UNL A   1      43.626  32.822  29.277  1.00  0.00    -0.205 F 
ATOM     89  C   UNL A   1      43.792  35.129  26.440  1.00  0.00     0.022 A 
BRANCH  87  90
ATOM     90  S   UNL A   1      44.817  32.589  26.441  1.00  0.00     0.127 S 
ATOM     91  O   UNL A   1      46.133  32.671  27.066  1.00  0.00    -0.237 OA
ATOM     92  O   UNL A   1      44.002  31.449  26.863  1.00  0.00    -0.237 OA
ATOM     93  O   UNL A   1      44.780  32.851  25.007  1.00  0.00    -0.744 OA
ENDBRANCH  87  90
ENDBRANCH  59  83
BRANCH  71  94
ATOM     94  C   UNL A   1      36.991  33.565  32.402  1.00  0.00     0.023 A 
ATOM     95  C   UNL A   1      36.760  32.206  32.114  1.00  0.00     0.012 A 
ATOM     96  C   UNL A   1      35.929  34.484  32.302  1.00  0.00     0.148 A 
ATOM     97  C   UNL A   1      35.500  31.773  31.702  1.00  0.00     0.002 A 
ATOM     98  C   UNL A   1      34.663  34.038  31.941  1.00  0.00     0.091 A 
ATOM     99  F   UNL A   1      36.173  35.776  32.563  1.00  0.00    -0.205 F 
ATOM    100  C   UNL A   1      34.450  32.686  31.627  1.00  0.00     0.022 A 
BRANCH  98 101
ATOM    101  S   UNL A   1      33.231  35.123  31.915  1.00  0.00     0.127 S 
ATOM    102  O   UNL A   1      33.803  36.382  32.393  1.00  0.00    -0.237 OA
ATOM    103  O   UNL A   1      32.865  35.118  30.499  1.00  0.00    -0.237 OA
ATOM    104  O   UNL A   1      32.247  34.509  32.796  1.00  0.00    -0.744 OA
ENDBRANCH  98 101
ENDBRANCH  71  94
ENDBRANCH  45  46
ENDBRANCH  37  40
ENDBRANCH  35  36
ENDBRANCH  34  35
ENDBRANCH  33  34
ENDBRANCH  32  33
ENDBRANCH   1  32
TORSDOF 22
ENDMDL
MODEL 3
REMARK VINA RESULT:     -10.0      8.178     13.411
REMARK SMILES CCCC(=O)Nc1cccc(C(=O)N[C@@H](C(=O)NCCCCCCNC(=O)c2ccc(-c3c4nc(c(-c5cccc(S(=O)(=O)[O-])c5F)c5ccc([nH]5)c(-c5cccc(S(=O)(=O)[O-])c5F)c5nc(c(-c6cccc(S(=O)(=O)[O-])c6F)c6ccc3[nH]6)C=C5)C=C4)cc2)C2=C(C)N=N[C@@H]2C)c1
REMARK SMILES IDX 20 1 19 2 18 3 16 4 17 5 15 7 14 8 12 9 13 10 11 12 7 13
REMARK SMILES IDX 8 14 98 15 9 16 10 17 6 18 4 19 5 20 3 22 2 23 1 24 91 25
REMARK SMILES IDX 92 26 96 27 93 28 94 29 95 30 97 31 21 32 22 33 23 34 24 35
REMARK SMILES IDX 25 36 26 37 27 39 28 40 29 41 90 42 30 43 89 44 31 45 32 46
REMARK SMILES IDX 33 47 83 48 34 49 88 50 82 51 84 52 35 53 87 54 81 55 80 56
REMARK SMILES IDX 36 58 68 59 48 60 67 61 49 62 52 63 66 64 85 65 50 66 51 67
REMARK SMILES IDX 65 69 86 70 53 71 37 72 38 73 46 74 39 75 41 76 47 77 40 78
REMARK SMILES IDX 42 79 43 80 44 81 45 82 69 83 70 84 78 85 71 86 73 87 79 88
REMARK SMILES IDX 72 89 74 90 75 91 76 92 77 93 54 94 55 95 63 96 56 97 58 98
REMARK SMILES IDX 64 99 57 100 59 101 60 102 61 103 62 104
REMARK H PARENT 18 6 14 11 6 21 25 38 84 57 52 68
REMARK Flexibility Score: inf
ROOT
ATOM      1  C   UNL A   1      40.901  36.341  37.040  1.00  0.00     0.021 C 
ENDROOT
BRANCH   1   2
ATOM      2  C   UNL A   1      41.414  35.148  36.241  1.00  0.00     0.116 C 
BRANCH   2   3
ATOM      3  N   UNL A   1      42.324  35.577  35.206  1.00  0.00    -0.354 N 
ATOM      4  C   UNL A   1      42.677  34.954  34.045  1.00  0.00     0.247 C 
ATOM      5  O   UNL A   1      43.480  35.555  33.324  1.00  0.00    -0.272 OA
ATOM      6  H   UNL A   1      42.754  36.450  35.361  1.00  0.00     0.163 HD
BRANCH   4   7
ATOM      7  C   UNL A   1      41.955  33.637  33.599  1.00  0.00     0.202 C 
BRANCH   7   8
ATOM      8  N   UNL A   1      42.905  32.596  33.189  1.00  0.00    -0.337 N 
ATOM      9  C   UNL A   1      44.045  31.995  33.669  1.00  0.00     0.252 C 
ATOM     10  O   UNL A   1      44.570  31.192  32.892  1.00  0.00    -0.269 OA
ATOM     11  H   UNL A   1      42.652  32.218  32.315  1.00  0.00     0.165 HD
BRANCH   9  12
ATOM     12  C   UNL A   1      44.708  32.216  34.998  1.00  0.00     0.041 A 
ATOM     13  C   UNL A   1      45.074  31.802  37.373  1.00  0.00     0.041 A 
ATOM     14  C   UNL A   1      46.074  32.757  37.433  1.00  0.00     0.026 A 
ATOM     15  C   UNL A   1      44.360  31.585  36.188  1.00  0.00     0.040 A 
ATOM     16  C   UNL A   1      46.431  33.422  36.263  1.00  0.00     0.003 A 
ATOM     17  C   UNL A   1      45.765  33.143  35.058  1.00  0.00     0.014 A 
BRANCH  13  18
ATOM     18  N   UNL A   1      44.731  31.056  38.507  1.00  0.00    -0.326 N 
ATOM     19  C   UNL A   1      44.234  31.601  39.668  1.00  0.00     0.224 C 
ATOM     20  O   UNL A   1      44.507  31.116  40.765  1.00  0.00    -0.275 OA
ATOM     21  H   UNL A   1      44.853  30.080  38.471  1.00  0.00     0.169 HD
BRANCH  19  22
ATOM     22  C   UNL A   1      43.235  32.749  39.520  1.00  0.00     0.100 C 
BRANCH  22  23
ATOM     23  C   UNL A   1      43.668  34.087  40.108  1.00  0.00     0.006 C 
ATOM     24  C   UNL A   1      42.919  34.498  41.372  1.00  0.00     0.004 C 
ENDBRANCH  22  23
ENDBRANCH  19  22
ENDBRANCH  13  18
ENDBRANCH   9  12
ENDBRANCH   7   8
BRANCH   7  25
ATOM     25  C   UNL A   1      40.993  33.958  32.495  1.00  0.00     0.011 C 
ATOM     26  C   UNL A   1      41.268  34.228  31.207  1.00  0.00     0.064 C 
ATOM     27  C   UNL A   1      39.513  33.766  32.530  1.00  0.00     0.156 C 
ATOM     28  C   UNL A   1      42.590  34.333  30.522  1.00  0.00     0.069 C 
ATOM     29  N   UNL A   1      40.143  34.274  30.426  1.00  0.00    -0.160 NA
ATOM     30  N   UNL A   1      39.126  33.977  31.107  1.00  0.00    -0.181 NA
ATOM     31  C   UNL A   1      38.720  34.769  33.358  1.00  0.00     0.040 C 
ENDBRANCH   7  25
ENDBRANCH   4   7
ENDBRANCH   2   3
ENDBRANCH   1   2
BRANCH   1  32
ATOM     32  C   UNL A   1      39.723  35.965  37.942  1.00  0.00     0.002 C 
BRANCH  32  33
ATOM     33  C   UNL A   1      40.072  34.938  39.027  1.00  0.00     0.002 C 
BRANCH  33  34
ATOM     34  C   UNL A   1      38.981  34.734  40.083  1.00  0.00     0.021 C 
BRANCH  34  35
ATOM     35  C   UNL A   1      38.616  33.272  40.319  1.00  0.00     0.116 C 
BRANCH  35  36
ATOM     36  N   UNL A   1      37.186  33.053  40.155  1.00  0.00    -0.352 N 
ATOM     37  C   UNL A   1      36.490  32.671  39.038  1.00  0.00     0.251 C 
ATOM     38  H   UNL A   1      36.641  33.199  40.962  1.00  0.00     0.163 HD
ATOM     39  O   UNL A   1      35.270  32.787  39.001  1.00  0.00    -0.269 OA
BRANCH  37  40
ATOM     40  C   UNL A   1      37.225  32.117  37.885  1.00  0.00     0.039 A 
ATOM     41  C   UNL A   1      37.345  30.732  37.756  1.00  0.00     0.014 A 
ATOM     42  C   UNL A   1      37.802  32.972  36.942  1.00  0.00     0.014 A 
ATOM     43  C   UNL A   1      38.011  30.202  36.650  1.00  0.00     0.010 A 
ATOM     44  C   UNL A   1      38.398  32.441  35.805  1.00  0.00     0.010 A 
ATOM     45  C   UNL A   1      38.520  31.052  35.655  1.00  0.00    -0.014 A 
BRANCH  45  46
ATOM     46  C   UNL A   1      39.185  30.509  34.445  1.00  0.00     0.031 A 
ATOM     47  C   UNL A   1      38.482  30.550  33.116  1.00  0.00     0.074 A 
ATOM     48  C   UNL A   1      40.379  29.900  34.566  1.00  0.00     0.049 A 
ATOM     49  N   UNL A   1      38.876  30.076  31.963  1.00  0.00    -0.248 NA
ATOM     50  C   UNL A   1      37.151  31.180  33.082  1.00  0.00     0.031 C 
ATOM     51  C   UNL A   1      41.118  29.727  35.819  1.00  0.00     0.029 A 
ATOM     52  N   UNL A   1      41.170  29.287  33.628  1.00  0.00    -0.354 N 
ATOM     53  C   UNL A   1      37.831  30.315  31.078  1.00  0.00     0.074 A 
ATOM     54  C   UNL A   1      36.772  30.946  31.834  1.00  0.00     0.031 C 
ATOM     55  C   UNL A   1      42.254  29.057  35.570  1.00  0.00     0.029 A 
ATOM     56  C   UNL A   1      42.311  28.726  34.150  1.00  0.00     0.049 A 
ATOM     57  H   UNL A   1      40.943  29.253  32.670  1.00  0.00     0.167 HD
ATOM     58  C   UNL A   1      37.771  30.059  29.750  1.00  0.00     0.034 A 
ATOM     59  C   UNL A   1      43.289  28.018  33.553  1.00  0.00     0.034 A 
ATOM     60  C   UNL A   1      38.846  29.472  28.997  1.00  0.00     0.049 A 
ATOM     61  C   UNL A   1      43.219  27.788  32.068  1.00  0.00     0.074 A 
ATOM     62  C   UNL A   1      38.923  29.258  27.632  1.00  0.00     0.029 A 
ATOM     63  N   UNL A   1      40.027  28.997  29.545  1.00  0.00    -0.354 N 
ATOM     64  N   UNL A   1      42.296  28.169  31.218  1.00  0.00    -0.248 NA
ATOM     65  C   UNL A   1      44.341  27.066  31.453  1.00  0.00     0.031 C 
ATOM     66  C   UNL A   1      40.141  28.628  27.359  1.00  0.00     0.029 A 
ATOM     67  C   UNL A   1      40.837  28.480  28.548  1.00  0.00     0.049 A 
ATOM     68  H   UNL A   1      40.257  29.025  30.502  1.00  0.00     0.167 HD
ATOM     69  C   UNL A   1      42.742  27.765  29.965  1.00  0.00     0.074 A 
ATOM     70  C   UNL A   1      44.028  27.128  30.166  1.00  0.00     0.031 C 
ATOM     71  C   UNL A   1      42.136  27.897  28.759  1.00  0.00     0.034 A 
BRANCH  58  72
ATOM     72  C   UNL A   1      36.519  30.461  29.015  1.00  0.00     0.023 A 
ATOM     73  C   UNL A   1      35.690  29.467  28.455  1.00  0.00     0.012 A 
ATOM     74  C   UNL A   1      36.131  31.813  28.928  1.00  0.00     0.148 A 
ATOM     75  C   UNL A   1      34.514  29.813  27.790  1.00  0.00     0.002 A 
ATOM     76  C   UNL A   1      34.934  32.146  28.305  1.00  0.00     0.091 A 
ATOM     77  F   UNL A   1      36.941  32.745  29.447  1.00  0.00    -0.205 F 
ATOM     78  C   UNL A   1      34.132  31.150  27.725  1.00  0.00     0.022 A 
BRANCH  76  79
ATOM     79  S   UNL A   1      34.312  33.829  28.239  1.00  0.00     0.127 S 
ATOM     80  O   UNL A   1      32.923  33.615  27.832  1.00  0.00    -0.237 OA
ATOM     81  O   UNL A   1      34.480  34.273  29.623  1.00  0.00    -0.237 OA
ATOM     82  O   UNL A   1      35.146  34.528  27.271  1.00  0.00    -0.744 OA
ENDBRANCH  76  79
ENDBRANCH  58  72
BRANCH  59  83
ATOM     83  C   UNL A   1      44.452  27.536  34.352  1.00  0.00     0.023 A 
ATOM     84  C   UNL A   1      45.594  28.352  34.471  1.00  0.00     0.012 A 
ATOM     85  C   UNL A   1      44.421  26.296  35.017  1.00  0.00     0.148 A 
ATOM     86  C   UNL A   1      46.698  27.925  35.210  1.00  0.00     0.002 A 
ATOM     87  C   UNL A   1      45.501  25.901  35.798  1.00  0.00     0.091 A 
ATOM     88  F   UNL A   1      43.328  25.530  34.885  1.00  0.00    -0.205 F 
ATOM     89  C   UNL A   1      46.648  26.706  35.881  1.00  0.00     0.022 A 
BRANCH  87  90
ATOM     90  S   UNL A   1      45.470  24.412  36.803  1.00  0.00     0.127 S 
ATOM     91  O   UNL A   1      44.345  24.675  37.695  1.00  0.00    -0.237 OA
ATOM     92  O   UNL A   1      45.233  23.374  35.798  1.00  0.00    -0.237 OA
ATOM     93  O   UNL A   1      46.780  24.338  37.439  1.00  0.00    -0.744 OA
ENDBRANCH  87  90
ENDBRANCH  59  83
BRANCH  71  94
ATOM     94  C   UNL A   1      42.869  27.376  27.550  1.00  0.00     0.023 A 
ATOM     95  C   UNL A   1      43.672  28.247  26.787  1.00  0.00     0.012 A 
ATOM     96  C   UNL A   1      42.822  26.008  27.218  1.00  0.00     0.148 A 
ATOM     97  C   UNL A   1      44.391  27.770  25.691  1.00  0.00     0.002 A 
ATOM     98  C   UNL A   1      43.582  25.530  26.157  1.00  0.00     0.091 A 
ATOM     99  F   UNL A   1      42.039  25.200  27.946  1.00  0.00    -0.205 F 
ATOM    100  C   UNL A   1      44.356  26.412  25.385  1.00  0.00     0.022 A 
BRANCH  98 101
ATOM    101  S   UNL A   1      43.676  23.783  25.751  1.00  0.00     0.127 S 
ATOM    102  O   UNL A   1      42.269  23.455  25.519  1.00  0.00    -0.237 OA
ATOM    103  O   UNL A   1      44.507  23.789  24.547  1.00  0.00    -0.237 OA
ATOM    104  O   UNL A   1      44.287  23.135  26.904  1.00  0.00    -0.744 OA
ENDBRANCH  98 101
ENDBRANCH  71  94
ENDBRANCH  45  46
ENDBRANCH  37  40
ENDBRANCH  35  36
ENDBRANCH  34  35
ENDBRANCH  33  34
ENDBRANCH  32  33
ENDBRANCH   1  32
TORSDOF 22
ENDMDL
