MODEL 1
REMARK VINA RESULT:     -12.0      0.000      0.000
REMARK SMILES O=C(NCCCCCCNC(=O)c1ccccc1[C@@H]1SCC(=O)N1NC(=S)Nc1ccccc1)c1ccc(-c2c3nc(c(-c4cccc(S(=O)(=O)[O-])c4F)c4ccc([nH]4)c(-c4cccc(S(=O)(=O)[O-])c4F)c4nc(c(-c5cccc(S(=O)(=O)[O-])c5F)c5ccc2[nH]5)C=C4)C=C3)cc1
REMARK SMILES IDX 7 1 6 2 5 3 4 4 3 5 1 6 2 7 35 9 36 10 97 11 37 12 96 13
REMARK SMILES IDX 38 14 39 15 40 16 90 17 41 18 95 19 89 20 91 21 42 22 94 23
REMARK SMILES IDX 88 24 87 25 43 27 75 28 55 29 74 30 56 31 59 32 73 33 92 34
REMARK SMILES IDX 57 35 58 36 72 38 93 39 60 40 44 41 45 42 53 43 46 44 48 45
REMARK SMILES IDX 54 46 47 47 49 48 50 49 51 50 52 51 76 52 77 53 85 54 78 55
REMARK SMILES IDX 80 56 86 57 79 58 81 59 82 60 83 61 84 62 61 63 62 64 70 65
REMARK SMILES IDX 63 66 65 67 71 68 64 69 66 70 67 71 68 72 69 73 8 74 9 75
REMARK SMILES IDX 10 76 11 77 12 79 13 80 14 81 18 82 15 83 17 84 16 85 19 86
REMARK SMILES IDX 20 87 24 88 21 89 22 90 23 91 25 92 26 94 27 95 28 96 29 98
REMARK SMILES IDX 30 99 34 100 31 101 33 102 32 103
REMARK H PARENT 3 8 91 26 59 37 10 78 25 93 28 97
REMARK Flexibility Score: inf
ROOT
ATOM      1  C   UNL A   1      34.885  23.898  24.061  1.00  0.00     0.002 C 
ENDROOT
BRANCH   1   2
ATOM      2  C   UNL A   1      36.283  23.330  23.717  1.00  0.00     0.002 C 
BRANCH   2   3
ATOM      3  C   UNL A   1      36.588  21.845  23.935  1.00  0.00     0.021 C 
BRANCH   3   4
ATOM      4  C   UNL A   1      36.732  21.352  25.374  1.00  0.00     0.116 C 
BRANCH   4   5
ATOM      5  N   UNL A   1      37.897  20.504  25.580  1.00  0.00    -0.352 N 
ATOM      6  O   UNL A   1      39.983  19.813  25.937  1.00  0.00    -0.269 OA
ATOM      7  C   UNL A   1      39.177  20.742  26.033  1.00  0.00     0.251 C 
ATOM      8  H   UNL A   1      37.738  19.561  25.345  1.00  0.00     0.163 HD
BRANCH   7   9
ATOM      9  C   UNL A   1      39.644  22.033  26.625  1.00  0.00     0.039 A 
ATOM     10  C   UNL A   1      40.680  22.125  27.552  1.00  0.00     0.014 A 
ATOM     11  C   UNL A   1      39.109  23.231  26.113  1.00  0.00     0.014 A 
ATOM     12  C   UNL A   1      41.110  23.371  28.027  1.00  0.00     0.010 A 
ATOM     13  C   UNL A   1      39.601  24.484  26.521  1.00  0.00     0.010 A 
ATOM     14  C   UNL A   1      40.612  24.568  27.485  1.00  0.00    -0.014 A 
BRANCH  14  15
ATOM     15  C   UNL A   1      41.286  25.859  27.816  1.00  0.00     0.031 A 
ATOM     16  C   UNL A   1      42.679  26.186  27.353  1.00  0.00     0.074 A 
ATOM     17  C   UNL A   1      40.614  26.754  28.571  1.00  0.00     0.049 A 
ATOM     18  N   UNL A   1      43.359  27.295  27.515  1.00  0.00    -0.248 NA
ATOM     19  C   UNL A   1      43.412  25.138  26.628  1.00  0.00     0.031 C 
ATOM     20  C   UNL A   1      39.288  26.528  29.151  1.00  0.00     0.029 A 
ATOM     21  N   UNL A   1      40.935  28.027  28.974  1.00  0.00    -0.354 N 
ATOM     22  C   UNL A   1      44.608  27.071  26.948  1.00  0.00     0.074 A 
ATOM     23  C   UNL A   1      44.593  25.713  26.439  1.00  0.00     0.031 C 
ATOM     24  C   UNL A   1      38.887  27.638  29.785  1.00  0.00     0.029 A 
ATOM     25  C   UNL A   1      39.941  28.642  29.702  1.00  0.00     0.049 A 
ATOM     26  H   UNL A   1      41.794  28.459  28.761  1.00  0.00     0.167 HD
ATOM     27  C   UNL A   1      45.661  27.919  26.845  1.00  0.00     0.034 A 
ATOM     28  C   UNL A   1      39.876  29.873  30.244  1.00  0.00     0.034 A 
ATOM     29  C   UNL A   1      45.659  29.281  27.317  1.00  0.00     0.049 A 
ATOM     30  C   UNL A   1      41.032  30.813  30.062  1.00  0.00     0.074 A 
ATOM     31  C   UNL A   1      46.656  30.236  27.197  1.00  0.00     0.029 A 
ATOM     32  N   UNL A   1      44.616  29.884  28.004  1.00  0.00    -0.354 N 
ATOM     33  N   UNL A   1      42.147  30.626  29.398  1.00  0.00    -0.248 NA
ATOM     34  C   UNL A   1      40.916  32.140  30.684  1.00  0.00     0.031 C 
ATOM     35  C   UNL A   1      46.218  31.411  27.818  1.00  0.00     0.029 A 
ATOM     36  C   UNL A   1      44.944  31.193  28.319  1.00  0.00     0.049 A 
ATOM     37  H   UNL A   1      43.765  29.445  28.234  1.00  0.00     0.167 HD
ATOM     38  C   UNL A   1      42.861  31.811  29.513  1.00  0.00     0.074 A 
ATOM     39  C   UNL A   1      42.038  32.724  30.281  1.00  0.00     0.031 C 
ATOM     40  C   UNL A   1      44.100  32.105  29.048  1.00  0.00     0.034 A 
BRANCH  27  41
ATOM     41  C   UNL A   1      46.899  27.418  26.146  1.00  0.00     0.023 A 
ATOM     42  C   UNL A   1      47.062  27.666  24.768  1.00  0.00     0.012 A 
ATOM     43  C   UNL A   1      47.926  26.761  26.853  1.00  0.00     0.148 A 
ATOM     44  C   UNL A   1      48.210  27.245  24.099  1.00  0.00     0.002 A 
ATOM     45  C   UNL A   1      49.084  26.372  26.185  1.00  0.00     0.091 A 
ATOM     46  F   UNL A   1      47.751  26.513  28.159  1.00  0.00    -0.205 F 
ATOM     47  C   UNL A   1      49.225  26.607  24.808  1.00  0.00     0.022 A 
BRANCH  45  48
ATOM     48  S   UNL A   1      50.468  25.603  27.035  1.00  0.00     0.127 S 
ATOM     49  O   UNL A   1      49.845  24.404  27.593  1.00  0.00    -0.237 OA
ATOM     50  O   UNL A   1      51.409  25.348  25.943  1.00  0.00    -0.237 OA
ATOM     51  O   UNL A   1      50.929  26.588  28.005  1.00  0.00    -0.744 OA
ENDBRANCH  45  48
ENDBRANCH  27  41
BRANCH  28  52
ATOM     52  C   UNL A   1      38.629  30.300  30.941  1.00  0.00     0.023 A 
ATOM     53  C   UNL A   1      38.519  30.108  32.332  1.00  0.00     0.012 A 
ATOM     54  C   UNL A   1      37.596  30.969  30.257  1.00  0.00     0.148 A 
ATOM     55  C   UNL A   1      37.399  30.570  33.026  1.00  0.00     0.002 A 
ATOM     56  C   UNL A   1      36.514  31.480  30.963  1.00  0.00     0.091 A 
ATOM     57  F   UNL A   1      37.706  31.121  28.929  1.00  0.00    -0.205 F 
ATOM     58  C   UNL A   1      36.406  31.270  32.347  1.00  0.00     0.022 A 
BRANCH  56  59
ATOM     59  S   UNL A   1      35.279  32.529  30.187  1.00  0.00     0.127 S 
ATOM     60  O   UNL A   1      34.330  32.734  31.279  1.00  0.00    -0.237 OA
ATOM     61  O   UNL A   1      36.063  33.710  29.822  1.00  0.00    -0.237 OA
ATOM     62  O   UNL A   1      34.786  31.767  29.047  1.00  0.00    -0.744 OA
ENDBRANCH  56  59
ENDBRANCH  28  52
BRANCH  40  63
ATOM     63  C   UNL A   1      44.646  33.473  29.359  1.00  0.00     0.023 A 
ATOM     64  C   UNL A   1      45.459  33.648  30.497  1.00  0.00     0.012 A 
ATOM     65  C   UNL A   1      44.408  34.566  28.505  1.00  0.00     0.148 A 
ATOM     66  C   UNL A   1      46.006  34.896  30.793  1.00  0.00     0.002 A 
ATOM     67  C   UNL A   1      44.989  35.799  28.785  1.00  0.00     0.091 A 
ATOM     68  F   UNL A   1      43.610  34.388  27.441  1.00  0.00    -0.205 F 
ATOM     69  C   UNL A   1      45.781  35.967  29.932  1.00  0.00     0.022 A 
BRANCH  67  70
ATOM     70  S   UNL A   1      44.811  37.209  27.685  1.00  0.00     0.127 S 
ATOM     71  O   UNL A   1      43.565  36.891  26.990  1.00  0.00    -0.237 OA
ATOM     72  O   UNL A   1      44.719  38.330  28.621  1.00  0.00    -0.237 OA
ATOM     73  O   UNL A   1      46.011  37.216  26.859  1.00  0.00    -0.744 OA
ENDBRANCH  67  70
ENDBRANCH  40  63
ENDBRANCH  14  15
ENDBRANCH   7   9
ENDBRANCH   4   5
ENDBRANCH   3   4
ENDBRANCH   2   3
ENDBRANCH   1   2
BRANCH   1  74
ATOM     74  C   UNL A   1      34.640  24.827  25.267  1.00  0.00     0.021 C 
BRANCH  74  75
ATOM     75  C   UNL A   1      34.060  26.238  25.060  1.00  0.00     0.116 C 
BRANCH  75  76
ATOM     76  N   UNL A   1      34.029  26.751  23.701  1.00  0.00    -0.352 N 
ATOM     77  C   UNL A   1      33.803  28.061  23.310  1.00  0.00     0.251 C 
ATOM     78  H   UNL A   1      34.183  26.098  22.981  1.00  0.00     0.163 HD
ATOM     79  O   UNL A   1      34.240  28.467  22.235  1.00  0.00    -0.269 OA
BRANCH  77  80
ATOM     80  C   UNL A   1      32.948  28.983  24.100  1.00  0.00     0.046 A 
ATOM     81  C   UNL A   1      33.547  29.426  25.294  1.00  0.00     0.014 A 
ATOM     82  C   UNL A   1      31.569  29.233  23.863  1.00  0.00    -0.001 A 
ATOM     83  C   UNL A   1      32.812  30.127  26.248  1.00  0.00     0.001 A 
ATOM     84  C   UNL A   1      30.855  29.953  24.851  1.00  0.00     0.007 A 
ATOM     85  C   UNL A   1      31.466  30.392  26.026  1.00  0.00     0.000 A 
BRANCH  82  86
ATOM     86  C   UNL A   1      30.769  28.813  22.631  1.00  0.00     0.197 C 
ATOM     87  S   UNL A   1      29.702  30.111  21.985  1.00  0.00    -0.120 SA
ATOM     88  N   UNL A   1      29.946  27.645  22.845  1.00  0.00    -0.236 N 
ATOM     89  C   UNL A   1      28.199  29.149  22.283  1.00  0.00     0.174 C 
ATOM     90  C   UNL A   1      28.613  27.943  23.101  1.00  0.00     0.252 C 
ATOM     91  O   UNL A   1      27.843  27.369  23.870  1.00  0.00    -0.272 OA
BRANCH  88  92
ATOM     92  N   UNL A   1      30.668  26.461  23.113  1.00  0.00    -0.270 N 
ATOM     93  H   UNL A   1      31.323  26.213  22.421  1.00  0.00     0.191 HD
BRANCH  92  94
ATOM     94  C   UNL A   1      30.609  25.608  24.171  1.00  0.00     0.189 C 
ATOM     95  S   UNL A   1      30.561  26.303  25.694  1.00  0.00    -0.039 S 
BRANCH  94  96
ATOM     96  N   UNL A   1      30.281  24.315  24.006  1.00  0.00    -0.331 N 
ATOM     97  H   UNL A   1      29.351  24.153  23.725  1.00  0.00     0.169 HD
BRANCH  96  98
ATOM     98  C   UNL A   1      31.058  23.164  24.170  1.00  0.00     0.040 A 
ATOM     99  C   UNL A   1      31.564  22.579  23.000  1.00  0.00     0.026 A 
ATOM    100  C   UNL A   1      31.363  22.620  25.408  1.00  0.00     0.026 A 
ATOM    101  C   UNL A   1      32.441  21.507  23.061  1.00  0.00     0.002 A 
ATOM    102  C   UNL A   1      32.209  21.510  25.467  1.00  0.00     0.002 A 
ATOM    103  C   UNL A   1      32.762  20.969  24.300  1.00  0.00     0.000 A 
ENDBRANCH  96  98
ENDBRANCH  94  96
ENDBRANCH  92  94
ENDBRANCH  88  92
ENDBRANCH  82  86
ENDBRANCH  77  80
ENDBRANCH  75  76
ENDBRANCH  74  75
ENDBRANCH   1  74
TORSDOF 21
ENDMDL
MODEL 2
REMARK VINA RESULT:     -11.8      0.569      7.437
REMARK SMILES O=C(NCCCCCCNC(=O)c1ccccc1[C@@H]1SCC(=O)N1NC(=S)Nc1ccccc1)c1ccc(-c2c3nc(c(-c4cccc(S(=O)(=O)[O-])c4F)c4ccc([nH]4)c(-c4cccc(S(=O)(=O)[O-])c4F)c4nc(c(-c5cccc(S(=O)(=O)[O-])c5F)c5ccc2[nH]5)C=C4)C=C3)cc1
REMARK SMILES IDX 7 1 6 2 5 3 4 4 3 5 1 6 2 7 35 9 36 10 97 11 37 12 96 13
REMARK SMILES IDX 38 14 39 15 40 16 90 17 41 18 95 19 89 20 91 21 42 22 94 23
REMARK SMILES IDX 88 24 87 25 43 27 75 28 55 29 74 30 56 31 59 32 73 33 92 34
REMARK SMILES IDX 57 35 58 36 72 38 93 39 60 40 44 41 45 42 53 43 46 44 48 45
REMARK SMILES IDX 54 46 47 47 49 48 50 49 51 50 52 51 76 52 77 53 85 54 78 55
REMARK SMILES IDX 80 56 86 57 79 58 81 59 82 60 83 61 84 62 61 63 62 64 70 65
REMARK SMILES IDX 63 66 65 67 71 68 64 69 66 70 67 71 68 72 69 73 8 74 9 75
REMARK SMILES IDX 10 76 11 77 12 79 13 80 14 81 18 82 15 83 17 84 16 85 19 86
REMARK SMILES IDX 20 87 24 88 21 89 22 90 23 91 25 92 26 94 27 95 28 96 29 98
REMARK SMILES IDX 30 99 34 100 31 101 33 102 32 103
REMARK H PARENT 3 8 91 26 59 37 10 78 25 93 28 97
REMARK Flexibility Score: inf
ROOT
ATOM      1  C   UNL A   1      35.285  23.722  23.557  1.00  0.00     0.002 C 
ENDROOT
BRANCH   1   2
ATOM      2  C   UNL A   1      36.468  22.727  23.612  1.00  0.00     0.002 C 
BRANCH   2   3
ATOM      3  C   UNL A   1      36.308  21.374  24.312  1.00  0.00     0.021 C 
BRANCH   3   4
ATOM      4  C   UNL A   1      36.808  21.253  25.750  1.00  0.00     0.116 C 
BRANCH   4   5
ATOM      5  N   UNL A   1      38.049  20.500  25.868  1.00  0.00    -0.352 N 
ATOM      6  O   UNL A   1      40.205  19.974  26.044  1.00  0.00    -0.269 OA
ATOM      7  C   UNL A   1      39.344  20.845  26.190  1.00  0.00     0.251 C 
ATOM      8  H   UNL A   1      37.940  19.540  25.676  1.00  0.00     0.163 HD
BRANCH   7   9
ATOM      9  C   UNL A   1      39.765  22.187  26.697  1.00  0.00     0.039 A 
ATOM     10  C   UNL A   1      40.879  22.388  27.510  1.00  0.00     0.014 A 
ATOM     11  C   UNL A   1      39.090  23.324  26.212  1.00  0.00     0.014 A 
ATOM     12  C   UNL A   1      41.255  23.678  27.907  1.00  0.00     0.010 A 
ATOM     13  C   UNL A   1      39.521  24.623  26.534  1.00  0.00     0.010 A 
ATOM     14  C   UNL A   1      40.613  24.815  27.388  1.00  0.00    -0.014 A 
BRANCH  14  15
ATOM     15  C   UNL A   1      41.214  26.163  27.615  1.00  0.00     0.031 A 
ATOM     16  C   UNL A   1      40.535  27.224  28.437  1.00  0.00     0.074 A 
ATOM     17  C   UNL A   1      42.408  26.433  27.045  1.00  0.00     0.049 A 
ATOM     18  N   UNL A   1      40.974  28.414  28.767  1.00  0.00    -0.248 NA
ATOM     19  C   UNL A   1      39.188  26.924  28.945  1.00  0.00     0.031 C 
ATOM     20  C   UNL A   1      43.135  25.521  26.159  1.00  0.00     0.029 A 
ATOM     21  N   UNL A   1      43.226  27.534  27.126  1.00  0.00    -0.354 N 
ATOM     22  C   UNL A   1      39.951  29.019  29.487  1.00  0.00     0.074 A 
ATOM     23  C   UNL A   1      38.863  28.063  29.543  1.00  0.00     0.031 C 
ATOM     24  C   UNL A   1      44.310  26.072  25.824  1.00  0.00     0.029 A 
ATOM     25  C   UNL A   1      44.405  27.396  26.428  1.00  0.00     0.049 A 
ATOM     26  H   UNL A   1      42.992  28.344  27.635  1.00  0.00     0.167 HD
ATOM     27  C   UNL A   1      39.926  30.247  30.062  1.00  0.00     0.034 A 
ATOM     28  C   UNL A   1      45.451  28.234  26.286  1.00  0.00     0.034 A 
ATOM     29  C   UNL A   1      41.023  31.181  30.038  1.00  0.00     0.049 A 
ATOM     30  C   UNL A   1      45.421  29.562  26.984  1.00  0.00     0.074 A 
ATOM     31  C   UNL A   1      41.113  32.421  30.649  1.00  0.00     0.029 A 
ATOM     32  N   UNL A   1      42.220  30.985  29.365  1.00  0.00    -0.354 N 
ATOM     33  N   UNL A   1      44.501  30.054  27.778  1.00  0.00    -0.248 NA
ATOM     34  C   UNL A   1      46.581  30.443  26.786  1.00  0.00     0.031 C 
ATOM     35  C   UNL A   1      42.360  32.977  30.338  1.00  0.00     0.029 A 
ATOM     36  C   UNL A   1      43.051  32.080  29.539  1.00  0.00     0.049 A 
ATOM     37  H   UNL A   1      42.446  30.184  28.839  1.00  0.00     0.167 HD
ATOM     38  C   UNL A   1      44.971  31.296  28.182  1.00  0.00     0.074 A 
ATOM     39  C   UNL A   1      46.276  31.468  27.574  1.00  0.00     0.031 C 
ATOM     40  C   UNL A   1      44.365  32.222  28.963  1.00  0.00     0.034 A 
BRANCH  27  41
ATOM     41  C   UNL A   1      38.682  30.642  30.818  1.00  0.00     0.023 A 
ATOM     42  C   UNL A   1      38.605  30.383  32.202  1.00  0.00     0.012 A 
ATOM     43  C   UNL A   1      37.621  31.318  30.185  1.00  0.00     0.148 A 
ATOM     44  C   UNL A   1      37.483  30.765  32.937  1.00  0.00     0.002 A 
ATOM     45  C   UNL A   1      36.518  31.725  30.931  1.00  0.00     0.091 A 
ATOM     46  F   UNL A   1      37.698  31.541  28.864  1.00  0.00    -0.205 F 
ATOM     47  C   UNL A   1      36.445  31.443  32.304  1.00  0.00     0.022 A 
BRANCH  45  48
ATOM     48  S   UNL A   1      35.166  32.663  30.209  1.00  0.00     0.127 S 
ATOM     49  O   UNL A   1      34.660  31.729  29.204  1.00  0.00    -0.237 OA
ATOM     50  O   UNL A   1      34.275  32.867  31.352  1.00  0.00    -0.237 OA
ATOM     51  O   UNL A   1      35.768  33.886  29.693  1.00  0.00    -0.744 OA
ENDBRANCH  45  48
ENDBRANCH  27  41
BRANCH  28  52
ATOM     52  C   UNL A   1      46.642  27.790  25.507  1.00  0.00     0.023 A 
ATOM     53  C   UNL A   1      46.678  28.017  24.118  1.00  0.00     0.012 A 
ATOM     54  C   UNL A   1      47.767  27.229  26.141  1.00  0.00     0.148 A 
ATOM     55  C   UNL A   1      47.812  27.687  23.373  1.00  0.00     0.002 A 
ATOM     56  C   UNL A   1      48.916  26.961  25.404  1.00  0.00     0.091 A 
ATOM     57  F   UNL A   1      47.706  26.998  27.460  1.00  0.00    -0.205 F 
ATOM     58  C   UNL A   1      48.935  27.176  24.017  1.00  0.00     0.022 A 
BRANCH  56  59
ATOM     59  S   UNL A   1      50.452  26.455  26.185  1.00  0.00     0.127 S 
ATOM     60  O   UNL A   1      50.061  25.210  26.839  1.00  0.00    -0.237 OA
ATOM     61  O   UNL A   1      51.343  26.294  25.035  1.00  0.00    -0.237 OA
ATOM     62  O   UNL A   1      50.816  27.555  27.069  1.00  0.00    -0.744 OA
ENDBRANCH  56  59
ENDBRANCH  28  52
BRANCH  40  63
ATOM     63  C   UNL A   1      45.103  33.511  29.205  1.00  0.00     0.023 A 
ATOM     64  C   UNL A   1      45.947  33.622  30.328  1.00  0.00     0.012 A 
ATOM     65  C   UNL A   1      45.011  34.586  28.300  1.00  0.00     0.148 A 
ATOM     66  C   UNL A   1      46.669  34.792  30.560  1.00  0.00     0.002 A 
ATOM     67  C   UNL A   1      45.765  35.735  28.518  1.00  0.00     0.091 A 
ATOM     68  F   UNL A   1      44.183  34.473  27.251  1.00  0.00    -0.205 F 
ATOM     69  C   UNL A   1      46.587  35.843  29.651  1.00  0.00     0.022 A 
BRANCH  67  70
ATOM     70  S   UNL A   1      45.775  37.103  27.352  1.00  0.00     0.127 S 
ATOM     71  O   UNL A   1      46.628  38.073  28.037  1.00  0.00    -0.237 OA
ATOM     72  O   UNL A   1      46.374  36.499  26.161  1.00  0.00    -0.237 OA
ATOM     73  O   UNL A   1      44.381  37.492  27.190  1.00  0.00    -0.744 OA
ENDBRANCH  67  70
ENDBRANCH  40  63
ENDBRANCH  14  15
ENDBRANCH   7   9
ENDBRANCH   4   5
ENDBRANCH   3   4
ENDBRANCH   2   3
ENDBRANCH   1   2
BRANCH   1  74
ATOM     74  C   UNL A   1      34.795  24.501  24.794  1.00  0.00     0.021 C 
BRANCH  74  75
ATOM     75  C   UNL A   1      34.002  25.810  24.629  1.00  0.00     0.116 C 
BRANCH  75  76
ATOM     76  N   UNL A   1      33.964  26.401  23.303  1.00  0.00    -0.352 N 
ATOM     77  C   UNL A   1      33.823  27.744  22.993  1.00  0.00     0.251 C 
ATOM     78  H   UNL A   1      34.046  25.781  22.542  1.00  0.00     0.163 HD
ATOM     79  O   UNL A   1      34.253  28.179  21.927  1.00  0.00    -0.269 OA
BRANCH  77  80
ATOM     80  C   UNL A   1      33.065  28.678  23.865  1.00  0.00     0.046 A 
ATOM     81  C   UNL A   1      33.763  29.062  25.025  1.00  0.00     0.014 A 
ATOM     82  C   UNL A   1      31.685  28.993  23.730  1.00  0.00    -0.001 A 
ATOM     83  C   UNL A   1      33.125  29.765  26.046  1.00  0.00     0.001 A 
ATOM     84  C   UNL A   1      31.072  29.714  24.784  1.00  0.00     0.007 A 
ATOM     85  C   UNL A   1      31.781  30.093  25.924  1.00  0.00     0.000 A 
BRANCH  82  86
ATOM     86  C   UNL A   1      30.785  28.643  22.546  1.00  0.00     0.197 C 
ATOM     87  S   UNL A   1      29.774  30.018  21.975  1.00  0.00    -0.120 SA
ATOM     88  N   UNL A   1      29.899  27.531  22.800  1.00  0.00    -0.236 N 
ATOM     89  C   UNL A   1      28.229  29.158  22.357  1.00  0.00     0.174 C 
ATOM     90  C   UNL A   1      28.607  27.917  23.139  1.00  0.00     0.252 C 
ATOM     91  O   UNL A   1      27.847  27.388  23.949  1.00  0.00    -0.272 OA
BRANCH  88  92
ATOM     92  N   UNL A   1      30.553  26.298  23.015  1.00  0.00    -0.270 N 
ATOM     93  H   UNL A   1      31.096  25.984  22.257  1.00  0.00     0.191 HD
BRANCH  92  94
ATOM     94  C   UNL A   1      30.556  25.475  24.097  1.00  0.00     0.189 C 
ATOM     95  S   UNL A   1      30.540  26.212  25.601  1.00  0.00    -0.039 S 
BRANCH  94  96
ATOM     96  N   UNL A   1      30.262  24.168  23.980  1.00  0.00    -0.331 N 
ATOM     97  H   UNL A   1      29.336  23.972  23.709  1.00  0.00     0.169 HD
BRANCH  96  98
ATOM     98  C   UNL A   1      31.070  23.044  24.182  1.00  0.00     0.040 A 
ATOM     99  C   UNL A   1      31.643  22.474  23.036  1.00  0.00     0.026 A 
ATOM    100  C   UNL A   1      31.342  22.516  25.434  1.00  0.00     0.026 A 
ATOM    101  C   UNL A   1      32.552  21.432  23.138  1.00  0.00     0.002 A 
ATOM    102  C   UNL A   1      32.222  21.435  25.533  1.00  0.00     0.002 A 
ATOM    103  C   UNL A   1      32.840  20.909  24.392  1.00  0.00     0.000 A 
ENDBRANCH  96  98
ENDBRANCH  94  96
ENDBRANCH  92  94
ENDBRANCH  88  92
ENDBRANCH  82  86
ENDBRANCH  77  80
ENDBRANCH  75  76
ENDBRANCH  74  75
ENDBRANCH   1  74
TORSDOF 21
ENDMDL
MODEL 3
REMARK VINA RESULT:     -11.6      1.871      3.697
REMARK SMILES O=C(NCCCCCCNC(=O)c1ccccc1[C@@H]1SCC(=O)N1NC(=S)Nc1ccccc1)c1ccc(-c2c3nc(c(-c4cccc(S(=O)(=O)[O-])c4F)c4ccc([nH]4)c(-c4cccc(S(=O)(=O)[O-])c4F)c4nc(c(-c5cccc(S(=O)(=O)[O-])c5F)c5ccc2[nH]5)C=C4)C=C3)cc1
REMARK SMILES IDX 7 1 6 2 5 3 4 4 3 5 1 6 2 7 35 9 36 10 97 11 37 12 96 13
REMARK SMILES IDX 38 14 39 15 40 16 90 17 41 18 95 19 89 20 91 21 42 22 94 23
REMARK SMILES IDX 88 24 87 25 43 27 75 28 55 29 74 30 56 31 59 32 73 33 92 34
REMARK SMILES IDX 57 35 58 36 72 38 93 39 60 40 44 41 45 42 53 43 46 44 48 45
REMARK SMILES IDX 54 46 47 47 49 48 50 49 51 50 52 51 76 52 77 53 85 54 78 55
REMARK SMILES IDX 80 56 86 57 79 58 81 59 82 60 83 61 84 62 61 63 62 64 70 65
REMARK SMILES IDX 63 66 65 67 71 68 64 69 66 70 67 71 68 72 69 73 8 74 9 75
REMARK SMILES IDX 10 76 11 77 12 79 13 80 14 81 18 82 15 83 17 84 16 85 19 86
REMARK SMILES IDX 20 87 24 88 21 89 22 90 23 91 25 92 26 94 27 95 28 96 29 98
REMARK SMILES IDX 30 99 34 100 31 101 33 102 32 103
REMARK H PARENT 3 8 91 26 59 37 10 78 25 93 28 97
REMARK Flexibility Score: inf
ROOT
ATOM      1  C   UNL A   1      34.198  19.925  25.502  1.00  0.00     0.002 C 
ENDROOT
BRANCH   1   2
ATOM      2  C   UNL A   1      35.279  20.586  24.614  1.00  0.00     0.002 C 
BRANCH   2   3
ATOM      3  C   UNL A   1      36.718  20.060  24.630  1.00  0.00     0.021 C 
BRANCH   3   4
ATOM      4  C   UNL A   1      37.781  20.916  25.316  1.00  0.00     0.116 C 
BRANCH   4   5
ATOM      5  N   UNL A   1      38.934  20.150  25.769  1.00  0.00    -0.352 N 
ATOM      6  O   UNL A   1      40.965  19.603  26.496  1.00  0.00    -0.269 OA
ATOM      7  C   UNL A   1      40.117  20.492  26.389  1.00  0.00     0.251 C 
ATOM      8  H   UNL A   1      38.852  19.185  25.595  1.00  0.00     0.163 HD
BRANCH   7   9
ATOM      9  C   UNL A   1      40.432  21.849  26.931  1.00  0.00     0.039 A 
ATOM     10  C   UNL A   1      41.357  22.075  27.948  1.00  0.00     0.014 A 
ATOM     11  C   UNL A   1      39.877  22.969  26.283  1.00  0.00     0.014 A 
ATOM     12  C   UNL A   1      41.652  23.377  28.374  1.00  0.00     0.010 A 
ATOM     13  C   UNL A   1      40.240  24.279  26.647  1.00  0.00     0.010 A 
ATOM     14  C   UNL A   1      41.136  24.498  27.700  1.00  0.00    -0.014 A 
BRANCH  14  15
ATOM     15  C   UNL A   1      41.685  25.852  28.004  1.00  0.00     0.031 A 
ATOM     16  C   UNL A   1      43.053  26.290  27.557  1.00  0.00     0.074 A 
ATOM     17  C   UNL A   1      40.920  26.704  28.719  1.00  0.00     0.049 A 
ATOM     18  N   UNL A   1      43.628  27.459  27.698  1.00  0.00    -0.248 NA
ATOM     19  C   UNL A   1      43.892  25.292  26.878  1.00  0.00     0.031 C 
ATOM     20  C   UNL A   1      39.607  26.377  29.281  1.00  0.00     0.029 A 
ATOM     21  N   UNL A   1      41.118  28.013  29.089  1.00  0.00    -0.354 N 
ATOM     22  C   UNL A   1      44.903  27.332  27.161  1.00  0.00     0.074 A 
ATOM     23  C   UNL A   1      45.021  25.965  26.694  1.00  0.00     0.031 C 
ATOM     24  C   UNL A   1      39.095  27.465  29.874  1.00  0.00     0.029 A 
ATOM     25  C   UNL A   1      40.058  28.556  29.780  1.00  0.00     0.049 A 
ATOM     26  H   UNL A   1      41.939  28.514  28.879  1.00  0.00     0.167 HD
ATOM     27  C   UNL A   1      45.878  28.269  27.053  1.00  0.00     0.034 A 
ATOM     28  C   UNL A   1      39.871  29.792  30.282  1.00  0.00     0.034 A 
ATOM     29  C   UNL A   1      45.746  29.638  27.483  1.00  0.00     0.049 A 
ATOM     30  C   UNL A   1      40.943  30.826  30.093  1.00  0.00     0.074 A 
ATOM     31  C   UNL A   1      46.655  30.674  27.352  1.00  0.00     0.029 A 
ATOM     32  N   UNL A   1      44.638  30.164  28.131  1.00  0.00    -0.354 N 
ATOM     33  N   UNL A   1      42.084  30.720  29.456  1.00  0.00    -0.248 NA
ATOM     34  C   UNL A   1      40.695  32.154  30.672  1.00  0.00     0.031 C 
ATOM     35  C   UNL A   1      46.101  31.823  27.929  1.00  0.00     0.029 A 
ATOM     36  C   UNL A   1      44.842  31.506  28.413  1.00  0.00     0.049 A 
ATOM     37  H   UNL A   1      43.825  29.657  28.359  1.00  0.00     0.167 HD
ATOM     38  C   UNL A   1      42.687  31.968  29.548  1.00  0.00     0.074 A 
ATOM     39  C   UNL A   1      41.769  32.825  30.272  1.00  0.00     0.031 C 
ATOM     40  C   UNL A   1      43.904  32.359  29.098  1.00  0.00     0.034 A 
BRANCH  27  41
ATOM     41  C   UNL A   1      47.171  27.860  26.392  1.00  0.00     0.023 A 
ATOM     42  C   UNL A   1      48.222  27.356  27.186  1.00  0.00     0.012 A 
ATOM     43  C   UNL A   1      47.330  27.914  24.993  1.00  0.00     0.148 A 
ATOM     44  C   UNL A   1      49.418  26.939  26.603  1.00  0.00     0.002 A 
ATOM     45  C   UNL A   1      48.514  27.465  24.415  1.00  0.00     0.091 A 
ATOM     46  F   UNL A   1      46.331  28.414  24.252  1.00  0.00    -0.205 F 
ATOM     47  C   UNL A   1      49.561  26.984  25.218  1.00  0.00     0.022 A 
BRANCH  45  48
ATOM     48  S   UNL A   1      48.757  27.427  22.635  1.00  0.00     0.127 S 
ATOM     49  O   UNL A   1      47.626  28.224  22.164  1.00  0.00    -0.237 OA
ATOM     50  O   UNL A   1      50.062  28.073  22.479  1.00  0.00    -0.237 OA
ATOM     51  O   UNL A   1      48.739  26.018  22.267  1.00  0.00    -0.744 OA
ENDBRANCH  45  48
ENDBRANCH  27  41
BRANCH  28  52
ATOM     52  C   UNL A   1      38.577  30.125  30.943  1.00  0.00     0.023 A 
ATOM     53  C   UNL A   1      38.380  29.767  32.291  1.00  0.00     0.012 A 
ATOM     54  C   UNL A   1      37.581  30.865  30.277  1.00  0.00     0.148 A 
ATOM     55  C   UNL A   1      37.213  30.135  32.961  1.00  0.00     0.002 A 
ATOM     56  C   UNL A   1      36.449  31.282  30.968  1.00  0.00     0.091 A 
ATOM     57  F   UNL A   1      37.773  31.176  28.987  1.00  0.00    -0.205 F 
ATOM     58  C   UNL A   1      36.256  30.906  32.307  1.00  0.00     0.022 A 
BRANCH  56  59
ATOM     59  S   UNL A   1      35.252  32.409  30.244  1.00  0.00     0.127 S 
ATOM     60  O   UNL A   1      34.319  32.607  31.350  1.00  0.00    -0.237 OA
ATOM     61  O   UNL A   1      36.081  33.571  29.920  1.00  0.00    -0.237 OA
ATOM     62  O   UNL A   1      34.722  31.713  29.078  1.00  0.00    -0.744 OA
ENDBRANCH  56  59
ENDBRANCH  28  52
BRANCH  40  63
ATOM     63  C   UNL A   1      44.319  33.778  29.377  1.00  0.00     0.023 A 
ATOM     64  C   UNL A   1      44.985  34.077  30.583  1.00  0.00     0.012 A 
ATOM     65  C   UNL A   1      44.107  34.800  28.433  1.00  0.00     0.148 A 
ATOM     66  C   UNL A   1      45.411  35.377  30.855  1.00  0.00     0.002 A 
ATOM     67  C   UNL A   1      44.569  36.087  28.694  1.00  0.00     0.091 A 
ATOM     68  F   UNL A   1      43.448  34.504  27.302  1.00  0.00    -0.205 F 
ATOM     69  C   UNL A   1      45.213  36.377  29.908  1.00  0.00     0.022 A 
BRANCH  67  70
ATOM     70  S   UNL A   1      44.424  37.415  27.493  1.00  0.00     0.127 S 
ATOM     71  O   UNL A   1      45.606  37.196  26.660  1.00  0.00    -0.237 OA
ATOM     72  O   UNL A   1      43.151  37.110  26.837  1.00  0.00    -0.237 OA
ATOM     73  O   UNL A   1      44.417  38.648  28.268  1.00  0.00    -0.744 OA
ENDBRANCH  67  70
ENDBRANCH  40  63
ENDBRANCH  14  15
ENDBRANCH   7   9
ENDBRANCH   4   5
ENDBRANCH   3   4
ENDBRANCH   2   3
ENDBRANCH   1   2
BRANCH   1  74
ATOM     74  C   UNL A   1      32.746  19.715  25.026  1.00  0.00     0.021 C 
BRANCH  74  75
ATOM     75  C   UNL A   1      31.762  20.897  24.976  1.00  0.00     0.116 C 
BRANCH  75  76
ATOM     76  N   UNL A   1      31.578  21.662  26.198  1.00  0.00    -0.352 N 
ATOM     77  C   UNL A   1      32.126  22.898  26.496  1.00  0.00     0.251 C 
ATOM     78  H   UNL A   1      31.004  21.257  26.887  1.00  0.00     0.163 HD
ATOM     79  O   UNL A   1      31.570  23.640  27.303  1.00  0.00    -0.269 OA
BRANCH  77  80
ATOM     80  C   UNL A   1      33.439  23.330  25.952  1.00  0.00     0.046 A 
ATOM     81  C   UNL A   1      34.508  23.155  26.850  1.00  0.00     0.014 A 
ATOM     82  C   UNL A   1      33.629  24.080  24.759  1.00  0.00    -0.001 A 
ATOM     83  C   UNL A   1      35.766  23.693  26.581  1.00  0.00     0.001 A 
ATOM     84  C   UNL A   1      34.922  24.607  24.516  1.00  0.00     0.007 A 
ATOM     85  C   UNL A   1      35.973  24.417  25.414  1.00  0.00     0.000 A 
BRANCH  82  86
ATOM     86  C   UNL A   1      32.576  24.371  23.692  1.00  0.00     0.197 C 
ATOM     87  S   UNL A   1      32.666  23.271  22.270  1.00  0.00    -0.120 SA
ATOM     88  N   UNL A   1      32.615  25.726  23.192  1.00  0.00    -0.236 N 
ATOM     89  C   UNL A   1      33.021  24.628  21.128  1.00  0.00     0.174 C 
ATOM     90  C   UNL A   1      33.284  25.852  21.980  1.00  0.00     0.252 C 
ATOM     91  O   UNL A   1      34.004  26.777  21.606  1.00  0.00    -0.272 OA
BRANCH  88  92
ATOM     92  N   UNL A   1      32.304  26.713  24.153  1.00  0.00    -0.270 N 
ATOM     93  H   UNL A   1      33.018  27.371  24.311  1.00  0.00     0.191 HD
BRANCH  92  94
ATOM     94  C   UNL A   1      31.180  26.903  24.894  1.00  0.00     0.189 C 
ATOM     95  S   UNL A   1      31.401  27.265  26.515  1.00  0.00    -0.039 S 
BRANCH  94  96
ATOM     96  N   UNL A   1      29.986  27.112  24.311  1.00  0.00    -0.331 N 
ATOM     97  H   UNL A   1      29.288  26.458  24.545  1.00  0.00     0.169 HD
BRANCH  96  98
ATOM     98  C   UNL A   1      29.583  28.115  23.424  1.00  0.00     0.040 A 
ATOM     99  C   UNL A   1      28.203  28.237  23.206  1.00  0.00     0.026 A 
ATOM    100  C   UNL A   1      30.466  28.985  22.804  1.00  0.00     0.026 A 
ATOM    101  C   UNL A   1      27.692  29.274  22.439  1.00  0.00     0.002 A 
ATOM    102  C   UNL A   1      29.954  30.001  21.993  1.00  0.00     0.002 A 
ATOM    103  C   UNL A   1      28.573  30.157  21.829  1.00  0.00     0.000 A 
ENDBRANCH  96  98
ENDBRANCH  94  96
ENDBRANCH  92  94
ENDBRANCH  88  92
ENDBRANCH  82  86
ENDBRANCH  77  80
ENDBRANCH  75  76
ENDBRANCH  74  75
ENDBRANCH   1  74
TORSDOF 21
ENDMDL
