MODEL 1
REMARK VINA RESULT:     -10.1      0.000      0.000
REMARK SMILES COc1cc([C@@H](O)[C@H](C)[C@H](C)C(=O)NCCCCCCNC(=O)c2ccc(-c3c4nc(c(-c5cccc(S(=O)(=O)[O-])c5F)c5ccc([nH]5)c(-c5cccc(S(=O)(=O)[O-])c5F)c5nc(c(-c6cccc(S(=O)(=O)[O-])c6F)c6ccc3[nH]6)C=C5)C=C4)cc2)cc(OC)c1OC
REMARK SMILES IDX 17 1 16 2 15 3 14 4 12 5 13 6 10 8 11 9 8 10 9 11 6 12 5 13
REMARK SMILES IDX 3 14 4 15 91 16 88 17 87 18 2 19 1 20 92 21 93 22 89 23
REMARK SMILES IDX 90 24 7 25 18 27 19 28 20 29 21 30 22 31 23 33 24 34 25 35
REMARK SMILES IDX 86 36 26 37 85 38 27 39 28 40 29 41 79 42 30 43 84 44 78 45
REMARK SMILES IDX 80 46 31 47 83 48 77 49 76 50 32 52 64 53 44 54 63 55 45 56
REMARK SMILES IDX 48 57 62 58 81 59 46 60 47 61 61 63 82 64 49 65 33 66 34 67
REMARK SMILES IDX 42 68 35 69 37 70 43 71 36 72 38 73 39 74 40 75 41 76 65 77
REMARK SMILES IDX 66 78 74 79 67 80 69 81 75 82 68 83 70 84 71 85 72 86 73 87
REMARK SMILES IDX 50 88 51 89 59 90 52 91 54 92 60 93 53 94 55 95 56 96 57 97
REMARK SMILES IDX 58 98
REMARK H PARENT 14 7 7 26 21 32 80 51 48 62
REMARK Flexibility Score: inf
ROOT
ATOM      1  C   UNL A   1      32.422  26.650  26.531  1.00  0.00     0.002 C 
ENDROOT
BRANCH   1   2
ATOM      2  C   UNL A   1      33.536  26.606  25.478  1.00  0.00     0.021 C 
BRANCH   2   3
ATOM      3  C   UNL A   1      34.273  25.276  25.431  1.00  0.00     0.116 C 
BRANCH   3   4
ATOM      4  N   UNL A   1      33.568  24.243  26.159  1.00  0.00    -0.356 N 
ATOM      5  C   UNL A   1      33.555  22.901  25.962  1.00  0.00     0.223 C 
ATOM      6  O   UNL A   1      32.976  22.203  26.800  1.00  0.00    -0.275 OA
ATOM      7  H   UNL A   1      33.015  24.561  26.908  1.00  0.00     0.163 HD
BRANCH   5   8
ATOM      8  C   UNL A   1      34.225  22.254  24.750  1.00  0.00     0.081 C 
ATOM      9  C   UNL A   1      35.661  21.858  25.116  1.00  0.00     0.018 C 
BRANCH   8  10
ATOM     10  C   UNL A   1      33.368  21.250  23.882  1.00  0.00     0.031 C 
ATOM     11  C   UNL A   1      33.123  19.878  24.538  1.00  0.00     0.011 C 
BRANCH  10  12
ATOM     12  C   UNL A   1      32.068  21.875  23.284  1.00  0.00     0.148 C 
BRANCH  12  13
ATOM     13  C   UNL A   1      32.002  23.378  23.094  1.00  0.00    -0.012 A 
ATOM     14  C   UNL A   1      32.486  25.385  21.806  1.00  0.00     0.165 A 
ATOM     15  C   UNL A   1      32.790  24.058  22.161  1.00  0.00     0.057 A 
ATOM     16  C   UNL A   1      31.381  26.061  22.365  1.00  0.00     0.203 A 
ATOM     17  C   UNL A   1      30.621  25.392  23.342  1.00  0.00     0.165 A 
ATOM     18  C   UNL A   1      30.953  24.078  23.706  1.00  0.00     0.057 A 
BRANCH  14  19
ATOM     19  O   UNL A   1      33.194  25.930  20.765  1.00  0.00    -0.493 OA
ATOM     20  C   UNL A   1      32.705  25.509  19.494  1.00  0.00     0.278 C 
ENDBRANCH  14  19
BRANCH  16  21
ATOM     21  O   UNL A   1      30.937  27.302  21.999  1.00  0.00    -0.490 OA
ATOM     22  C   UNL A   1      31.466  28.463  22.613  1.00  0.00     0.278 C 
ENDBRANCH  16  21
BRANCH  17  23
ATOM     23  O   UNL A   1      29.514  25.831  24.026  1.00  0.00    -0.493 OA
ATOM     24  C   UNL A   1      29.536  25.845  25.443  1.00  0.00     0.278 C 
ENDBRANCH  17  23
ENDBRANCH  12  13
BRANCH  12  25
ATOM     25  O   UNL A   1      31.747  21.276  22.027  1.00  0.00    -0.388 OA
ATOM     26  H   UNL A   1      31.025  20.639  22.147  1.00  0.00     0.211 HD
ENDBRANCH  12  25
ENDBRANCH  10  12
ENDBRANCH   8  10
ENDBRANCH   5   8
ENDBRANCH   3   4
ENDBRANCH   2   3
ENDBRANCH   1   2
BRANCH   1  27
ATOM     27  C   UNL A   1      32.279  27.981  27.282  1.00  0.00     0.002 C 
BRANCH  27  28
ATOM     28  C   UNL A   1      32.626  29.231  26.469  1.00  0.00     0.021 C 
BRANCH  28  29
ATOM     29  C   UNL A   1      33.993  29.834  26.778  1.00  0.00     0.116 C 
BRANCH  29  30
ATOM     30  N   UNL A   1      33.892  31.012  27.627  1.00  0.00    -0.352 N 
ATOM     31  C   UNL A   1      34.704  31.415  28.658  1.00  0.00     0.251 C 
ATOM     32  H   UNL A   1      33.133  31.608  27.431  1.00  0.00     0.163 HD
ATOM     33  O   UNL A   1      34.365  32.340  29.384  1.00  0.00    -0.269 OA
BRANCH  31  34
ATOM     34  C   UNL A   1      35.980  30.707  28.899  1.00  0.00     0.039 A 
ATOM     35  C   UNL A   1      37.112  31.096  28.180  1.00  0.00     0.014 A 
ATOM     36  C   UNL A   1      36.059  29.679  29.843  1.00  0.00     0.014 A 
ATOM     37  C   UNL A   1      38.344  30.504  28.463  1.00  0.00     0.010 A 
ATOM     38  C   UNL A   1      37.299  29.141  30.172  1.00  0.00     0.010 A 
ATOM     39  C   UNL A   1      38.454  29.555  29.492  1.00  0.00    -0.014 A 
BRANCH  39  40
ATOM     40  C   UNL A   1      39.778  29.032  29.915  1.00  0.00     0.031 A 
ATOM     41  C   UNL A   1      40.556  29.705  31.009  1.00  0.00     0.074 A 
ATOM     42  C   UNL A   1      40.322  28.003  29.235  1.00  0.00     0.049 A 
ATOM     43  N   UNL A   1      41.745  29.418  31.469  1.00  0.00    -0.248 NA
ATOM     44  C   UNL A   1      39.925  30.866  31.656  1.00  0.00     0.031 C 
ATOM     45  C   UNL A   1      39.695  27.313  28.106  1.00  0.00     0.029 A 
ATOM     46  N   UNL A   1      41.534  27.376  29.376  1.00  0.00    -0.354 N 
ATOM     47  C   UNL A   1      42.022  30.377  32.435  1.00  0.00     0.074 A 
ATOM     48  C   UNL A   1      40.886  31.275  32.472  1.00  0.00     0.031 C 
ATOM     49  C   UNL A   1      40.521  26.353  27.663  1.00  0.00     0.029 A 
ATOM     50  C   UNL A   1      41.751  26.385  28.446  1.00  0.00     0.049 A 
ATOM     51  H   UNL A   1      42.185  27.612  30.075  1.00  0.00     0.167 HD
ATOM     52  C   UNL A   1      43.110  30.489  33.235  1.00  0.00     0.034 A 
ATOM     53  C   UNL A   1      42.826  25.602  28.236  1.00  0.00     0.034 A 
ATOM     54  C   UNL A   1      44.228  29.583  33.204  1.00  0.00     0.049 A 
ATOM     55  C   UNL A   1      44.025  25.749  29.131  1.00  0.00     0.074 A 
ATOM     56  C   UNL A   1      45.333  29.552  34.035  1.00  0.00     0.029 A 
ATOM     57  N   UNL A   1      44.398  28.565  32.277  1.00  0.00    -0.354 N 
ATOM     58  N   UNL A   1      44.197  26.550  30.153  1.00  0.00    -0.248 NA
ATOM     59  C   UNL A   1      45.168  24.866  28.858  1.00  0.00     0.031 C 
ATOM     60  C   UNL A   1      46.193  28.544  33.582  1.00  0.00     0.029 A 
ATOM     61  C   UNL A   1      45.606  27.923  32.491  1.00  0.00     0.049 A 
ATOM     62  H   UNL A   1      43.753  28.333  31.569  1.00  0.00     0.167 HD
ATOM     63  C   UNL A   1      45.458  26.259  30.660  1.00  0.00     0.074 A 
ATOM     64  C   UNL A   1      45.994  25.184  29.847  1.00  0.00     0.031 C 
ATOM     65  C   UNL A   1      46.120  26.838  31.692  1.00  0.00     0.034 A 
BRANCH  52  66
ATOM     66  C   UNL A   1      43.126  31.620  34.233  1.00  0.00     0.023 A 
ATOM     67  C   UNL A   1      43.718  32.852  33.884  1.00  0.00     0.012 A 
ATOM     68  C   UNL A   1      42.530  31.477  35.501  1.00  0.00     0.148 A 
ATOM     69  C   UNL A   1      43.762  33.904  34.798  1.00  0.00     0.002 A 
ATOM     70  C   UNL A   1      42.535  32.548  36.389  1.00  0.00     0.091 A 
ATOM     71  F   UNL A   1      41.989  30.295  35.825  1.00  0.00    -0.205 F 
ATOM     72  C   UNL A   1      43.164  33.755  36.045  1.00  0.00     0.022 A 
BRANCH  70  73
ATOM     73  S   UNL A   1      41.720  32.481  37.988  1.00  0.00     0.127 S 
ATOM     74  O   UNL A   1      42.466  31.413  38.654  1.00  0.00    -0.237 OA
ATOM     75  O   UNL A   1      41.972  33.821  38.519  1.00  0.00    -0.237 OA
ATOM     76  O   UNL A   1      40.321  32.191  37.713  1.00  0.00    -0.744 OA
ENDBRANCH  70  73
ENDBRANCH  52  66
BRANCH  53  77
ATOM     77  C   UNL A   1      42.787  24.570  27.162  1.00  0.00     0.023 A 
ATOM     78  C   UNL A   1      43.432  24.828  25.937  1.00  0.00     0.012 A 
ATOM     79  C   UNL A   1      42.165  23.323  27.363  1.00  0.00     0.148 A 
ATOM     80  C   UNL A   1      43.441  23.870  24.924  1.00  0.00     0.002 A 
ATOM     81  C   UNL A   1      42.226  22.352  26.370  1.00  0.00     0.091 A 
ATOM     82  F   UNL A   1      41.554  23.102  28.535  1.00  0.00    -0.205 F 
ATOM     83  C   UNL A   1      42.849  22.628  25.144  1.00  0.00     0.022 A 
BRANCH  81  84
ATOM     84  S   UNL A   1      41.605  20.683  26.609  1.00  0.00     0.127 S 
ATOM     85  O   UNL A   1      40.161  20.886  26.523  1.00  0.00    -0.237 OA
ATOM     86  O   UNL A   1      42.199  19.979  25.472  1.00  0.00    -0.237 OA
ATOM     87  O   UNL A   1      42.103  20.256  27.911  1.00  0.00    -0.744 OA
ENDBRANCH  81  84
ENDBRANCH  53  77
BRANCH  65  88
ATOM     88  C   UNL A   1      47.501  26.325  32.011  1.00  0.00     0.023 A 
ATOM     89  C   UNL A   1      47.673  25.376  33.039  1.00  0.00     0.012 A 
ATOM     90  C   UNL A   1      48.616  26.725  31.247  1.00  0.00     0.148 A 
ATOM     91  C   UNL A   1      48.935  24.858  33.323  1.00  0.00     0.002 A 
ATOM     92  C   UNL A   1      49.863  26.166  31.503  1.00  0.00     0.091 A 
ATOM     93  F   UNL A   1      48.436  27.639  30.284  1.00  0.00    -0.205 F 
ATOM     94  C   UNL A   1      50.027  25.242  32.549  1.00  0.00     0.022 A 
BRANCH  92  95
ATOM     95  S   UNL A   1      51.311  26.527  30.504  1.00  0.00     0.127 S 
ATOM     96  O   UNL A   1      51.361  27.987  30.569  1.00  0.00    -0.237 OA
ATOM     97  O   UNL A   1      52.374  25.846  31.244  1.00  0.00    -0.237 OA
ATOM     98  O   UNL A   1      51.040  25.975  29.183  1.00  0.00    -0.744 OA
ENDBRANCH  92  95
ENDBRANCH  65  88
ENDBRANCH  39  40
ENDBRANCH  31  34
ENDBRANCH  29  30
ENDBRANCH  28  29
ENDBRANCH  27  28
ENDBRANCH   1  27
TORSDOF 23
ENDMDL
MODEL 2
REMARK VINA RESULT:      -9.5      4.552      9.169
REMARK SMILES COc1cc([C@@H](O)[C@H](C)[C@H](C)C(=O)NCCCCCCNC(=O)c2ccc(-c3c4nc(c(-c5cccc(S(=O)(=O)[O-])c5F)c5ccc([nH]5)c(-c5cccc(S(=O)(=O)[O-])c5F)c5nc(c(-c6cccc(S(=O)(=O)[O-])c6F)c6ccc3[nH]6)C=C5)C=C4)cc2)cc(OC)c1OC
REMARK SMILES IDX 17 1 16 2 15 3 14 4 12 5 13 6 10 8 11 9 8 10 9 11 6 12 5 13
REMARK SMILES IDX 3 14 4 15 91 16 88 17 87 18 2 19 1 20 92 21 93 22 89 23
REMARK SMILES IDX 90 24 7 25 18 27 19 28 20 29 21 30 22 31 23 33 24 34 25 35
REMARK SMILES IDX 86 36 26 37 85 38 27 39 28 40 29 41 79 42 30 43 84 44 78 45
REMARK SMILES IDX 80 46 31 47 83 48 77 49 76 50 32 52 64 53 44 54 63 55 45 56
REMARK SMILES IDX 48 57 62 58 81 59 46 60 47 61 61 63 82 64 49 65 33 66 34 67
REMARK SMILES IDX 42 68 35 69 37 70 43 71 36 72 38 73 39 74 40 75 41 76 65 77
REMARK SMILES IDX 66 78 74 79 67 80 69 81 75 82 68 83 70 84 71 85 72 86 73 87
REMARK SMILES IDX 50 88 51 89 59 90 52 91 54 92 60 93 53 94 55 95 56 96 57 97
REMARK SMILES IDX 58 98
REMARK H PARENT 14 7 7 26 21 32 80 51 48 62
REMARK Flexibility Score: inf
ROOT
ATOM      1  C   UNL A   1      39.532  23.152  27.256  1.00  0.00     0.002 C 
ENDROOT
BRANCH   1   2
ATOM      2  C   UNL A   1      38.726  24.211  26.494  1.00  0.00     0.021 C 
BRANCH   2   3
ATOM      3  C   UNL A   1      37.386  23.701  25.983  1.00  0.00     0.116 C 
BRANCH   3   4
ATOM      4  N   UNL A   1      37.351  23.636  24.538  1.00  0.00    -0.356 N 
ATOM      5  C   UNL A   1      36.630  22.823  23.727  1.00  0.00     0.223 C 
ATOM      6  O   UNL A   1      36.668  23.043  22.512  1.00  0.00    -0.275 OA
ATOM      7  H   UNL A   1      37.937  24.276  24.074  1.00  0.00     0.163 HD
BRANCH   5   8
ATOM      8  C   UNL A   1      35.794  21.666  24.274  1.00  0.00     0.081 C 
ATOM      9  C   UNL A   1      36.582  20.951  25.379  1.00  0.00     0.018 C 
BRANCH   8  10
ATOM     10  C   UNL A   1      34.249  21.910  24.492  1.00  0.00     0.031 C 
ATOM     11  C   UNL A   1      33.441  20.646  24.845  1.00  0.00     0.011 C 
BRANCH  10  12
ATOM     12  C   UNL A   1      33.920  23.118  25.425  1.00  0.00     0.148 C 
BRANCH  12  13
ATOM     13  C   UNL A   1      33.368  24.388  24.805  1.00  0.00    -0.012 A 
ATOM     14  C   UNL A   1      32.806  26.752  24.936  1.00  0.00     0.165 A 
ATOM     15  C   UNL A   1      33.019  25.509  25.561  1.00  0.00     0.057 A 
ATOM     16  C   UNL A   1      32.950  26.906  23.541  1.00  0.00     0.203 A 
ATOM     17  C   UNL A   1      33.250  25.764  22.776  1.00  0.00     0.165 A 
ATOM     18  C   UNL A   1      33.432  24.527  23.411  1.00  0.00     0.057 A 
BRANCH  14  19
ATOM     19  O   UNL A   1      32.634  27.840  25.752  1.00  0.00    -0.493 OA
ATOM     20  C   UNL A   1      31.809  27.552  26.879  1.00  0.00     0.278 C 
ENDBRANCH  14  19
BRANCH  16  21
ATOM     21  O   UNL A   1      32.880  28.090  22.858  1.00  0.00    -0.490 OA
ATOM     22  C   UNL A   1      34.027  28.908  22.721  1.00  0.00     0.278 C 
ENDBRANCH  16  21
BRANCH  17  23
ATOM     23  O   UNL A   1      33.436  25.657  21.419  1.00  0.00    -0.493 OA
ATOM     24  C   UNL A   1      32.952  24.509  20.743  1.00  0.00     0.278 C 
ENDBRANCH  17  23
ENDBRANCH  12  13
BRANCH  12  25
ATOM     25  O   UNL A   1      33.017  22.729  26.462  1.00  0.00    -0.388 OA
ATOM     26  H   UNL A   1      33.349  21.927  26.895  1.00  0.00     0.211 HD
ENDBRANCH  12  25
ENDBRANCH  10  12
ENDBRANCH   8  10
ENDBRANCH   5   8
ENDBRANCH   3   4
ENDBRANCH   2   3
ENDBRANCH   1   2
BRANCH   1  27
ATOM     27  C   UNL A   1      40.509  22.330  26.405  1.00  0.00     0.002 C 
BRANCH  27  28
ATOM     28  C   UNL A   1      40.264  20.819  26.405  1.00  0.00     0.021 C 
BRANCH  28  29
ATOM     29  C   UNL A   1      41.354  19.997  27.084  1.00  0.00     0.116 C 
BRANCH  29  30
ATOM     30  N   UNL A   1      42.227  19.341  26.121  1.00  0.00    -0.352 N 
ATOM     31  C   UNL A   1      43.254  19.866  25.377  1.00  0.00     0.251 C 
ATOM     32  H   UNL A   1      42.057  18.380  25.985  1.00  0.00     0.163 HD
ATOM     33  O   UNL A   1      43.763  19.209  24.479  1.00  0.00    -0.269 OA
BRANCH  31  34
ATOM     34  C   UNL A   1      43.724  21.240  25.655  1.00  0.00     0.039 A 
ATOM     35  C   UNL A   1      43.789  22.155  24.601  1.00  0.00     0.014 A 
ATOM     36  C   UNL A   1      44.081  21.626  26.950  1.00  0.00     0.014 A 
ATOM     37  C   UNL A   1      44.139  23.481  24.862  1.00  0.00     0.010 A 
ATOM     38  C   UNL A   1      44.361  22.961  27.218  1.00  0.00     0.010 A 
ATOM     39  C   UNL A   1      44.384  23.904  26.179  1.00  0.00    -0.014 A 
BRANCH  39  40
ATOM     40  C   UNL A   1      44.601  25.337  26.497  1.00  0.00     0.031 A 
ATOM     41  C   UNL A   1      45.961  25.959  26.357  1.00  0.00     0.074 A 
ATOM     42  C   UNL A   1      43.582  26.054  27.012  1.00  0.00     0.049 A 
ATOM     43  N   UNL A   1      46.343  27.176  26.640  1.00  0.00    -0.248 NA
ATOM     44  C   UNL A   1      47.039  25.092  25.855  1.00  0.00     0.031 C 
ATOM     45  C   UNL A   1      42.233  25.541  27.263  1.00  0.00     0.029 A 
ATOM     46  N   UNL A   1      43.528  27.356  27.441  1.00  0.00    -0.354 N 
ATOM     47  C   UNL A   1      47.707  27.217  26.382  1.00  0.00     0.074 A 
ATOM     48  C   UNL A   1      48.092  25.889  25.950  1.00  0.00     0.031 C 
ATOM     49  C   UNL A   1      41.482  26.520  27.793  1.00  0.00     0.029 A 
ATOM     50  C   UNL A   1      42.304  27.714  27.957  1.00  0.00     0.049 A 
ATOM     51  H   UNL A   1      44.292  27.975  27.384  1.00  0.00     0.167 HD
ATOM     52  C   UNL A   1      48.558  28.268  26.473  1.00  0.00     0.034 A 
ATOM     53  C   UNL A   1      41.893  28.868  28.516  1.00  0.00     0.034 A 
ATOM     54  C   UNL A   1      48.164  29.588  26.889  1.00  0.00     0.049 A 
ATOM     55  C   UNL A   1      42.857  30.017  28.615  1.00  0.00     0.074 A 
ATOM     56  C   UNL A   1      48.926  30.742  26.924  1.00  0.00     0.029 A 
ATOM     57  N   UNL A   1      46.906  29.927  27.366  1.00  0.00    -0.354 N 
ATOM     58  N   UNL A   1      44.099  30.089  28.205  1.00  0.00    -0.248 NA
ATOM     59  C   UNL A   1      42.354  31.253  29.231  1.00  0.00     0.031 C 
ATOM     60  C   UNL A   1      48.142  31.768  27.466  1.00  0.00     0.029 A 
ATOM     61  C   UNL A   1      46.880  31.262  27.734  1.00  0.00     0.049 A 
ATOM     62  H   UNL A   1      46.143  29.308  27.434  1.00  0.00     0.167 HD
ATOM     63  C   UNL A   1      44.524  31.380  28.495  1.00  0.00     0.074 A 
ATOM     64  C   UNL A   1      43.394  32.066  29.089  1.00  0.00     0.031 C 
ATOM     65  C   UNL A   1      45.743  31.943  28.302  1.00  0.00     0.034 A 
BRANCH  52  66
ATOM     66  C   UNL A   1      49.997  28.032  26.089  1.00  0.00     0.023 A 
ATOM     67  C   UNL A   1      50.380  28.103  24.732  1.00  0.00     0.012 A 
ATOM     68  C   UNL A   1      50.976  27.773  27.067  1.00  0.00     0.148 A 
ATOM     69  C   UNL A   1      51.700  27.868  24.352  1.00  0.00     0.002 A 
ATOM     70  C   UNL A   1      52.300  27.588  26.685  1.00  0.00     0.091 A 
ATOM     71  F   UNL A   1      50.595  27.690  28.349  1.00  0.00    -0.205 F 
ATOM     72  C   UNL A   1      52.661  27.620  25.328  1.00  0.00     0.022 A 
BRANCH  70  73
ATOM     73  S   UNL A   1      53.625  27.343  27.873  1.00  0.00     0.127 S 
ATOM     74  O   UNL A   1      54.783  27.837  27.128  1.00  0.00    -0.237 OA
ATOM     75  O   UNL A   1      53.205  28.199  28.983  1.00  0.00    -0.237 OA
ATOM     76  O   UNL A   1      53.634  25.919  28.175  1.00  0.00    -0.744 OA
ENDBRANCH  70  73
ENDBRANCH  52  66
BRANCH  53  77
ATOM     77  C   UNL A   1      40.482  29.003  28.974  1.00  0.00     0.023 A 
ATOM     78  C   UNL A   1      39.462  29.182  28.019  1.00  0.00     0.012 A 
ATOM     79  C   UNL A   1      40.139  28.903  30.337  1.00  0.00     0.148 A 
ATOM     80  C   UNL A   1      38.128  29.279  28.414  1.00  0.00     0.002 A 
ATOM     81  C   UNL A   1      38.803  28.945  30.718  1.00  0.00     0.091 A 
ATOM     82  F   UNL A   1      41.127  28.738  31.228  1.00  0.00    -0.205 F 
ATOM     83  C   UNL A   1      37.797  29.149  29.761  1.00  0.00     0.022 A 
BRANCH  81  84
ATOM     84  S   UNL A   1      38.270  28.660  32.410  1.00  0.00     0.127 S 
ATOM     85  O   UNL A   1      38.423  27.212  32.532  1.00  0.00    -0.237 OA
ATOM     86  O   UNL A   1      39.244  29.448  33.166  1.00  0.00    -0.237 OA
ATOM     87  O   UNL A   1      36.903  29.156  32.486  1.00  0.00    -0.744 OA
ENDBRANCH  81  84
ENDBRANCH  53  77
BRANCH  65  88
ATOM     88  C   UNL A   1      45.926  33.375  28.735  1.00  0.00     0.023 A 
ATOM     89  C   UNL A   1      46.502  33.656  29.990  1.00  0.00     0.012 A 
ATOM     90  C   UNL A   1      45.596  34.440  27.873  1.00  0.00     0.148 A 
ATOM     91  C   UNL A   1      46.718  34.972  30.394  1.00  0.00     0.002 A 
ATOM     92  C   UNL A   1      45.861  35.748  28.262  1.00  0.00     0.091 A 
ATOM     93  F   UNL A   1      45.035  34.154  26.690  1.00  0.00    -0.205 F 
ATOM     94  C   UNL A   1      46.409  36.017  29.528  1.00  0.00     0.022 A 
BRANCH  92  95
ATOM     95  S   UNL A   1      45.585  37.156  27.181  1.00  0.00     0.127 S 
ATOM     96  O   UNL A   1      46.084  38.261  27.997  1.00  0.00    -0.237 OA
ATOM     97  O   UNL A   1      46.419  36.825  26.025  1.00  0.00    -0.237 OA
ATOM     98  O   UNL A   1      44.153  37.183  26.909  1.00  0.00    -0.744 OA
ENDBRANCH  92  95
ENDBRANCH  65  88
ENDBRANCH  39  40
ENDBRANCH  31  34
ENDBRANCH  29  30
ENDBRANCH  28  29
ENDBRANCH  27  28
ENDBRANCH   1  27
TORSDOF 23
ENDMDL
MODEL 3
REMARK VINA RESULT:      -9.4      3.476      8.574
REMARK SMILES COc1cc([C@@H](O)[C@H](C)[C@H](C)C(=O)NCCCCCCNC(=O)c2ccc(-c3c4nc(c(-c5cccc(S(=O)(=O)[O-])c5F)c5ccc([nH]5)c(-c5cccc(S(=O)(=O)[O-])c5F)c5nc(c(-c6cccc(S(=O)(=O)[O-])c6F)c6ccc3[nH]6)C=C5)C=C4)cc2)cc(OC)c1OC
REMARK SMILES IDX 17 1 16 2 15 3 14 4 12 5 13 6 10 8 11 9 8 10 9 11 6 12 5 13
REMARK SMILES IDX 3 14 4 15 91 16 88 17 87 18 2 19 1 20 92 21 93 22 89 23
REMARK SMILES IDX 90 24 7 25 18 27 19 28 20 29 21 30 22 31 23 33 24 34 25 35
REMARK SMILES IDX 86 36 26 37 85 38 27 39 28 40 29 41 79 42 30 43 84 44 78 45
REMARK SMILES IDX 80 46 31 47 83 48 77 49 76 50 32 52 64 53 44 54 63 55 45 56
REMARK SMILES IDX 48 57 62 58 81 59 46 60 47 61 61 63 82 64 49 65 33 66 34 67
REMARK SMILES IDX 42 68 35 69 37 70 43 71 36 72 38 73 39 74 40 75 41 76 65 77
REMARK SMILES IDX 66 78 74 79 67 80 69 81 75 82 68 83 70 84 71 85 72 86 73 87
REMARK SMILES IDX 50 88 51 89 59 90 52 91 54 92 60 93 53 94 55 95 56 96 57 97
REMARK SMILES IDX 58 98
REMARK H PARENT 14 7 7 26 21 32 80 51 48 62
REMARK Flexibility Score: inf
ROOT
ATOM      1  C   UNL A   1      32.455  27.457  26.838  1.00  0.00     0.002 C 
ENDROOT
BRANCH   1   2
ATOM      2  C   UNL A   1      33.759  27.646  26.053  1.00  0.00     0.021 C 
BRANCH   2   3
ATOM      3  C   UNL A   1      34.318  26.350  25.485  1.00  0.00     0.116 C 
BRANCH   3   4
ATOM      4  N   UNL A   1      33.602  25.192  25.979  1.00  0.00    -0.356 N 
ATOM      5  C   UNL A   1      33.587  23.921  25.508  1.00  0.00     0.223 C 
ATOM      6  O   UNL A   1      32.997  23.067  26.179  1.00  0.00    -0.275 OA
ATOM      7  H   UNL A   1      33.044  25.352  26.772  1.00  0.00     0.163 HD
BRANCH   5   8
ATOM      8  C   UNL A   1      34.266  23.534  24.194  1.00  0.00     0.081 C 
ATOM      9  C   UNL A   1      35.664  22.977  24.492  1.00  0.00     0.018 C 
BRANCH   8  10
ATOM     10  C   UNL A   1      33.389  22.814  23.095  1.00  0.00     0.031 C 
ATOM     11  C   UNL A   1      32.595  21.595  23.601  1.00  0.00     0.011 C 
BRANCH  10  12
ATOM     12  C   UNL A   1      32.522  23.786  22.235  1.00  0.00     0.148 C 
BRANCH  12  13
ATOM     13  C   UNL A   1      32.112  25.120  22.832  1.00  0.00    -0.012 A 
ATOM     14  C   UNL A   1      32.095  27.552  22.802  1.00  0.00     0.165 A 
ATOM     15  C   UNL A   1      32.701  26.330  22.458  1.00  0.00     0.057 A 
ATOM     16  C   UNL A   1      30.879  27.594  23.516  1.00  0.00     0.203 A 
ATOM     17  C   UNL A   1      30.316  26.376  23.938  1.00  0.00     0.165 A 
ATOM     18  C   UNL A   1      30.947  25.166  23.611  1.00  0.00     0.057 A 
BRANCH  14  19
ATOM     19  O   UNL A   1      32.633  28.690  22.257  1.00  0.00    -0.493 OA
ATOM     20  C   UNL A   1      34.039  28.788  22.478  1.00  0.00     0.278 C 
ENDBRANCH  14  19
BRANCH  16  21
ATOM     21  O   UNL A   1      30.156  28.722  23.794  1.00  0.00    -0.490 OA
ATOM     22  C   UNL A   1      29.451  29.393  22.765  1.00  0.00     0.278 C 
ENDBRANCH  16  21
BRANCH  17  23
ATOM     23  O   UNL A   1      29.156  26.156  24.640  1.00  0.00    -0.493 OA
ATOM     24  C   UNL A   1      29.225  25.545  25.917  1.00  0.00     0.278 C 
ENDBRANCH  17  23
ENDBRANCH  12  13
BRANCH  12  25
ATOM     25  O   UNL A   1      33.155  24.062  20.984  1.00  0.00    -0.388 OA
ATOM     26  H   UNL A   1      32.510  23.960  20.266  1.00  0.00     0.211 HD
ENDBRANCH  12  25
ENDBRANCH  10  12
ENDBRANCH   8  10
ENDBRANCH   5   8
ENDBRANCH   3   4
ENDBRANCH   2   3
ENDBRANCH   1   2
BRANCH   1  27
ATOM     27  C   UNL A   1      31.719  28.750  27.213  1.00  0.00     0.002 C 
BRANCH  27  28
ATOM     28  C   UNL A   1      32.214  30.013  26.503  1.00  0.00     0.021 C 
BRANCH  28  29
ATOM     29  C   UNL A   1      33.229  30.832  27.294  1.00  0.00     0.116 C 
BRANCH  29  30
ATOM     30  N   UNL A   1      32.899  32.250  27.305  1.00  0.00    -0.352 N 
ATOM     31  C   UNL A   1      33.415  33.258  28.081  1.00  0.00     0.251 C 
ATOM     32  H   UNL A   1      32.207  32.526  26.662  1.00  0.00     0.163 HD
ATOM     33  O   UNL A   1      32.890  34.364  28.085  1.00  0.00    -0.269 OA
BRANCH  31  34
ATOM     34  C   UNL A   1      34.597  32.992  28.928  1.00  0.00     0.039 A 
ATOM     35  C   UNL A   1      34.413  32.368  30.164  1.00  0.00     0.014 A 
ATOM     36  C   UNL A   1      35.880  33.341  28.496  1.00  0.00     0.014 A 
ATOM     37  C   UNL A   1      35.525  32.023  30.934  1.00  0.00     0.010 A 
ATOM     38  C   UNL A   1      36.989  32.934  29.231  1.00  0.00     0.010 A 
ATOM     39  C   UNL A   1      36.822  32.263  30.452  1.00  0.00    -0.014 A 
BRANCH  39  40
ATOM     40  C   UNL A   1      38.016  31.763  31.179  1.00  0.00     0.031 A 
ATOM     41  C   UNL A   1      38.892  30.701  30.578  1.00  0.00     0.074 A 
ATOM     42  C   UNL A   1      38.249  32.200  32.432  1.00  0.00     0.049 A 
ATOM     43  N   UNL A   1      39.939  30.110  31.091  1.00  0.00    -0.248 NA
ATOM     44  C   UNL A   1      38.531  30.223  29.234  1.00  0.00     0.031 C 
ATOM     45  C   UNL A   1      37.426  33.175  33.151  1.00  0.00     0.029 A 
ATOM     46  N   UNL A   1      39.227  31.862  33.333  1.00  0.00    -0.354 N 
ATOM     47  C   UNL A   1      40.346  29.172  30.152  1.00  0.00     0.074 A 
ATOM     48  C   UNL A   1      39.411  29.250  29.049  1.00  0.00     0.031 C 
ATOM     49  C   UNL A   1      37.939  33.365  34.377  1.00  0.00     0.029 A 
ATOM     50  C   UNL A   1      39.099  32.496  34.547  1.00  0.00     0.049 A 
ATOM     51  H   UNL A   1      39.951  31.226  33.129  1.00  0.00     0.167 HD
ATOM     52  C   UNL A   1      41.413  28.337  30.192  1.00  0.00     0.034 A 
ATOM     53  C   UNL A   1      39.823  32.380  35.677  1.00  0.00     0.034 A 
ATOM     54  C   UNL A   1      42.347  28.277  31.285  1.00  0.00     0.049 A 
ATOM     55  C   UNL A   1      40.997  31.442  35.700  1.00  0.00     0.074 A 
ATOM     56  C   UNL A   1      43.511  27.536  31.382  1.00  0.00     0.029 A 
ATOM     57  N   UNL A   1      42.211  28.963  32.483  1.00  0.00    -0.354 N 
ATOM     58  N   UNL A   1      41.469  30.687  34.738  1.00  0.00    -0.248 NA
ATOM     59  C   UNL A   1      41.753  31.357  36.958  1.00  0.00     0.031 C 
ATOM     60  C   UNL A   1      44.055  27.740  32.656  1.00  0.00     0.029 A 
ATOM     61  C   UNL A   1      43.249  28.636  33.340  1.00  0.00     0.049 A 
ATOM     62  H   UNL A   1      41.482  29.591  32.694  1.00  0.00     0.167 HD
ATOM     63  C   UNL A   1      42.587  30.052  35.264  1.00  0.00     0.074 A 
ATOM     64  C   UNL A   1      42.739  30.534  36.623  1.00  0.00     0.031 C 
ATOM     65  C   UNL A   1      43.405  29.140  34.682  1.00  0.00     0.034 A 
BRANCH  52  66
ATOM     66  C   UNL A   1      41.639  27.440  29.000  1.00  0.00     0.023 A 
ATOM     67  C   UNL A   1      40.944  26.216  28.905  1.00  0.00     0.012 A 
ATOM     68  C   UNL A   1      42.511  27.820  27.961  1.00  0.00     0.148 A 
ATOM     69  C   UNL A   1      41.153  25.362  27.822  1.00  0.00     0.002 A 
ATOM     70  C   UNL A   1      42.676  26.985  26.861  1.00  0.00     0.091 A 
ATOM     71  F   UNL A   1      43.177  28.977  28.075  1.00  0.00    -0.205 F 
ATOM     72  C   UNL A   1      42.011  25.751  26.798  1.00  0.00     0.022 A 
BRANCH  70  73
ATOM     73  S   UNL A   1      43.696  27.434  25.453  1.00  0.00     0.127 S 
ATOM     74  O   UNL A   1      44.516  26.233  25.289  1.00  0.00    -0.237 OA
ATOM     75  O   UNL A   1      42.699  27.637  24.402  1.00  0.00    -0.237 OA
ATOM     76  O   UNL A   1      44.417  28.635  25.846  1.00  0.00    -0.744 OA
ENDBRANCH  70  73
ENDBRANCH  52  66
BRANCH  53  77
ATOM     77  C   UNL A   1      39.483  33.220  36.859  1.00  0.00     0.023 A 
ATOM     78  C   UNL A   1      38.549  32.741  37.798  1.00  0.00     0.012 A 
ATOM     79  C   UNL A   1      40.113  34.459  37.086  1.00  0.00     0.148 A 
ATOM     80  C   UNL A   1      38.235  33.489  38.932  1.00  0.00     0.002 A 
ATOM     81  C   UNL A   1      39.836  35.173  38.245  1.00  0.00     0.091 A 
ATOM     82  F   UNL A   1      40.994  34.897  36.176  1.00  0.00    -0.205 F 
ATOM     83  C   UNL A   1      38.886  34.699  39.162  1.00  0.00     0.022 A 
BRANCH  81  84
ATOM     84  S   UNL A   1      40.716  36.675  38.690  1.00  0.00     0.127 S 
ATOM     85  O   UNL A   1      41.510  36.924  37.489  1.00  0.00    -0.237 OA
ATOM     86  O   UNL A   1      39.614  37.613  38.906  1.00  0.00    -0.237 OA
ATOM     87  O   UNL A   1      41.477  36.350  39.889  1.00  0.00    -0.744 OA
ENDBRANCH  81  84
ENDBRANCH  53  77
BRANCH  65  88
ATOM     88  C   UNL A   1      44.544  28.598  35.508  1.00  0.00     0.023 A 
ATOM     89  C   UNL A   1      45.818  29.194  35.415  1.00  0.00     0.012 A 
ATOM     90  C   UNL A   1      44.338  27.549  36.426  1.00  0.00     0.148 A 
ATOM     91  C   UNL A   1      46.875  28.735  36.199  1.00  0.00     0.002 A 
ATOM     92  C   UNL A   1      45.384  27.131  37.240  1.00  0.00     0.091 A 
ATOM     93  F   UNL A   1      43.123  26.985  36.489  1.00  0.00    -0.205 F 
ATOM     94  C   UNL A   1      46.656  27.713  37.119  1.00  0.00     0.022 A 
BRANCH  92  95
ATOM     95  S   UNL A   1      45.178  25.886  38.519  1.00  0.00     0.127 S 
ATOM     96  O   UNL A   1      44.160  26.498  39.370  1.00  0.00    -0.237 OA
ATOM     97  O   UNL A   1      44.718  24.729  37.751  1.00  0.00    -0.237 OA
ATOM     98  O   UNL A   1      46.487  25.722  39.139  1.00  0.00    -0.744 OA
ENDBRANCH  92  95
ENDBRANCH  65  88
ENDBRANCH  39  40
ENDBRANCH  31  34
ENDBRANCH  29  30
ENDBRANCH  28  29
ENDBRANCH  27  28
ENDBRANCH   1  27
TORSDOF 23
ENDMDL
