MODEL 1
REMARK VINA RESULT:     -10.4      0.000      0.000
REMARK SMILES CCc1ccc(N2C(=O)C[C@@H](SC[C@@H](NC(C)=O)C(=O)NCCCCCCNC(=O)c3ccc(-c4c5nc(c(-c6cccc(S(=O)(=O)[O-])c6F)c6ccc([nH]6)c(-c6cccc(S(=O)(=O)[O-])c6F)c6nc(c(-c7cccc(S(=O)(=O)[O-])c7F)c7ccc4[nH]7)C=C6)C=C5)cc3)C2=O)cc1
REMARK SMILES IDX 23 1 22 2 21 3 19 4 20 5 14 7 13 8 12 9 11 10 7 11 8 12
REMARK SMILES IDX 94 13 9 14 10 15 95 16 6 17 3 18 4 19 97 20 5 21 96 22 2 23
REMARK SMILES IDX 1 24 15 25 16 26 17 28 18 29 24 30 25 31 26 32 27 33 28 34
REMARK SMILES IDX 29 35 30 37 31 38 32 39 93 40 33 41 92 42 34 43 35 44 36 45
REMARK SMILES IDX 86 46 37 47 91 48 85 49 87 50 38 51 90 52 84 53 83 54 39 56
REMARK SMILES IDX 71 57 51 58 70 59 52 60 55 61 69 62 88 63 53 64 54 65 68 67
REMARK SMILES IDX 89 68 56 69 40 70 41 71 49 72 42 73 44 74 50 75 43 76 45 77
REMARK SMILES IDX 46 78 47 79 48 80 72 81 73 82 81 83 74 84 76 85 82 86 75 87
REMARK SMILES IDX 77 88 78 89 79 90 80 91 57 92 58 93 66 94 59 95 61 96 67 97
REMARK SMILES IDX 60 98 62 99 63 100 64 101 65 102
REMARK H PARENT 21 6 15 27 28 36 87 55 55 66
REMARK Flexibility Score: inf
ROOT
ATOM      1  C   UNL A   1      35.344  32.102  28.023  1.00  0.00     0.021 C 
ENDROOT
BRANCH   1   2
ATOM      2  C   UNL A   1      34.503  30.902  27.601  1.00  0.00     0.116 C 
BRANCH   2   3
ATOM      3  N   UNL A   1      33.128  31.294  27.374  1.00  0.00    -0.354 N 
ATOM      4  C   UNL A   1      32.183  30.724  26.573  1.00  0.00     0.243 C 
ATOM      5  O   UNL A   1      31.133  31.352  26.396  1.00  0.00    -0.273 OA
ATOM      6  H   UNL A   1      32.832  32.090  27.871  1.00  0.00     0.163 HD
BRANCH   4   7
ATOM      7  C   UNL A   1      32.486  29.454  25.743  1.00  0.00     0.181 C 
BRANCH   7   8
ATOM      8  C   UNL A   1      32.635  28.306  26.772  1.00  0.00     0.105 C 
BRANCH   8   9
ATOM      9  S   UNL A   1      31.900  26.675  26.350  1.00  0.00    -0.145 SA
BRANCH   9  10
ATOM     10  C   UNL A   1      33.282  25.683  25.653  1.00  0.00     0.146 C 
ATOM     11  N   UNL A   1      33.632  23.543  24.781  1.00  0.00    -0.250 N 
ATOM     12  C   UNL A   1      34.052  24.414  23.807  1.00  0.00     0.235 C 
ATOM     13  C   UNL A   1      33.065  24.194  25.857  1.00  0.00     0.247 C 
ATOM     14  O   UNL A   1      34.607  24.193  22.745  1.00  0.00    -0.274 OA
ATOM     15  C   UNL A   1      33.592  25.788  24.177  1.00  0.00     0.125 C 
ATOM     16  O   UNL A   1      32.597  23.701  26.876  1.00  0.00    -0.273 OA
BRANCH  11  17
ATOM     17  C   UNL A   1      33.776  22.142  24.686  1.00  0.00     0.052 A 
ATOM     18  C   UNL A   1      34.090  19.341  24.449  1.00  0.00    -0.048 A 
ATOM     19  C   UNL A   1      32.920  19.974  24.010  1.00  0.00     0.006 A 
ATOM     20  C   UNL A   1      35.105  20.130  24.999  1.00  0.00     0.006 A 
ATOM     21  C   UNL A   1      32.752  21.355  24.152  1.00  0.00     0.027 A 
ATOM     22  C   UNL A   1      34.956  21.516  25.103  1.00  0.00     0.027 A 
BRANCH  18  23
ATOM     23  C   UNL A   1      34.244  17.854  24.232  1.00  0.00     0.032 C 
ATOM     24  C   UNL A   1      33.158  17.192  23.394  1.00  0.00     0.009 C 
ENDBRANCH  18  23
ENDBRANCH  11  17
ENDBRANCH   9  10
ENDBRANCH   8   9
ENDBRANCH   7   8
BRANCH   7  25
ATOM     25  N   UNL A   1      31.509  29.131  24.699  1.00  0.00    -0.344 N 
ATOM     26  C   UNL A   1      31.844  28.862  23.391  1.00  0.00     0.217 C 
ATOM     27  H   UNL A   1      30.558  29.105  24.948  1.00  0.00     0.164 HD
ATOM     28  C   UNL A   1      30.646  28.569  22.526  1.00  0.00     0.114 C 
ATOM     29  O   UNL A   1      32.977  28.942  22.939  1.00  0.00    -0.275 OA
ENDBRANCH   7  25
ENDBRANCH   4   7
ENDBRANCH   2   3
ENDBRANCH   1   2
BRANCH   1  30
ATOM     30  C   UNL A   1      34.693  32.929  29.132  1.00  0.00     0.002 C 
BRANCH  30  31
ATOM     31  C   UNL A   1      34.844  32.329  30.534  1.00  0.00     0.002 C 
BRANCH  31  32
ATOM     32  C   UNL A   1      35.280  33.326  31.612  1.00  0.00     0.021 C 
BRANCH  32  33
ATOM     33  C   UNL A   1      36.124  32.711  32.722  1.00  0.00     0.116 C 
BRANCH  33  34
ATOM     34  N   UNL A   1      36.074  31.257  32.693  1.00  0.00    -0.352 N 
ATOM     35  C   UNL A   1      36.910  30.379  32.054  1.00  0.00     0.251 C 
ATOM     36  H   UNL A   1      35.337  30.848  33.202  1.00  0.00     0.163 HD
ATOM     37  O   UNL A   1      36.596  29.197  31.943  1.00  0.00    -0.269 OA
BRANCH  35  38
ATOM     38  C   UNL A   1      38.184  30.871  31.493  1.00  0.00     0.039 A 
ATOM     39  C   UNL A   1      39.253  31.123  32.355  1.00  0.00     0.014 A 
ATOM     40  C   UNL A   1      38.319  31.078  30.117  1.00  0.00     0.014 A 
ATOM     41  C   UNL A   1      40.474  31.548  31.829  1.00  0.00     0.010 A 
ATOM     42  C   UNL A   1      39.558  31.420  29.589  1.00  0.00     0.010 A 
ATOM     43  C   UNL A   1      40.643  31.677  30.440  1.00  0.00    -0.014 A 
BRANCH  43  44
ATOM     44  C   UNL A   1      41.943  32.094  29.859  1.00  0.00     0.031 A 
ATOM     45  C   UNL A   1      42.176  33.535  29.489  1.00  0.00     0.074 A 
ATOM     46  C   UNL A   1      42.884  31.166  29.595  1.00  0.00     0.049 A 
ATOM     47  N   UNL A   1      43.222  34.082  28.928  1.00  0.00    -0.248 NA
ATOM     48  C   UNL A   1      41.079  34.479  29.759  1.00  0.00     0.031 C 
ATOM     49  C   UNL A   1      42.746  29.728  29.838  1.00  0.00     0.029 A 
ATOM     50  N   UNL A   1      44.132  31.290  29.041  1.00  0.00    -0.354 N 
ATOM     51  C   UNL A   1      42.897  35.421  28.744  1.00  0.00     0.074 A 
ATOM     52  C   UNL A   1      41.542  35.596  29.218  1.00  0.00     0.031 C 
ATOM     53  C   UNL A   1      43.868  29.106  29.443  1.00  0.00     0.029 A 
ATOM     54  C   UNL A   1      44.788  30.091  28.886  1.00  0.00     0.049 A 
ATOM     55  H   UNL A   1      44.522  32.155  28.778  1.00  0.00     0.167 HD
ATOM     56  C   UNL A   1      43.665  36.421  28.253  1.00  0.00     0.034 A 
ATOM     57  C   UNL A   1      45.992  29.816  28.347  1.00  0.00     0.034 A 
ATOM     58  C   UNL A   1      45.025  36.248  27.816  1.00  0.00     0.049 A 
ATOM     59  C   UNL A   1      46.840  30.951  27.837  1.00  0.00     0.074 A 
ATOM     60  C   UNL A   1      45.916  37.211  27.379  1.00  0.00     0.029 A 
ATOM     61  N   UNL A   1      45.684  35.031  27.749  1.00  0.00    -0.354 N 
ATOM     62  N   UNL A   1      46.572  32.234  27.810  1.00  0.00    -0.248 NA
ATOM     63  C   UNL A   1      48.171  30.605  27.320  1.00  0.00     0.031 C 
ATOM     64  C   UNL A   1      47.105  36.570  27.014  1.00  0.00     0.029 A 
ATOM     65  C   UNL A   1      46.969  35.215  27.266  1.00  0.00     0.049 A 
ATOM     66  H   UNL A   1      45.297  34.163  28.006  1.00  0.00     0.167 HD
ATOM     67  C   UNL A   1      47.714  32.851  27.315  1.00  0.00     0.074 A 
ATOM     68  C   UNL A   1      48.683  31.802  27.071  1.00  0.00     0.031 C 
ATOM     69  C   UNL A   1      47.939  34.168  27.077  1.00  0.00     0.034 A 
BRANCH  56  70
ATOM     70  C   UNL A   1      43.067  37.804  28.198  1.00  0.00     0.023 A 
ATOM     71  C   UNL A   1      42.304  38.192  27.077  1.00  0.00     0.012 A 
ATOM     72  C   UNL A   1      43.216  38.699  29.274  1.00  0.00     0.148 A 
ATOM     73  C   UNL A   1      41.732  39.462  27.011  1.00  0.00     0.002 A 
ATOM     74  C   UNL A   1      42.601  39.945  29.224  1.00  0.00     0.091 A 
ATOM     75  F   UNL A   1      43.961  38.320  30.322  1.00  0.00    -0.205 F 
ATOM     76  C   UNL A   1      41.871  40.333  28.087  1.00  0.00     0.022 A 
BRANCH  74  77
ATOM     77  S   UNL A   1      42.648  41.106  30.593  1.00  0.00     0.127 S 
ATOM     78  O   UNL A   1      43.545  42.137  30.074  1.00  0.00    -0.237 OA
ATOM     79  O   UNL A   1      41.247  41.513  30.697  1.00  0.00    -0.237 OA
ATOM     80  O   UNL A   1      43.153  40.360  31.737  1.00  0.00    -0.744 OA
ENDBRANCH  74  77
ENDBRANCH  56  70
BRANCH  57  81
ATOM     81  C   UNL A   1      46.493  28.412  28.316  1.00  0.00     0.023 A 
ATOM     82  C   UNL A   1      47.381  27.970  29.316  1.00  0.00     0.012 A 
ATOM     83  C   UNL A   1      46.079  27.511  27.316  1.00  0.00     0.148 A 
ATOM     84  C   UNL A   1      47.879  26.667  29.298  1.00  0.00     0.002 A 
ATOM     85  C   UNL A   1      46.535  26.198  27.337  1.00  0.00     0.091 A 
ATOM     86  F   UNL A   1      45.239  27.954  26.371  1.00  0.00    -0.205 F 
ATOM     87  C   UNL A   1      47.450  25.779  28.315  1.00  0.00     0.022 A 
BRANCH  85  88
ATOM     88  S   UNL A   1      45.940  24.952  26.188  1.00  0.00     0.127 S 
ATOM     89  O   UNL A   1      46.358  25.506  24.903  1.00  0.00    -0.237 OA
ATOM     90  O   UNL A   1      46.682  23.767  26.620  1.00  0.00    -0.237 OA
ATOM     91  O   UNL A   1      44.501  24.871  26.400  1.00  0.00    -0.744 OA
ENDBRANCH  85  88
ENDBRANCH  57  81
BRANCH  69  92
ATOM     92  C   UNL A   1      49.304  34.565  26.576  1.00  0.00     0.023 A 
ATOM     93  C   UNL A   1      49.535  34.726  25.196  1.00  0.00     0.012 A 
ATOM     94  C   UNL A   1      50.340  34.851  27.489  1.00  0.00     0.148 A 
ATOM     95  C   UNL A   1      50.786  35.128  24.729  1.00  0.00     0.002 A 
ATOM     96  C   UNL A   1      51.565  35.304  27.021  1.00  0.00     0.091 A 
ATOM     97  F   UNL A   1      50.105  34.674  28.797  1.00  0.00    -0.205 F 
ATOM     98  C   UNL A   1      51.796  35.429  25.641  1.00  0.00     0.022 A 
BRANCH  96  99
ATOM     99  S   UNL A   1      52.889  35.812  28.123  1.00  0.00     0.127 S 
ATOM    100  O   UNL A   1      52.540  37.207  28.384  1.00  0.00    -0.237 OA
ATOM    101  O   UNL A   1      52.703  34.914  29.264  1.00  0.00    -0.237 OA
ATOM    102  O   UNL A   1      54.128  35.605  27.387  1.00  0.00    -0.744 OA
ENDBRANCH  96  99
ENDBRANCH  69  92
ENDBRANCH  43  44
ENDBRANCH  35  38
ENDBRANCH  33  34
ENDBRANCH  32  33
ENDBRANCH  31  32
ENDBRANCH  30  31
ENDBRANCH   1  30
TORSDOF 22
ENDMDL
MODEL 2
REMARK VINA RESULT:      -9.3      5.654     14.466
REMARK SMILES CCc1ccc(N2C(=O)C[C@@H](SC[C@@H](NC(C)=O)C(=O)NCCCCCCNC(=O)c3ccc(-c4c5nc(c(-c6cccc(S(=O)(=O)[O-])c6F)c6ccc([nH]6)c(-c6cccc(S(=O)(=O)[O-])c6F)c6nc(c(-c7cccc(S(=O)(=O)[O-])c7F)c7ccc4[nH]7)C=C6)C=C5)cc3)C2=O)cc1
REMARK SMILES IDX 23 1 22 2 21 3 19 4 20 5 14 7 13 8 12 9 11 10 7 11 8 12
REMARK SMILES IDX 94 13 9 14 10 15 95 16 6 17 3 18 4 19 97 20 5 21 96 22 2 23
REMARK SMILES IDX 1 24 15 25 16 26 17 28 18 29 24 30 25 31 26 32 27 33 28 34
REMARK SMILES IDX 29 35 30 37 31 38 32 39 93 40 33 41 92 42 34 43 35 44 36 45
REMARK SMILES IDX 86 46 37 47 91 48 85 49 87 50 38 51 90 52 84 53 83 54 39 56
REMARK SMILES IDX 71 57 51 58 70 59 52 60 55 61 69 62 88 63 53 64 54 65 68 67
REMARK SMILES IDX 89 68 56 69 40 70 41 71 49 72 42 73 44 74 50 75 43 76 45 77
REMARK SMILES IDX 46 78 47 79 48 80 72 81 73 82 81 83 74 84 76 85 82 86 75 87
REMARK SMILES IDX 77 88 78 89 79 90 80 91 57 92 58 93 66 94 59 95 61 96 67 97
REMARK SMILES IDX 60 98 62 99 63 100 64 101 65 102
REMARK H PARENT 21 6 15 27 28 36 87 55 55 66
REMARK Flexibility Score: inf
ROOT
ATOM      1  C   UNL A   1      52.140  26.081  31.503  1.00  0.00     0.021 C 
ENDROOT
BRANCH   1   2
ATOM      2  C   UNL A   1      51.041  26.411  30.500  1.00  0.00     0.116 C 
BRANCH   2   3
ATOM      3  N   UNL A   1      51.292  25.761  29.231  1.00  0.00    -0.354 N 
ATOM      4  C   UNL A   1      50.532  25.739  28.099  1.00  0.00     0.243 C 
ATOM      5  O   UNL A   1      50.866  24.955  27.203  1.00  0.00    -0.273 OA
ATOM      6  H   UNL A   1      52.138  25.260  29.178  1.00  0.00     0.163 HD
BRANCH   4   7
ATOM      7  C   UNL A   1      49.184  26.496  28.016  1.00  0.00     0.181 C 
BRANCH   7   8
ATOM      8  C   UNL A   1      49.397  27.617  26.968  1.00  0.00     0.105 C 
BRANCH   8   9
ATOM      9  S   UNL A   1      47.924  28.225  26.053  1.00  0.00    -0.145 SA
BRANCH   9  10
ATOM     10  C   UNL A   1      46.935  29.162  27.286  1.00  0.00     0.146 C 
ATOM     11  N   UNL A   1      45.441  30.960  27.328  1.00  0.00    -0.250 N 
ATOM     12  C   UNL A   1      44.777  29.911  27.913  1.00  0.00     0.235 C 
ATOM     13  C   UNL A   1      46.674  30.588  26.833  1.00  0.00     0.247 C 
ATOM     14  O   UNL A   1      43.690  29.882  28.464  1.00  0.00    -0.274 OA
ATOM     15  C   UNL A   1      45.559  28.662  27.660  1.00  0.00     0.125 C 
ATOM     16  O   UNL A   1      47.498  31.288  26.258  1.00  0.00    -0.273 OA
BRANCH  11  17
ATOM     17  C   UNL A   1      44.918  32.269  27.255  1.00  0.00     0.052 A 
ATOM     18  C   UNL A   1      43.823  34.874  27.130  1.00  0.00    -0.048 A 
ATOM     19  C   UNL A   1      43.763  34.013  26.025  1.00  0.00     0.006 A 
ATOM     20  C   UNL A   1      44.429  34.409  28.302  1.00  0.00     0.006 A 
ATOM     21  C   UNL A   1      44.329  32.736  26.077  1.00  0.00     0.027 A 
ATOM     22  C   UNL A   1      44.957  33.116  28.368  1.00  0.00     0.027 A 
BRANCH  18  23
ATOM     23  C   UNL A   1      43.157  36.227  27.041  1.00  0.00     0.032 C 
ATOM     24  C   UNL A   1      44.097  37.422  26.956  1.00  0.00     0.009 C 
ENDBRANCH  18  23
ENDBRANCH  11  17
ENDBRANCH   9  10
ENDBRANCH   8   9
ENDBRANCH   7   8
BRANCH   7  25
ATOM     25  N   UNL A   1      48.012  25.672  27.708  1.00  0.00    -0.344 N 
ATOM     26  C   UNL A   1      47.042  25.344  28.626  1.00  0.00     0.217 C 
ATOM     27  H   UNL A   1      47.914  25.334  26.789  1.00  0.00     0.164 HD
ATOM     28  C   UNL A   1      45.951  24.480  28.047  1.00  0.00     0.114 C 
ATOM     29  O   UNL A   1      47.090  25.632  29.814  1.00  0.00    -0.275 OA
ENDBRANCH   7  25
ENDBRANCH   4   7
ENDBRANCH   2   3
ENDBRANCH   1   2
BRANCH   1  30
ATOM     30  C   UNL A   1      51.795  24.891  32.400  1.00  0.00     0.002 C 
BRANCH  30  31
ATOM     31  C   UNL A   1      50.809  25.219  33.527  1.00  0.00     0.002 C 
BRANCH  31  32
ATOM     32  C   UNL A   1      49.344  24.914  33.202  1.00  0.00     0.021 C 
BRANCH  32  33
ATOM     33  C   UNL A   1      48.556  24.334  34.370  1.00  0.00     0.116 C 
BRANCH  33  34
ATOM     34  N   UNL A   1      48.705  25.142  35.572  1.00  0.00    -0.352 N 
ATOM     35  C   UNL A   1      48.036  26.282  35.931  1.00  0.00     0.251 C 
ATOM     36  H   UNL A   1      49.379  24.824  36.215  1.00  0.00     0.163 HD
ATOM     37  O   UNL A   1      48.439  26.965  36.869  1.00  0.00    -0.269 OA
BRANCH  35  38
ATOM     38  C   UNL A   1      46.834  26.686  35.175  1.00  0.00     0.039 A 
ATOM     39  C   UNL A   1      45.627  26.026  35.415  1.00  0.00     0.014 A 
ATOM     40  C   UNL A   1      46.903  27.717  34.234  1.00  0.00     0.014 A 
ATOM     41  C   UNL A   1      44.477  26.428  34.734  1.00  0.00     0.010 A 
ATOM     42  C   UNL A   1      45.741  28.171  33.621  1.00  0.00     0.010 A 
ATOM     43  C   UNL A   1      44.520  27.519  33.850  1.00  0.00    -0.014 A 
BRANCH  43  44
ATOM     44  C   UNL A   1      43.301  27.985  33.143  1.00  0.00     0.031 A 
ATOM     45  C   UNL A   1      43.023  27.525  31.737  1.00  0.00     0.074 A 
ATOM     46  C   UNL A   1      42.487  28.879  33.738  1.00  0.00     0.049 A 
ATOM     47  N   UNL A   1      42.041  27.858  30.941  1.00  0.00    -0.248 NA
ATOM     48  C   UNL A   1      43.990  26.591  31.137  1.00  0.00     0.031 C 
ATOM     49  C   UNL A   1      42.691  29.457  35.068  1.00  0.00     0.029 A 
ATOM     50  N   UNL A   1      41.336  29.477  33.290  1.00  0.00    -0.354 N 
ATOM     51  C   UNL A   1      42.290  27.207  29.739  1.00  0.00     0.074 A 
ATOM     52  C   UNL A   1      43.535  26.490  29.896  1.00  0.00     0.031 C 
ATOM     53  C   UNL A   1      41.696  30.319  35.330  1.00  0.00     0.029 A 
ATOM     54  C   UNL A   1      40.804  30.383  34.178  1.00  0.00     0.049 A 
ATOM     55  H   UNL A   1      40.929  29.277  32.416  1.00  0.00     0.167 HD
ATOM     56  C   UNL A   1      41.537  27.183  28.614  1.00  0.00     0.034 A 
ATOM     57  C   UNL A   1      39.725  31.183  34.071  1.00  0.00     0.034 A 
ATOM     58  C   UNL A   1      40.281  27.869  28.475  1.00  0.00     0.049 A 
ATOM     59  C   UNL A   1      38.887  31.113  32.822  1.00  0.00     0.074 A 
ATOM     60  C   UNL A   1      39.400  27.844  27.409  1.00  0.00     0.029 A 
ATOM     61  N   UNL A   1      39.733  28.716  29.427  1.00  0.00    -0.354 N 
ATOM     62  N   UNL A   1      39.059  30.375  31.752  1.00  0.00    -0.248 NA
ATOM     63  C   UNL A   1      37.684  31.957  32.782  1.00  0.00     0.031 C 
ATOM     64  C   UNL A   1      38.336  28.703  27.702  1.00  0.00     0.029 A 
ATOM     65  C   UNL A   1      38.532  29.228  28.969  1.00  0.00     0.049 A 
ATOM     66  H   UNL A   1      40.138  28.922  30.300  1.00  0.00     0.167 HD
ATOM     67  C   UNL A   1      37.967  30.632  30.932  1.00  0.00     0.074 A 
ATOM     68  C   UNL A   1      37.131  31.582  31.638  1.00  0.00     0.031 C 
ATOM     69  C   UNL A   1      37.685  30.133  29.703  1.00  0.00     0.034 A 
BRANCH  56  70
ATOM     70  C   UNL A   1      42.031  26.355  27.455  1.00  0.00     0.023 A 
ATOM     71  C   UNL A   1      42.761  26.970  26.417  1.00  0.00     0.012 A 
ATOM     72  C   UNL A   1      41.819  24.964  27.418  1.00  0.00     0.148 A 
ATOM     73  C   UNL A   1      43.237  26.221  25.342  1.00  0.00     0.002 A 
ATOM     74  C   UNL A   1      42.340  24.215  26.369  1.00  0.00     0.091 A 
ATOM     75  F   UNL A   1      41.106  24.399  28.404  1.00  0.00    -0.205 F 
ATOM     76  C   UNL A   1      43.036  24.844  25.323  1.00  0.00     0.022 A 
BRANCH  74  77
ATOM     77  S   UNL A   1      42.210  22.426  26.296  1.00  0.00     0.127 S 
ATOM     78  O   UNL A   1      42.859  22.135  25.019  1.00  0.00    -0.237 OA
ATOM     79  O   UNL A   1      42.972  22.015  27.476  1.00  0.00    -0.237 OA
ATOM     80  O   UNL A   1      40.787  22.122  26.356  1.00  0.00    -0.744 OA
ENDBRANCH  74  77
ENDBRANCH  56  70
BRANCH  57  81
ATOM     81  C   UNL A   1      39.342  32.075  35.201  1.00  0.00     0.023 A 
ATOM     82  C   UNL A   1      39.702  33.436  35.163  1.00  0.00     0.012 A 
ATOM     83  C   UNL A   1      38.608  31.589  36.300  1.00  0.00     0.148 A 
ATOM     84  C   UNL A   1      39.372  34.289  36.217  1.00  0.00     0.002 A 
ATOM     85  C   UNL A   1      38.234  32.456  37.320  1.00  0.00     0.091 A 
ATOM     86  F   UNL A   1      38.281  30.289  36.320  1.00  0.00    -0.205 F 
ATOM     87  C   UNL A   1      38.631  33.801  37.291  1.00  0.00     0.022 A 
BRANCH  85  88
ATOM     88  S   UNL A   1      37.174  31.946  38.678  1.00  0.00     0.127 S 
ATOM     89  O   UNL A   1      37.886  32.487  39.832  1.00  0.00    -0.237 OA
ATOM     90  O   UNL A   1      35.920  32.627  38.352  1.00  0.00    -0.237 OA
ATOM     91  O   UNL A   1      37.105  30.493  38.605  1.00  0.00    -0.744 OA
ENDBRANCH  85  88
ENDBRANCH  57  81
BRANCH  69  92
ATOM     92  C   UNL A   1      36.391  30.555  29.056  1.00  0.00     0.023 A 
ATOM     93  C   UNL A   1      35.434  29.590  28.686  1.00  0.00     0.012 A 
ATOM     94  C   UNL A   1      36.097  31.923  28.884  1.00  0.00     0.148 A 
ATOM     95  C   UNL A   1      34.220  29.978  28.119  1.00  0.00     0.002 A 
ATOM     96  C   UNL A   1      34.864  32.303  28.371  1.00  0.00     0.091 A 
ATOM     97  F   UNL A   1      37.028  32.825  29.226  1.00  0.00    -0.205 F 
ATOM     98  C   UNL A   1      33.930  31.333  27.974  1.00  0.00     0.022 A 
BRANCH  96  99
ATOM     99  S   UNL A   1      34.364  34.024  28.243  1.00  0.00     0.127 S 
ATOM    100  O   UNL A   1      34.575  34.497  29.610  1.00  0.00    -0.237 OA
ATOM    101  O   UNL A   1      35.314  34.550  27.262  1.00  0.00    -0.237 OA
ATOM    102  O   UNL A   1      32.979  34.008  27.795  1.00  0.00    -0.744 OA
ENDBRANCH  96  99
ENDBRANCH  69  92
ENDBRANCH  43  44
ENDBRANCH  35  38
ENDBRANCH  33  34
ENDBRANCH  32  33
ENDBRANCH  31  32
ENDBRANCH  30  31
ENDBRANCH   1  30
TORSDOF 22
ENDMDL
MODEL 3
REMARK VINA RESULT:      -9.2      5.583      9.614
REMARK SMILES CCc1ccc(N2C(=O)C[C@@H](SC[C@@H](NC(C)=O)C(=O)NCCCCCCNC(=O)c3ccc(-c4c5nc(c(-c6cccc(S(=O)(=O)[O-])c6F)c6ccc([nH]6)c(-c6cccc(S(=O)(=O)[O-])c6F)c6nc(c(-c7cccc(S(=O)(=O)[O-])c7F)c7ccc4[nH]7)C=C6)C=C5)cc3)C2=O)cc1
REMARK SMILES IDX 23 1 22 2 21 3 19 4 20 5 14 7 13 8 12 9 11 10 7 11 8 12
REMARK SMILES IDX 94 13 9 14 10 15 95 16 6 17 3 18 4 19 97 20 5 21 96 22 2 23
REMARK SMILES IDX 1 24 15 25 16 26 17 28 18 29 24 30 25 31 26 32 27 33 28 34
REMARK SMILES IDX 29 35 30 37 31 38 32 39 93 40 33 41 92 42 34 43 35 44 36 45
REMARK SMILES IDX 86 46 37 47 91 48 85 49 87 50 38 51 90 52 84 53 83 54 39 56
REMARK SMILES IDX 71 57 51 58 70 59 52 60 55 61 69 62 88 63 53 64 54 65 68 67
REMARK SMILES IDX 89 68 56 69 40 70 41 71 49 72 42 73 44 74 50 75 43 76 45 77
REMARK SMILES IDX 46 78 47 79 48 80 72 81 73 82 81 83 74 84 76 85 82 86 75 87
REMARK SMILES IDX 77 88 78 89 79 90 80 91 57 92 58 93 66 94 59 95 61 96 67 97
REMARK SMILES IDX 60 98 62 99 63 100 64 101 65 102
REMARK H PARENT 21 6 15 27 28 36 87 55 55 66
REMARK Flexibility Score: inf
ROOT
ATOM      1  C   UNL A   1      37.774  24.406  26.862  1.00  0.00     0.021 C 
ENDROOT
BRANCH   1   2
ATOM      2  C   UNL A   1      37.841  23.305  25.809  1.00  0.00     0.116 C 
BRANCH   2   3
ATOM      3  N   UNL A   1      36.883  22.260  26.098  1.00  0.00    -0.354 N 
ATOM      4  C   UNL A   1      35.550  22.198  25.815  1.00  0.00     0.243 C 
ATOM      5  O   UNL A   1      34.899  21.284  26.332  1.00  0.00    -0.273 OA
ATOM      6  H   UNL A   1      37.248  21.477  26.570  1.00  0.00     0.163 HD
BRANCH   4   7
ATOM      7  C   UNL A   1      34.831  23.340  25.057  1.00  0.00     0.181 C 
BRANCH   7   8
ATOM      8  C   UNL A   1      34.401  22.735  23.697  1.00  0.00     0.105 C 
BRANCH   8   9
ATOM      9  S   UNL A   1      32.633  22.877  23.217  1.00  0.00    -0.145 SA
BRANCH   9  10
ATOM     10  C   UNL A   1      32.504  24.460  22.291  1.00  0.00     0.146 C 
ATOM     11  N   UNL A   1      31.986  26.699  22.718  1.00  0.00    -0.250 N 
ATOM     12  C   UNL A   1      33.230  26.709  22.137  1.00  0.00     0.235 C 
ATOM     13  C   UNL A   1      31.526  25.418  22.946  1.00  0.00     0.247 C 
ATOM     14  O   UNL A   1      33.920  27.649  21.782  1.00  0.00    -0.274 OA
ATOM     15  C   UNL A   1      33.743  25.306  22.103  1.00  0.00     0.125 C 
ATOM     16  O   UNL A   1      30.462  25.078  23.449  1.00  0.00    -0.273 OA
BRANCH  11  17
ATOM     17  C   UNL A   1      31.264  27.871  23.032  1.00  0.00     0.052 A 
ATOM     18  C   UNL A   1      29.786  30.189  23.694  1.00  0.00    -0.048 A 
ATOM     19  C   UNL A   1      29.479  29.442  22.549  1.00  0.00     0.006 A 
ATOM     20  C   UNL A   1      30.836  29.755  24.509  1.00  0.00     0.006 A 
ATOM     21  C   UNL A   1      30.226  28.312  22.206  1.00  0.00     0.027 A 
ATOM     22  C   UNL A   1      31.557  28.601  24.189  1.00  0.00     0.027 A 
BRANCH  18  23
ATOM     23  C   UNL A   1      28.920  31.376  24.048  1.00  0.00     0.032 C 
ATOM     24  C   UNL A   1      27.817  31.709  23.053  1.00  0.00     0.009 C 
ENDBRANCH  18  23
ENDBRANCH  11  17
ENDBRANCH   9  10
ENDBRANCH   8   9
ENDBRANCH   7   8
BRANCH   7  25
ATOM     25  N   UNL A   1      33.706  23.959  25.763  1.00  0.00    -0.344 N 
ATOM     26  C   UNL A   1      33.540  25.318  25.900  1.00  0.00     0.217 C 
ATOM     27  H   UNL A   1      33.029  23.367  26.162  1.00  0.00     0.164 HD
ATOM     28  C   UNL A   1      32.302  25.684  26.677  1.00  0.00     0.114 C 
ATOM     29  O   UNL A   1      34.350  26.153  25.522  1.00  0.00    -0.275 OA
ENDBRANCH   7  25
ENDBRANCH   4   7
ENDBRANCH   2   3
ENDBRANCH   1   2
BRANCH   1  30
ATOM     30  C   UNL A   1      39.154  24.861  27.340  1.00  0.00     0.002 C 
BRANCH  30  31
ATOM     31  C   UNL A   1      39.124  25.754  28.585  1.00  0.00     0.002 C 
BRANCH  31  32
ATOM     32  C   UNL A   1      40.140  26.901  28.572  1.00  0.00     0.021 C 
BRANCH  32  33
ATOM     33  C   UNL A   1      39.958  27.905  29.703  1.00  0.00     0.116 C 
BRANCH  33  34
ATOM     34  N   UNL A   1      39.011  27.426  30.700  1.00  0.00    -0.352 N 
ATOM     35  C   UNL A   1      38.824  27.857  31.987  1.00  0.00     0.251 C 
ATOM     36  H   UNL A   1      38.425  26.691  30.408  1.00  0.00     0.163 HD
ATOM     37  O   UNL A   1      38.142  27.197  32.766  1.00  0.00    -0.269 OA
BRANCH  35  38
ATOM     38  C   UNL A   1      39.456  29.116  32.428  1.00  0.00     0.039 A 
ATOM     39  C   UNL A   1      40.786  29.096  32.854  1.00  0.00     0.014 A 
ATOM     40  C   UNL A   1      38.734  30.313  32.418  1.00  0.00     0.014 A 
ATOM     41  C   UNL A   1      41.404  30.288  33.234  1.00  0.00     0.010 A 
ATOM     42  C   UNL A   1      39.375  31.509  32.717  1.00  0.00     0.010 A 
ATOM     43  C   UNL A   1      40.711  31.507  33.146  1.00  0.00    -0.014 A 
BRANCH  43  44
ATOM     44  C   UNL A   1      41.361  32.790  33.512  1.00  0.00     0.031 A 
ATOM     45  C   UNL A   1      42.035  33.623  32.454  1.00  0.00     0.074 A 
ATOM     46  C   UNL A   1      41.410  33.166  34.806  1.00  0.00     0.049 A 
ATOM     47  N   UNL A   1      42.694  34.743  32.586  1.00  0.00    -0.248 NA
ATOM     48  C   UNL A   1      41.985  33.116  31.073  1.00  0.00     0.031 C 
ATOM     49  C   UNL A   1      40.860  32.407  35.930  1.00  0.00     0.029 A 
ATOM     50  N   UNL A   1      41.970  34.271  35.394  1.00  0.00    -0.354 N 
ATOM     51  C   UNL A   1      43.168  35.056  31.317  1.00  0.00     0.074 A 
ATOM     52  C   UNL A   1      42.753  33.987  30.436  1.00  0.00     0.031 C 
ATOM     53  C   UNL A   1      41.103  33.071  37.070  1.00  0.00     0.029 A 
ATOM     54  C   UNL A   1      41.855  34.283  36.765  1.00  0.00     0.049 A 
ATOM     55  H   UNL A   1      42.412  34.988  34.885  1.00  0.00     0.167 HD
ATOM     56  C   UNL A   1      43.860  36.147  30.914  1.00  0.00     0.034 A 
ATOM     57  C   UNL A   1      42.313  35.166  37.674  1.00  0.00     0.034 A 
ATOM     58  C   UNL A   1      44.240  37.224  31.788  1.00  0.00     0.049 A 
ATOM     59  C   UNL A   1      43.053  36.387  37.196  1.00  0.00     0.074 A 
ATOM     60  C   UNL A   1      44.871  38.412  31.465  1.00  0.00     0.029 A 
ATOM     61  N   UNL A   1      44.036  37.239  33.159  1.00  0.00    -0.354 N 
ATOM     62  N   UNL A   1      43.361  36.740  35.971  1.00  0.00    -0.248 NA
ATOM     63  C   UNL A   1      43.473  37.352  38.222  1.00  0.00     0.031 C 
ATOM     64  C   UNL A   1      45.080  39.130  32.647  1.00  0.00     0.029 A 
ATOM     65  C   UNL A   1      44.539  38.410  33.699  1.00  0.00     0.049 A 
ATOM     66  H   UNL A   1      43.598  36.522  33.673  1.00  0.00     0.167 HD
ATOM     67  C   UNL A   1      43.971  37.984  36.075  1.00  0.00     0.074 A 
ATOM     68  C   UNL A   1      43.974  38.331  37.481  1.00  0.00     0.031 C 
ATOM     69  C   UNL A   1      44.489  38.765  35.094  1.00  0.00     0.034 A 
BRANCH  56  70
ATOM     70  C   UNL A   1      44.220  36.251  29.454  1.00  0.00     0.023 A 
ATOM     71  C   UNL A   1      43.359  36.929  28.567  1.00  0.00     0.012 A 
ATOM     72  C   UNL A   1      45.432  35.723  28.969  1.00  0.00     0.148 A 
ATOM     73  C   UNL A   1      43.678  37.047  27.215  1.00  0.00     0.002 A 
ATOM     74  C   UNL A   1      45.768  35.888  27.630  1.00  0.00     0.091 A 
ATOM     75  F   UNL A   1      46.229  35.064  29.822  1.00  0.00    -0.205 F 
ATOM     76  C   UNL A   1      44.886  36.536  26.749  1.00  0.00     0.022 A 
BRANCH  74  77
ATOM     77  S   UNL A   1      47.338  35.342  26.949  1.00  0.00     0.127 S 
ATOM     78  O   UNL A   1      47.151  35.609  25.525  1.00  0.00    -0.237 OA
ATOM     79  O   UNL A   1      48.287  36.234  27.618  1.00  0.00    -0.237 OA
ATOM     80  O   UNL A   1      47.466  33.937  27.309  1.00  0.00    -0.744 OA
ENDBRANCH  74  77
ENDBRANCH  56  70
BRANCH  57  81
ATOM     81  C   UNL A   1      42.034  34.958  39.123  1.00  0.00     0.023 A 
ATOM     82  C   UNL A   1      42.959  34.248  39.913  1.00  0.00     0.012 A 
ATOM     83  C   UNL A   1      40.871  35.477  39.725  1.00  0.00     0.148 A 
ATOM     84  C   UNL A   1      42.713  34.024  41.267  1.00  0.00     0.002 A 
ATOM     85  C   UNL A   1      40.660  35.298  41.087  1.00  0.00     0.091 A 
ATOM     86  F   UNL A   1      40.001  36.144  38.955  1.00  0.00    -0.205 F 
ATOM     87  C   UNL A   1      41.568  34.556  41.857  1.00  0.00     0.022 A 
BRANCH  85  88
ATOM     88  S   UNL A   1      39.280  36.053  41.956  1.00  0.00     0.127 S 
ATOM     89  O   UNL A   1      38.136  35.408  41.319  1.00  0.00    -0.237 OA
ATOM     90  O   UNL A   1      39.533  35.640  43.337  1.00  0.00    -0.237 OA
ATOM     91  O   UNL A   1      39.402  37.487  41.726  1.00  0.00    -0.744 OA
ENDBRANCH  85  88
ENDBRANCH  57  81
BRANCH  69  92
ATOM     92  C   UNL A   1      45.055  40.103  35.492  1.00  0.00     0.023 A 
ATOM     93  C   UNL A   1      44.239  41.251  35.483  1.00  0.00     0.012 A 
ATOM     94  C   UNL A   1      46.386  40.205  35.948  1.00  0.00     0.148 A 
ATOM     95  C   UNL A   1      44.748  42.486  35.885  1.00  0.00     0.002 A 
ATOM     96  C   UNL A   1      46.869  41.426  36.399  1.00  0.00     0.091 A 
ATOM     97  F   UNL A   1      47.152  39.105  35.933  1.00  0.00    -0.205 F 
ATOM     98  C   UNL A   1      46.057  42.571  36.355  1.00  0.00     0.022 A 
BRANCH  96  99
ATOM     99  S   UNL A   1      48.506  41.608  37.115  1.00  0.00     0.127 S 
ATOM    100  O   UNL A   1      49.366  41.314  35.970  1.00  0.00    -0.237 OA
ATOM    101  O   UNL A   1      48.506  43.011  37.533  1.00  0.00    -0.237 OA
ATOM    102  O   UNL A   1      48.576  40.651  38.209  1.00  0.00    -0.744 OA
ENDBRANCH  96  99
ENDBRANCH  69  92
ENDBRANCH  43  44
ENDBRANCH  35  38
ENDBRANCH  33  34
ENDBRANCH  32  33
ENDBRANCH  31  32
ENDBRANCH  30  31
ENDBRANCH   1  30
TORSDOF 22
ENDMDL
