MODEL 1
REMARK VINA RESULT:     -12.2      0.000      0.000
REMARK SMILES CCc1cc(N2CCC[C@H](C(=O)NCCCCCCNC(=O)c3ccc(-c4c5nc(c(-c6cccc(S(=O)(=O)[O-])c6F)c6ccc([nH]6)c(-c6cccc(S(=O)(=O)[O-])c6F)c6nc(c(-c7cccc(S(=O)(=O)[O-])c7F)c7ccc4[nH]7)C=C6)C=C5)cc3)C2)nc(-c2ccc(Cl)cc2)n1
REMARK SMILES IDX 17 1 16 2 15 3 14 4 13 5 11 6 12 7 10 9 6 10 7 11 86 12 8 13
REMARK SMILES IDX 9 14 5 15 3 16 4 17 96 18 88 19 87 20 2 21 1 22 89 23 90 24
REMARK SMILES IDX 95 25 91 26 94 27 92 28 93 29 18 30 19 31 20 32 21 33 22 35
REMARK SMILES IDX 23 36 24 37 85 38 25 39 84 40 26 41 27 42 28 43 78 44 29 45
REMARK SMILES IDX 83 46 77 47 79 48 30 49 82 50 76 51 75 52 31 54 63 55 43 56
REMARK SMILES IDX 62 57 44 58 47 59 61 60 80 61 45 62 46 63 60 65 81 66 48 67
REMARK SMILES IDX 32 68 33 69 41 70 34 71 36 72 42 73 35 74 37 75 38 76 39 77
REMARK SMILES IDX 40 78 64 79 65 80 73 81 66 82 68 83 74 84 67 85 69 86 70 87
REMARK SMILES IDX 71 88 72 89 49 90 50 91 58 92 51 93 53 94 59 95 52 96 54 97
REMARK SMILES IDX 55 98 56 99 57 100
REMARK H PARENT 13 8 20 34 79 53 47 64
REMARK Flexibility Score: inf
ROOT
ATOM      1  C   UNL A   1      31.033  28.573  24.522  1.00  0.00     0.002 C 
ENDROOT
BRANCH   1   2
ATOM      2  C   UNL A   1      30.050  28.280  23.389  1.00  0.00     0.002 C 
BRANCH   2   3
ATOM      3  C   UNL A   1      28.671  27.805  23.846  1.00  0.00     0.021 C 
BRANCH   3   4
ATOM      4  C   UNL A   1      28.514  26.287  23.848  1.00  0.00     0.116 C 
BRANCH   4   5
ATOM      5  N   UNL A   1      29.398  25.585  24.744  1.00  0.00    -0.356 N 
ATOM      6  C   UNL A   1      30.584  24.991  24.444  1.00  0.00     0.224 C 
ATOM      7  O   UNL A   1      31.409  24.902  25.363  1.00  0.00    -0.275 OA
ATOM      8  H   UNL A   1      29.110  25.530  25.684  1.00  0.00     0.163 HD
BRANCH   6   9
ATOM      9  C   UNL A   1      30.928  24.420  23.063  1.00  0.00     0.098 C 
ATOM     10  N   UNL A   1      33.133  23.361  23.116  1.00  0.00    -0.356 N 
ATOM     11  C   UNL A   1      33.710  24.091  21.995  1.00  0.00     0.118 C 
ATOM     12  C   UNL A   1      31.704  23.110  23.110  1.00  0.00     0.131 C 
ATOM     13  C   UNL A   1      32.962  25.416  21.750  1.00  0.00     0.022 C 
ATOM     14  C   UNL A   1      31.451  25.419  22.026  1.00  0.00     0.017 C 
BRANCH  10  15
ATOM     15  C   UNL A   1      33.919  22.539  23.903  1.00  0.00     0.132 A 
ATOM     16  C   UNL A   1      35.968  22.017  24.969  1.00  0.00     0.046 A 
ATOM     17  C   UNL A   1      35.152  22.960  24.368  1.00  0.00     0.070 A 
ATOM     18  N   UNL A   1      35.571  20.743  25.148  1.00  0.00    -0.233 NA
ATOM     19  C   UNL A   1      34.352  20.426  24.695  1.00  0.00     0.161 A 
ATOM     20  N   UNL A   1      33.511  21.269  24.067  1.00  0.00    -0.211 NA
BRANCH  16  21
ATOM     21  C   UNL A   1      37.357  22.321  25.463  1.00  0.00     0.053 C 
ATOM     22  C   UNL A   1      37.512  23.639  26.209  1.00  0.00     0.011 C 
ENDBRANCH  16  21
BRANCH  19  23
ATOM     23  C   UNL A   1      33.952  19.022  24.822  1.00  0.00     0.019 A 
ATOM     24  C   UNL A   1      34.740  17.992  24.279  1.00  0.00     0.013 A 
ATOM     25  C   UNL A   1      32.785  18.666  25.523  1.00  0.00     0.013 A 
ATOM     26  C   UNL A   1      34.416  16.648  24.498  1.00  0.00     0.021 A 
ATOM     27  C   UNL A   1      32.455  17.323  25.738  1.00  0.00     0.021 A 
ATOM     28  C   UNL A   1      33.284  16.319  25.240  1.00  0.00     0.041 A 
ATOM     29  Cl  UNL A   1      32.922  14.672  25.575  1.00  0.00    -0.084 Cl
ENDBRANCH  19  23
ENDBRANCH  10  15
ENDBRANCH   6   9
ENDBRANCH   4   5
ENDBRANCH   3   4
ENDBRANCH   2   3
ENDBRANCH   1   2
BRANCH   1  30
ATOM     30  C   UNL A   1      32.468  28.884  24.112  1.00  0.00     0.021 C 
BRANCH  30  31
ATOM     31  C   UNL A   1      33.323  29.430  25.240  1.00  0.00     0.116 C 
BRANCH  31  32
ATOM     32  N   UNL A   1      32.768  30.659  25.796  1.00  0.00    -0.352 N 
ATOM     33  C   UNL A   1      33.146  31.383  26.897  1.00  0.00     0.251 C 
ATOM     34  H   UNL A   1      32.001  31.028  25.302  1.00  0.00     0.163 HD
ATOM     35  O   UNL A   1      32.415  32.259  27.340  1.00  0.00    -0.269 OA
BRANCH  33  36
ATOM     36  C   UNL A   1      34.443  31.097  27.542  1.00  0.00     0.039 A 
ATOM     37  C   UNL A   1      35.375  32.126  27.689  1.00  0.00     0.014 A 
ATOM     38  C   UNL A   1      34.735  29.808  27.992  1.00  0.00     0.014 A 
ATOM     39  C   UNL A   1      36.581  31.869  28.338  1.00  0.00     0.010 A 
ATOM     40  C   UNL A   1      35.883  29.582  28.733  1.00  0.00     0.010 A 
ATOM     41  C   UNL A   1      36.829  30.604  28.893  1.00  0.00    -0.014 A 
BRANCH  41  42
ATOM     42  C   UNL A   1      38.077  30.307  29.633  1.00  0.00     0.031 A 
ATOM     43  C   UNL A   1      39.098  29.381  29.030  1.00  0.00     0.074 A 
ATOM     44  C   UNL A   1      38.238  30.787  30.881  1.00  0.00     0.049 A 
ATOM     45  N   UNL A   1      40.203  28.922  29.554  1.00  0.00    -0.248 NA
ATOM     46  C   UNL A   1      38.822  28.871  27.675  1.00  0.00     0.031 C 
ATOM     47  C   UNL A   1      37.273  31.626  31.596  1.00  0.00     0.029 A 
ATOM     48  N   UNL A   1      39.257  30.612  31.781  1.00  0.00    -0.354 N 
ATOM     49  C   UNL A   1      40.728  28.040  28.615  1.00  0.00     0.074 A 
ATOM     50  C   UNL A   1      39.801  27.995  27.508  1.00  0.00     0.031 C 
ATOM     51  C   UNL A   1      37.751  31.899  32.821  1.00  0.00     0.029 A 
ATOM     52  C   UNL A   1      39.032  31.224  32.991  1.00  0.00     0.049 A 
ATOM     53  H   UNL A   1      40.071  30.097  31.580  1.00  0.00     0.167 HD
ATOM     54  C   UNL A   1      41.893  27.354  28.660  1.00  0.00     0.034 A 
ATOM     55  C   UNL A   1      39.770  31.226  34.118  1.00  0.00     0.034 A 
ATOM     56  C   UNL A   1      42.829  27.442  29.746  1.00  0.00     0.049 A 
ATOM     57  C   UNL A   1      41.082  30.488  34.124  1.00  0.00     0.074 A 
ATOM     58  C   UNL A   1      44.082  26.866  29.851  1.00  0.00     0.029 A 
ATOM     59  N   UNL A   1      42.610  28.146  30.921  1.00  0.00    -0.354 N 
ATOM     60  N   UNL A   1      41.637  29.784  33.168  1.00  0.00    -0.248 NA
ATOM     61  C   UNL A   1      41.886  30.574  35.351  1.00  0.00     0.031 C 
ATOM     62  C   UNL A   1      44.605  27.192  31.106  1.00  0.00     0.029 A 
ATOM     63  C   UNL A   1      43.697  28.006  31.764  1.00  0.00     0.049 A 
ATOM     64  H   UNL A   1      41.800  28.667  31.124  1.00  0.00     0.167 HD
ATOM     65  C   UNL A   1      42.870  29.375  33.661  1.00  0.00     0.074 A 
ATOM     66  C   UNL A   1      42.987  29.926  34.996  1.00  0.00     0.031 C 
ATOM     67  C   UNL A   1      43.816  28.605  33.069  1.00  0.00     0.034 A 
BRANCH  54  68
ATOM     68  C   UNL A   1      42.241  26.482  27.480  1.00  0.00     0.023 A 
ATOM     69  C   UNL A   1      42.876  27.045  26.355  1.00  0.00     0.012 A 
ATOM     70  C   UNL A   1      41.986  25.097  27.508  1.00  0.00     0.148 A 
ATOM     71  C   UNL A   1      43.217  26.253  25.260  1.00  0.00     0.002 A 
ATOM     72  C   UNL A   1      42.374  24.305  26.434  1.00  0.00     0.091 A 
ATOM     73  F   UNL A   1      41.361  24.583  28.576  1.00  0.00    -0.205 F 
ATOM     74  C   UNL A   1      42.977  24.883  25.305  1.00  0.00     0.022 A 
BRANCH  72  75
ATOM     75  S   UNL A   1      42.186  22.519  26.429  1.00  0.00     0.127 S 
ATOM     76  O   UNL A   1      40.730  22.377  26.471  1.00  0.00    -0.237 OA
ATOM     77  O   UNL A   1      42.799  22.151  25.153  1.00  0.00    -0.237 OA
ATOM     78  O   UNL A   1      42.892  22.036  27.606  1.00  0.00    -0.744 OA
ENDBRANCH  72  75
ENDBRANCH  54  68
BRANCH  55  79
ATOM     79  C   UNL A   1      39.314  31.997  35.308  1.00  0.00     0.023 A 
ATOM     80  C   UNL A   1      38.454  31.386  36.241  1.00  0.00     0.012 A 
ATOM     81  C   UNL A   1      39.748  33.316  35.536  1.00  0.00     0.148 A 
ATOM     82  C   UNL A   1      38.003  32.089  37.360  1.00  0.00     0.002 A 
ATOM     83  C   UNL A   1      39.341  33.992  36.680  1.00  0.00     0.091 A 
ATOM     84  F   UNL A   1      40.564  33.882  34.634  1.00  0.00    -0.205 F 
ATOM     85  C   UNL A   1      38.454  33.387  37.584  1.00  0.00     0.022 A 
BRANCH  83  86
ATOM     86  S   UNL A   1      39.971  35.617  37.116  1.00  0.00     0.127 S 
ATOM     87  O   UNL A   1      41.404  35.361  37.235  1.00  0.00    -0.237 OA
ATOM     88  O   UNL A   1      39.582  36.414  35.952  1.00  0.00    -0.237 OA
ATOM     89  O   UNL A   1      39.292  35.988  38.350  1.00  0.00    -0.744 OA
ENDBRANCH  83  86
ENDBRANCH  55  79
BRANCH  67  90
ATOM     90  C   UNL A   1      45.086  28.345  33.835  1.00  0.00     0.023 A 
ATOM     91  C   UNL A   1      46.159  29.254  33.752  1.00  0.00     0.012 A 
ATOM     92  C   UNL A   1      45.179  27.238  34.701  1.00  0.00     0.148 A 
ATOM     93  C   UNL A   1      47.318  29.047  34.498  1.00  0.00     0.002 A 
ATOM     94  C   UNL A   1      46.314  27.069  35.482  1.00  0.00     0.091 A 
ATOM     95  F   UNL A   1      44.152  26.377  34.752  1.00  0.00    -0.205 F 
ATOM     96  C   UNL A   1      47.391  27.964  35.371  1.00  0.00     0.022 A 
BRANCH  94  97
ATOM     97  S   UNL A   1      46.456  25.765  36.709  1.00  0.00     0.127 S 
ATOM     98  O   UNL A   1      47.655  26.172  37.439  1.00  0.00    -0.237 OA
ATOM     99  O   UNL A   1      45.207  25.908  37.456  1.00  0.00    -0.237 OA
ATOM    100  O   UNL A   1      46.575  24.520  35.962  1.00  0.00    -0.744 OA
ENDBRANCH  94  97
ENDBRANCH  67  90
ENDBRANCH  41  42
ENDBRANCH  33  36
ENDBRANCH  31  32
ENDBRANCH  30  31
ENDBRANCH   1  30
TORSDOF 19
ENDMDL
MODEL 2
REMARK VINA RESULT:     -12.1      1.035      7.596
REMARK SMILES CCc1cc(N2CCC[C@H](C(=O)NCCCCCCNC(=O)c3ccc(-c4c5nc(c(-c6cccc(S(=O)(=O)[O-])c6F)c6ccc([nH]6)c(-c6cccc(S(=O)(=O)[O-])c6F)c6nc(c(-c7cccc(S(=O)(=O)[O-])c7F)c7ccc4[nH]7)C=C6)C=C5)cc3)C2)nc(-c2ccc(Cl)cc2)n1
REMARK SMILES IDX 17 1 16 2 15 3 14 4 13 5 11 6 12 7 10 9 6 10 7 11 86 12 8 13
REMARK SMILES IDX 9 14 5 15 3 16 4 17 96 18 88 19 87 20 2 21 1 22 89 23 90 24
REMARK SMILES IDX 95 25 91 26 94 27 92 28 93 29 18 30 19 31 20 32 21 33 22 35
REMARK SMILES IDX 23 36 24 37 85 38 25 39 84 40 26 41 27 42 28 43 78 44 29 45
REMARK SMILES IDX 83 46 77 47 79 48 30 49 82 50 76 51 75 52 31 54 63 55 43 56
REMARK SMILES IDX 62 57 44 58 47 59 61 60 80 61 45 62 46 63 60 65 81 66 48 67
REMARK SMILES IDX 32 68 33 69 41 70 34 71 36 72 42 73 35 74 37 75 38 76 39 77
REMARK SMILES IDX 40 78 64 79 65 80 73 81 66 82 68 83 74 84 67 85 69 86 70 87
REMARK SMILES IDX 71 88 72 89 49 90 50 91 58 92 51 93 53 94 59 95 52 96 54 97
REMARK SMILES IDX 55 98 56 99 57 100
REMARK H PARENT 13 8 20 34 79 53 47 64
REMARK Flexibility Score: inf
ROOT
ATOM      1  C   UNL A   1      30.849  28.905  24.611  1.00  0.00     0.002 C 
ENDROOT
BRANCH   1   2
ATOM      2  C   UNL A   1      31.250  28.837  23.138  1.00  0.00     0.002 C 
BRANCH   2   3
ATOM      3  C   UNL A   1      30.672  27.644  22.374  1.00  0.00     0.021 C 
BRANCH   3   4
ATOM      4  C   UNL A   1      31.733  26.686  21.840  1.00  0.00     0.116 C 
BRANCH   4   5
ATOM      5  N   UNL A   1      31.441  25.288  22.028  1.00  0.00    -0.356 N 
ATOM      6  C   UNL A   1      31.049  24.668  23.174  1.00  0.00     0.224 C 
ATOM      7  O   UNL A   1      30.376  23.637  23.047  1.00  0.00    -0.275 OA
ATOM      8  H   UNL A   1      31.535  24.713  21.234  1.00  0.00     0.163 HD
BRANCH   6   9
ATOM      9  C   UNL A   1      31.414  25.162  24.579  1.00  0.00     0.098 C 
ATOM     10  N   UNL A   1      32.642  23.426  25.789  1.00  0.00    -0.356 N 
ATOM     11  C   UNL A   1      31.789  23.391  26.969  1.00  0.00     0.118 C 
ATOM     12  C   UNL A   1      32.772  24.681  25.072  1.00  0.00     0.131 C 
ATOM     13  C   UNL A   1      30.386  23.946  26.657  1.00  0.00     0.022 C 
ATOM     14  C   UNL A   1      30.306  25.089  25.635  1.00  0.00     0.017 C 
BRANCH  10  15
ATOM     15  C   UNL A   1      33.642  22.486  25.612  1.00  0.00     0.132 A 
ATOM     16  C   UNL A   1      35.833  21.876  24.954  1.00  0.00     0.046 A 
ATOM     17  C   UNL A   1      34.940  22.867  25.322  1.00  0.00     0.070 A 
ATOM     18  N   UNL A   1      35.481  20.576  24.924  1.00  0.00    -0.233 NA
ATOM     19  C   UNL A   1      34.215  20.291  25.247  1.00  0.00     0.161 A 
ATOM     20  N   UNL A   1      33.273  21.194  25.579  1.00  0.00    -0.211 NA
BRANCH  16  21
ATOM     21  C   UNL A   1      37.257  22.154  24.551  1.00  0.00     0.053 C 
ATOM     22  C   UNL A   1      38.294  21.188  25.106  1.00  0.00     0.011 C 
ENDBRANCH  16  21
BRANCH  19  23
ATOM     23  C   UNL A   1      33.813  18.886  25.140  1.00  0.00     0.019 A 
ATOM     24  C   UNL A   1      34.587  17.964  24.414  1.00  0.00     0.013 A 
ATOM     25  C   UNL A   1      32.658  18.415  25.793  1.00  0.00     0.013 A 
ATOM     26  C   UNL A   1      34.264  16.601  24.407  1.00  0.00     0.021 A 
ATOM     27  C   UNL A   1      32.329  17.054  25.782  1.00  0.00     0.021 A 
ATOM     28  C   UNL A   1      33.145  16.151  25.104  1.00  0.00     0.041 A 
ATOM     29  Cl  UNL A   1      32.785  14.470  25.160  1.00  0.00    -0.084 Cl
ENDBRANCH  19  23
ENDBRANCH  10  15
ENDBRANCH   6   9
ENDBRANCH   4   5
ENDBRANCH   3   4
ENDBRANCH   2   3
ENDBRANCH   1   2
BRANCH   1  30
ATOM     30  C   UNL A   1      31.963  28.684  25.628  1.00  0.00     0.021 C 
BRANCH  30  31
ATOM     31  C   UNL A   1      33.132  29.639  25.473  1.00  0.00     0.116 C 
BRANCH  31  32
ATOM     32  N   UNL A   1      32.807  30.976  25.958  1.00  0.00    -0.352 N 
ATOM     33  C   UNL A   1      33.324  31.686  27.010  1.00  0.00     0.251 C 
ATOM     34  H   UNL A   1      32.107  31.443  25.448  1.00  0.00     0.163 HD
ATOM     35  O   UNL A   1      32.763  32.700  27.405  1.00  0.00    -0.269 OA
BRANCH  33  36
ATOM     36  C   UNL A   1      34.563  31.218  27.662  1.00  0.00     0.039 A 
ATOM     37  C   UNL A   1      35.599  32.126  27.895  1.00  0.00     0.014 A 
ATOM     38  C   UNL A   1      34.700  29.879  28.032  1.00  0.00     0.014 A 
ATOM     39  C   UNL A   1      36.751  31.696  28.551  1.00  0.00     0.010 A 
ATOM     40  C   UNL A   1      35.795  29.481  28.780  1.00  0.00     0.010 A 
ATOM     41  C   UNL A   1      36.842  30.378  29.027  1.00  0.00    -0.014 A 
BRANCH  41  42
ATOM     42  C   UNL A   1      38.030  29.899  29.771  1.00  0.00     0.031 A 
ATOM     43  C   UNL A   1      38.275  30.382  31.174  1.00  0.00     0.074 A 
ATOM     44  C   UNL A   1      38.933  29.120  29.146  1.00  0.00     0.049 A 
ATOM     45  N   UNL A   1      39.298  30.158  31.955  1.00  0.00    -0.248 NA
ATOM     46  C   UNL A   1      37.253  31.264  31.767  1.00  0.00     0.031 C 
ATOM     47  C   UNL A   1      38.839  28.661  27.757  1.00  0.00     0.029 A 
ATOM     48  N   UNL A   1      40.123  28.601  29.586  1.00  0.00    -0.354 N 
ATOM     49  C   UNL A   1      39.066  30.903  33.105  1.00  0.00     0.074 A 
ATOM     50  C   UNL A   1      37.827  31.619  32.906  1.00  0.00     0.031 C 
ATOM     51  C   UNL A   1      39.921  27.922  27.464  1.00  0.00     0.029 A 
ATOM     52  C   UNL A   1      40.802  27.889  28.626  1.00  0.00     0.049 A 
ATOM     53  H   UNL A   1      40.460  28.727  30.503  1.00  0.00     0.167 HD
ATOM     54  C   UNL A   1      39.804  30.960  34.238  1.00  0.00     0.034 A 
ATOM     55  C   UNL A   1      42.008  27.290  28.673  1.00  0.00     0.034 A 
ATOM     56  C   UNL A   1      41.011  30.209  34.442  1.00  0.00     0.049 A 
ATOM     57  C   UNL A   1      42.787  27.336  29.959  1.00  0.00     0.074 A 
ATOM     58  C   UNL A   1      41.786  30.118  35.584  1.00  0.00     0.029 A 
ATOM     59  N   UNL A   1      41.624  29.424  33.476  1.00  0.00    -0.354 N 
ATOM     60  N   UNL A   1      42.478  27.919  31.092  1.00  0.00    -0.248 NA
ATOM     61  C   UNL A   1      44.066  26.613  29.986  1.00  0.00     0.031 C 
ATOM     62  C   UNL A   1      42.887  29.307  35.298  1.00  0.00     0.029 A 
ATOM     63  C   UNL A   1      42.776  28.858  33.992  1.00  0.00     0.049 A 
ATOM     64  H   UNL A   1      41.289  29.291  32.561  1.00  0.00     0.167 HD
ATOM     65  C   UNL A   1      43.501  27.602  31.978  1.00  0.00     0.074 A 
ATOM     66  C   UNL A   1      44.431  26.760  31.253  1.00  0.00     0.031 C 
ATOM     67  C   UNL A   1      43.662  27.981  33.269  1.00  0.00     0.034 A 
BRANCH  54  68
ATOM     68  C   UNL A   1      39.303  31.834  35.359  1.00  0.00     0.023 A 
ATOM     69  C   UNL A   1      38.406  31.308  36.312  1.00  0.00     0.012 A 
ATOM     70  C   UNL A   1      39.759  33.159  35.501  1.00  0.00     0.148 A 
ATOM     71  C   UNL A   1      37.942  32.096  37.363  1.00  0.00     0.002 A 
ATOM     72  C   UNL A   1      39.332  33.923  36.580  1.00  0.00     0.091 A 
ATOM     73  F   UNL A   1      40.594  33.650  34.573  1.00  0.00    -0.205 F 
ATOM     74  C   UNL A   1      38.413  33.398  37.504  1.00  0.00     0.022 A 
BRANCH  72  75
ATOM     75  S   UNL A   1      39.944  35.581  36.897  1.00  0.00     0.127 S 
ATOM     76  O   UNL A   1      39.511  36.290  35.692  1.00  0.00    -0.237 OA
ATOM     77  O   UNL A   1      39.218  35.947  38.113  1.00  0.00    -0.237 OA
ATOM     78  O   UNL A   1      41.384  35.455  37.061  1.00  0.00    -0.744 OA
ENDBRANCH  72  75
ENDBRANCH  54  68
BRANCH  55  79
ATOM     79  C   UNL A   1      42.521  26.550  27.487  1.00  0.00     0.023 A 
ATOM     80  C   UNL A   1      43.305  27.228  26.533  1.00  0.00     0.012 A 
ATOM     81  C   UNL A   1      42.262  25.178  27.312  1.00  0.00     0.148 A 
ATOM     82  C   UNL A   1      43.790  26.561  25.407  1.00  0.00     0.002 A 
ATOM     83  C   UNL A   1      42.794  24.506  26.218  1.00  0.00     0.091 A 
ATOM     84  F   UNL A   1      41.510  24.551  28.229  1.00  0.00    -0.205 F 
ATOM     85  C   UNL A   1      43.543  25.200  25.255  1.00  0.00     0.022 A 
BRANCH  83  86
ATOM     86  S   UNL A   1      42.636  22.729  26.007  1.00  0.00     0.127 S 
ATOM     87  O   UNL A   1      43.410  22.223  27.138  1.00  0.00    -0.237 OA
ATOM     88  O   UNL A   1      41.189  22.540  26.117  1.00  0.00    -0.237 OA
ATOM     89  O   UNL A   1      43.181  22.436  24.689  1.00  0.00    -0.744 OA
ENDBRANCH  83  86
ENDBRANCH  55  79
BRANCH  67  90
ATOM     90  C   UNL A   1      44.864  27.454  34.007  1.00  0.00     0.023 A 
ATOM     91  C   UNL A   1      46.046  28.218  34.067  1.00  0.00     0.012 A 
ATOM     92  C   UNL A   1      44.788  26.235  34.709  1.00  0.00     0.148 A 
ATOM     93  C   UNL A   1      47.146  27.761  34.791  1.00  0.00     0.002 A 
ATOM     94  C   UNL A   1      45.868  25.813  35.473  1.00  0.00     0.091 A 
ATOM     95  F   UNL A   1      43.660  25.517  34.624  1.00  0.00    -0.205 F 
ATOM     96  C   UNL A   1      47.053  26.568  35.504  1.00  0.00     0.022 A 
BRANCH  94  97
ATOM     97  S   UNL A   1      45.805  24.345  36.505  1.00  0.00     0.127 S 
ATOM     98  O   UNL A   1      47.206  23.931  36.520  1.00  0.00    -0.237 OA
ATOM     99  O   UNL A   1      45.312  24.881  37.774  1.00  0.00    -0.237 OA
ATOM    100  O   UNL A   1      44.890  23.425  35.841  1.00  0.00    -0.744 OA
ENDBRANCH  94  97
ENDBRANCH  67  90
ENDBRANCH  41  42
ENDBRANCH  33  36
ENDBRANCH  31  32
ENDBRANCH  30  31
ENDBRANCH   1  30
TORSDOF 19
ENDMDL
MODEL 3
REMARK VINA RESULT:     -12.1      5.574     10.845
REMARK SMILES CCc1cc(N2CCC[C@H](C(=O)NCCCCCCNC(=O)c3ccc(-c4c5nc(c(-c6cccc(S(=O)(=O)[O-])c6F)c6ccc([nH]6)c(-c6cccc(S(=O)(=O)[O-])c6F)c6nc(c(-c7cccc(S(=O)(=O)[O-])c7F)c7ccc4[nH]7)C=C6)C=C5)cc3)C2)nc(-c2ccc(Cl)cc2)n1
REMARK SMILES IDX 17 1 16 2 15 3 14 4 13 5 11 6 12 7 10 9 6 10 7 11 86 12 8 13
REMARK SMILES IDX 9 14 5 15 3 16 4 17 96 18 88 19 87 20 2 21 1 22 89 23 90 24
REMARK SMILES IDX 95 25 91 26 94 27 92 28 93 29 18 30 19 31 20 32 21 33 22 35
REMARK SMILES IDX 23 36 24 37 85 38 25 39 84 40 26 41 27 42 28 43 78 44 29 45
REMARK SMILES IDX 83 46 77 47 79 48 30 49 82 50 76 51 75 52 31 54 63 55 43 56
REMARK SMILES IDX 62 57 44 58 47 59 61 60 80 61 45 62 46 63 60 65 81 66 48 67
REMARK SMILES IDX 32 68 33 69 41 70 34 71 36 72 42 73 35 74 37 75 38 76 39 77
REMARK SMILES IDX 40 78 64 79 65 80 73 81 66 82 68 83 74 84 67 85 69 86 70 87
REMARK SMILES IDX 71 88 72 89 49 90 50 91 58 92 51 93 53 94 59 95 52 96 54 97
REMARK SMILES IDX 55 98 56 99 57 100
REMARK H PARENT 13 8 20 34 79 53 47 64
REMARK Flexibility Score: inf
ROOT
ATOM      1  C   UNL A   1      37.092  21.082  24.774  1.00  0.00     0.002 C 
ENDROOT
BRANCH   1   2
ATOM      2  C   UNL A   1      35.643  20.654  25.005  1.00  0.00     0.002 C 
BRANCH   2   3
ATOM      3  C   UNL A   1      34.903  21.457  26.076  1.00  0.00     0.021 C 
BRANCH   3   4
ATOM      4  C   UNL A   1      33.521  20.904  26.410  1.00  0.00     0.116 C 
BRANCH   4   5
ATOM      5  N   UNL A   1      32.440  21.849  26.284  1.00  0.00    -0.356 N 
ATOM      6  C   UNL A   1      32.200  22.702  25.251  1.00  0.00     0.224 C 
ATOM      7  O   UNL A   1      31.022  23.041  25.073  1.00  0.00    -0.275 OA
ATOM      8  H   UNL A   1      31.801  21.882  27.032  1.00  0.00     0.163 HD
BRANCH   6   9
ATOM      9  C   UNL A   1      33.294  23.266  24.337  1.00  0.00     0.098 C 
ATOM     10  N   UNL A   1      32.567  25.392  23.369  1.00  0.00    -0.356 N 
ATOM     11  C   UNL A   1      32.796  25.043  21.974  1.00  0.00     0.118 C 
ATOM     12  C   UNL A   1      33.413  24.784  24.378  1.00  0.00     0.131 C 
ATOM     13  C   UNL A   1      32.804  23.514  21.777  1.00  0.00     0.022 C 
ATOM     14  C   UNL A   1      33.375  22.672  22.927  1.00  0.00     0.017 C 
BRANCH  10  15
ATOM     15  C   UNL A   1      31.922  26.569  23.705  1.00  0.00     0.132 A 
ATOM     16  C   UNL A   1      30.393  28.314  23.230  1.00  0.00     0.046 A 
ATOM     17  C   UNL A   1      30.851  27.035  22.964  1.00  0.00     0.070 A 
ATOM     18  N   UNL A   1      30.928  29.072  24.206  1.00  0.00    -0.233 NA
ATOM     19  C   UNL A   1      31.942  28.535  24.894  1.00  0.00     0.161 A 
ATOM     20  N   UNL A   1      32.473  27.318  24.677  1.00  0.00    -0.211 NA
BRANCH  16  21
ATOM     21  C   UNL A   1      29.279  28.970  22.460  1.00  0.00     0.053 C 
ATOM     22  C   UNL A   1      27.876  28.710  22.991  1.00  0.00     0.011 C 
ENDBRANCH  16  21
BRANCH  19  23
ATOM     23  C   UNL A   1      32.573  29.390  25.903  1.00  0.00     0.019 A 
ATOM     24  C   UNL A   1      33.848  29.089  26.414  1.00  0.00     0.013 A 
ATOM     25  C   UNL A   1      31.934  30.557  26.361  1.00  0.00     0.013 A 
ATOM     26  C   UNL A   1      34.498  29.965  27.291  1.00  0.00     0.021 A 
ATOM     27  C   UNL A   1      32.578  31.432  27.244  1.00  0.00     0.021 A 
ATOM     28  C   UNL A   1      33.865  31.141  27.690  1.00  0.00     0.041 A 
ATOM     29  Cl  UNL A   1      34.686  32.258  28.708  1.00  0.00    -0.084 Cl
ENDBRANCH  19  23
ENDBRANCH  10  15
ENDBRANCH   6   9
ENDBRANCH   4   5
ENDBRANCH   3   4
ENDBRANCH   2   3
ENDBRANCH   1   2
BRANCH   1  30
ATOM     30  C   UNL A   1      38.154  20.001  24.943  1.00  0.00     0.021 C 
BRANCH  30  31
ATOM     31  C   UNL A   1      39.227  20.350  25.957  1.00  0.00     0.116 C 
BRANCH  31  32
ATOM     32  N   UNL A   1      40.258  19.320  26.031  1.00  0.00    -0.352 N 
ATOM     33  C   UNL A   1      41.622  19.436  26.092  1.00  0.00     0.251 C 
ATOM     34  H   UNL A   1      39.920  18.395  26.041  1.00  0.00     0.163 HD
ATOM     35  O   UNL A   1      42.333  18.455  25.914  1.00  0.00    -0.269 OA
BRANCH  33  36
ATOM     36  C   UNL A   1      42.226  20.753  26.374  1.00  0.00     0.039 A 
ATOM     37  C   UNL A   1      42.531  21.608  25.313  1.00  0.00     0.014 A 
ATOM     38  C   UNL A   1      42.497  21.134  27.689  1.00  0.00     0.014 A 
ATOM     39  C   UNL A   1      43.059  22.870  25.580  1.00  0.00     0.010 A 
ATOM     40  C   UNL A   1      42.917  22.427  27.958  1.00  0.00     0.010 A 
ATOM     41  C   UNL A   1      43.224  23.299  26.906  1.00  0.00    -0.014 A 
BRANCH  41  42
ATOM     42  C   UNL A   1      43.736  24.651  27.230  1.00  0.00     0.031 A 
ATOM     43  C   UNL A   1      42.793  25.700  27.752  1.00  0.00     0.074 A 
ATOM     44  C   UNL A   1      45.018  24.957  26.953  1.00  0.00     0.049 A 
ATOM     45  N   UNL A   1      43.022  26.961  28.002  1.00  0.00    -0.248 NA
ATOM     46  C   UNL A   1      41.398  25.288  27.989  1.00  0.00     0.031 C 
ATOM     47  C   UNL A   1      46.000  24.041  26.365  1.00  0.00     0.029 A 
ATOM     48  N   UNL A   1      45.708  26.133  27.100  1.00  0.00    -0.354 N 
ATOM     49  C   UNL A   1      41.798  27.500  28.381  1.00  0.00     0.074 A 
ATOM     50  C   UNL A   1      40.819  26.441  28.287  1.00  0.00     0.031 C 
ATOM     51  C   UNL A   1      47.166  24.688  26.210  1.00  0.00     0.029 A 
ATOM     52  C   UNL A   1      47.005  26.070  26.648  1.00  0.00     0.049 A 
ATOM     53  H   UNL A   1      45.312  26.945  27.491  1.00  0.00     0.167 HD
ATOM     54  C   UNL A   1      41.520  28.757  28.799  1.00  0.00     0.034 A 
ATOM     55  C   UNL A   1      47.952  27.025  26.580  1.00  0.00     0.034 A 
ATOM     56  C   UNL A   1      42.510  29.789  28.931  1.00  0.00     0.049 A 
ATOM     57  C   UNL A   1      47.627  28.403  27.090  1.00  0.00     0.074 A 
ATOM     58  C   UNL A   1      42.357  31.068  29.434  1.00  0.00     0.029 A 
ATOM     59  N   UNL A   1      43.837  29.663  28.549  1.00  0.00    -0.354 N 
ATOM     60  N   UNL A   1      46.503  28.854  27.590  1.00  0.00    -0.248 NA
ATOM     61  C   UNL A   1      48.711  29.394  27.059  1.00  0.00     0.031 C 
ATOM     62  C   UNL A   1      43.584  31.728  29.323  1.00  0.00     0.029 A 
ATOM     63  C   UNL A   1      44.511  30.847  28.790  1.00  0.00     0.049 A 
ATOM     64  H   UNL A   1      44.239  28.852  28.162  1.00  0.00     0.167 HD
ATOM     65  C   UNL A   1      46.752  30.167  27.970  1.00  0.00     0.074 A 
ATOM     66  C   UNL A   1      48.142  30.432  27.657  1.00  0.00     0.031 C 
ATOM     67  C   UNL A   1      45.908  31.074  28.518  1.00  0.00     0.034 A 
BRANCH  54  68
ATOM     68  C   UNL A   1      40.097  29.071  29.183  1.00  0.00     0.023 A 
ATOM     69  C   UNL A   1      39.140  29.328  28.181  1.00  0.00     0.012 A 
ATOM     70  C   UNL A   1      39.697  29.062  30.534  1.00  0.00     0.148 A 
ATOM     71  C   UNL A   1      37.816  29.608  28.517  1.00  0.00     0.002 A 
ATOM     72  C   UNL A   1      38.365  29.291  30.858  1.00  0.00     0.091 A 
ATOM     73  F   UNL A   1      40.625  28.838  31.475  1.00  0.00    -0.205 F 
ATOM     74  C   UNL A   1      37.427  29.578  29.852  1.00  0.00     0.022 A 
BRANCH  72  75
ATOM     75  S   UNL A   1      37.746  29.193  32.541  1.00  0.00     0.127 S 
ATOM     76  O   UNL A   1      36.395  29.735  32.390  1.00  0.00    -0.237 OA
ATOM     77  O   UNL A   1      37.800  27.755  32.802  1.00  0.00    -0.237 OA
ATOM     78  O   UNL A   1      38.651  29.995  33.351  1.00  0.00    -0.744 OA
ENDBRANCH  72  75
ENDBRANCH  54  68
BRANCH  55  79
ATOM     79  C   UNL A   1      49.309  26.694  26.063  1.00  0.00     0.023 A 
ATOM     80  C   UNL A   1      50.176  25.906  26.845  1.00  0.00     0.012 A 
ATOM     81  C   UNL A   1      49.735  27.130  24.794  1.00  0.00     0.148 A 
ATOM     82  C   UNL A   1      51.456  25.590  26.387  1.00  0.00     0.002 A 
ATOM     83  C   UNL A   1      50.990  26.766  24.320  1.00  0.00     0.091 A 
ATOM     84  F   UNL A   1      48.897  27.883  24.066  1.00  0.00    -0.205 F 
ATOM     85  C   UNL A   1      51.859  26.011  25.123  1.00  0.00     0.022 A 
BRANCH  83  86
ATOM     86  S   UNL A   1      51.543  27.154  22.656  1.00  0.00     0.127 S 
ATOM     87  O   UNL A   1      51.745  28.599  22.737  1.00  0.00    -0.237 OA
ATOM     88  O   UNL A   1      52.772  26.365  22.555  1.00  0.00    -0.237 OA
ATOM     89  O   UNL A   1      50.474  26.715  21.770  1.00  0.00    -0.744 OA
ENDBRANCH  83  86
ENDBRANCH  55  79
BRANCH  67  90
ATOM     90  C   UNL A   1      46.465  32.430  28.861  1.00  0.00     0.023 A 
ATOM     91  C   UNL A   1      47.038  32.658  30.128  1.00  0.00     0.012 A 
ATOM     92  C   UNL A   1      46.493  33.453  27.892  1.00  0.00     0.148 A 
ATOM     93  C   UNL A   1      47.602  33.895  30.436  1.00  0.00     0.002 A 
ATOM     94  C   UNL A   1      47.107  34.663  28.187  1.00  0.00     0.091 A 
ATOM     95  F   UNL A   1      45.928  33.219  26.699  1.00  0.00    -0.205 F 
ATOM     96  C   UNL A   1      47.649  34.891  29.463  1.00  0.00     0.022 A 
BRANCH  94  97
ATOM     97  S   UNL A   1      47.305  35.966  26.967  1.00  0.00     0.127 S 
ATOM     98  O   UNL A   1      45.920  36.368  26.733  1.00  0.00    -0.237 OA
ATOM     99  O   UNL A   1      48.113  36.947  27.693  1.00  0.00    -0.237 OA
ATOM    100  O   UNL A   1      47.977  35.353  25.829  1.00  0.00    -0.744 OA
ENDBRANCH  94  97
ENDBRANCH  67  90
ENDBRANCH  41  42
ENDBRANCH  33  36
ENDBRANCH  31  32
ENDBRANCH  30  31
ENDBRANCH   1  30
TORSDOF 19
ENDMDL
