MODEL 1
REMARK VINA RESULT:     -12.3      0.000      0.000
REMARK SMILES O=C(C[C@H](NC(=O)[C@]12C[C@H]3C[C@H](C[C@H](C3)C1)C2)c1cccc([N+](=O)[O-])c1)NCCCCCCNC(=O)c1ccc(-c2c3nc(c(-c4cccc(S(=O)(=O)[O-])c4F)c4ccc([nH]4)c(-c4cccc(S(=O)(=O)[O-])c4F)c4nc(c(-c5cccc(S(=O)(=O)[O-])c5F)c5ccc2[nH]5)C=C4)C=C3)cc1
REMARK SMILES IDX 30 1 29 2 28 3 27 4 1 5 2 6 3 8 4 9 18 10 19 11 26 12 20 13
REMARK SMILES IDX 22 14 21 15 23 16 24 17 25 18 5 19 6 20 7 22 8 23 9 24 16 25
REMARK SMILES IDX 17 26 10 27 14 28 12 29 11 30 15 31 13 32 31 33 32 34 33 35
REMARK SMILES IDX 34 36 35 37 36 39 37 40 38 41 99 42 39 43 98 44 40 45 41 46
REMARK SMILES IDX 42 47 92 48 43 49 97 50 91 51 93 52 44 53 96 54 90 55 89 56
REMARK SMILES IDX 45 58 77 59 57 60 76 61 58 62 61 63 75 64 94 65 59 66 60 67
REMARK SMILES IDX 74 69 95 70 62 71 46 72 47 73 55 74 48 75 50 76 56 77 49 78
REMARK SMILES IDX 51 79 52 80 53 81 54 82 78 83 79 84 87 85 80 86 82 87 88 88
REMARK SMILES IDX 81 89 83 90 84 91 85 92 86 93 63 94 64 95 72 96 65 97 67 98
REMARK SMILES IDX 73 99 66 100 68 101 69 102 70 103 71 104
REMARK H PARENT 27 7 5 21 34 38 93 57 61 68
REMARK Flexibility Score: inf
ROOT
ATOM      1  C   UNL A   1      32.286  29.800  25.531  1.00  0.00     0.002 C 
ENDROOT
BRANCH   1   2
ATOM      2  C   UNL A   1      33.675  29.354  25.993  1.00  0.00     0.021 C 
BRANCH   2   3
ATOM      3  C   UNL A   1      33.732  27.928  26.541  1.00  0.00     0.116 C 
BRANCH   3   4
ATOM      4  N   UNL A   1      32.896  26.947  25.862  1.00  0.00    -0.356 N 
ATOM      5  O   UNL A   1      31.226  26.939  27.426  1.00  0.00    -0.275 OA
ATOM      6  C   UNL A   1      31.644  26.625  26.312  1.00  0.00     0.222 C 
ATOM      7  H   UNL A   1      33.243  26.502  25.055  1.00  0.00     0.163 HD
BRANCH   6   8
ATOM      8  C   UNL A   1      30.725  25.859  25.395  1.00  0.00     0.129 C 
BRANCH   8   9
ATOM      9  C   UNL A   1      30.877  25.897  23.870  1.00  0.00     0.122 C 
BRANCH   9  10
ATOM     10  C   UNL A   1      30.427  27.283  23.381  1.00  0.00    -0.018 A 
ATOM     11  C   UNL A   1      31.315  28.045  22.591  1.00  0.00     0.006 A 
ATOM     12  C   UNL A   1      29.140  27.793  23.609  1.00  0.00     0.091 A 
ATOM     13  C   UNL A   1      30.925  29.255  22.015  1.00  0.00     0.007 A 
ATOM     14  C   UNL A   1      28.753  29.014  23.030  1.00  0.00     0.269 A 
ATOM     15  C   UNL A   1      29.639  29.743  22.227  1.00  0.00     0.085 A 
BRANCH  14  16
ATOM     16  N   UNL A   1      27.393  29.524  23.245  1.00  0.00     0.062 N 
ATOM     17  O   UNL A   1      27.265  30.725  23.525  1.00  0.00    -0.258 OA
ATOM     18  O   UNL A   1      26.451  28.728  23.126  1.00  0.00    -0.258 OA
ENDBRANCH  14  16
ENDBRANCH   9  10
BRANCH   9  19
ATOM     19  N   UNL A   1      32.082  25.429  23.148  1.00  0.00    -0.348 N 
ATOM     20  C   UNL A   1      33.186  24.647  23.280  1.00  0.00     0.226 C 
ATOM     21  H   UNL A   1      32.086  25.829  22.248  1.00  0.00     0.164 HD
ATOM     22  O   UNL A   1      34.083  24.898  22.465  1.00  0.00    -0.274 OA
BRANCH  20  23
ATOM     23  C   UNL A   1      33.361  23.493  24.276  1.00  0.00     0.050 C 
ATOM     24  C   UNL A   1      34.025  23.955  25.582  1.00  0.00     0.020 C 
ATOM     25  C   UNL A   1      34.273  22.353  23.716  1.00  0.00     0.020 C 
ATOM     26  C   UNL A   1      31.999  22.820  24.483  1.00  0.00     0.020 C 
ATOM     27  C   UNL A   1      34.059  22.816  26.609  1.00  0.00    -0.010 C 
ATOM     28  C   UNL A   1      34.360  21.177  24.724  1.00  0.00    -0.010 C 
ATOM     29  C   UNL A   1      32.052  21.719  25.538  1.00  0.00    -0.010 C 
ATOM     30  C   UNL A   1      32.631  22.294  26.841  1.00  0.00     0.007 C 
ATOM     31  C   UNL A   1      34.938  21.683  26.056  1.00  0.00     0.007 C 
ATOM     32  C   UNL A   1      32.958  20.607  24.999  1.00  0.00     0.007 C 
ENDBRANCH  20  23
ENDBRANCH   9  19
ENDBRANCH   8   9
ENDBRANCH   6   8
ENDBRANCH   3   4
ENDBRANCH   2   3
ENDBRANCH   1   2
BRANCH   1  33
ATOM     33  C   UNL A   1      31.413  30.392  26.637  1.00  0.00     0.002 C 
BRANCH  33  34
ATOM     34  C   UNL A   1      31.283  31.914  26.599  1.00  0.00     0.021 C 
BRANCH  34  35
ATOM     35  C   UNL A   1      32.601  32.666  26.762  1.00  0.00     0.116 C 
BRANCH  35  36
ATOM     36  N   UNL A   1      32.421  33.944  27.435  1.00  0.00    -0.352 N 
ATOM     37  C   UNL A   1      33.106  34.450  28.513  1.00  0.00     0.251 C 
ATOM     38  H   UNL A   1      31.714  34.524  27.068  1.00  0.00     0.163 HD
ATOM     39  O   UNL A   1      32.719  35.459  29.082  1.00  0.00    -0.269 OA
BRANCH  37  40
ATOM     40  C   UNL A   1      34.310  33.735  28.984  1.00  0.00     0.039 A 
ATOM     41  C   UNL A   1      35.569  34.277  28.717  1.00  0.00     0.014 A 
ATOM     42  C   UNL A   1      34.183  32.556  29.723  1.00  0.00     0.014 A 
ATOM     43  C   UNL A   1      36.705  33.666  29.250  1.00  0.00     0.010 A 
ATOM     44  C   UNL A   1      35.309  31.986  30.305  1.00  0.00     0.010 A 
ATOM     45  C   UNL A   1      36.579  32.535  30.074  1.00  0.00    -0.014 A 
BRANCH  45  46
ATOM     46  C   UNL A   1      37.761  31.924  30.729  1.00  0.00     0.031 A 
ATOM     47  C   UNL A   1      38.535  30.841  30.033  1.00  0.00     0.074 A 
ATOM     48  C   UNL A   1      38.065  32.266  31.996  1.00  0.00     0.049 A 
ATOM     49  N   UNL A   1      39.545  30.138  30.474  1.00  0.00    -0.248 NA
ATOM     50  C   UNL A   1      38.098  30.479  28.675  1.00  0.00     0.031 C 
ATOM     51  C   UNL A   1      37.325  33.233  32.810  1.00  0.00     0.029 A 
ATOM     52  N   UNL A   1      39.050  31.810  32.835  1.00  0.00    -0.354 N 
ATOM     53  C   UNL A   1      39.844  29.231  29.465  1.00  0.00     0.074 A 
ATOM     54  C   UNL A   1      38.884  29.448  28.404  1.00  0.00     0.031 C 
ATOM     55  C   UNL A   1      37.873  33.287  34.035  1.00  0.00     0.029 A 
ATOM     56  C   UNL A   1      38.986  32.344  34.101  1.00  0.00     0.049 A 
ATOM     57  H   UNL A   1      39.737  31.162  32.558  1.00  0.00     0.167 HD
ATOM     58  C   UNL A   1      40.847  28.322  29.410  1.00  0.00     0.034 A 
ATOM     59  C   UNL A   1      39.730  32.095  35.196  1.00  0.00     0.034 A 
ATOM     60  C   UNL A   1      41.822  28.140  30.451  1.00  0.00     0.049 A 
ATOM     61  C   UNL A   1      40.871  31.121  35.096  1.00  0.00     0.074 A 
ATOM     62  C   UNL A   1      42.937  27.321  30.451  1.00  0.00     0.029 A 
ATOM     63  N   UNL A   1      41.794  28.778  31.681  1.00  0.00    -0.354 N 
ATOM     64  N   UNL A   1      41.254  30.404  34.068  1.00  0.00    -0.248 NA
ATOM     65  C   UNL A   1      41.707  30.947  36.293  1.00  0.00     0.031 C 
ATOM     66  C   UNL A   1      43.575  27.453  31.691  1.00  0.00     0.029 A 
ATOM     67  C   UNL A   1      42.864  28.364  32.456  1.00  0.00     0.049 A 
ATOM     68  H   UNL A   1      41.112  29.429  31.964  1.00  0.00     0.167 HD
ATOM     69  C   UNL A   1      42.385  29.711  34.483  1.00  0.00     0.074 A 
ATOM     70  C   UNL A   1      42.641  30.117  35.850  1.00  0.00     0.031 C 
ATOM     71  C   UNL A   1      43.132  28.808  33.801  1.00  0.00     0.034 A 
BRANCH  58  72
ATOM     72  C   UNL A   1      40.973  27.505  28.152  1.00  0.00     0.023 A 
ATOM     73  C   UNL A   1      41.554  28.088  27.006  1.00  0.00     0.012 A 
ATOM     74  C   UNL A   1      40.555  26.162  28.105  1.00  0.00     0.148 A 
ATOM     75  C   UNL A   1      41.679  27.361  25.823  1.00  0.00     0.002 A 
ATOM     76  C   UNL A   1      40.722  25.431  26.934  1.00  0.00     0.091 A 
ATOM     77  F   UNL A   1      39.981  25.630  29.194  1.00  0.00    -0.205 F 
ATOM     78  C   UNL A   1      41.272  26.031  25.791  1.00  0.00     0.022 A 
BRANCH  76  79
ATOM     79  S   UNL A   1      40.295  23.688  26.820  1.00  0.00     0.127 S 
ATOM     80  O   UNL A   1      38.897  23.754  26.395  1.00  0.00    -0.237 OA
ATOM     81  O   UNL A   1      41.221  23.208  25.792  1.00  0.00    -0.237 OA
ATOM     82  O   UNL A   1      40.528  23.136  28.146  1.00  0.00    -0.744 OA
ENDBRANCH  76  79
ENDBRANCH  58  72
BRANCH  59  83
ATOM     83  C   UNL A   1      39.449  32.836  36.457  1.00  0.00     0.023 A 
ATOM     84  C   UNL A   1      39.973  34.130  36.633  1.00  0.00     0.012 A 
ATOM     85  C   UNL A   1      38.611  32.292  37.450  1.00  0.00     0.148 A 
ATOM     86  C   UNL A   1      39.686  34.863  37.785  1.00  0.00     0.002 A 
ATOM     87  C   UNL A   1      38.282  33.049  38.569  1.00  0.00     0.091 A 
ATOM     88  F   UNL A   1      38.131  31.054  37.269  1.00  0.00    -0.205 F 
ATOM     89  C   UNL A   1      38.831  34.328  38.746  1.00  0.00     0.022 A 
BRANCH  87  90
ATOM     90  S   UNL A   1      37.077  32.499  39.783  1.00  0.00     0.127 S 
ATOM     91  O   UNL A   1      35.921  32.199  38.944  1.00  0.00    -0.237 OA
ATOM     92  O   UNL A   1      37.741  31.331  40.361  1.00  0.00    -0.237 OA
ATOM     93  O   UNL A   1      36.918  33.613  40.709  1.00  0.00    -0.744 OA
ENDBRANCH  87  90
ENDBRANCH  59  83
BRANCH  71  94
ATOM     94  C   UNL A   1      44.308  28.195  34.515  1.00  0.00     0.023 A 
ATOM     95  C   UNL A   1      45.558  28.845  34.477  1.00  0.00     0.012 A 
ATOM     96  C   UNL A   1      44.157  27.027  35.287  1.00  0.00     0.148 A 
ATOM     97  C   UNL A   1      46.646  28.327  35.177  1.00  0.00     0.002 A 
ATOM     98  C   UNL A   1      45.236  26.542  36.018  1.00  0.00     0.091 A 
ATOM     99  F   UNL A   1      42.965  26.413  35.293  1.00  0.00    -0.205 F 
ATOM    100  C   UNL A   1      46.483  27.184  35.956  1.00  0.00     0.022 A 
BRANCH  98 101
ATOM    101  S   UNL A   1      45.095  25.129  37.118  1.00  0.00     0.127 S 
ATOM    102  O   UNL A   1      44.058  25.576  38.047  1.00  0.00    -0.237 OA
ATOM    103  O   UNL A   1      44.678  24.064  36.206  1.00  0.00    -0.237 OA
ATOM    104  O   UNL A   1      46.417  24.941  37.700  1.00  0.00    -0.744 OA
ENDBRANCH  98 101
ENDBRANCH  71  94
ENDBRANCH  45  46
ENDBRANCH  37  40
ENDBRANCH  35  36
ENDBRANCH  34  35
ENDBRANCH  33  34
ENDBRANCH   1  33
TORSDOF 21
ENDMDL
MODEL 2
REMARK VINA RESULT:     -11.9      1.904      2.231
REMARK SMILES O=C(C[C@H](NC(=O)[C@]12C[C@H]3C[C@H](C[C@H](C3)C1)C2)c1cccc([N+](=O)[O-])c1)NCCCCCCNC(=O)c1ccc(-c2c3nc(c(-c4cccc(S(=O)(=O)[O-])c4F)c4ccc([nH]4)c(-c4cccc(S(=O)(=O)[O-])c4F)c4nc(c(-c5cccc(S(=O)(=O)[O-])c5F)c5ccc2[nH]5)C=C4)C=C3)cc1
REMARK SMILES IDX 30 1 29 2 28 3 27 4 1 5 2 6 3 8 4 9 18 10 19 11 26 12 20 13
REMARK SMILES IDX 22 14 21 15 23 16 24 17 25 18 5 19 6 20 7 22 8 23 9 24 16 25
REMARK SMILES IDX 17 26 10 27 14 28 12 29 11 30 15 31 13 32 31 33 32 34 33 35
REMARK SMILES IDX 34 36 35 37 36 39 37 40 38 41 99 42 39 43 98 44 40 45 41 46
REMARK SMILES IDX 42 47 92 48 43 49 97 50 91 51 93 52 44 53 96 54 90 55 89 56
REMARK SMILES IDX 45 58 77 59 57 60 76 61 58 62 61 63 75 64 94 65 59 66 60 67
REMARK SMILES IDX 74 69 95 70 62 71 46 72 47 73 55 74 48 75 50 76 56 77 49 78
REMARK SMILES IDX 51 79 52 80 53 81 54 82 78 83 79 84 87 85 80 86 82 87 88 88
REMARK SMILES IDX 81 89 83 90 84 91 85 92 86 93 63 94 64 95 72 96 65 97 67 98
REMARK SMILES IDX 73 99 66 100 68 101 69 102 70 103 71 104
REMARK H PARENT 27 7 5 21 34 38 93 57 61 68
REMARK Flexibility Score: inf
ROOT
ATOM      1  C   UNL A   1      31.727  30.108  25.528  1.00  0.00     0.002 C 
ENDROOT
BRANCH   1   2
ATOM      2  C   UNL A   1      33.151  29.582  25.335  1.00  0.00     0.021 C 
BRANCH   2   3
ATOM      3  C   UNL A   1      33.533  28.431  26.266  1.00  0.00     0.116 C 
BRANCH   3   4
ATOM      4  N   UNL A   1      32.915  27.143  25.978  1.00  0.00    -0.356 N 
ATOM      5  O   UNL A   1      31.243  27.333  27.529  1.00  0.00    -0.275 OA
ATOM      6  C   UNL A   1      31.738  26.757  26.561  1.00  0.00     0.222 C 
ATOM      7  H   UNL A   1      33.358  26.533  25.345  1.00  0.00     0.163 HD
BRANCH   6   8
ATOM      8  C   UNL A   1      31.003  25.575  25.982  1.00  0.00     0.129 C 
BRANCH   8   9
ATOM      9  C   UNL A   1      30.851  25.369  24.470  1.00  0.00     0.122 C 
BRANCH   9  10
ATOM     10  C   UNL A   1      29.816  26.381  23.952  1.00  0.00    -0.018 A 
ATOM     11  C   UNL A   1      28.445  26.112  24.156  1.00  0.00     0.006 A 
ATOM     12  C   UNL A   1      30.170  27.604  23.363  1.00  0.00     0.091 A 
ATOM     13  C   UNL A   1      27.461  27.043  23.820  1.00  0.00     0.007 A 
ATOM     14  C   UNL A   1      29.176  28.537  23.024  1.00  0.00     0.269 A 
ATOM     15  C   UNL A   1      27.823  28.264  23.258  1.00  0.00     0.085 A 
BRANCH  14  16
ATOM     16  N   UNL A   1      29.557  29.829  22.440  1.00  0.00     0.062 N 
ATOM     17  O   UNL A   1      29.162  30.857  23.008  1.00  0.00    -0.258 OA
ATOM     18  O   UNL A   1      30.258  29.817  21.418  1.00  0.00    -0.258 OA
ENDBRANCH  14  16
ENDBRANCH   9  10
BRANCH   9  19
ATOM     19  N   UNL A   1      31.992  25.232  23.536  1.00  0.00    -0.348 N 
ATOM     20  C   UNL A   1      33.259  24.748  23.441  1.00  0.00     0.226 C 
ATOM     21  H   UNL A   1      31.745  25.637  22.674  1.00  0.00     0.164 HD
ATOM     22  O   UNL A   1      33.915  25.231  22.510  1.00  0.00    -0.274 OA
BRANCH  20  23
ATOM     23  C   UNL A   1      33.877  23.655  24.323  1.00  0.00     0.050 C 
ATOM     24  C   UNL A   1      34.483  24.230  25.613  1.00  0.00     0.020 C 
ATOM     25  C   UNL A   1      35.042  22.897  23.608  1.00  0.00     0.020 C 
ATOM     26  C   UNL A   1      32.818  22.574  24.570  1.00  0.00     0.020 C 
ATOM     27  C   UNL A   1      34.965  23.104  26.537  1.00  0.00    -0.010 C 
ATOM     28  C   UNL A   1      35.585  21.754  24.507  1.00  0.00    -0.010 C 
ATOM     29  C   UNL A   1      33.309  21.489  25.523  1.00  0.00    -0.010 C 
ATOM     30  C   UNL A   1      33.799  22.144  26.826  1.00  0.00     0.007 C 
ATOM     31  C   UNL A   1      36.098  22.342  25.832  1.00  0.00     0.007 C 
ATOM     32  C   UNL A   1      34.462  20.754  24.832  1.00  0.00     0.007 C 
ENDBRANCH  20  23
ENDBRANCH   9  19
ENDBRANCH   8   9
ENDBRANCH   6   8
ENDBRANCH   3   4
ENDBRANCH   2   3
ENDBRANCH   1   2
BRANCH   1  33
ATOM     33  C   UNL A   1      31.500  30.843  26.849  1.00  0.00     0.002 C 
BRANCH  33  34
ATOM     34  C   UNL A   1      31.597  32.365  26.755  1.00  0.00     0.021 C 
BRANCH  34  35
ATOM     35  C   UNL A   1      32.911  32.948  27.266  1.00  0.00     0.116 C 
BRANCH  35  36
ATOM     36  N   UNL A   1      32.712  34.200  27.981  1.00  0.00    -0.352 N 
ATOM     37  C   UNL A   1      33.357  34.658  29.105  1.00  0.00     0.251 C 
ATOM     38  H   UNL A   1      32.023  34.799  27.611  1.00  0.00     0.163 HD
ATOM     39  O   UNL A   1      32.954  35.647  29.698  1.00  0.00    -0.269 OA
BRANCH  37  40
ATOM     40  C   UNL A   1      34.538  33.917  29.593  1.00  0.00     0.039 A 
ATOM     41  C   UNL A   1      35.810  34.325  29.188  1.00  0.00     0.014 A 
ATOM     42  C   UNL A   1      34.380  32.850  30.482  1.00  0.00     0.014 A 
ATOM     43  C   UNL A   1      36.935  33.699  29.729  1.00  0.00     0.010 A 
ATOM     44  C   UNL A   1      35.500  32.273  31.067  1.00  0.00     0.010 A 
ATOM     45  C   UNL A   1      36.787  32.690  30.696  1.00  0.00    -0.014 A 
BRANCH  45  46
ATOM     46  C   UNL A   1      37.965  32.076  31.355  1.00  0.00     0.031 A 
ATOM     47  C   UNL A   1      38.684  30.931  30.702  1.00  0.00     0.074 A 
ATOM     48  C   UNL A   1      38.313  32.477  32.593  1.00  0.00     0.049 A 
ATOM     49  N   UNL A   1      39.682  30.219  31.157  1.00  0.00    -0.248 NA
ATOM     50  C   UNL A   1      38.200  30.510  29.377  1.00  0.00     0.031 C 
ATOM     51  C   UNL A   1      37.627  33.512  33.370  1.00  0.00     0.029 A 
ATOM     52  N   UNL A   1      39.304  32.034  33.432  1.00  0.00    -0.354 N 
ATOM     53  C   UNL A   1      39.924  29.248  30.193  1.00  0.00     0.074 A 
ATOM     54  C   UNL A   1      38.945  29.440  29.145  1.00  0.00     0.031 C 
ATOM     55  C   UNL A   1      38.208  33.614  34.576  1.00  0.00     0.029 A 
ATOM     56  C   UNL A   1      39.291  32.639  34.667  1.00  0.00     0.049 A 
ATOM     57  H   UNL A   1      39.962  31.349  33.175  1.00  0.00     0.167 HD
ATOM     58  C   UNL A   1      40.896  28.304  30.164  1.00  0.00     0.034 A 
ATOM     59  C   UNL A   1      40.055  32.425  35.756  1.00  0.00     0.034 A 
ATOM     60  C   UNL A   1      41.891  28.146  31.190  1.00  0.00     0.049 A 
ATOM     61  C   UNL A   1      41.161  31.408  35.683  1.00  0.00     0.074 A 
ATOM     62  C   UNL A   1      42.978  27.291  31.208  1.00  0.00     0.029 A 
ATOM     63  N   UNL A   1      41.916  28.851  32.383  1.00  0.00    -0.354 N 
ATOM     64  N   UNL A   1      41.493  30.623  34.687  1.00  0.00    -0.248 NA
ATOM     65  C   UNL A   1      42.022  31.273  36.867  1.00  0.00     0.031 C 
ATOM     66  C   UNL A   1      43.652  27.468  32.423  1.00  0.00     0.029 A 
ATOM     67  C   UNL A   1      42.992  28.444  33.152  1.00  0.00     0.049 A 
ATOM     68  H   UNL A   1      41.264  29.540  32.645  1.00  0.00     0.167 HD
ATOM     69  C   UNL A   1      42.611  29.917  35.113  1.00  0.00     0.074 A 
ATOM     70  C   UNL A   1      42.916  30.387  36.448  1.00  0.00     0.031 C 
ATOM     71  C   UNL A   1      43.310  28.952  34.464  1.00  0.00     0.034 A 
BRANCH  58  72
ATOM     72  C   UNL A   1      40.962  27.415  28.951  1.00  0.00     0.023 A 
ATOM     73  C   UNL A   1      40.086  26.314  28.853  1.00  0.00     0.012 A 
ATOM     74  C   UNL A   1      41.855  27.681  27.896  1.00  0.00     0.148 A 
ATOM     75  C   UNL A   1      40.127  25.467  27.747  1.00  0.00     0.002 A 
ATOM     76  C   UNL A   1      41.860  26.857  26.775  1.00  0.00     0.091 A 
ATOM     77  F   UNL A   1      42.698  28.717  28.013  1.00  0.00    -0.205 F 
ATOM     78  C   UNL A   1      41.006  25.744  26.705  1.00  0.00     0.022 A 
BRANCH  76  79
ATOM     79  S   UNL A   1      42.906  27.178  25.350  1.00  0.00     0.127 S 
ATOM     80  O   UNL A   1      42.744  25.944  24.581  1.00  0.00    -0.237 OA
ATOM     81  O   UNL A   1      42.268  28.354  24.754  1.00  0.00    -0.237 OA
ATOM     82  O   UNL A   1      44.238  27.420  25.883  1.00  0.00    -0.744 OA
ENDBRANCH  76  79
ENDBRANCH  58  72
BRANCH  59  83
ATOM     83  C   UNL A   1      39.832  33.243  36.980  1.00  0.00     0.023 A 
ATOM     84  C   UNL A   1      38.785  32.905  37.858  1.00  0.00     0.012 A 
ATOM     85  C   UNL A   1      40.691  34.309  37.313  1.00  0.00     0.148 A 
ATOM     86  C   UNL A   1      38.583  33.626  39.035  1.00  0.00     0.002 A 
ATOM     87  C   UNL A   1      40.519  34.987  38.514  1.00  0.00     0.091 A 
ATOM     88  F   UNL A   1      41.675  34.623  36.458  1.00  0.00    -0.205 F 
ATOM     89  C   UNL A   1      39.457  34.657  39.370  1.00  0.00     0.022 A 
BRANCH  87  90
ATOM     90  S   UNL A   1      41.682  36.229  39.093  1.00  0.00     0.127 S 
ATOM     91  O   UNL A   1      41.138  36.561  40.406  1.00  0.00    -0.237 OA
ATOM     92  O   UNL A   1      42.939  35.480  39.115  1.00  0.00    -0.237 OA
ATOM     93  O   UNL A   1      41.642  37.295  38.100  1.00  0.00    -0.744 OA
ENDBRANCH  87  90
ENDBRANCH  59  83
BRANCH  71  94
ATOM     94  C   UNL A   1      44.483  28.339  35.182  1.00  0.00     0.023 A 
ATOM     95  C   UNL A   1      45.745  28.961  35.104  1.00  0.00     0.012 A 
ATOM     96  C   UNL A   1      44.320  27.202  35.996  1.00  0.00     0.148 A 
ATOM     97  C   UNL A   1      46.834  28.445  35.806  1.00  0.00     0.002 A 
ATOM     98  C   UNL A   1      45.399  26.720  36.728  1.00  0.00     0.091 A 
ATOM     99  F   UNL A   1      43.115  26.614  36.040  1.00  0.00    -0.205 F 
ATOM    100  C   UNL A   1      46.658  27.333  36.627  1.00  0.00     0.022 A 
BRANCH  98 101
ATOM    101  S   UNL A   1      45.246  25.348  37.879  1.00  0.00     0.127 S 
ATOM    102  O   UNL A   1      44.130  25.786  38.717  1.00  0.00    -0.237 OA
ATOM    103  O   UNL A   1      44.938  24.229  36.989  1.00  0.00    -0.237 OA
ATOM    104  O   UNL A   1      46.533  25.246  38.553  1.00  0.00    -0.744 OA
ENDBRANCH  98 101
ENDBRANCH  71  94
ENDBRANCH  45  46
ENDBRANCH  37  40
ENDBRANCH  35  36
ENDBRANCH  34  35
ENDBRANCH  33  34
ENDBRANCH   1  33
TORSDOF 21
ENDMDL
MODEL 3
REMARK VINA RESULT:     -11.7      1.654      7.289
REMARK SMILES O=C(C[C@H](NC(=O)[C@]12C[C@H]3C[C@H](C[C@H](C3)C1)C2)c1cccc([N+](=O)[O-])c1)NCCCCCCNC(=O)c1ccc(-c2c3nc(c(-c4cccc(S(=O)(=O)[O-])c4F)c4ccc([nH]4)c(-c4cccc(S(=O)(=O)[O-])c4F)c4nc(c(-c5cccc(S(=O)(=O)[O-])c5F)c5ccc2[nH]5)C=C4)C=C3)cc1
REMARK SMILES IDX 30 1 29 2 28 3 27 4 1 5 2 6 3 8 4 9 18 10 19 11 26 12 20 13
REMARK SMILES IDX 22 14 21 15 23 16 24 17 25 18 5 19 6 20 7 22 8 23 9 24 16 25
REMARK SMILES IDX 17 26 10 27 14 28 12 29 11 30 15 31 13 32 31 33 32 34 33 35
REMARK SMILES IDX 34 36 35 37 36 39 37 40 38 41 99 42 39 43 98 44 40 45 41 46
REMARK SMILES IDX 42 47 92 48 43 49 97 50 91 51 93 52 44 53 96 54 90 55 89 56
REMARK SMILES IDX 45 58 77 59 57 60 76 61 58 62 61 63 75 64 94 65 59 66 60 67
REMARK SMILES IDX 74 69 95 70 62 71 46 72 47 73 55 74 48 75 50 76 56 77 49 78
REMARK SMILES IDX 51 79 52 80 53 81 54 82 78 83 79 84 87 85 80 86 82 87 88 88
REMARK SMILES IDX 81 89 83 90 84 91 85 92 86 93 63 94 64 95 72 96 65 97 67 98
REMARK SMILES IDX 73 99 66 100 68 101 69 102 70 103 71 104
REMARK H PARENT 27 7 5 21 34 38 93 57 61 68
REMARK Flexibility Score: inf
ROOT
ATOM      1  C   UNL A   1      31.573  30.342  25.701  1.00  0.00     0.002 C 
ENDROOT
BRANCH   1   2
ATOM      2  C   UNL A   1      32.938  29.707  25.426  1.00  0.00     0.021 C 
BRANCH   2   3
ATOM      3  C   UNL A   1      33.252  28.482  26.284  1.00  0.00     0.116 C 
BRANCH   3   4
ATOM      4  N   UNL A   1      32.726  27.211  25.803  1.00  0.00    -0.356 N 
ATOM      5  O   UNL A   1      30.844  27.228  27.105  1.00  0.00    -0.275 OA
ATOM      6  C   UNL A   1      31.492  26.749  26.174  1.00  0.00     0.222 C 
ATOM      7  H   UNL A   1      33.276  26.669  25.192  1.00  0.00     0.163 HD
BRANCH   6   8
ATOM      8  C   UNL A   1      30.888  25.608  25.397  1.00  0.00     0.129 C 
BRANCH   8   9
ATOM      9  C   UNL A   1      30.833  25.602  23.865  1.00  0.00     0.122 C 
BRANCH   9  10
ATOM     10  C   UNL A   1      30.399  27.001  23.398  1.00  0.00    -0.018 A 
ATOM     11  C   UNL A   1      31.325  27.798  22.692  1.00  0.00     0.006 A 
ATOM     12  C   UNL A   1      29.094  27.491  23.565  1.00  0.00     0.091 A 
ATOM     13  C   UNL A   1      30.958  29.025  22.136  1.00  0.00     0.007 A 
ATOM     14  C   UNL A   1      28.731  28.728  23.007  1.00  0.00     0.269 A 
ATOM     15  C   UNL A   1      29.656  29.493  22.286  1.00  0.00     0.085 A 
BRANCH  14  16
ATOM     16  N   UNL A   1      27.355  29.219  23.156  1.00  0.00     0.062 N 
ATOM     17  O   UNL A   1      27.139  30.414  22.908  1.00  0.00    -0.258 OA
ATOM     18  O   UNL A   1      26.488  28.408  23.511  1.00  0.00    -0.258 OA
ENDBRANCH  14  16
ENDBRANCH   9  10
BRANCH   9  19
ATOM     19  N   UNL A   1      31.901  25.047  23.002  1.00  0.00    -0.348 N 
ATOM     20  C   UNL A   1      33.046  24.315  23.035  1.00  0.00     0.226 C 
ATOM     21  H   UNL A   1      31.716  25.299  22.069  1.00  0.00     0.164 HD
ATOM     22  O   UNL A   1      33.761  24.450  22.033  1.00  0.00    -0.274 OA
BRANCH  20  23
ATOM     23  C   UNL A   1      33.462  23.337  24.142  1.00  0.00     0.050 C 
ATOM     24  C   UNL A   1      32.311  22.404  24.547  1.00  0.00     0.020 C 
ATOM     25  C   UNL A   1      33.899  24.067  25.453  1.00  0.00     0.020 C 
ATOM     26  C   UNL A   1      34.724  22.595  23.683  1.00  0.00     0.020 C 
ATOM     27  C   UNL A   1      32.794  21.347  25.550  1.00  0.00    -0.010 C 
ATOM     28  C   UNL A   1      34.382  23.043  26.514  1.00  0.00    -0.010 C 
ATOM     29  C   UNL A   1      35.158  21.524  24.679  1.00  0.00    -0.010 C 
ATOM     30  C   UNL A   1      33.979  20.574  24.947  1.00  0.00     0.007 C 
ATOM     31  C   UNL A   1      33.244  22.060  26.835  1.00  0.00     0.007 C 
ATOM     32  C   UNL A   1      35.573  22.235  25.971  1.00  0.00     0.007 C 
ENDBRANCH  20  23
ENDBRANCH   9  19
ENDBRANCH   8   9
ENDBRANCH   6   8
ENDBRANCH   3   4
ENDBRANCH   2   3
ENDBRANCH   1   2
BRANCH   1  33
ATOM     33  C   UNL A   1      31.504  31.156  26.993  1.00  0.00     0.002 C 
BRANCH  33  34
ATOM     34  C   UNL A   1      31.691  32.662  26.806  1.00  0.00     0.021 C 
BRANCH  34  35
ATOM     35  C   UNL A   1      33.061  33.186  27.222  1.00  0.00     0.116 C 
BRANCH  35  36
ATOM     36  N   UNL A   1      32.960  34.359  28.079  1.00  0.00    -0.352 N 
ATOM     37  C   UNL A   1      33.642  34.633  29.240  1.00  0.00     0.251 C 
ATOM     38  H   UNL A   1      32.317  35.046  27.788  1.00  0.00     0.163 HD
ATOM     39  O   UNL A   1      33.317  35.575  29.948  1.00  0.00    -0.269 OA
BRANCH  37  40
ATOM     40  C   UNL A   1      34.764  33.755  29.626  1.00  0.00     0.039 A 
ATOM     41  C   UNL A   1      36.054  34.072  29.195  1.00  0.00     0.014 A 
ATOM     42  C   UNL A   1      34.539  32.645  30.446  1.00  0.00     0.014 A 
ATOM     43  C   UNL A   1      37.134  33.309  29.643  1.00  0.00     0.010 A 
ATOM     44  C   UNL A   1      35.620  31.927  30.941  1.00  0.00     0.010 A 
ATOM     45  C   UNL A   1      36.926  32.251  30.545  1.00  0.00    -0.014 A 
BRANCH  45  46
ATOM     46  C   UNL A   1      38.064  31.486  31.109  1.00  0.00     0.031 A 
ATOM     47  C   UNL A   1      38.625  31.848  32.454  1.00  0.00     0.074 A 
ATOM     48  C   UNL A   1      38.662  30.539  30.359  1.00  0.00     0.049 A 
ATOM     49  N   UNL A   1      39.660  31.347  33.077  1.00  0.00    -0.248 NA
ATOM     50  C   UNL A   1      37.955  32.937  33.183  1.00  0.00     0.031 C 
ATOM     51  C   UNL A   1      38.268  30.169  28.997  1.00  0.00     0.029 A 
ATOM     52  N   UNL A   1      39.752  29.748  30.617  1.00  0.00    -0.354 N 
ATOM     53  C   UNL A   1      39.785  32.078  34.251  1.00  0.00     0.074 A 
ATOM     54  C   UNL A   1      38.743  33.082  34.237  1.00  0.00     0.031 C 
ATOM     55  C   UNL A   1      39.113  29.232  28.536  1.00  0.00     0.029 A 
ATOM     56  C   UNL A   1      40.119  28.953  29.557  1.00  0.00     0.049 A 
ATOM     57  H   UNL A   1      40.226  29.747  31.480  1.00  0.00     0.167 HD
ATOM     58  C   UNL A   1      40.665  31.908  35.267  1.00  0.00     0.034 A 
ATOM     59  C   UNL A   1      41.156  28.105  29.414  1.00  0.00     0.034 A 
ATOM     60  C   UNL A   1      41.673  30.882  35.293  1.00  0.00     0.049 A 
ATOM     61  C   UNL A   1      42.090  27.895  30.574  1.00  0.00     0.074 A 
ATOM     62  C   UNL A   1      42.546  30.559  36.316  1.00  0.00     0.029 A 
ATOM     63  N   UNL A   1      41.949  30.019  34.244  1.00  0.00    -0.354 N 
ATOM     64  N   UNL A   1      42.080  28.467  31.753  1.00  0.00    -0.248 NA
ATOM     65  C   UNL A   1      43.155  26.895  30.400  1.00  0.00     0.031 C 
ATOM     66  C   UNL A   1      43.362  29.509  35.878  1.00  0.00     0.029 A 
ATOM     67  C   UNL A   1      42.986  29.170  34.588  1.00  0.00     0.049 A 
ATOM     68  H   UNL A   1      41.477  30.011  33.380  1.00  0.00     0.167 HD
ATOM     69  C   UNL A   1      43.119  27.885  32.470  1.00  0.00     0.074 A 
ATOM     70  C   UNL A   1      43.721  26.895  31.600  1.00  0.00     0.031 C 
ATOM     71  C   UNL A   1      43.548  28.159  33.727  1.00  0.00     0.034 A 
BRANCH  58  72
ATOM     72  C   UNL A   1      40.529  32.816  36.460  1.00  0.00     0.023 A 
ATOM     73  C   UNL A   1      39.495  32.582  37.391  1.00  0.00     0.012 A 
ATOM     74  C   UNL A   1      41.433  33.871  36.686  1.00  0.00     0.148 A 
ATOM     75  C   UNL A   1      39.337  33.408  38.502  1.00  0.00     0.002 A 
ATOM     76  C   UNL A   1      41.294  34.665  37.819  1.00  0.00     0.091 A 
ATOM     77  F   UNL A   1      42.396  34.097  35.780  1.00  0.00    -0.205 F 
ATOM     78  C   UNL A   1      40.241  34.442  38.721  1.00  0.00     0.022 A 
BRANCH  76  79
ATOM     79  S   UNL A   1      42.456  35.974  38.224  1.00  0.00     0.127 S 
ATOM     80  O   UNL A   1      42.276  36.888  37.097  1.00  0.00    -0.237 OA
ATOM     81  O   UNL A   1      41.934  36.471  39.499  1.00  0.00    -0.237 OA
ATOM     82  O   UNL A   1      43.760  35.333  38.317  1.00  0.00    -0.744 OA
ENDBRANCH  76  79
ENDBRANCH  58  72
BRANCH  59  83
ATOM     83  C   UNL A   1      41.316  27.350  28.141  1.00  0.00     0.023 A 
ATOM     84  C   UNL A   1      41.888  27.986  27.024  1.00  0.00     0.012 A 
ATOM     85  C   UNL A   1      40.967  25.988  28.053  1.00  0.00     0.148 A 
ATOM     86  C   UNL A   1      42.092  27.288  25.834  1.00  0.00     0.002 A 
ATOM     87  C   UNL A   1      41.225  25.282  26.882  1.00  0.00     0.091 A 
ATOM     88  F   UNL A   1      40.412  25.402  29.123  1.00  0.00    -0.205 F 
ATOM     89  C   UNL A   1      41.773  25.933  25.768  1.00  0.00     0.022 A 
BRANCH  87  90
ATOM     90  S   UNL A   1      40.980  23.506  26.756  1.00  0.00     0.127 S 
ATOM     91  O   UNL A   1      39.532  23.413  26.601  1.00  0.00    -0.237 OA
ATOM     92  O   UNL A   1      41.754  23.178  25.558  1.00  0.00    -0.237 OA
ATOM     93  O   UNL A   1      41.524  22.948  27.988  1.00  0.00    -0.744 OA
ENDBRANCH  87  90
ENDBRANCH  59  83
BRANCH  71  94
ATOM     94  C   UNL A   1      44.722  27.374  34.250  1.00  0.00     0.023 A 
ATOM     95  C   UNL A   1      46.029  27.854  34.033  1.00  0.00     0.012 A 
ATOM     96  C   UNL A   1      44.530  26.213  35.023  1.00  0.00     0.148 A 
ATOM     97  C   UNL A   1      47.129  27.176  34.556  1.00  0.00     0.002 A 
ATOM     98  C   UNL A   1      45.629  25.567  35.579  1.00  0.00     0.091 A 
ATOM     99  F   UNL A   1      43.280  25.763  35.202  1.00  0.00    -0.205 F 
ATOM    100  C   UNL A   1      46.929  26.042  35.338  1.00  0.00     0.022 A 
BRANCH  98 101
ATOM    101  S   UNL A   1      45.462  24.152  36.673  1.00  0.00     0.127 S 
ATOM    102  O   UNL A   1      44.625  24.697  37.741  1.00  0.00    -0.237 OA
ATOM    103  O   UNL A   1      44.796  23.172  35.814  1.00  0.00    -0.237 OA
ATOM    104  O   UNL A   1      46.817  23.787  37.065  1.00  0.00    -0.744 OA
ENDBRANCH  98 101
ENDBRANCH  71  94
ENDBRANCH  45  46
ENDBRANCH  37  40
ENDBRANCH  35  36
ENDBRANCH  34  35
ENDBRANCH  33  34
ENDBRANCH   1  33
TORSDOF 21
ENDMDL
