MODEL 1
REMARK VINA RESULT:     -11.4      0.000      0.000
REMARK SMILES Cc1ccc(Cn2c(C)c(C[NH2+]C[C@@H]3CCCO3)c(C(=O)NCCCCCCNC(=O)c3ccc(-c4c5nc(c(-c6cccc(S(=O)(=O)[O-])c6F)c6ccc([nH]6)c(-c6cccc(S(=O)(=O)[O-])c6F)c6nc(c(-c7cccc(S(=O)(=O)[O-])c7F)c7ccc4[nH]7)C=C6)C=C5)cc3)c2C)cc1
REMARK SMILES IDX 25 1 24 2 23 3 22 4 20 5 21 6 19 8 7 9 8 10 95 11 9 12 10 13
REMARK SMILES IDX 96 14 6 15 5 16 1 17 2 18 3 19 98 20 4 21 97 22 11 23 12 24
REMARK SMILES IDX 13 27 14 28 15 29 18 30 16 31 17 32 26 33 27 34 28 35 29 36
REMARK SMILES IDX 30 37 31 39 32 40 33 41 94 42 34 43 93 44 35 45 36 46 37 47
REMARK SMILES IDX 87 48 38 49 92 50 86 51 88 52 39 53 91 54 85 55 84 56 40 58
REMARK SMILES IDX 72 59 52 60 71 61 53 62 56 63 70 64 89 65 54 66 55 67 69 69
REMARK SMILES IDX 90 70 57 71 41 72 42 73 50 74 43 75 45 76 51 77 44 78 46 79
REMARK SMILES IDX 47 80 48 81 49 82 73 83 74 84 82 85 75 86 77 87 83 88 76 89
REMARK SMILES IDX 78 90 79 91 80 92 81 93 58 94 59 95 67 96 60 97 62 98 68 99
REMARK SMILES IDX 61 100 63 101 64 102 65 103 66 104
REMARK H PARENT 22 7 12 25 12 26 29 38 88 57 56 68
REMARK Flexibility Score: inf
ROOT
ATOM      1  C   UNL A   1      37.340  23.703  25.625  1.00  0.00     0.002 C 
ENDROOT
BRANCH   1   2
ATOM      2  C   UNL A   1      37.013  22.429  24.836  1.00  0.00     0.021 C 
BRANCH   2   3
ATOM      3  C   UNL A   1      36.133  21.417  25.575  1.00  0.00     0.116 C 
BRANCH   3   4
ATOM      4  N   UNL A   1      35.465  22.026  26.700  1.00  0.00    -0.352 N 
ATOM      5  C   UNL A   1      34.303  22.747  26.786  1.00  0.00     0.253 C 
ATOM      6  O   UNL A   1      33.807  22.778  27.915  1.00  0.00    -0.269 OA
ATOM      7  H   UNL A   1      35.927  21.900  27.560  1.00  0.00     0.163 HD
BRANCH   5   8
ATOM      8  C   UNL A   1      33.635  23.350  25.617  1.00  0.00     0.069 A 
ATOM      9  N   UNL A   1      33.131  24.618  23.829  1.00  0.00    -0.343 N 
ATOM     10  C   UNL A   1      32.192  23.602  23.843  1.00  0.00     0.025 A 
ATOM     11  C   UNL A   1      33.721  24.642  25.089  1.00  0.00     0.028 A 
ATOM     12  C   UNL A   1      31.018  23.489  22.928  1.00  0.00     0.065 C 
ATOM     13  C   UNL A   1      32.487  22.785  24.934  1.00  0.00     0.040 A 
ATOM     14  C   UNL A   1      34.190  25.909  25.721  1.00  0.00     0.065 C 
BRANCH   9  15
ATOM     15  C   UNL A   1      33.283  25.657  22.799  1.00  0.00     0.157 C 
BRANCH  15  16
ATOM     16  C   UNL A   1      32.335  26.833  22.955  1.00  0.00    -0.028 A 
ATOM     17  C   UNL A   1      29.580  30.118  23.620  1.00  0.00     0.044 C 
ATOM     18  C   UNL A   1      30.520  28.970  23.395  1.00  0.00    -0.051 A 
ATOM     19  C   UNL A   1      31.843  29.060  23.828  1.00  0.00     0.004 A 
ATOM     20  C   UNL A   1      30.109  27.812  22.726  1.00  0.00     0.004 A 
ATOM     21  C   UNL A   1      32.730  27.999  23.625  1.00  0.00     0.006 A 
ATOM     22  C   UNL A   1      31.008  26.757  22.506  1.00  0.00     0.006 A 
ENDBRANCH  15  16
ENDBRANCH   9  15
BRANCH  13  23
ATOM     23  C   UNL A   1      31.645  21.623  25.420  1.00  0.00     0.300 C 
BRANCH  23  24
ATOM     24  N   UNL A   1      32.093  20.447  24.665  1.00  0.00    -0.340 N 
ATOM     25  H   UNL A   1      32.765  20.755  23.962  1.00  0.00     0.346 HD
ATOM     26  H   UNL A   1      31.259  20.026  24.258  1.00  0.00     0.346 HD
BRANCH  24  27
ATOM     27  C   UNL A   1      32.731  19.411  25.486  1.00  0.00     0.293 C 
BRANCH  27  28
ATOM     28  C   UNL A   1      33.651  18.480  24.676  1.00  0.00     0.173 C 
ATOM     29  C   UNL A   1      33.083  18.037  23.339  1.00  0.00     0.040 C 
ATOM     30  O   UNL A   1      33.841  17.225  25.357  1.00  0.00    -0.372 OA
ATOM     31  C   UNL A   1      33.970  16.853  23.017  1.00  0.00     0.031 C 
ATOM     32  C   UNL A   1      34.318  16.285  24.385  1.00  0.00     0.161 C 
ENDBRANCH  27  28
ENDBRANCH  24  27
ENDBRANCH  23  24
ENDBRANCH  13  23
ENDBRANCH   5   8
ENDBRANCH   3   4
ENDBRANCH   2   3
ENDBRANCH   1   2
BRANCH   1  33
ATOM     33  C   UNL A   1      38.539  23.620  26.584  1.00  0.00     0.002 C 
BRANCH  33  34
ATOM     34  C   UNL A   1      39.347  22.322  26.532  1.00  0.00     0.021 C 
BRANCH  34  35
ATOM     35  C   UNL A   1      40.660  22.447  25.772  1.00  0.00     0.116 C 
BRANCH  35  36
ATOM     36  N   UNL A   1      41.532  21.301  25.943  1.00  0.00    -0.352 N 
ATOM     37  C   UNL A   1      42.815  21.214  26.464  1.00  0.00     0.251 C 
ATOM     38  H   UNL A   1      41.152  20.446  25.641  1.00  0.00     0.163 HD
ATOM     39  O   UNL A   1      43.427  20.177  26.326  1.00  0.00    -0.269 OA
BRANCH  37  40
ATOM     40  C   UNL A   1      43.365  22.332  27.281  1.00  0.00     0.039 A 
ATOM     41  C   UNL A   1      42.918  22.452  28.606  1.00  0.00     0.014 A 
ATOM     42  C   UNL A   1      44.140  23.341  26.719  1.00  0.00     0.014 A 
ATOM     43  C   UNL A   1      43.037  23.671  29.272  1.00  0.00     0.010 A 
ATOM     44  C   UNL A   1      44.182  24.574  27.334  1.00  0.00     0.010 A 
ATOM     45  C   UNL A   1      43.571  24.753  28.579  1.00  0.00    -0.014 A 
BRANCH  45  46
ATOM     46  C   UNL A   1      43.465  26.141  29.002  1.00  0.00     0.031 A 
ATOM     47  C   UNL A   1      42.203  26.883  28.842  1.00  0.00     0.074 A 
ATOM     48  C   UNL A   1      44.466  26.649  29.753  1.00  0.00     0.049 A 
ATOM     49  N   UNL A   1      42.098  28.163  28.948  1.00  0.00    -0.248 NA
ATOM     50  C   UNL A   1      40.951  26.220  28.510  1.00  0.00     0.031 C 
ATOM     51  C   UNL A   1      44.405  27.793  30.652  1.00  0.00     0.029 A 
ATOM     52  N   UNL A   1      45.828  26.337  29.683  1.00  0.00    -0.354 N 
ATOM     53  C   UNL A   1      40.752  28.465  28.986  1.00  0.00     0.074 A 
ATOM     54  C   UNL A   1      40.092  27.238  28.607  1.00  0.00     0.031 C 
ATOM     55  C   UNL A   1      45.648  28.265  30.829  1.00  0.00     0.029 A 
ATOM     56  C   UNL A   1      46.511  27.543  29.910  1.00  0.00     0.049 A 
ATOM     57  H   UNL A   1      46.227  25.453  29.511  1.00  0.00     0.167 HD
ATOM     58  C   UNL A   1      40.364  29.674  29.487  1.00  0.00     0.034 A 
ATOM     59  C   UNL A   1      47.366  28.114  29.012  1.00  0.00     0.034 A 
ATOM     60  C   UNL A   1      41.534  30.511  29.796  1.00  0.00     0.049 A 
ATOM     61  C   UNL A   1      46.977  29.531  28.639  1.00  0.00     0.074 A 
ATOM     62  C   UNL A   1      42.204  30.789  30.978  1.00  0.00     0.029 A 
ATOM     63  N   UNL A   1      42.334  30.993  28.767  1.00  0.00    -0.354 N 
ATOM     64  N   UNL A   1      45.840  30.084  28.956  1.00  0.00    -0.248 NA
ATOM     65  C   UNL A   1      47.824  30.430  27.859  1.00  0.00     0.031 C 
ATOM     66  C   UNL A   1      43.452  31.379  30.646  1.00  0.00     0.029 A 
ATOM     67  C   UNL A   1      43.530  31.484  29.268  1.00  0.00     0.049 A 
ATOM     68  H   UNL A   1      42.087  30.987  27.815  1.00  0.00     0.167 HD
ATOM     69  C   UNL A   1      45.728  31.310  28.353  1.00  0.00     0.074 A 
ATOM     70  C   UNL A   1      47.030  31.510  27.741  1.00  0.00     0.031 C 
ATOM     71  C   UNL A   1      44.551  32.012  28.367  1.00  0.00     0.034 A 
BRANCH  58  72
ATOM     72  C   UNL A   1      38.971  30.020  30.006  1.00  0.00     0.023 A 
ATOM     73  C   UNL A   1      38.349  29.075  30.856  1.00  0.00     0.012 A 
ATOM     74  C   UNL A   1      38.183  31.144  29.671  1.00  0.00     0.148 A 
ATOM     75  C   UNL A   1      37.007  29.172  31.247  1.00  0.00     0.002 A 
ATOM     76  C   UNL A   1      36.828  31.218  30.011  1.00  0.00     0.091 A 
ATOM     77  F   UNL A   1      38.744  32.204  29.091  1.00  0.00    -0.205 F 
ATOM     78  C   UNL A   1      36.233  30.226  30.792  1.00  0.00     0.022 A 
BRANCH  76  79
ATOM     79  S   UNL A   1      35.752  32.536  29.414  1.00  0.00     0.127 S 
ATOM     80  O   UNL A   1      35.699  32.262  27.976  1.00  0.00    -0.237 OA
ATOM     81  O   UNL A   1      34.505  32.273  30.129  1.00  0.00    -0.237 OA
ATOM     82  O   UNL A   1      36.414  33.791  29.754  1.00  0.00    -0.744 OA
ENDBRANCH  76  79
ENDBRANCH  58  72
BRANCH  59  83
ATOM     83  C   UNL A   1      48.043  27.134  28.115  1.00  0.00     0.023 A 
ATOM     84  C   UNL A   1      48.893  26.186  28.735  1.00  0.00     0.012 A 
ATOM     85  C   UNL A   1      47.579  26.878  26.813  1.00  0.00     0.148 A 
ATOM     86  C   UNL A   1      49.168  24.960  28.128  1.00  0.00     0.002 A 
ATOM     87  C   UNL A   1      47.858  25.650  26.213  1.00  0.00     0.091 A 
ATOM     88  F   UNL A   1      46.806  27.794  26.217  1.00  0.00    -0.205 F 
ATOM     89  C   UNL A   1      48.622  24.680  26.881  1.00  0.00     0.022 A 
BRANCH  87  90
ATOM     90  S   UNL A   1      47.138  25.189  24.630  1.00  0.00     0.127 S 
ATOM     91  O   UNL A   1      45.885  25.937  24.649  1.00  0.00    -0.237 OA
ATOM     92  O   UNL A   1      48.134  25.678  23.677  1.00  0.00    -0.237 OA
ATOM     93  O   UNL A   1      47.029  23.738  24.681  1.00  0.00    -0.744 OA
ENDBRANCH  87  90
ENDBRANCH  59  83
BRANCH  71  94
ATOM     94  C   UNL A   1      44.231  33.246  27.537  1.00  0.00     0.023 A 
ATOM     95  C   UNL A   1      44.263  33.242  26.130  1.00  0.00     0.012 A 
ATOM     96  C   UNL A   1      43.735  34.428  28.152  1.00  0.00     0.148 A 
ATOM     97  C   UNL A   1      43.871  34.354  25.372  1.00  0.00     0.002 A 
ATOM     98  C   UNL A   1      43.243  35.487  27.393  1.00  0.00     0.091 A 
ATOM     99  F   UNL A   1      43.751  34.547  29.488  1.00  0.00    -0.205 F 
ATOM    100  C   UNL A   1      43.335  35.467  26.002  1.00  0.00     0.022 A 
BRANCH  98 101
ATOM    101  S   UNL A   1      42.330  36.826  28.176  1.00  0.00     0.127 S 
ATOM    102  O   UNL A   1      41.930  37.638  27.028  1.00  0.00    -0.237 OA
ATOM    103  O   UNL A   1      41.227  36.121  28.834  1.00  0.00    -0.237 OA
ATOM    104  O   UNL A   1      43.282  37.430  29.098  1.00  0.00    -0.744 OA
ENDBRANCH  98 101
ENDBRANCH  71  94
ENDBRANCH  45  46
ENDBRANCH  37  40
ENDBRANCH  35  36
ENDBRANCH  34  35
ENDBRANCH  33  34
ENDBRANCH   1  33
TORSDOF 22
ENDMDL
MODEL 2
REMARK VINA RESULT:     -10.8      3.737      8.899
REMARK SMILES Cc1ccc(Cn2c(C)c(C[NH2+]C[C@@H]3CCCO3)c(C(=O)NCCCCCCNC(=O)c3ccc(-c4c5nc(c(-c6cccc(S(=O)(=O)[O-])c6F)c6ccc([nH]6)c(-c6cccc(S(=O)(=O)[O-])c6F)c6nc(c(-c7cccc(S(=O)(=O)[O-])c7F)c7ccc4[nH]7)C=C6)C=C5)cc3)c2C)cc1
REMARK SMILES IDX 25 1 24 2 23 3 22 4 20 5 21 6 19 8 7 9 8 10 95 11 9 12 10 13
REMARK SMILES IDX 96 14 6 15 5 16 1 17 2 18 3 19 98 20 4 21 97 22 11 23 12 24
REMARK SMILES IDX 13 27 14 28 15 29 18 30 16 31 17 32 26 33 27 34 28 35 29 36
REMARK SMILES IDX 30 37 31 39 32 40 33 41 94 42 34 43 93 44 35 45 36 46 37 47
REMARK SMILES IDX 87 48 38 49 92 50 86 51 88 52 39 53 91 54 85 55 84 56 40 58
REMARK SMILES IDX 72 59 52 60 71 61 53 62 56 63 70 64 89 65 54 66 55 67 69 69
REMARK SMILES IDX 90 70 57 71 41 72 42 73 50 74 43 75 45 76 51 77 44 78 46 79
REMARK SMILES IDX 47 80 48 81 49 82 73 83 74 84 82 85 75 86 77 87 83 88 76 89
REMARK SMILES IDX 78 90 79 91 80 92 81 93 58 94 59 95 67 96 60 97 62 98 68 99
REMARK SMILES IDX 61 100 63 101 64 102 65 103 66 104
REMARK H PARENT 22 7 12 25 12 26 29 38 88 57 56 68
REMARK Flexibility Score: inf
ROOT
ATOM      1  C   UNL A   1      35.533  29.998  27.433  1.00  0.00     0.002 C 
ENDROOT
BRANCH   1   2
ATOM      2  C   UNL A   1      34.509  28.917  27.065  1.00  0.00     0.021 C 
BRANCH   2   3
ATOM      3  C   UNL A   1      33.504  29.317  25.982  1.00  0.00     0.116 C 
BRANCH   3   4
ATOM      4  N   UNL A   1      33.908  28.829  24.685  1.00  0.00    -0.352 N 
ATOM      5  C   UNL A   1      33.723  27.618  24.072  1.00  0.00     0.253 C 
ATOM      6  O   UNL A   1      33.831  27.650  22.843  1.00  0.00    -0.269 OA
ATOM      7  H   UNL A   1      34.407  29.484  24.145  1.00  0.00     0.163 HD
BRANCH   5   8
ATOM      8  C   UNL A   1      33.325  26.395  24.795  1.00  0.00     0.069 A 
ATOM      9  N   UNL A   1      33.329  24.424  25.877  1.00  0.00    -0.343 N 
ATOM     10  C   UNL A   1      32.056  24.940  26.045  1.00  0.00     0.025 A 
ATOM     11  C   UNL A   1      33.918  25.129  24.832  1.00  0.00     0.028 A 
ATOM     12  C   UNL A   1      30.910  24.236  26.694  1.00  0.00     0.065 C 
ATOM     13  C   UNL A   1      32.024  26.174  25.397  1.00  0.00     0.040 A 
ATOM     14  C   UNL A   1      34.887  24.493  23.893  1.00  0.00     0.065 C 
BRANCH   9  15
ATOM     15  C   UNL A   1      33.862  23.191  26.477  1.00  0.00     0.157 C 
BRANCH  15  16
ATOM     16  C   UNL A   1      33.637  21.944  25.641  1.00  0.00    -0.028 A 
ATOM     17  C   UNL A   1      32.894  18.280  23.439  1.00  0.00     0.044 C 
ATOM     18  C   UNL A   1      33.160  19.537  24.214  1.00  0.00    -0.051 A 
ATOM     19  C   UNL A   1      32.165  20.508  24.323  1.00  0.00     0.004 A 
ATOM     20  C   UNL A   1      34.403  19.779  24.808  1.00  0.00     0.004 A 
ATOM     21  C   UNL A   1      32.397  21.685  25.041  1.00  0.00     0.006 A 
ATOM     22  C   UNL A   1      34.640  20.970  25.511  1.00  0.00     0.006 A 
ENDBRANCH  15  16
ENDBRANCH   9  15
BRANCH  13  23
ATOM     23  C   UNL A   1      30.796  27.039  25.205  1.00  0.00     0.300 C 
BRANCH  23  24
ATOM     24  N   UNL A   1      30.058  26.459  24.076  1.00  0.00    -0.340 N 
ATOM     25  H   UNL A   1      29.069  26.429  24.322  1.00  0.00     0.346 HD
ATOM     26  H   UNL A   1      30.454  25.534  23.913  1.00  0.00     0.346 HD
BRANCH  24  27
ATOM     27  C   UNL A   1      30.197  27.205  22.819  1.00  0.00     0.293 C 
BRANCH  27  28
ATOM     28  C   UNL A   1      29.584  28.615  22.884  1.00  0.00     0.173 C 
ATOM     29  C   UNL A   1      28.067  28.648  22.848  1.00  0.00     0.040 C 
ATOM     30  O   UNL A   1      29.934  29.381  21.714  1.00  0.00    -0.372 OA
ATOM     31  C   UNL A   1      27.809  30.097  22.491  1.00  0.00     0.031 C 
ATOM     32  C   UNL A   1      29.007  30.471  21.631  1.00  0.00     0.161 C 
ENDBRANCH  27  28
ENDBRANCH  24  27
ENDBRANCH  23  24
ENDBRANCH  13  23
ENDBRANCH   5   8
ENDBRANCH   3   4
ENDBRANCH   2   3
ENDBRANCH   1   2
BRANCH   1  33
ATOM     33  C   UNL A   1      36.374  29.737  28.694  1.00  0.00     0.002 C 
BRANCH  33  34
ATOM     34  C   UNL A   1      35.862  30.384  29.983  1.00  0.00     0.021 C 
BRANCH  34  35
ATOM     35  C   UNL A   1      36.930  30.541  31.056  1.00  0.00     0.116 C 
BRANCH  35  36
ATOM     36  N   UNL A   1      37.311  29.285  31.673  1.00  0.00    -0.352 N 
ATOM     37  C   UNL A   1      38.446  28.506  31.506  1.00  0.00     0.251 C 
ATOM     38  H   UNL A   1      36.657  28.927  32.316  1.00  0.00     0.163 HD
ATOM     39  O   UNL A   1      38.459  27.391  31.982  1.00  0.00    -0.269 OA
BRANCH  37  40
ATOM     40  C   UNL A   1      39.660  29.086  30.865  1.00  0.00     0.039 A 
ATOM     41  C   UNL A   1      39.761  29.006  29.468  1.00  0.00     0.014 A 
ATOM     42  C   UNL A   1      40.751  29.517  31.613  1.00  0.00     0.014 A 
ATOM     43  C   UNL A   1      41.008  29.119  28.854  1.00  0.00     0.010 A 
ATOM     44  C   UNL A   1      41.997  29.540  31.027  1.00  0.00     0.010 A 
ATOM     45  C   UNL A   1      42.130  29.275  29.660  1.00  0.00    -0.014 A 
BRANCH  45  46
ATOM     46  C   UNL A   1      43.502  29.083  29.217  1.00  0.00     0.031 A 
ATOM     47  C   UNL A   1      44.287  30.211  28.687  1.00  0.00     0.074 A 
ATOM     48  C   UNL A   1      44.106  27.915  29.524  1.00  0.00     0.049 A 
ATOM     49  N   UNL A   1      45.397  30.082  28.045  1.00  0.00    -0.248 NA
ATOM     50  C   UNL A   1      43.846  31.592  28.817  1.00  0.00     0.031 C 
ATOM     51  C   UNL A   1      45.537  27.655  29.610  1.00  0.00     0.029 A 
ATOM     52  N   UNL A   1      43.519  26.649  29.617  1.00  0.00    -0.354 N 
ATOM     53  C   UNL A   1      45.956  31.338  27.930  1.00  0.00     0.074 A 
ATOM     54  C   UNL A   1      44.906  32.243  28.332  1.00  0.00     0.031 C 
ATOM     55  C   UNL A   1      45.742  26.337  29.462  1.00  0.00     0.029 A 
ATOM     56  C   UNL A   1      44.463  25.747  29.103  1.00  0.00     0.049 A 
ATOM     57  H   UNL A   1      42.626  26.434  29.973  1.00  0.00     0.167 HD
ATOM     58  C   UNL A   1      47.289  31.442  27.659  1.00  0.00     0.034 A 
ATOM     59  C   UNL A   1      44.238  24.943  28.023  1.00  0.00     0.034 A 
ATOM     60  C   UNL A   1      47.877  30.115  27.413  1.00  0.00     0.049 A 
ATOM     61  C   UNL A   1      45.255  25.134  26.915  1.00  0.00     0.074 A 
ATOM     62  C   UNL A   1      48.607  29.249  28.211  1.00  0.00     0.029 A 
ATOM     63  N   UNL A   1      47.520  29.398  26.277  1.00  0.00    -0.354 N 
ATOM     64  N   UNL A   1      46.125  26.106  26.882  1.00  0.00    -0.248 NA
ATOM     65  C   UNL A   1      45.361  24.267  25.746  1.00  0.00     0.031 C 
ATOM     66  C   UNL A   1      48.624  27.978  27.578  1.00  0.00     0.029 A 
ATOM     67  C   UNL A   1      47.929  28.078  26.384  1.00  0.00     0.049 A 
ATOM     68  H   UNL A   1      47.041  29.775  25.504  1.00  0.00     0.167 HD
ATOM     69  C   UNL A   1      46.800  26.092  25.690  1.00  0.00     0.074 A 
ATOM     70  C   UNL A   1      46.337  24.874  25.048  1.00  0.00     0.031 C 
ATOM     71  C   UNL A   1      47.631  27.120  25.324  1.00  0.00     0.034 A 
BRANCH  58  72
ATOM     72  C   UNL A   1      48.160  32.669  27.915  1.00  0.00     0.023 A 
ATOM     73  C   UNL A   1      47.846  33.455  29.049  1.00  0.00     0.012 A 
ATOM     74  C   UNL A   1      49.203  33.168  27.102  1.00  0.00     0.148 A 
ATOM     75  C   UNL A   1      48.433  34.703  29.295  1.00  0.00     0.002 A 
ATOM     76  C   UNL A   1      49.752  34.438  27.311  1.00  0.00     0.091 A 
ATOM     77  F   UNL A   1      49.746  32.396  26.163  1.00  0.00    -0.205 F 
ATOM     78  C   UNL A   1      49.361  35.214  28.403  1.00  0.00     0.022 A 
BRANCH  76  79
ATOM     79  S   UNL A   1      50.928  35.184  26.165  1.00  0.00     0.127 S 
ATOM     80  O   UNL A   1      50.169  35.198  24.913  1.00  0.00    -0.237 OA
ATOM     81  O   UNL A   1      51.152  36.501  26.755  1.00  0.00    -0.237 OA
ATOM     82  O   UNL A   1      52.092  34.304  26.143  1.00  0.00    -0.744 OA
ENDBRANCH  76  79
ENDBRANCH  58  72
BRANCH  59  83
ATOM     83  C   UNL A   1      42.806  24.574  27.833  1.00  0.00     0.023 A 
ATOM     84  C   UNL A   1      41.936  25.605  27.399  1.00  0.00     0.012 A 
ATOM     85  C   UNL A   1      42.399  23.237  27.684  1.00  0.00     0.148 A 
ATOM     86  C   UNL A   1      40.753  25.309  26.719  1.00  0.00     0.002 A 
ATOM     87  C   UNL A   1      41.215  22.950  27.003  1.00  0.00     0.091 A 
ATOM     88  F   UNL A   1      43.208  22.268  28.129  1.00  0.00    -0.205 F 
ATOM     89  C   UNL A   1      40.411  23.982  26.493  1.00  0.00     0.022 A 
BRANCH  87  90
ATOM     90  S   UNL A   1      40.735  21.260  26.617  1.00  0.00     0.127 S 
ATOM     91  O   UNL A   1      39.441  21.463  25.974  1.00  0.00    -0.237 OA
ATOM     92  O   UNL A   1      41.807  20.825  25.722  1.00  0.00    -0.237 OA
ATOM     93  O   UNL A   1      40.721  20.576  27.903  1.00  0.00    -0.744 OA
ENDBRANCH  87  90
ENDBRANCH  59  83
BRANCH  71  94
ATOM     94  C   UNL A   1      48.233  27.340  23.944  1.00  0.00     0.023 A 
ATOM     95  C   UNL A   1      47.475  27.800  22.851  1.00  0.00     0.012 A 
ATOM     96  C   UNL A   1      49.635  27.232  23.737  1.00  0.00     0.148 A 
ATOM     97  C   UNL A   1      48.058  28.094  21.611  1.00  0.00     0.002 A 
ATOM     98  C   UNL A   1      50.223  27.631  22.539  1.00  0.00     0.091 A 
ATOM     99  F   UNL A   1      50.418  26.721  24.699  1.00  0.00    -0.205 F 
ATOM    100  C   UNL A   1      49.436  28.037  21.462  1.00  0.00     0.022 A 
BRANCH  98 101
ATOM    101  S   UNL A   1      52.011  27.792  22.407  1.00  0.00     0.127 S 
ATOM    102  O   UNL A   1      52.445  26.397  22.395  1.00  0.00    -0.237 OA
ATOM    103  O   UNL A   1      52.177  28.490  21.130  1.00  0.00    -0.237 OA
ATOM    104  O   UNL A   1      52.396  28.582  23.569  1.00  0.00    -0.744 OA
ENDBRANCH  98 101
ENDBRANCH  71  94
ENDBRANCH  45  46
ENDBRANCH  37  40
ENDBRANCH  35  36
ENDBRANCH  34  35
ENDBRANCH  33  34
ENDBRANCH   1  33
TORSDOF 22
ENDMDL
MODEL 3
REMARK VINA RESULT:     -10.8      6.102     10.351
REMARK SMILES Cc1ccc(Cn2c(C)c(C[NH2+]C[C@@H]3CCCO3)c(C(=O)NCCCCCCNC(=O)c3ccc(-c4c5nc(c(-c6cccc(S(=O)(=O)[O-])c6F)c6ccc([nH]6)c(-c6cccc(S(=O)(=O)[O-])c6F)c6nc(c(-c7cccc(S(=O)(=O)[O-])c7F)c7ccc4[nH]7)C=C6)C=C5)cc3)c2C)cc1
REMARK SMILES IDX 25 1 24 2 23 3 22 4 20 5 21 6 19 8 7 9 8 10 95 11 9 12 10 13
REMARK SMILES IDX 96 14 6 15 5 16 1 17 2 18 3 19 98 20 4 21 97 22 11 23 12 24
REMARK SMILES IDX 13 27 14 28 15 29 18 30 16 31 17 32 26 33 27 34 28 35 29 36
REMARK SMILES IDX 30 37 31 39 32 40 33 41 94 42 34 43 93 44 35 45 36 46 37 47
REMARK SMILES IDX 87 48 38 49 92 50 86 51 88 52 39 53 91 54 85 55 84 56 40 58
REMARK SMILES IDX 72 59 52 60 71 61 53 62 56 63 70 64 89 65 54 66 55 67 69 69
REMARK SMILES IDX 90 70 57 71 41 72 42 73 50 74 43 75 45 76 51 77 44 78 46 79
REMARK SMILES IDX 47 80 48 81 49 82 73 83 74 84 82 85 75 86 77 87 83 88 76 89
REMARK SMILES IDX 78 90 79 91 80 92 81 93 58 94 59 95 67 96 60 97 62 98 68 99
REMARK SMILES IDX 61 100 63 101 64 102 65 103 66 104
REMARK H PARENT 22 7 12 25 12 26 29 38 88 57 56 68
REMARK Flexibility Score: inf
ROOT
ATOM      1  C   UNL A   1      35.902  29.979  27.619  1.00  0.00     0.002 C 
ENDROOT
BRANCH   1   2
ATOM      2  C   UNL A   1      34.590  29.199  27.464  1.00  0.00     0.021 C 
BRANCH   2   3
ATOM      3  C   UNL A   1      33.626  29.753  26.412  1.00  0.00     0.116 C 
BRANCH   3   4
ATOM      4  N   UNL A   1      34.057  29.416  25.076  1.00  0.00    -0.352 N 
ATOM      5  C   UNL A   1      33.600  28.484  24.182  1.00  0.00     0.253 C 
ATOM      6  O   UNL A   1      33.907  28.714  23.009  1.00  0.00    -0.269 OA
ATOM      7  H   UNL A   1      34.816  29.952  24.750  1.00  0.00     0.163 HD
BRANCH   5   8
ATOM      8  C   UNL A   1      32.728  27.356  24.560  1.00  0.00     0.069 A 
ATOM      9  N   UNL A   1      31.836  25.555  25.570  1.00  0.00    -0.343 N 
ATOM     10  C   UNL A   1      30.854  26.032  24.721  1.00  0.00     0.025 A 
ATOM     11  C   UNL A   1      33.036  26.135  25.168  1.00  0.00     0.028 A 
ATOM     12  C   UNL A   1      29.541  25.374  24.452  1.00  0.00     0.065 C 
ATOM     13  C   UNL A   1      31.370  27.163  24.088  1.00  0.00     0.040 A 
ATOM     14  C   UNL A   1      34.340  25.420  25.282  1.00  0.00     0.065 C 
BRANCH   9  15
ATOM     15  C   UNL A   1      31.707  24.442  26.522  1.00  0.00     0.157 C 
BRANCH  15  16
ATOM     16  C   UNL A   1      32.238  23.116  26.007  1.00  0.00    -0.028 A 
ATOM     17  C   UNL A   1      33.561  19.225  24.616  1.00  0.00     0.044 C 
ATOM     18  C   UNL A   1      33.101  20.563  25.115  1.00  0.00    -0.051 A 
ATOM     19  C   UNL A   1      32.237  21.334  24.337  1.00  0.00     0.004 A 
ATOM     20  C   UNL A   1      33.546  21.079  26.336  1.00  0.00     0.004 A 
ATOM     21  C   UNL A   1      31.800  22.584  24.787  1.00  0.00     0.006 A 
ATOM     22  C   UNL A   1      33.122  22.343  26.776  1.00  0.00     0.006 A 
ENDBRANCH  15  16
ENDBRANCH   9  15
BRANCH  13  23
ATOM     23  C   UNL A   1      30.696  27.937  22.975  1.00  0.00     0.300 C 
BRANCH  23  24
ATOM     24  N   UNL A   1      30.664  29.338  23.410  1.00  0.00    -0.340 N 
ATOM     25  H   UNL A   1      31.274  29.878  22.795  1.00  0.00     0.346 HD
ATOM     26  H   UNL A   1      30.972  29.350  24.382  1.00  0.00     0.346 HD
BRANCH  24  27
ATOM     27  C   UNL A   1      29.329  29.948  23.382  1.00  0.00     0.293 C 
BRANCH  27  28
ATOM     28  C   UNL A   1      29.161  30.980  22.253  1.00  0.00     0.173 C 
ATOM     29  C   UNL A   1      28.219  32.126  22.578  1.00  0.00     0.040 C 
ATOM     30  O   UNL A   1      28.530  30.384  21.102  1.00  0.00    -0.372 OA
ATOM     31  C   UNL A   1      27.937  32.679  21.197  1.00  0.00     0.031 C 
ATOM     32  C   UNL A   1      28.021  31.455  20.298  1.00  0.00     0.161 C 
ENDBRANCH  27  28
ENDBRANCH  24  27
ENDBRANCH  23  24
ENDBRANCH  13  23
ENDBRANCH   5   8
ENDBRANCH   3   4
ENDBRANCH   2   3
ENDBRANCH   1   2
BRANCH   1  33
ATOM     33  C   UNL A   1      37.019  29.281  28.413  1.00  0.00     0.002 C 
BRANCH  33  34
ATOM     34  C   UNL A   1      38.425  29.859  28.237  1.00  0.00     0.021 C 
BRANCH  34  35
ATOM     35  C   UNL A   1      39.295  29.070  27.270  1.00  0.00     0.116 C 
BRANCH  35  36
ATOM     36  N   UNL A   1      39.058  27.641  27.322  1.00  0.00    -0.352 N 
ATOM     37  C   UNL A   1      39.516  26.682  28.214  1.00  0.00     0.251 C 
ATOM     38  H   UNL A   1      38.476  27.293  26.609  1.00  0.00     0.163 HD
ATOM     39  O   UNL A   1      39.345  25.512  27.945  1.00  0.00    -0.269 OA
BRANCH  37  40
ATOM     40  C   UNL A   1      40.086  27.097  29.526  1.00  0.00     0.039 A 
ATOM     41  C   UNL A   1      39.199  27.254  30.602  1.00  0.00     0.014 A 
ATOM     42  C   UNL A   1      41.409  27.508  29.656  1.00  0.00     0.014 A 
ATOM     43  C   UNL A   1      39.567  28.033  31.699  1.00  0.00     0.010 A 
ATOM     44  C   UNL A   1      41.750  28.351  30.691  1.00  0.00     0.010 A 
ATOM     45  C   UNL A   1      40.806  28.666  31.674  1.00  0.00    -0.014 A 
BRANCH  45  46
ATOM     46  C   UNL A   1      41.201  29.749  32.560  1.00  0.00     0.031 A 
ATOM     47  C   UNL A   1      41.839  29.466  33.857  1.00  0.00     0.074 A 
ATOM     48  C   UNL A   1      41.188  31.005  32.064  1.00  0.00     0.049 A 
ATOM     49  N   UNL A   1      41.983  30.336  34.798  1.00  0.00    -0.248 NA
ATOM     50  C   UNL A   1      42.339  28.144  34.204  1.00  0.00     0.031 C 
ATOM     51  C   UNL A   1      41.936  32.156  32.552  1.00  0.00     0.029 A 
ATOM     52  N   UNL A   1      40.305  31.541  31.121  1.00  0.00    -0.354 N 
ATOM     53  C   UNL A   1      42.831  29.789  35.740  1.00  0.00     0.074 A 
ATOM     54  C   UNL A   1      42.935  28.397  35.372  1.00  0.00     0.031 C 
ATOM     55  C   UNL A   1      41.320  33.273  32.137  1.00  0.00     0.029 A 
ATOM     56  C   UNL A   1      40.067  32.865  31.524  1.00  0.00     0.049 A 
ATOM     57  H   UNL A   1      39.929  31.084  30.333  1.00  0.00     0.167 HD
ATOM     58  C   UNL A   1      43.460  30.621  36.619  1.00  0.00     0.034 A 
ATOM     59  C   UNL A   1      38.833  33.352  31.843  1.00  0.00     0.034 A 
ATOM     60  C   UNL A   1      42.993  32.006  36.453  1.00  0.00     0.049 A 
ATOM     61  C   UNL A   1      38.768  33.942  33.238  1.00  0.00     0.074 A 
ATOM     62  C   UNL A   1      43.523  33.104  35.793  1.00  0.00     0.029 A 
ATOM     63  N   UNL A   1      41.688  32.344  36.792  1.00  0.00    -0.354 N 
ATOM     64  N   UNL A   1      39.710  33.811  34.130  1.00  0.00    -0.248 NA
ATOM     65  C   UNL A   1      37.632  34.704  33.750  1.00  0.00     0.031 C 
ATOM     66  C   UNL A   1      42.500  34.081  35.673  1.00  0.00     0.029 A 
ATOM     67  C   UNL A   1      41.357  33.590  36.282  1.00  0.00     0.049 A 
ATOM     68  H   UNL A   1      41.082  31.777  37.321  1.00  0.00     0.167 HD
ATOM     69  C   UNL A   1      39.295  34.326  35.331  1.00  0.00     0.074 A 
ATOM     70  C   UNL A   1      38.018  34.942  35.016  1.00  0.00     0.031 C 
ATOM     71  C   UNL A   1      40.020  34.142  36.480  1.00  0.00     0.034 A 
BRANCH  58  72
ATOM     72  C   UNL A   1      44.718  30.290  37.417  1.00  0.00     0.023 A 
ATOM     73  C   UNL A   1      45.826  29.790  36.693  1.00  0.00     0.012 A 
ATOM     74  C   UNL A   1      44.886  30.344  38.820  1.00  0.00     0.148 A 
ATOM     75  C   UNL A   1      46.968  29.268  37.315  1.00  0.00     0.002 A 
ATOM     76  C   UNL A   1      45.998  29.774  39.448  1.00  0.00     0.091 A 
ATOM     77  F   UNL A   1      44.018  31.021  39.570  1.00  0.00    -0.205 F 
ATOM     78  C   UNL A   1      47.038  29.224  38.697  1.00  0.00     0.022 A 
BRANCH  76  79
ATOM     79  S   UNL A   1      46.132  29.640  41.242  1.00  0.00     0.127 S 
ATOM     80  O   UNL A   1      46.332  31.035  41.640  1.00  0.00    -0.237 OA
ATOM     81  O   UNL A   1      44.834  29.082  41.614  1.00  0.00    -0.237 OA
ATOM     82  O   UNL A   1      47.280  28.778  41.503  1.00  0.00    -0.744 OA
ENDBRANCH  76  79
ENDBRANCH  58  72
BRANCH  59  83
ATOM     83  C   UNL A   1      37.712  32.669  31.136  1.00  0.00     0.023 A 
ATOM     84  C   UNL A   1      37.021  31.667  31.859  1.00  0.00     0.012 A 
ATOM     85  C   UNL A   1      37.099  33.232  30.003  1.00  0.00     0.148 A 
ATOM     86  C   UNL A   1      35.705  31.327  31.541  1.00  0.00     0.002 A 
ATOM     87  C   UNL A   1      35.783  32.887  29.691  1.00  0.00     0.091 A 
ATOM     88  F   UNL A   1      37.771  34.152  29.300  1.00  0.00    -0.205 F 
ATOM     89  C   UNL A   1      35.076  31.962  30.477  1.00  0.00     0.022 A 
BRANCH  87  90
ATOM     90  S   UNL A   1      34.881  33.709  28.370  1.00  0.00     0.127 S 
ATOM     91  O   UNL A   1      34.685  35.041  28.934  1.00  0.00    -0.237 OA
ATOM     92  O   UNL A   1      35.825  33.644  27.256  1.00  0.00    -0.237 OA
ATOM     93  O   UNL A   1      33.683  32.902  28.181  1.00  0.00    -0.744 OA
ENDBRANCH  87  90
ENDBRANCH  59  83
BRANCH  71  94
ATOM     94  C   UNL A   1      39.551  34.443  37.895  1.00  0.00     0.023 A 
ATOM     95  C   UNL A   1      39.328  33.434  38.851  1.00  0.00     0.012 A 
ATOM     96  C   UNL A   1      39.463  35.783  38.362  1.00  0.00     0.148 A 
ATOM     97  C   UNL A   1      38.993  33.727  40.180  1.00  0.00     0.002 A 
ATOM     98  C   UNL A   1      39.239  36.067  39.708  1.00  0.00     0.091 A 
ATOM     99  F   UNL A   1      39.578  36.803  37.500  1.00  0.00    -0.205 F 
ATOM    100  C   UNL A   1      38.975  35.043  40.616  1.00  0.00     0.022 A 
BRANCH  98 101
ATOM    101  S   UNL A   1      39.450  37.741  40.335  1.00  0.00     0.127 S 
ATOM    102  O   UNL A   1      38.314  38.439  39.737  1.00  0.00    -0.237 OA
ATOM    103  O   UNL A   1      39.352  37.555  41.785  1.00  0.00    -0.237 OA
ATOM    104  O   UNL A   1      40.773  38.142  39.876  1.00  0.00    -0.744 OA
ENDBRANCH  98 101
ENDBRANCH  71  94
ENDBRANCH  45  46
ENDBRANCH  37  40
ENDBRANCH  35  36
ENDBRANCH  34  35
ENDBRANCH  33  34
ENDBRANCH   1  33
TORSDOF 22
ENDMDL
