MODEL 1
REMARK VINA RESULT:     -11.8      0.000      0.000
REMARK SMILES C[C@@H]1CCC[C@@](Cc2ncccn2)(C(=O)NCCCCCCNC(=O)c2ccc(-c3c4nc(c(-c5cccc(S(=O)(=O)[O-])c5F)c5ccc([nH]5)c(-c5cccc(S(=O)(=O)[O-])c5F)c5nc(c(-c6cccc(S(=O)(=O)[O-])c6F)c6ccc3[nH]6)C=C5)C=C4)cc2)C1
REMARK SMILES IDX 20 1 19 2 18 3 17 4 16 5 14 6 15 7 6 9 1 10 2 11 3 12 89 13
REMARK SMILES IDX 4 14 5 15 7 16 8 17 9 18 13 19 10 20 12 21 11 22 21 23 22 24
REMARK SMILES IDX 23 25 24 26 25 28 26 29 27 30 88 31 28 32 87 33 29 34 30 35
REMARK SMILES IDX 31 36 81 37 32 38 86 39 80 40 82 41 33 42 85 43 79 44 78 45
REMARK SMILES IDX 34 47 66 48 46 49 65 50 47 51 50 52 64 53 83 54 48 55 49 56
REMARK SMILES IDX 63 58 84 59 51 60 35 61 36 62 44 63 37 64 39 65 45 66 38 67
REMARK SMILES IDX 40 68 41 69 42 70 43 71 67 72 68 73 76 74 69 75 71 76 77 77
REMARK SMILES IDX 70 78 72 79 73 80 74 81 75 82 52 83 53 84 61 85 54 86 56 87
REMARK SMILES IDX 62 88 55 89 57 90 58 91 59 92 60 93
REMARK H PARENT 16 8 23 27 82 46 50 57
REMARK Flexibility Score: inf
ROOT
ATOM      1  C   UNL A   1      31.251  28.806  24.880  1.00  0.00     0.002 C 
ENDROOT
BRANCH   1   2
ATOM      2  C   UNL A   1      30.349  29.338  23.758  1.00  0.00     0.002 C 
BRANCH   2   3
ATOM      3  C   UNL A   1      30.555  28.712  22.376  1.00  0.00     0.021 C 
BRANCH   3   4
ATOM      4  C   UNL A   1      30.696  27.195  22.379  1.00  0.00     0.116 C 
BRANCH   4   5
ATOM      5  N   UNL A   1      31.762  26.710  21.533  1.00  0.00    -0.356 N 
ATOM      6  C   UNL A   1      32.675  25.717  21.699  1.00  0.00     0.226 C 
ATOM      7  O   UNL A   1      33.262  25.379  20.662  1.00  0.00    -0.274 OA
ATOM      8  H   UNL A   1      31.844  27.189  20.677  1.00  0.00     0.163 HD
BRANCH   6   9
ATOM      9  C   UNL A   1      32.997  25.021  23.059  1.00  0.00     0.056 C 
ATOM     10  C   UNL A   1      35.099  24.846  25.755  1.00  0.00     0.007 C 
ATOM     11  C   UNL A   1      34.008  25.857  25.395  1.00  0.00    -0.013 C 
ATOM     12  C   UNL A   1      32.679  25.517  26.068  1.00  0.00     0.003 C 
ATOM     13  C   UNL A   1      33.822  26.087  23.884  1.00  0.00     0.020 C 
ATOM     14  C   UNL A   1      31.936  24.407  25.345  1.00  0.00     0.001 C 
ATOM     15  C   UNL A   1      31.712  24.732  23.870  1.00  0.00     0.017 C 
BRANCH   9  16
ATOM     16  C   UNL A   1      33.934  23.809  22.812  1.00  0.00     0.094 C 
BRANCH  16  17
ATOM     17  C   UNL A   1      33.473  22.422  23.161  1.00  0.00     0.129 A 
ATOM     18  N   UNL A   1      32.532  21.859  22.380  1.00  0.00    -0.241 NA
ATOM     19  N   UNL A   1      33.979  21.851  24.272  1.00  0.00    -0.241 NA
ATOM     20  C   UNL A   1      32.077  20.648  22.760  1.00  0.00     0.115 A 
ATOM     21  C   UNL A   1      33.490  20.640  24.604  1.00  0.00     0.115 A 
ATOM     22  C   UNL A   1      32.528  19.983  23.874  1.00  0.00     0.040 A 
ENDBRANCH  16  17
ENDBRANCH   9  16
ENDBRANCH   6   9
ENDBRANCH   4   5
ENDBRANCH   3   4
ENDBRANCH   2   3
ENDBRANCH   1   2
BRANCH   1  23
ATOM     23  C   UNL A   1      32.659  29.408  24.963  1.00  0.00     0.021 C 
BRANCH  23  24
ATOM     24  C   UNL A   1      33.176  29.698  26.369  1.00  0.00     0.116 C 
BRANCH  24  25
ATOM     25  N   UNL A   1      33.093  31.105  26.709  1.00  0.00    -0.352 N 
ATOM     26  C   UNL A   1      33.857  31.861  27.560  1.00  0.00     0.251 C 
ATOM     27  H   UNL A   1      32.371  31.598  26.254  1.00  0.00     0.163 HD
ATOM     28  O   UNL A   1      33.503  33.011  27.813  1.00  0.00    -0.269 OA
BRANCH  26  29
ATOM     29  C   UNL A   1      35.082  31.314  28.191  1.00  0.00     0.039 A 
ATOM     30  C   UNL A   1      36.239  32.098  28.170  1.00  0.00     0.014 A 
ATOM     31  C   UNL A   1      35.127  30.031  28.744  1.00  0.00     0.014 A 
ATOM     32  C   UNL A   1      37.424  31.615  28.732  1.00  0.00     0.010 A 
ATOM     33  C   UNL A   1      36.293  29.574  29.364  1.00  0.00     0.010 A 
ATOM     34  C   UNL A   1      37.456  30.357  29.354  1.00  0.00    -0.014 A 
BRANCH  34  35
ATOM     35  C   UNL A   1      38.703  29.872  30.003  1.00  0.00     0.031 A 
ATOM     36  C   UNL A   1      39.119  30.380  31.358  1.00  0.00     0.074 A 
ATOM     37  C   UNL A   1      39.483  28.987  29.349  1.00  0.00     0.049 A 
ATOM     38  N   UNL A   1      40.151  30.034  32.086  1.00  0.00    -0.248 NA
ATOM     39  C   UNL A   1      38.280  31.424  31.971  1.00  0.00     0.031 C 
ATOM     40  C   UNL A   1      39.236  28.483  27.996  1.00  0.00     0.029 A 
ATOM     41  N   UNL A   1      40.645  28.365  29.727  1.00  0.00    -0.354 N 
ATOM     42  C   UNL A   1      40.096  30.823  33.229  1.00  0.00     0.074 A 
ATOM     43  C   UNL A   1      38.952  31.697  33.082  1.00  0.00     0.031 C 
ATOM     44  C   UNL A   1      40.209  27.619  27.664  1.00  0.00     0.029 A 
ATOM     45  C   UNL A   1      41.155  27.518  28.770  1.00  0.00     0.049 A 
ATOM     46  H   UNL A   1      41.075  28.510  30.602  1.00  0.00     0.167 HD
ATOM     47  C   UNL A   1      40.902  30.799  34.318  1.00  0.00     0.034 A 
ATOM     48  C   UNL A   1      42.256  26.740  28.786  1.00  0.00     0.034 A 
ATOM     49  C   UNL A   1      42.015  29.902  34.481  1.00  0.00     0.049 A 
ATOM     50  C   UNL A   1      43.097  26.692  30.032  1.00  0.00     0.074 A 
ATOM     51  C   UNL A   1      42.853  29.758  35.574  1.00  0.00     0.029 A 
ATOM     52  N   UNL A   1      42.447  28.995  33.526  1.00  0.00    -0.354 N 
ATOM     53  N   UNL A   1      42.931  27.329  31.166  1.00  0.00    -0.248 NA
ATOM     54  C   UNL A   1      44.253  25.783  30.017  1.00  0.00     0.031 C 
ATOM     55  C   UNL A   1      43.795  28.767  35.276  1.00  0.00     0.029 A 
ATOM     56  C   UNL A   1      43.536  28.285  34.004  1.00  0.00     0.049 A 
ATOM     57  H   UNL A   1      42.039  28.873  32.638  1.00  0.00     0.167 HD
ATOM     58  C   UNL A   1      43.941  26.876  32.008  1.00  0.00     0.074 A 
ATOM     59  C   UNL A   1      44.690  25.884  31.265  1.00  0.00     0.031 C 
ATOM     60  C   UNL A   1      44.238  27.263  33.273  1.00  0.00     0.034 A 
BRANCH  47  61
ATOM     61  C   UNL A   1      40.562  31.716  35.465  1.00  0.00     0.023 A 
ATOM     62  C   UNL A   1      41.383  32.835  35.714  1.00  0.00     0.012 A 
ATOM     63  C   UNL A   1      39.398  31.527  36.237  1.00  0.00     0.148 A 
ATOM     64  C   UNL A   1      41.066  33.740  36.726  1.00  0.00     0.002 A 
ATOM     65  C   UNL A   1      39.067  32.456  37.218  1.00  0.00     0.091 A 
ATOM     66  F   UNL A   1      38.639  30.449  35.995  1.00  0.00    -0.205 F 
ATOM     67  C   UNL A   1      39.904  33.556  37.469  1.00  0.00     0.022 A 
BRANCH  65  68
ATOM     68  S   UNL A   1      37.556  32.354  38.185  1.00  0.00     0.127 S 
ATOM     69  O   UNL A   1      37.359  30.905  38.271  1.00  0.00    -0.237 OA
ATOM     70  O   UNL A   1      37.954  32.988  39.443  1.00  0.00    -0.237 OA
ATOM     71  O   UNL A   1      36.544  33.073  37.431  1.00  0.00    -0.744 OA
ENDBRANCH  65  68
ENDBRANCH  47  61
BRANCH  48  72
ATOM     72  C   UNL A   1      42.581  25.880  27.613  1.00  0.00     0.023 A 
ATOM     73  C   UNL A   1      43.371  26.401  26.569  1.00  0.00     0.012 A 
ATOM     74  C   UNL A   1      42.124  24.552  27.527  1.00  0.00     0.148 A 
ATOM     75  C   UNL A   1      43.663  25.631  25.443  1.00  0.00     0.002 A 
ATOM     76  C   UNL A   1      42.469  23.769  26.429  1.00  0.00     0.091 A 
ATOM     77  F   UNL A   1      41.359  24.073  28.519  1.00  0.00    -0.205 F 
ATOM     78  C   UNL A   1      43.221  24.312  25.377  1.00  0.00     0.022 A 
BRANCH  76  79
ATOM     79  S   UNL A   1      42.056  22.022  26.352  1.00  0.00     0.127 S 
ATOM     80  O   UNL A   1      40.615  22.063  26.126  1.00  0.00    -0.237 OA
ATOM     81  O   UNL A   1      42.848  21.566  25.210  1.00  0.00    -0.237 OA
ATOM     82  O   UNL A   1      42.492  21.473  27.630  1.00  0.00    -0.744 OA
ENDBRANCH  76  79
ENDBRANCH  48  72
BRANCH  60  83
ATOM     83  C   UNL A   1      45.413  26.597  33.939  1.00  0.00     0.023 A 
ATOM     84  C   UNL A   1      46.701  27.151  33.794  1.00  0.00     0.012 A 
ATOM     85  C   UNL A   1      45.240  25.452  34.740  1.00  0.00     0.148 A 
ATOM     86  C   UNL A   1      47.804  26.551  34.400  1.00  0.00     0.002 A 
ATOM     87  C   UNL A   1      46.338  24.886  35.379  1.00  0.00     0.091 A 
ATOM     88  F   UNL A   1      44.012  24.925  34.851  1.00  0.00    -0.205 F 
ATOM     89  C   UNL A   1      47.622  25.425  35.200  1.00  0.00     0.022 A 
BRANCH  87  90
ATOM     90  S   UNL A   1      46.174  23.490  36.498  1.00  0.00     0.127 S 
ATOM     91  O   UNL A   1      47.555  23.295  36.936  1.00  0.00    -0.237 OA
ATOM     92  O   UNL A   1      45.276  24.014  37.527  1.00  0.00    -0.237 OA
ATOM     93  O   UNL A   1      45.607  22.410  35.701  1.00  0.00    -0.744 OA
ENDBRANCH  87  90
ENDBRANCH  60  83
ENDBRANCH  34  35
ENDBRANCH  26  29
ENDBRANCH  24  25
ENDBRANCH  23  24
ENDBRANCH   1  23
TORSDOF 18
ENDMDL
MODEL 2
REMARK VINA RESULT:     -11.5      4.932     10.006
REMARK SMILES C[C@@H]1CCC[C@@](Cc2ncccn2)(C(=O)NCCCCCCNC(=O)c2ccc(-c3c4nc(c(-c5cccc(S(=O)(=O)[O-])c5F)c5ccc([nH]5)c(-c5cccc(S(=O)(=O)[O-])c5F)c5nc(c(-c6cccc(S(=O)(=O)[O-])c6F)c6ccc3[nH]6)C=C5)C=C4)cc2)C1
REMARK SMILES IDX 20 1 19 2 18 3 17 4 16 5 14 6 15 7 6 9 1 10 2 11 3 12 89 13
REMARK SMILES IDX 4 14 5 15 7 16 8 17 9 18 13 19 10 20 12 21 11 22 21 23 22 24
REMARK SMILES IDX 23 25 24 26 25 28 26 29 27 30 88 31 28 32 87 33 29 34 30 35
REMARK SMILES IDX 31 36 81 37 32 38 86 39 80 40 82 41 33 42 85 43 79 44 78 45
REMARK SMILES IDX 34 47 66 48 46 49 65 50 47 51 50 52 64 53 83 54 48 55 49 56
REMARK SMILES IDX 63 58 84 59 51 60 35 61 36 62 44 63 37 64 39 65 45 66 38 67
REMARK SMILES IDX 40 68 41 69 42 70 43 71 67 72 68 73 76 74 69 75 71 76 77 77
REMARK SMILES IDX 70 78 72 79 73 80 74 81 75 82 52 83 53 84 61 85 54 86 56 87
REMARK SMILES IDX 62 88 55 89 57 90 58 91 59 92 60 93
REMARK H PARENT 16 8 23 27 82 46 50 57
REMARK Flexibility Score: inf
ROOT
ATOM      1  C   UNL A   1      35.221  22.992  24.025  1.00  0.00     0.002 C 
ENDROOT
BRANCH   1   2
ATOM      2  C   UNL A   1      34.190  23.066  22.891  1.00  0.00     0.002 C 
BRANCH   2   3
ATOM      3  C   UNL A   1      32.726  22.889  23.302  1.00  0.00     0.021 C 
BRANCH   3   4
ATOM      4  C   UNL A   1      31.815  24.051  22.928  1.00  0.00     0.116 C 
BRANCH   4   5
ATOM      5  N   UNL A   1      32.431  25.009  22.039  1.00  0.00    -0.356 N 
ATOM      6  C   UNL A   1      32.896  26.269  22.241  1.00  0.00     0.226 C 
ATOM      7  O   UNL A   1      33.622  26.701  21.334  1.00  0.00    -0.274 OA
ATOM      8  H   UNL A   1      32.532  24.689  21.113  1.00  0.00     0.163 HD
BRANCH   6   9
ATOM      9  C   UNL A   1      32.579  27.146  23.492  1.00  0.00     0.056 C 
ATOM     10  C   UNL A   1      31.995  27.215  26.865  1.00  0.00     0.007 C 
ATOM     11  C   UNL A   1      33.295  27.054  26.073  1.00  0.00    -0.013 C 
ATOM     12  C   UNL A   1      34.019  28.388  25.899  1.00  0.00     0.003 C 
ATOM     13  C   UNL A   1      33.136  26.328  24.724  1.00  0.00     0.020 C 
ATOM     14  C   UNL A   1      33.410  29.232  24.792  1.00  0.00     0.001 C 
ATOM     15  C   UNL A   1      33.356  28.484  23.462  1.00  0.00     0.017 C 
BRANCH   9  16
ATOM     16  C   UNL A   1      31.042  27.256  23.674  1.00  0.00     0.094 C 
BRANCH  16  17
ATOM     17  C   UNL A   1      30.330  28.522  23.290  1.00  0.00     0.129 A 
ATOM     18  N   UNL A   1      29.969  28.673  22.001  1.00  0.00    -0.241 NA
ATOM     19  N   UNL A   1      30.154  29.460  24.243  1.00  0.00    -0.241 NA
ATOM     20  C   UNL A   1      29.404  29.851  21.666  1.00  0.00     0.115 A 
ATOM     21  C   UNL A   1      29.583  30.616  23.853  1.00  0.00     0.115 A 
ATOM     22  C   UNL A   1      29.182  30.868  22.563  1.00  0.00     0.040 A 
ENDBRANCH  16  17
ENDBRANCH   9  16
ENDBRANCH   6   9
ENDBRANCH   4   5
ENDBRANCH   3   4
ENDBRANCH   2   3
ENDBRANCH   1   2
BRANCH   1  23
ATOM     23  C   UNL A   1      34.662  22.791  25.439  1.00  0.00     0.021 C 
BRANCH  23  24
ATOM     24  C   UNL A   1      35.677  22.385  26.504  1.00  0.00     0.116 C 
BRANCH  24  25
ATOM     25  N   UNL A   1      36.613  21.385  26.023  1.00  0.00    -0.352 N 
ATOM     26  C   UNL A   1      37.968  21.456  25.831  1.00  0.00     0.251 C 
ATOM     27  H   UNL A   1      36.209  20.515  25.801  1.00  0.00     0.163 HD
ATOM     28  O   UNL A   1      38.536  20.525  25.263  1.00  0.00    -0.269 OA
BRANCH  26  29
ATOM     29  C   UNL A   1      38.751  22.633  26.275  1.00  0.00     0.039 A 
ATOM     30  C   UNL A   1      38.411  23.885  25.753  1.00  0.00     0.014 A 
ATOM     31  C   UNL A   1      39.844  22.519  27.140  1.00  0.00     0.014 A 
ATOM     32  C   UNL A   1      39.136  25.020  26.126  1.00  0.00     0.010 A 
ATOM     33  C   UNL A   1      40.527  23.662  27.563  1.00  0.00     0.010 A 
ATOM     34  C   UNL A   1      40.187  24.923  27.051  1.00  0.00    -0.014 A 
BRANCH  34  35
ATOM     35  C   UNL A   1      40.917  26.142  27.490  1.00  0.00     0.031 A 
ATOM     36  C   UNL A   1      42.363  26.353  27.125  1.00  0.00     0.074 A 
ATOM     37  C   UNL A   1      40.276  27.052  28.251  1.00  0.00     0.049 A 
ATOM     38  N   UNL A   1      43.137  27.375  27.389  1.00  0.00    -0.248 NA
ATOM     39  C   UNL A   1      43.034  25.272  26.384  1.00  0.00     0.031 C 
ATOM     40  C   UNL A   1      38.903  26.924  28.744  1.00  0.00     0.029 A 
ATOM     41  N   UNL A   1      40.697  28.258  28.753  1.00  0.00    -0.354 N 
ATOM     42  C   UNL A   1      44.384  27.057  26.864  1.00  0.00     0.074 A 
ATOM     43  C   UNL A   1      44.276  25.729  26.301  1.00  0.00     0.031 C 
ATOM     44  C   UNL A   1      38.591  28.014  29.465  1.00  0.00     0.029 A 
ATOM     45  C   UNL A   1      39.742  28.909  29.499  1.00  0.00     0.049 A 
ATOM     46  H   UNL A   1      41.598  28.623  28.593  1.00  0.00     0.167 HD
ATOM     47  C   UNL A   1      45.507  27.815  26.820  1.00  0.00     0.034 A 
ATOM     48  C   UNL A   1      39.786  30.099  30.130  1.00  0.00     0.034 A 
ATOM     49  C   UNL A   1      45.601  29.151  27.344  1.00  0.00     0.049 A 
ATOM     50  C   UNL A   1      41.026  30.941  30.015  1.00  0.00     0.074 A 
ATOM     51  C   UNL A   1      46.675  30.023  27.292  1.00  0.00     0.029 A 
ATOM     52  N   UNL A   1      44.584  29.813  28.013  1.00  0.00    -0.354 N 
ATOM     53  N   UNL A   1      42.140  30.687  29.372  1.00  0.00    -0.248 NA
ATOM     54  C   UNL A   1      41.000  32.255  30.674  1.00  0.00     0.031 C 
ATOM     55  C   UNL A   1      46.309  31.210  27.936  1.00  0.00     0.029 A 
ATOM     56  C   UNL A   1      45.002  31.082  28.379  1.00  0.00     0.049 A 
ATOM     57  H   UNL A   1      43.694  29.436  28.203  1.00  0.00     0.167 HD
ATOM     58  C   UNL A   1      42.933  31.819  29.523  1.00  0.00     0.074 A 
ATOM     59  C   UNL A   1      42.158  32.773  30.287  1.00  0.00     0.031 C 
ATOM     60  C   UNL A   1      44.200  32.040  29.091  1.00  0.00     0.034 A 
BRANCH  47  61
ATOM     61  C   UNL A   1      46.708  27.250  26.108  1.00  0.00     0.023 A 
ATOM     62  C   UNL A   1      46.804  27.389  24.708  1.00  0.00     0.012 A 
ATOM     63  C   UNL A   1      47.776  26.663  26.818  1.00  0.00     0.148 A 
ATOM     64  C   UNL A   1      47.930  26.934  24.022  1.00  0.00     0.002 A 
ATOM     65  C   UNL A   1      48.912  26.248  26.132  1.00  0.00     0.091 A 
ATOM     66  F   UNL A   1      47.659  26.526  28.146  1.00  0.00    -0.205 F 
ATOM     67  C   UNL A   1      48.986  26.375  24.734  1.00  0.00     0.022 A 
BRANCH  65  68
ATOM     68  S   UNL A   1      50.359  25.581  26.960  1.00  0.00     0.127 S 
ATOM     69  O   UNL A   1      49.800  24.403  27.627  1.00  0.00    -0.237 OA
ATOM     70  O   UNL A   1      51.244  25.277  25.833  1.00  0.00    -0.237 OA
ATOM     71  O   UNL A   1      50.837  26.628  27.846  1.00  0.00    -0.744 OA
ENDBRANCH  65  68
ENDBRANCH  47  61
BRANCH  48  72
ATOM     72  C   UNL A   1      38.588  30.602  30.862  1.00  0.00     0.023 A 
ATOM     73  C   UNL A   1      38.492  30.403  32.254  1.00  0.00     0.012 A 
ATOM     74  C   UNL A   1      37.552  31.282  30.195  1.00  0.00     0.148 A 
ATOM     75  C   UNL A   1      37.367  30.833  32.959  1.00  0.00     0.002 A 
ATOM     76  C   UNL A   1      36.462  31.761  30.914  1.00  0.00     0.091 A 
ATOM     77  F   UNL A   1      37.648  31.449  28.868  1.00  0.00    -0.205 F 
ATOM     78  C   UNL A   1      36.357  31.520  32.292  1.00  0.00     0.022 A 
BRANCH  76  79
ATOM     79  S   UNL A   1      35.200  32.780  30.141  1.00  0.00     0.127 S 
ATOM     80  O   UNL A   1      34.636  31.864  29.155  1.00  0.00    -0.237 OA
ATOM     81  O   UNL A   1      34.319  33.092  31.268  1.00  0.00    -0.237 OA
ATOM     82  O   UNL A   1      35.915  33.935  29.614  1.00  0.00    -0.744 OA
ENDBRANCH  76  79
ENDBRANCH  48  72
BRANCH  60  83
ATOM     83  C   UNL A   1      44.816  33.374  29.419  1.00  0.00     0.023 A 
ATOM     84  C   UNL A   1      45.592  33.514  30.588  1.00  0.00     0.012 A 
ATOM     85  C   UNL A   1      44.664  34.476  28.555  1.00  0.00     0.148 A 
ATOM     86  C   UNL A   1      46.171  34.740  30.913  1.00  0.00     0.002 A 
ATOM     87  C   UNL A   1      45.283  35.683  28.863  1.00  0.00     0.091 A 
ATOM     88  F   UNL A   1      43.905  34.333  27.459  1.00  0.00    -0.205 F 
ATOM     89  C   UNL A   1      46.025  35.821  30.047  1.00  0.00     0.022 A 
BRANCH  87  90
ATOM     90  S   UNL A   1      45.219  37.096  27.756  1.00  0.00     0.127 S 
ATOM     91  O   UNL A   1      45.646  36.503  26.490  1.00  0.00    -0.237 OA
ATOM     92  O   UNL A   1      43.806  37.474  27.808  1.00  0.00    -0.237 OA
ATOM     93  O   UNL A   1      46.124  38.085  28.327  1.00  0.00    -0.744 OA
ENDBRANCH  87  90
ENDBRANCH  60  83
ENDBRANCH  34  35
ENDBRANCH  26  29
ENDBRANCH  24  25
ENDBRANCH  23  24
ENDBRANCH   1  23
TORSDOF 18
ENDMDL
MODEL 3
REMARK VINA RESULT:     -11.5      4.982      9.882
REMARK SMILES C[C@@H]1CCC[C@@](Cc2ncccn2)(C(=O)NCCCCCCNC(=O)c2ccc(-c3c4nc(c(-c5cccc(S(=O)(=O)[O-])c5F)c5ccc([nH]5)c(-c5cccc(S(=O)(=O)[O-])c5F)c5nc(c(-c6cccc(S(=O)(=O)[O-])c6F)c6ccc3[nH]6)C=C5)C=C4)cc2)C1
REMARK SMILES IDX 20 1 19 2 18 3 17 4 16 5 14 6 15 7 6 9 1 10 2 11 3 12 89 13
REMARK SMILES IDX 4 14 5 15 7 16 8 17 9 18 13 19 10 20 12 21 11 22 21 23 22 24
REMARK SMILES IDX 23 25 24 26 25 28 26 29 27 30 88 31 28 32 87 33 29 34 30 35
REMARK SMILES IDX 31 36 81 37 32 38 86 39 80 40 82 41 33 42 85 43 79 44 78 45
REMARK SMILES IDX 34 47 66 48 46 49 65 50 47 51 50 52 64 53 83 54 48 55 49 56
REMARK SMILES IDX 63 58 84 59 51 60 35 61 36 62 44 63 37 64 39 65 45 66 38 67
REMARK SMILES IDX 40 68 41 69 42 70 43 71 67 72 68 73 76 74 69 75 71 76 77 77
REMARK SMILES IDX 70 78 72 79 73 80 74 81 75 82 52 83 53 84 61 85 54 86 56 87
REMARK SMILES IDX 62 88 55 89 57 90 58 91 59 92 60 93
REMARK H PARENT 16 8 23 27 82 46 50 57
REMARK Flexibility Score: inf
ROOT
ATOM      1  C   UNL A   1      34.198  23.359  25.152  1.00  0.00     0.002 C 
ENDROOT
BRANCH   1   2
ATOM      2  C   UNL A   1      34.513  23.663  23.681  1.00  0.00     0.002 C 
BRANCH   2   3
ATOM      3  C   UNL A   1      33.346  23.519  22.700  1.00  0.00     0.021 C 
BRANCH   3   4
ATOM      4  C   UNL A   1      32.423  24.728  22.628  1.00  0.00     0.116 C 
BRANCH   4   5
ATOM      5  N   UNL A   1      33.016  25.874  21.979  1.00  0.00    -0.356 N 
ATOM      6  C   UNL A   1      33.288  27.131  22.419  1.00  0.00     0.226 C 
ATOM      7  O   UNL A   1      34.058  27.775  21.694  1.00  0.00    -0.274 OA
ATOM      8  H   UNL A   1      33.270  25.716  21.041  1.00  0.00     0.163 HD
BRANCH   6   9
ATOM      9  C   UNL A   1      32.710  27.762  23.724  1.00  0.00     0.056 C 
ATOM     10  C   UNL A   1      31.609  27.220  26.920  1.00  0.00     0.007 C 
ATOM     11  C   UNL A   1      33.024  27.270  26.340  1.00  0.00    -0.013 C 
ATOM     12  C   UNL A   1      33.653  28.653  26.503  1.00  0.00     0.003 C 
ATOM     13  C   UNL A   1      33.137  26.777  24.884  1.00  0.00     0.020 C 
ATOM     14  C   UNL A   1      33.154  29.638  25.460  1.00  0.00     0.001 C 
ATOM     15  C   UNL A   1      33.368  29.126  24.038  1.00  0.00     0.017 C 
BRANCH   9  16
ATOM     16  C   UNL A   1      31.159  27.752  23.664  1.00  0.00     0.094 C 
BRANCH  16  17
ATOM     17  C   UNL A   1      30.421  28.967  23.178  1.00  0.00     0.129 A 
ATOM     18  N   UNL A   1      30.026  29.870  24.096  1.00  0.00    -0.241 NA
ATOM     19  N   UNL A   1      30.140  29.049  21.862  1.00  0.00    -0.241 NA
ATOM     20  C   UNL A   1      29.295  30.910  23.645  1.00  0.00     0.115 A 
ATOM     21  C   UNL A   1      29.409  30.110  21.467  1.00  0.00     0.115 A 
ATOM     22  C   UNL A   1      28.957  31.083  22.325  1.00  0.00     0.040 A 
ENDBRANCH  16  17
ENDBRANCH   9  16
ENDBRANCH   6   9
ENDBRANCH   4   5
ENDBRANCH   3   4
ENDBRANCH   2   3
ENDBRANCH   1   2
BRANCH   1  23
ATOM     23  C   UNL A   1      35.396  23.313  26.108  1.00  0.00     0.021 C 
BRANCH  23  24
ATOM     24  C   UNL A   1      36.761  23.571  25.476  1.00  0.00     0.116 C 
BRANCH  24  25
ATOM     25  N   UNL A   1      37.756  22.603  25.896  1.00  0.00    -0.352 N 
ATOM     26  C   UNL A   1      38.987  22.785  26.470  1.00  0.00     0.251 C 
ATOM     27  H   UNL A   1      37.506  21.662  25.745  1.00  0.00     0.163 HD
ATOM     28  O   UNL A   1      39.732  21.815  26.599  1.00  0.00    -0.269 OA
BRANCH  26  29
ATOM     29  C   UNL A   1      39.442  24.124  26.915  1.00  0.00     0.039 A 
ATOM     30  C   UNL A   1      39.262  24.466  28.259  1.00  0.00     0.014 A 
ATOM     31  C   UNL A   1      39.982  25.062  26.030  1.00  0.00     0.014 A 
ATOM     32  C   UNL A   1      39.654  25.725  28.720  1.00  0.00     0.010 A 
ATOM     33  C   UNL A   1      40.433  26.296  26.504  1.00  0.00     0.010 A 
ATOM     34  C   UNL A   1      40.264  26.645  27.851  1.00  0.00    -0.014 A 
BRANCH  34  35
ATOM     35  C   UNL A   1      40.734  27.960  28.360  1.00  0.00     0.031 A 
ATOM     36  C   UNL A   1      42.200  28.302  28.385  1.00  0.00     0.074 A 
ATOM     37  C   UNL A   1      39.830  28.843  28.832  1.00  0.00     0.049 A 
ATOM     38  N   UNL A   1      42.779  29.417  28.756  1.00  0.00    -0.248 NA
ATOM     39  C   UNL A   1      43.142  27.255  27.956  1.00  0.00     0.031 C 
ATOM     40  C   UNL A   1      38.390  28.599  28.942  1.00  0.00     0.029 A 
ATOM     41  N   UNL A   1      39.988  30.116  29.318  1.00  0.00    -0.354 N 
ATOM     42  C   UNL A   1      44.146  29.203  28.621  1.00  0.00     0.074 A 
ATOM     43  C   UNL A   1      44.314  27.837  28.173  1.00  0.00     0.031 C 
ATOM     44  C   UNL A   1      37.796  29.692  29.449  1.00  0.00     0.029 A 
ATOM     45  C   UNL A   1      38.810  30.706  29.714  1.00  0.00     0.049 A 
ATOM     46  H   UNL A   1      40.863  30.566  29.378  1.00  0.00     0.167 HD
ATOM     47  C   UNL A   1      45.166  30.073  28.816  1.00  0.00     0.034 A 
ATOM     48  C   UNL A   1      38.573  31.932  30.223  1.00  0.00     0.034 A 
ATOM     49  C   UNL A   1      44.995  31.442  29.223  1.00  0.00     0.049 A 
ATOM     50  C   UNL A   1      39.719  32.893  30.374  1.00  0.00     0.074 A 
ATOM     51  C   UNL A   1      45.961  32.419  29.387  1.00  0.00     0.029 A 
ATOM     52  N   UNL A   1      43.778  32.031  29.528  1.00  0.00    -0.354 N 
ATOM     53  N   UNL A   1      40.986  32.720  30.084  1.00  0.00    -0.248 NA
ATOM     54  C   UNL A   1      39.396  34.236  30.880  1.00  0.00     0.031 C 
ATOM     55  C   UNL A   1      45.328  33.598  29.797  1.00  0.00     0.029 A 
ATOM     56  C   UNL A   1      43.967  33.358  29.877  1.00  0.00     0.049 A 
ATOM     57  H   UNL A   1      42.907  31.573  29.501  1.00  0.00     0.167 HD
ATOM     58  C   UNL A   1      41.604  33.939  30.343  1.00  0.00     0.074 A 
ATOM     59  C   UNL A   1      40.567  34.850  30.777  1.00  0.00     0.031 C 
ATOM     60  C   UNL A   1      42.917  34.268  30.254  1.00  0.00     0.034 A 
BRANCH  47  61
ATOM     61  C   UNL A   1      46.563  29.597  28.513  1.00  0.00     0.023 A 
ATOM     62  C   UNL A   1      47.100  29.823  27.229  1.00  0.00     0.012 A 
ATOM     63  C   UNL A   1      47.372  29.009  29.506  1.00  0.00     0.148 A 
ATOM     64  C   UNL A   1      48.411  29.453  26.930  1.00  0.00     0.002 A 
ATOM     65  C   UNL A   1      48.690  28.678  29.212  1.00  0.00     0.091 A 
ATOM     66  F   UNL A   1      46.838  28.787  30.716  1.00  0.00    -0.205 F 
ATOM     67  C   UNL A   1      49.208  28.892  27.923  1.00  0.00     0.022 A 
BRANCH  65  68
ATOM     68  S   UNL A   1      49.825  28.017  30.438  1.00  0.00     0.127 S 
ATOM     69  O   UNL A   1      49.182  26.746  30.778  1.00  0.00    -0.237 OA
ATOM     70  O   UNL A   1      51.064  27.882  29.668  1.00  0.00    -0.237 OA
ATOM     71  O   UNL A   1      49.875  28.994  31.511  1.00  0.00    -0.744 OA
ENDBRANCH  65  68
ENDBRANCH  47  61
BRANCH  48  72
ATOM     72  C   UNL A   1      37.180  32.348  30.553  1.00  0.00     0.023 A 
ATOM     73  C   UNL A   1      36.710  32.214  31.874  1.00  0.00     0.012 A 
ATOM     74  C   UNL A   1      36.322  32.882  29.573  1.00  0.00     0.148 A 
ATOM     75  C   UNL A   1      35.400  32.563  32.205  1.00  0.00     0.002 A 
ATOM     76  C   UNL A   1      35.037  33.285  29.922  1.00  0.00     0.091 A 
ATOM     77  F   UNL A   1      36.776  32.988  28.315  1.00  0.00    -0.205 F 
ATOM     78  C   UNL A   1      34.567  33.108  31.231  1.00  0.00     0.022 A 
BRANCH  76  79
ATOM     79  S   UNL A   1      33.965  34.127  28.752  1.00  0.00     0.127 S 
ATOM     80  O   UNL A   1      33.633  33.054  27.821  1.00  0.00    -0.237 OA
ATOM     81  O   UNL A   1      32.861  34.570  29.604  1.00  0.00    -0.237 OA
ATOM     82  O   UNL A   1      34.770  35.218  28.217  1.00  0.00    -0.744 OA
ENDBRANCH  76  79
ENDBRANCH  48  72
BRANCH  60  83
ATOM     83  C   UNL A   1      43.299  35.678  30.615  1.00  0.00     0.023 A 
ATOM     84  C   UNL A   1      43.695  35.976  31.935  1.00  0.00     0.012 A 
ATOM     85  C   UNL A   1      43.310  36.699  29.645  1.00  0.00     0.148 A 
ATOM     86  C   UNL A   1      44.051  37.275  32.294  1.00  0.00     0.002 A 
ATOM     87  C   UNL A   1      43.711  37.983  30.000  1.00  0.00     0.091 A 
ATOM     88  F   UNL A   1      42.912  36.405  28.399  1.00  0.00    -0.205 F 
ATOM     89  C   UNL A   1      44.069  38.276  31.325  1.00  0.00     0.022 A 
BRANCH  87  90
ATOM     90  S   UNL A   1      43.849  39.305  28.792  1.00  0.00     0.127 S 
ATOM     91  O   UNL A   1      44.430  40.382  29.593  1.00  0.00    -0.237 OA
ATOM     92  O   UNL A   1      44.754  38.731  27.796  1.00  0.00    -0.237 OA
ATOM     93  O   UNL A   1      42.495  39.539  28.307  1.00  0.00    -0.744 OA
ENDBRANCH  87  90
ENDBRANCH  60  83
ENDBRANCH  34  35
ENDBRANCH  26  29
ENDBRANCH  24  25
ENDBRANCH  23  24
ENDBRANCH   1  23
TORSDOF 18
ENDMDL
