MODEL 1
REMARK VINA RESULT:     -11.7      0.000      0.000
REMARK SMILES O=C(NCCCCCCNC(=O)c1cc(Br)ccc1NC(=O)c1ccc(Br)s1)c1ccc(-c2c3nc(c(-c4cccc(S(=O)(=O)[O-])c4F)c4ccc([nH]4)c(-c4cccc(S(=O)(=O)[O-])c4F)c4nc(c(-c5cccc(S(=O)(=O)[O-])c5F)c5ccc2[nH]5)C=C4)C=C3)cc1
REMARK SMILES IDX 6 1 5 2 4 3 3 4 1 5 2 6 29 8 30 9 91 10 31 11 90 12 32 13
REMARK SMILES IDX 33 14 34 15 84 16 35 17 89 18 83 19 85 20 36 21 88 22 82 23
REMARK SMILES IDX 81 24 37 26 69 27 49 28 68 29 50 30 53 31 67 32 86 33 51 34
REMARK SMILES IDX 52 35 66 37 87 38 54 39 38 40 39 41 47 42 40 43 42 44 48 45
REMARK SMILES IDX 41 46 43 47 44 48 45 49 46 50 70 51 71 52 79 53 72 54 74 55
REMARK SMILES IDX 80 56 73 57 75 58 76 59 77 60 78 61 55 62 56 63 64 64 57 65
REMARK SMILES IDX 59 66 65 67 58 68 60 69 61 70 62 71 63 72 7 73 8 74 9 75
REMARK SMILES IDX 10 76 11 77 12 79 13 80 14 81 19 82 15 83 18 84 16 85 17 86
REMARK SMILES IDX 20 87 21 88 22 90 23 91 24 92 28 93 25 94 26 95 27 96
REMARK H PARENT 3 7 85 25 53 36 10 78 20 89
REMARK Flexibility Score: inf
ROOT
ATOM      1  C   UNL A   1      31.530  30.212  26.526  1.00  0.00     0.002 C 
ENDROOT
BRANCH   1   2
ATOM      2  C   UNL A   1      31.409  31.736  26.501  1.00  0.00     0.021 C 
BRANCH   2   3
ATOM      3  C   UNL A   1      32.696  32.483  26.825  1.00  0.00     0.116 C 
BRANCH   3   4
ATOM      4  N   UNL A   1      32.439  33.822  27.325  1.00  0.00    -0.352 N 
ATOM      5  O   UNL A   1      32.528  35.516  28.805  1.00  0.00    -0.269 OA
ATOM      6  C   UNL A   1      33.010  34.464  28.395  1.00  0.00     0.251 C 
ATOM      7  H   UNL A   1      31.763  34.340  26.829  1.00  0.00     0.163 HD
BRANCH   6   8
ATOM      8  C   UNL A   1      34.195  33.871  29.054  1.00  0.00     0.039 A 
ATOM      9  C   UNL A   1      34.048  32.821  29.965  1.00  0.00     0.014 A 
ATOM     10  C   UNL A   1      35.467  34.352  28.734  1.00  0.00     0.014 A 
ATOM     11  C   UNL A   1      35.160  32.320  30.634  1.00  0.00     0.010 A 
ATOM     12  C   UNL A   1      36.592  33.793  29.348  1.00  0.00     0.010 A 
ATOM     13  C   UNL A   1      36.446  32.778  30.307  1.00  0.00    -0.014 A 
BRANCH  13  14
ATOM     14  C   UNL A   1      37.631  32.079  30.863  1.00  0.00     0.031 A 
ATOM     15  C   UNL A   1      38.370  31.033  30.080  1.00  0.00     0.074 A 
ATOM     16  C   UNL A   1      38.002  32.375  32.125  1.00  0.00     0.049 A 
ATOM     17  N   UNL A   1      39.404  30.319  30.444  1.00  0.00    -0.248 NA
ATOM     18  C   UNL A   1      37.891  30.742  28.719  1.00  0.00     0.031 C 
ATOM     19  C   UNL A   1      37.316  33.336  32.997  1.00  0.00     0.029 A 
ATOM     20  N   UNL A   1      39.018  31.889  32.905  1.00  0.00    -0.354 N 
ATOM     21  C   UNL A   1      39.673  29.464  29.383  1.00  0.00     0.074 A 
ATOM     22  C   UNL A   1      38.700  29.755  28.352  1.00  0.00     0.031 C 
ATOM     23  C   UNL A   1      37.928  33.363  34.190  1.00  0.00     0.029 A 
ATOM     24  C   UNL A   1      39.007  32.385  34.189  1.00  0.00     0.049 A 
ATOM     25  H   UNL A   1      39.691  31.248  32.579  1.00  0.00     0.167 HD
ATOM     26  C   UNL A   1      40.646  28.527  29.285  1.00  0.00     0.034 A 
ATOM     27  C   UNL A   1      39.752  32.061  35.262  1.00  0.00     0.034 A 
ATOM     28  C   UNL A   1      41.630  28.274  30.305  1.00  0.00     0.049 A 
ATOM     29  C   UNL A   1      40.826  31.024  35.111  1.00  0.00     0.074 A 
ATOM     30  C   UNL A   1      42.727  27.432  30.247  1.00  0.00     0.029 A 
ATOM     31  N   UNL A   1      41.621  28.832  31.573  1.00  0.00    -0.354 N 
ATOM     32  N   UNL A   1      41.185  30.363  34.037  1.00  0.00    -0.248 NA
ATOM     33  C   UNL A   1      41.611  30.699  36.309  1.00  0.00     0.031 C 
ATOM     34  C   UNL A   1      43.357  27.449  31.495  1.00  0.00     0.029 A 
ATOM     35  C   UNL A   1      42.670  28.322  32.320  1.00  0.00     0.049 A 
ATOM     36  H   UNL A   1      40.966  29.492  31.895  1.00  0.00     0.167 HD
ATOM     37  C   UNL A   1      42.244  29.555  34.427  1.00  0.00     0.074 A 
ATOM     38  C   UNL A   1      42.495  29.838  35.826  1.00  0.00     0.031 C 
ATOM     39  C   UNL A   1      42.933  28.642  33.700  1.00  0.00     0.034 A 
BRANCH  26  40
ATOM     40  C   UNL A   1      40.735  27.709  28.024  1.00  0.00     0.023 A 
ATOM     41  C   UNL A   1      41.367  28.246  26.885  1.00  0.00     0.012 A 
ATOM     42  C   UNL A   1      40.311  26.364  28.012  1.00  0.00     0.148 A 
ATOM     43  C   UNL A   1      41.569  27.459  25.750  1.00  0.00     0.002 A 
ATOM     44  C   UNL A   1      40.548  25.578  26.892  1.00  0.00     0.091 A 
ATOM     45  F   UNL A   1      39.698  25.880  29.102  1.00  0.00    -0.205 F 
ATOM     46  C   UNL A   1      41.172  26.125  25.758  1.00  0.00     0.022 A 
BRANCH  44  47
ATOM     47  S   UNL A   1      40.147  23.827  26.828  1.00  0.00     0.127 S 
ATOM     48  O   UNL A   1      41.142  23.333  25.878  1.00  0.00    -0.237 OA
ATOM     49  O   UNL A   1      40.366  23.412  28.213  1.00  0.00    -0.237 OA
ATOM     50  O   UNL A   1      38.765  23.746  26.377  1.00  0.00    -0.744 OA
ENDBRANCH  44  47
ENDBRANCH  26  40
BRANCH  27  51
ATOM     51  C   UNL A   1      39.500  32.726  36.570  1.00  0.00     0.023 A 
ATOM     52  C   UNL A   1      40.211  33.892  36.909  1.00  0.00     0.012 A 
ATOM     53  C   UNL A   1      38.538  32.222  37.467  1.00  0.00     0.148 A 
ATOM     54  C   UNL A   1      39.993  34.524  38.134  1.00  0.00     0.002 A 
ATOM     55  C   UNL A   1      38.281  32.891  38.657  1.00  0.00     0.091 A 
ATOM     56  F   UNL A   1      37.884  31.099  37.137  1.00  0.00    -0.205 F 
ATOM     57  C   UNL A   1      39.020  34.031  39.002  1.00  0.00     0.022 A 
BRANCH  55  58
ATOM     58  S   UNL A   1      36.943  32.402  39.751  1.00  0.00     0.127 S 
ATOM     59  O   UNL A   1      37.401  31.097  40.219  1.00  0.00    -0.237 OA
ATOM     60  O   UNL A   1      36.967  33.462  40.760  1.00  0.00    -0.237 OA
ATOM     61  O   UNL A   1      35.747  32.401  38.919  1.00  0.00    -0.744 OA
ENDBRANCH  55  58
ENDBRANCH  27  51
BRANCH  39  62
ATOM     62  C   UNL A   1      44.027  27.882  34.399  1.00  0.00     0.023 A 
ATOM     63  C   UNL A   1      45.292  28.482  34.562  1.00  0.00     0.012 A 
ATOM     64  C   UNL A   1      43.784  26.612  34.954  1.00  0.00     0.148 A 
ATOM     65  C   UNL A   1      46.308  27.815  35.243  1.00  0.00     0.002 A 
ATOM     66  C   UNL A   1      44.787  25.974  35.674  1.00  0.00     0.091 A 
ATOM     67  F   UNL A   1      42.578  26.055  34.773  1.00  0.00    -0.205 F 
ATOM     68  C   UNL A   1      46.052  26.568  35.809  1.00  0.00     0.022 A 
BRANCH  66  69
ATOM     69  S   UNL A   1      44.525  24.410  36.517  1.00  0.00     0.127 S 
ATOM     70  O   UNL A   1      45.898  23.955  36.734  1.00  0.00    -0.237 OA
ATOM     71  O   UNL A   1      43.822  24.827  37.730  1.00  0.00    -0.237 OA
ATOM     72  O   UNL A   1      43.736  23.589  35.609  1.00  0.00    -0.744 OA
ENDBRANCH  66  69
ENDBRANCH  39  62
ENDBRANCH  13  14
ENDBRANCH   6   8
ENDBRANCH   3   4
ENDBRANCH   2   3
ENDBRANCH   1   2
BRANCH   1  73
ATOM     73  C   UNL A   1      32.739  29.661  27.288  1.00  0.00     0.002 C 
BRANCH  73  74
ATOM     74  C   UNL A   1      33.904  29.188  26.415  1.00  0.00     0.021 C 
BRANCH  74  75
ATOM     75  C   UNL A   1      33.535  28.150  25.358  1.00  0.00     0.116 C 
BRANCH  75  76
ATOM     76  N   UNL A   1      34.200  28.394  24.085  1.00  0.00    -0.352 N 
ATOM     77  C   UNL A   1      33.647  28.419  22.827  1.00  0.00     0.253 C 
ATOM     78  H   UNL A   1      35.168  28.565  24.132  1.00  0.00     0.163 HD
ATOM     79  O   UNL A   1      34.349  28.449  21.822  1.00  0.00    -0.269 OA
BRANCH  77  80
ATOM     80  C   UNL A   1      32.178  28.335  22.698  1.00  0.00     0.064 A 
ATOM     81  C   UNL A   1      31.430  29.489  22.982  1.00  0.00     0.031 A 
ATOM     82  C   UNL A   1      31.556  27.114  22.378  1.00  0.00     0.054 A 
ATOM     83  C   UNL A   1      30.050  29.396  23.083  1.00  0.00     0.018 A 
ATOM     84  C   UNL A   1      30.177  27.034  22.594  1.00  0.00     0.028 A 
ATOM     85  Br  UNL A   1      29.030  30.929  23.502  1.00  0.00    -0.051 Br
ATOM     86  C   UNL A   1      29.425  28.166  22.932  1.00  0.00     0.018 A 
BRANCH  82  87
ATOM     87  N   UNL A   1      32.339  26.041  21.889  1.00  0.00    -0.321 N 
ATOM     88  C   UNL A   1      32.890  24.922  22.486  1.00  0.00     0.265 C 
ATOM     89  H   UNL A   1      32.532  26.105  20.925  1.00  0.00     0.170 HD
ATOM     90  O   UNL A   1      33.661  24.236  21.813  1.00  0.00    -0.268 OA
BRANCH  88  91
ATOM     91  C   UNL A   1      32.506  24.556  23.833  1.00  0.00     0.093 A 
ATOM     92  C   UNL A   1      33.189  24.737  25.025  1.00  0.00     0.027 A 
ATOM     93  S   UNL A   1      30.993  23.789  24.088  1.00  0.00    -0.123 S 
ATOM     94  C   UNL A   1      32.529  24.106  26.123  1.00  0.00     0.028 A 
ATOM     95  C   UNL A   1      31.342  23.543  25.728  1.00  0.00     0.071 A 
ATOM     96  Br  UNL A   1      30.216  22.586  26.878  1.00  0.00    -0.039 Br
ENDBRANCH  88  91
ENDBRANCH  82  87
ENDBRANCH  77  80
ENDBRANCH  75  76
ENDBRANCH  74  75
ENDBRANCH  73  74
ENDBRANCH   1  73
TORSDOF 18
ENDMDL
MODEL 2
REMARK VINA RESULT:     -11.4      2.213      2.683
REMARK SMILES O=C(NCCCCCCNC(=O)c1cc(Br)ccc1NC(=O)c1ccc(Br)s1)c1ccc(-c2c3nc(c(-c4cccc(S(=O)(=O)[O-])c4F)c4ccc([nH]4)c(-c4cccc(S(=O)(=O)[O-])c4F)c4nc(c(-c5cccc(S(=O)(=O)[O-])c5F)c5ccc2[nH]5)C=C4)C=C3)cc1
REMARK SMILES IDX 6 1 5 2 4 3 3 4 1 5 2 6 29 8 30 9 91 10 31 11 90 12 32 13
REMARK SMILES IDX 33 14 34 15 84 16 35 17 89 18 83 19 85 20 36 21 88 22 82 23
REMARK SMILES IDX 81 24 37 26 69 27 49 28 68 29 50 30 53 31 67 32 86 33 51 34
REMARK SMILES IDX 52 35 66 37 87 38 54 39 38 40 39 41 47 42 40 43 42 44 48 45
REMARK SMILES IDX 41 46 43 47 44 48 45 49 46 50 70 51 71 52 79 53 72 54 74 55
REMARK SMILES IDX 80 56 73 57 75 58 76 59 77 60 78 61 55 62 56 63 64 64 57 65
REMARK SMILES IDX 59 66 65 67 58 68 60 69 61 70 62 71 63 72 7 73 8 74 9 75
REMARK SMILES IDX 10 76 11 77 12 79 13 80 14 81 19 82 15 83 18 84 16 85 17 86
REMARK SMILES IDX 20 87 21 88 22 90 23 91 24 92 28 93 25 94 26 95 27 96
REMARK H PARENT 3 7 85 25 53 36 10 78 20 89
REMARK Flexibility Score: inf
ROOT
ATOM      1  C   UNL A   1      31.852  30.411  25.974  1.00  0.00     0.002 C 
ENDROOT
BRANCH   1   2
ATOM      2  C   UNL A   1      31.564  31.773  26.606  1.00  0.00     0.021 C 
BRANCH   2   3
ATOM      3  C   UNL A   1      32.755  32.419  27.301  1.00  0.00     0.116 C 
BRANCH   3   4
ATOM      4  N   UNL A   1      32.504  33.809  27.636  1.00  0.00    -0.352 N 
ATOM      5  O   UNL A   1      32.618  35.675  28.892  1.00  0.00    -0.269 OA
ATOM      6  C   UNL A   1      33.096  34.580  28.606  1.00  0.00     0.251 C 
ATOM      7  H   UNL A   1      31.818  34.261  27.093  1.00  0.00     0.163 HD
BRANCH   6   8
ATOM      8  C   UNL A   1      34.295  34.074  29.309  1.00  0.00     0.039 A 
ATOM      9  C   UNL A   1      34.164  33.273  30.447  1.00  0.00     0.014 A 
ATOM     10  C   UNL A   1      35.562  34.382  28.807  1.00  0.00     0.014 A 
ATOM     11  C   UNL A   1      35.297  32.863  31.143  1.00  0.00     0.010 A 
ATOM     12  C   UNL A   1      36.700  33.903  29.463  1.00  0.00     0.010 A 
ATOM     13  C   UNL A   1      36.576  33.146  30.638  1.00  0.00    -0.014 A 
BRANCH  13  14
ATOM     14  C   UNL A   1      37.762  32.514  31.267  1.00  0.00     0.031 A 
ATOM     15  C   UNL A   1      38.472  31.356  30.627  1.00  0.00     0.074 A 
ATOM     16  C   UNL A   1      38.162  32.979  32.468  1.00  0.00     0.049 A 
ATOM     17  N   UNL A   1      39.503  30.684  31.070  1.00  0.00    -0.248 NA
ATOM     18  C   UNL A   1      37.962  30.883  29.329  1.00  0.00     0.031 C 
ATOM     19  C   UNL A   1      37.506  34.064  33.208  1.00  0.00     0.029 A 
ATOM     20  N   UNL A   1      39.187  32.592  33.291  1.00  0.00    -0.354 N 
ATOM     21  C   UNL A   1      39.740  29.684  30.136  1.00  0.00     0.074 A 
ATOM     22  C   UNL A   1      38.750  29.842  29.091  1.00  0.00     0.031 C 
ATOM     23  C   UNL A   1      38.141  34.250  34.373  1.00  0.00     0.029 A 
ATOM     24  C   UNL A   1      39.207  33.264  34.491  1.00  0.00     0.049 A 
ATOM     25  H   UNL A   1      39.844  31.900  33.047  1.00  0.00     0.167 HD
ATOM     26  C   UNL A   1      40.699  28.727  30.154  1.00  0.00     0.034 A 
ATOM     27  C   UNL A   1      39.970  33.083  35.586  1.00  0.00     0.034 A 
ATOM     28  C   UNL A   1      41.699  28.605  31.182  1.00  0.00     0.049 A 
ATOM     29  C   UNL A   1      41.026  32.017  35.564  1.00  0.00     0.074 A 
ATOM     30  C   UNL A   1      42.783  27.746  31.224  1.00  0.00     0.029 A 
ATOM     31  N   UNL A   1      41.723  29.336  32.358  1.00  0.00    -0.354 N 
ATOM     32  N   UNL A   1      41.356  31.207  34.588  1.00  0.00    -0.248 NA
ATOM     33  C   UNL A   1      41.830  31.853  36.782  1.00  0.00     0.031 C 
ATOM     34  C   UNL A   1      43.438  27.929  32.446  1.00  0.00     0.029 A 
ATOM     35  C   UNL A   1      42.779  28.921  33.151  1.00  0.00     0.049 A 
ATOM     36  H   UNL A   1      41.083  30.046  32.595  1.00  0.00     0.167 HD
ATOM     37  C   UNL A   1      42.411  30.445  35.070  1.00  0.00     0.074 A 
ATOM     38  C   UNL A   1      42.693  30.919  36.410  1.00  0.00     0.031 C 
ATOM     39  C   UNL A   1      43.073  29.428  34.467  1.00  0.00     0.034 A 
BRANCH  26  40
ATOM     40  C   UNL A   1      40.752  27.738  29.020  1.00  0.00     0.023 A 
ATOM     41  C   UNL A   1      39.776  26.726  28.928  1.00  0.00     0.012 A 
ATOM     42  C   UNL A   1      41.687  27.896  27.977  1.00  0.00     0.148 A 
ATOM     43  C   UNL A   1      39.736  25.879  27.820  1.00  0.00     0.002 A 
ATOM     44  C   UNL A   1      41.618  27.072  26.860  1.00  0.00     0.091 A 
ATOM     45  F   UNL A   1      42.615  28.856  28.092  1.00  0.00    -0.205 F 
ATOM     46  C   UNL A   1      40.646  26.060  26.782  1.00  0.00     0.022 A 
BRANCH  44  47
ATOM     47  S   UNL A   1      42.693  27.272  25.433  1.00  0.00     0.127 S 
ATOM     48  O   UNL A   1      42.118  28.457  24.798  1.00  0.00    -0.237 OA
ATOM     49  O   UNL A   1      43.996  27.487  26.060  1.00  0.00    -0.237 OA
ATOM     50  O   UNL A   1      42.578  26.040  24.666  1.00  0.00    -0.744 OA
ENDBRANCH  44  47
ENDBRANCH  26  40
BRANCH  27  51
ATOM     51  C   UNL A   1      39.751  33.929  36.791  1.00  0.00     0.023 A 
ATOM     52  C   UNL A   1      40.146  35.281  36.776  1.00  0.00     0.012 A 
ATOM     53  C   UNL A   1      39.130  33.408  37.943  1.00  0.00     0.148 A 
ATOM     54  C   UNL A   1      39.957  36.087  37.899  1.00  0.00     0.002 A 
ATOM     55  C   UNL A   1      38.888  34.232  39.035  1.00  0.00     0.091 A 
ATOM     56  F   UNL A   1      38.779  32.114  37.948  1.00  0.00    -0.205 F 
ATOM     57  C   UNL A   1      39.317  35.567  39.022  1.00  0.00     0.022 A 
BRANCH  55  58
ATOM     58  S   UNL A   1      37.939  33.674  40.453  1.00  0.00     0.127 S 
ATOM     59  O   UNL A   1      36.726  33.166  39.820  1.00  0.00    -0.237 OA
ATOM     60  O   UNL A   1      38.814  32.649  41.025  1.00  0.00    -0.237 OA
ATOM     61  O   UNL A   1      37.777  34.853  41.295  1.00  0.00    -0.744 OA
ENDBRANCH  55  58
ENDBRANCH  27  51
BRANCH  39  62
ATOM     62  C   UNL A   1      44.170  28.757  35.247  1.00  0.00     0.023 A 
ATOM     63  C   UNL A   1      45.498  29.210  35.107  1.00  0.00     0.012 A 
ATOM     64  C   UNL A   1      43.881  27.732  36.167  1.00  0.00     0.148 A 
ATOM     65  C   UNL A   1      46.525  28.633  35.850  1.00  0.00     0.002 A 
ATOM     66  C   UNL A   1      44.903  27.195  36.941  1.00  0.00     0.091 A 
ATOM     67  F   UNL A   1      42.614  27.306  36.272  1.00  0.00    -0.205 F 
ATOM     68  C   UNL A   1      46.226  27.635  36.775  1.00  0.00     0.022 A 
BRANCH  66  69
ATOM     69  S   UNL A   1      44.604  25.972  38.221  1.00  0.00     0.127 S 
ATOM     70  O   UNL A   1      44.227  24.799  37.432  1.00  0.00    -0.237 OA
ATOM     71  O   UNL A   1      45.911  25.877  38.869  1.00  0.00    -0.237 OA
ATOM     72  O   UNL A   1      43.547  26.517  39.063  1.00  0.00    -0.744 OA
ENDBRANCH  66  69
ENDBRANCH  39  62
ENDBRANCH  13  14
ENDBRANCH   6   8
ENDBRANCH   3   4
ENDBRANCH   2   3
ENDBRANCH   1   2
BRANCH   1  73
ATOM     73  C   UNL A   1      32.641  29.434  26.851  1.00  0.00     0.002 C 
BRANCH  73  74
ATOM     74  C   UNL A   1      31.797  28.423  27.631  1.00  0.00     0.021 C 
BRANCH  74  75
ATOM     75  C   UNL A   1      31.884  26.986  27.124  1.00  0.00     0.116 C 
BRANCH  75  76
ATOM     76  N   UNL A   1      30.629  26.525  26.545  1.00  0.00    -0.352 N 
ATOM     77  C   UNL A   1      30.392  26.090  25.264  1.00  0.00     0.253 C 
ATOM     78  H   UNL A   1      29.853  26.523  27.151  1.00  0.00     0.163 HD
ATOM     79  O   UNL A   1      29.251  25.908  24.853  1.00  0.00    -0.269 OA
BRANCH  77  80
ATOM     80  C   UNL A   1      31.541  25.910  24.354  1.00  0.00     0.064 A 
ATOM     81  C   UNL A   1      32.210  27.061  23.909  1.00  0.00     0.031 A 
ATOM     82  C   UNL A   1      31.894  24.628  23.891  1.00  0.00     0.054 A 
ATOM     83  C   UNL A   1      33.148  26.953  22.893  1.00  0.00     0.018 A 
ATOM     84  C   UNL A   1      32.762  24.570  22.798  1.00  0.00     0.028 A 
ATOM     85  Br  UNL A   1      34.030  28.495  22.255  1.00  0.00    -0.051 Br
ATOM     86  C   UNL A   1      33.395  25.719  22.307  1.00  0.00     0.018 A 
BRANCH  82  87
ATOM     87  N   UNL A   1      31.347  23.486  24.523  1.00  0.00    -0.321 N 
ATOM     88  C   UNL A   1      31.909  22.417  25.197  1.00  0.00     0.265 C 
ATOM     89  H   UNL A   1      30.364  23.442  24.471  1.00  0.00     0.170 HD
ATOM     90  O   UNL A   1      31.166  21.485  25.511  1.00  0.00    -0.268 OA
BRANCH  88  91
ATOM     91  C   UNL A   1      33.309  22.448  25.566  1.00  0.00     0.093 A 
ATOM     92  C   UNL A   1      33.956  23.235  26.506  1.00  0.00     0.027 A 
ATOM     93  S   UNL A   1      34.399  21.379  24.784  1.00  0.00    -0.123 S 
ATOM     94  C   UNL A   1      35.372  23.059  26.467  1.00  0.00     0.028 A 
ATOM     95  C   UNL A   1      35.726  22.095  25.557  1.00  0.00     0.071 A 
ATOM     96  Br  UNL A   1      37.499  21.619  25.190  1.00  0.00    -0.039 Br
ENDBRANCH  88  91
ENDBRANCH  82  87
ENDBRANCH  77  80
ENDBRANCH  75  76
ENDBRANCH  74  75
ENDBRANCH  73  74
ENDBRANCH   1  73
TORSDOF 18
ENDMDL
MODEL 3
REMARK VINA RESULT:     -11.4      2.044      2.367
REMARK SMILES O=C(NCCCCCCNC(=O)c1cc(Br)ccc1NC(=O)c1ccc(Br)s1)c1ccc(-c2c3nc(c(-c4cccc(S(=O)(=O)[O-])c4F)c4ccc([nH]4)c(-c4cccc(S(=O)(=O)[O-])c4F)c4nc(c(-c5cccc(S(=O)(=O)[O-])c5F)c5ccc2[nH]5)C=C4)C=C3)cc1
REMARK SMILES IDX 6 1 5 2 4 3 3 4 1 5 2 6 29 8 30 9 91 10 31 11 90 12 32 13
REMARK SMILES IDX 33 14 34 15 84 16 35 17 89 18 83 19 85 20 36 21 88 22 82 23
REMARK SMILES IDX 81 24 37 26 69 27 49 28 68 29 50 30 53 31 67 32 86 33 51 34
REMARK SMILES IDX 52 35 66 37 87 38 54 39 38 40 39 41 47 42 40 43 42 44 48 45
REMARK SMILES IDX 41 46 43 47 44 48 45 49 46 50 70 51 71 52 79 53 72 54 74 55
REMARK SMILES IDX 80 56 73 57 75 58 76 59 77 60 78 61 55 62 56 63 64 64 57 65
REMARK SMILES IDX 59 66 65 67 58 68 60 69 61 70 62 71 63 72 7 73 8 74 9 75
REMARK SMILES IDX 10 76 11 77 12 79 13 80 14 81 19 82 15 83 18 84 16 85 17 86
REMARK SMILES IDX 20 87 21 88 22 90 23 91 24 92 28 93 25 94 26 95 27 96
REMARK H PARENT 3 7 85 25 53 36 10 78 20 89
REMARK Flexibility Score: inf
ROOT
ATOM      1  C   UNL A   1      31.772  30.251  26.681  1.00  0.00     0.002 C 
ENDROOT
BRANCH   1   2
ATOM      2  C   UNL A   1      31.695  31.778  26.693  1.00  0.00     0.021 C 
BRANCH   2   3
ATOM      3  C   UNL A   1      32.921  32.474  27.268  1.00  0.00     0.116 C 
BRANCH   3   4
ATOM      4  N   UNL A   1      32.638  33.843  27.662  1.00  0.00    -0.352 N 
ATOM      5  O   UNL A   1      32.691  35.648  29.007  1.00  0.00    -0.269 OA
ATOM      6  C   UNL A   1      33.194  34.576  28.680  1.00  0.00     0.251 C 
ATOM      7  H   UNL A   1      31.954  34.308  27.127  1.00  0.00     0.163 HD
BRANCH   6   8
ATOM      8  C   UNL A   1      34.388  34.059  29.384  1.00  0.00     0.039 A 
ATOM      9  C   UNL A   1      34.248  33.238  30.507  1.00  0.00     0.014 A 
ATOM     10  C   UNL A   1      35.660  34.376  28.898  1.00  0.00     0.014 A 
ATOM     11  C   UNL A   1      35.375  32.817  31.205  1.00  0.00     0.010 A 
ATOM     12  C   UNL A   1      36.792  33.886  29.555  1.00  0.00     0.010 A 
ATOM     13  C   UNL A   1      36.658  33.109  30.717  1.00  0.00    -0.014 A 
BRANCH  13  14
ATOM     14  C   UNL A   1      37.840  32.466  31.344  1.00  0.00     0.031 A 
ATOM     15  C   UNL A   1      38.545  31.309  30.697  1.00  0.00     0.074 A 
ATOM     16  C   UNL A   1      38.239  32.921  32.548  1.00  0.00     0.049 A 
ATOM     17  N   UNL A   1      39.572  30.629  31.138  1.00  0.00    -0.248 NA
ATOM     18  C   UNL A   1      38.036  30.848  29.395  1.00  0.00     0.031 C 
ATOM     19  C   UNL A   1      37.587  34.004  33.294  1.00  0.00     0.029 A 
ATOM     20  N   UNL A   1      39.260  32.522  33.371  1.00  0.00    -0.354 N 
ATOM     21  C   UNL A   1      39.806  29.633  30.198  1.00  0.00     0.074 A 
ATOM     22  C   UNL A   1      38.820  29.804  29.152  1.00  0.00     0.031 C 
ATOM     23  C   UNL A   1      38.220  34.178  34.463  1.00  0.00     0.029 A 
ATOM     24  C   UNL A   1      39.281  33.187  34.577  1.00  0.00     0.049 A 
ATOM     25  H   UNL A   1      39.914  31.829  33.125  1.00  0.00     0.167 HD
ATOM     26  C   UNL A   1      40.760  28.672  30.212  1.00  0.00     0.034 A 
ATOM     27  C   UNL A   1      40.039  32.993  35.672  1.00  0.00     0.034 A 
ATOM     28  C   UNL A   1      41.757  28.538  31.242  1.00  0.00     0.049 A 
ATOM     29  C   UNL A   1      41.090  31.923  35.645  1.00  0.00     0.074 A 
ATOM     30  C   UNL A   1      42.836  27.672  31.281  1.00  0.00     0.029 A 
ATOM     31  N   UNL A   1      41.781  29.260  32.423  1.00  0.00    -0.354 N 
ATOM     32  N   UNL A   1      41.418  31.117  34.665  1.00  0.00    -0.248 NA
ATOM     33  C   UNL A   1      41.890  31.746  36.864  1.00  0.00     0.031 C 
ATOM     34  C   UNL A   1      43.489  27.843  32.505  1.00  0.00     0.029 A 
ATOM     35  C   UNL A   1      42.833  28.834  33.216  1.00  0.00     0.049 A 
ATOM     36  H   UNL A   1      41.144  29.971  32.663  1.00  0.00     0.167 HD
ATOM     37  C   UNL A   1      42.468  30.347  35.144  1.00  0.00     0.074 A 
ATOM     38  C   UNL A   1      42.749  30.810  36.488  1.00  0.00     0.031 C 
ATOM     39  C   UNL A   1      43.126  29.330  34.536  1.00  0.00     0.034 A 
BRANCH  26  40
ATOM     40  C   UNL A   1      40.810  27.690  29.071  1.00  0.00     0.023 A 
ATOM     41  C   UNL A   1      39.867  26.646  29.004  1.00  0.00     0.012 A 
ATOM     42  C   UNL A   1      41.708  27.884  28.001  1.00  0.00     0.148 A 
ATOM     43  C   UNL A   1      39.821  25.804  27.893  1.00  0.00     0.002 A 
ATOM     44  C   UNL A   1      41.631  27.064  26.882  1.00  0.00     0.091 A 
ATOM     45  F   UNL A   1      42.606  28.874  28.093  1.00  0.00    -0.205 F 
ATOM     46  C   UNL A   1      40.692  26.020  26.829  1.00  0.00     0.022 A 
BRANCH  44  47
ATOM     47  S   UNL A   1      42.654  27.306  25.424  1.00  0.00     0.127 S 
ATOM     48  O   UNL A   1      42.394  26.077  24.677  1.00  0.00    -0.237 OA
ATOM     49  O   UNL A   1      42.070  28.512  24.838  1.00  0.00    -0.237 OA
ATOM     50  O   UNL A   1      44.018  27.460  25.910  1.00  0.00    -0.744 OA
ENDBRANCH  44  47
ENDBRANCH  26  40
BRANCH  27  51
ATOM     51  C   UNL A   1      39.822  33.833  36.883  1.00  0.00     0.023 A 
ATOM     52  C   UNL A   1      38.749  33.547  37.747  1.00  0.00     0.012 A 
ATOM     53  C   UNL A   1      40.691  34.897  37.194  1.00  0.00     0.148 A 
ATOM     54  C   UNL A   1      38.526  34.328  38.882  1.00  0.00     0.002 A 
ATOM     55  C   UNL A   1      40.500  35.631  38.358  1.00  0.00     0.091 A 
ATOM     56  F   UNL A   1      41.696  35.168  36.349  1.00  0.00    -0.205 F 
ATOM     57  C   UNL A   1      39.407  35.361  39.194  1.00  0.00     0.022 A 
BRANCH  55  58
ATOM     58  S   UNL A   1      41.677  36.874  38.900  1.00  0.00     0.127 S 
ATOM     59  O   UNL A   1      42.448  36.141  39.899  1.00  0.00    -0.237 OA
ATOM     60  O   UNL A   1      42.397  37.176  37.663  1.00  0.00    -0.237 OA
ATOM     61  O   UNL A   1      40.867  37.979  39.399  1.00  0.00    -0.744 OA
ENDBRANCH  55  58
ENDBRANCH  27  51
BRANCH  39  62
ATOM     62  C   UNL A   1      44.218  28.648  35.314  1.00  0.00     0.023 A 
ATOM     63  C   UNL A   1      45.549  29.095  35.179  1.00  0.00     0.012 A 
ATOM     64  C   UNL A   1      43.921  27.620  36.228  1.00  0.00     0.148 A 
ATOM     65  C   UNL A   1      46.571  28.507  35.921  1.00  0.00     0.002 A 
ATOM     66  C   UNL A   1      44.938  27.072  37.000  1.00  0.00     0.091 A 
ATOM     67  F   UNL A   1      42.652  27.201  36.328  1.00  0.00    -0.205 F 
ATOM     68  C   UNL A   1      46.264  27.506  36.839  1.00  0.00     0.022 A 
BRANCH  66  69
ATOM     69  S   UNL A   1      44.629  25.844  38.273  1.00  0.00     0.127 S 
ATOM     70  O   UNL A   1      43.817  24.864  37.552  1.00  0.00    -0.237 OA
ATOM     71  O   UNL A   1      45.981  25.391  38.601  1.00  0.00    -0.237 OA
ATOM     72  O   UNL A   1      43.945  26.543  39.352  1.00  0.00    -0.744 OA
ENDBRANCH  66  69
ENDBRANCH  39  62
ENDBRANCH  13  14
ENDBRANCH   6   8
ENDBRANCH   3   4
ENDBRANCH   2   3
ENDBRANCH   1   2
BRANCH   1  73
ATOM     73  C   UNL A   1      33.033  29.652  27.312  1.00  0.00     0.002 C 
BRANCH  73  74
ATOM     74  C   UNL A   1      34.116  29.214  26.324  1.00  0.00     0.021 C 
BRANCH  74  75
ATOM     75  C   UNL A   1      33.669  28.177  25.297  1.00  0.00     0.116 C 
BRANCH  75  76
ATOM     76  N   UNL A   1      34.276  28.392  23.990  1.00  0.00    -0.352 N 
ATOM     77  C   UNL A   1      33.665  28.408  22.760  1.00  0.00     0.253 C 
ATOM     78  H   UNL A   1      35.248  28.547  23.989  1.00  0.00     0.163 HD
ATOM     79  O   UNL A   1      34.319  28.413  21.723  1.00  0.00    -0.269 OA
BRANCH  77  80
ATOM     80  C   UNL A   1      32.190  28.348  22.702  1.00  0.00     0.064 A 
ATOM     81  C   UNL A   1      31.475  29.517  23.003  1.00  0.00     0.031 A 
ATOM     82  C   UNL A   1      31.534  27.133  22.431  1.00  0.00     0.054 A 
ATOM     83  C   UNL A   1      30.100  29.450  23.172  1.00  0.00     0.018 A 
ATOM     84  C   UNL A   1      30.166  27.078  22.713  1.00  0.00     0.028 A 
ATOM     85  Br  UNL A   1      29.126  31.005  23.615  1.00  0.00    -0.051 Br
ATOM     86  C   UNL A   1      29.449  28.228  23.069  1.00  0.00     0.018 A 
BRANCH  82  87
ATOM     87  N   UNL A   1      32.275  26.040  21.921  1.00  0.00    -0.321 N 
ATOM     88  C   UNL A   1      32.813  24.906  22.504  1.00  0.00     0.265 C 
ATOM     89  H   UNL A   1      32.444  26.098  20.953  1.00  0.00     0.170 HD
ATOM     90  O   UNL A   1      33.547  24.201  21.811  1.00  0.00    -0.268 OA
BRANCH  88  91
ATOM     91  C   UNL A   1      32.456  24.551  23.862  1.00  0.00     0.093 A 
ATOM     92  C   UNL A   1      33.189  24.685  25.030  1.00  0.00     0.027 A 
ATOM     93  S   UNL A   1      30.913  23.865  24.164  1.00  0.00    -0.123 S 
ATOM     94  C   UNL A   1      32.533  24.081  26.146  1.00  0.00     0.028 A 
ATOM     95  C   UNL A   1      31.304  23.586  25.789  1.00  0.00     0.071 A 
ATOM     96  Br  UNL A   1      30.169  22.682  26.971  1.00  0.00    -0.039 Br
ENDBRANCH  88  91
ENDBRANCH  82  87
ENDBRANCH  77  80
ENDBRANCH  75  76
ENDBRANCH  74  75
ENDBRANCH  73  74
ENDBRANCH   1  73
TORSDOF 18
ENDMDL
