MODEL 1
REMARK VINA RESULT:     -12.4      0.000      0.000
REMARK SMILES O=C(NCCCCCCNC(=O)c1ccc(-c2c3nc(c(-c4cccc(S(=O)(=O)[O-])c4F)c4ccc([nH]4)c(-c4cccc(S(=O)(=O)[O-])c4F)c4nc(c(-c5cccc(S(=O)(=O)[O-])c5F)c5ccc2[nH]5)C=C4)C=C3)cc1)C1=Cc2cc(S(F)(F)(F)(F)F)cc(Br)c2O[C@H]1C(F)(F)F
REMARK SMILES IDX 7 1 6 2 5 3 4 4 3 5 1 6 2 7 76 9 77 10 92 11 78 12 91 13
REMARK SMILES IDX 79 14 90 15 80 16 88 17 87 18 89 19 93 20 94 21 95 22 96 23
REMARK SMILES IDX 81 24 82 25 83 26 84 27 85 28 86 29 8 30 9 31 10 32 11 33
REMARK SMILES IDX 12 35 13 36 14 37 75 38 15 39 74 40 16 41 17 42 18 43 68 44
REMARK SMILES IDX 19 45 73 46 67 47 69 48 20 49 72 50 66 51 65 52 21 54 53 55
REMARK SMILES IDX 33 56 52 57 34 58 37 59 51 60 70 61 35 62 36 63 50 65 71 66
REMARK SMILES IDX 38 67 22 68 23 69 31 70 24 71 26 72 32 73 25 74 27 75 28 76
REMARK SMILES IDX 29 77 30 78 54 79 55 80 63 81 56 82 58 83 64 84 57 85 59 86
REMARK SMILES IDX 60 87 61 88 62 89 39 90 40 91 48 92 41 93 43 94 49 95 42 96
REMARK SMILES IDX 44 97 45 98 46 99 47 100
REMARK H PARENT 3 8 10 34 69 53 37 64
REMARK Flexibility Score: inf
ROOT
ATOM      1  C   UNL A   1      31.804  30.467  25.939  1.00  0.00     0.002 C 
ENDROOT
BRANCH   1   2
ATOM      2  C   UNL A   1      32.613  29.554  26.846  1.00  0.00     0.002 C 
BRANCH   2   3
ATOM      3  C   UNL A   1      31.784  28.329  27.199  1.00  0.00     0.021 C 
BRANCH   3   4
ATOM      4  C   UNL A   1      32.400  27.098  26.554  1.00  0.00     0.116 C 
BRANCH   4   5
ATOM      5  N   UNL A   1      31.336  26.258  25.984  1.00  0.00    -0.352 N 
ATOM      6  O   UNL A   1      30.403  25.238  24.053  1.00  0.00    -0.270 OA
ATOM      7  C   UNL A   1      31.323  25.964  24.545  1.00  0.00     0.251 C 
ATOM      8  H   UNL A   1      30.633  25.892  26.568  1.00  0.00     0.163 HD
BRANCH   7   9
ATOM      9  C   UNL A   1      32.410  26.529  23.643  1.00  0.00     0.067 C 
ATOM     10  C   UNL A   1      33.631  25.930  23.593  1.00  0.00     0.025 C 
ATOM     11  C   UNL A   1      32.132  27.761  22.798  1.00  0.00     0.314 C 
ATOM     12  C   UNL A   1      33.909  24.697  24.439  1.00  0.00     0.020 A 
ATOM     13  O   UNL A   1      31.707  23.884  24.065  1.00  0.00    -0.474 OA
ATOM     14  C   UNL A   1      35.166  24.605  25.011  1.00  0.00     0.036 A 
ATOM     15  C   UNL A   1      33.040  23.697  24.520  1.00  0.00     0.142 A 
ATOM     16  C   UNL A   1      35.523  23.294  25.405  1.00  0.00     0.109 A 
ATOM     17  C   UNL A   1      33.417  22.484  25.042  1.00  0.00     0.062 A 
ATOM     18  C   UNL A   1      34.665  22.303  25.571  1.00  0.00     0.044 A 
ATOM     19  Br  UNL A   1      32.150  20.989  25.025  1.00  0.00    -0.047 Br
BRANCH  11  20
ATOM     20  C   UNL A   1      30.706  28.228  23.038  1.00  0.00     0.429 C 
ATOM     21  F   UNL A   1      30.544  29.454  22.547  1.00  0.00    -0.167 F 
ATOM     22  F   UNL A   1      29.910  27.382  22.390  1.00  0.00    -0.167 F 
ATOM     23  F   UNL A   1      30.398  28.225  24.332  1.00  0.00    -0.167 F 
ENDBRANCH  11  20
BRANCH  16  24
ATOM     24  S   UNL A   1      37.275  22.950  25.701  1.00  0.00     0.310 S 
ATOM     25  F   UNL A   1      37.726  24.217  24.861  1.00  0.00    -0.094 F 
ATOM     26  F   UNL A   1      37.306  22.132  24.355  1.00  0.00    -0.094 F 
ATOM     27  F   UNL A   1      38.780  22.653  25.949  1.00  0.00    -0.094 F 
ATOM     28  F   UNL A   1      37.258  23.888  26.972  1.00  0.00    -0.094 F 
ATOM     29  F   UNL A   1      35.775  23.351  25.403  1.00  0.00    -0.094 F 
ENDBRANCH  16  24
ENDBRANCH   7   9
ENDBRANCH   4   5
ENDBRANCH   3   4
ENDBRANCH   2   3
ENDBRANCH   1   2
BRANCH   1  30
ATOM     30  C   UNL A   1      31.407  31.719  26.704  1.00  0.00     0.021 C 
BRANCH  30  31
ATOM     31  C   UNL A   1      32.658  32.471  27.129  1.00  0.00     0.116 C 
BRANCH  31  32
ATOM     32  N   UNL A   1      32.304  33.857  27.470  1.00  0.00    -0.352 N 
ATOM     33  C   UNL A   1      33.106  34.601  28.452  1.00  0.00     0.251 C 
ATOM     34  H   UNL A   1      31.530  34.287  27.039  1.00  0.00     0.163 HD
ATOM     35  O   UNL A   1      32.800  35.799  28.745  1.00  0.00    -0.269 OA
BRANCH  33  36
ATOM     36  C   UNL A   1      34.300  33.937  29.116  1.00  0.00     0.039 A 
ATOM     37  C   UNL A   1      35.580  34.289  28.722  1.00  0.00     0.014 A 
ATOM     38  C   UNL A   1      34.097  33.028  30.064  1.00  0.00     0.014 A 
ATOM     39  C   UNL A   1      36.586  33.410  29.189  1.00  0.00     0.010 A 
ATOM     40  C   UNL A   1      35.145  32.301  30.572  1.00  0.00     0.010 A 
ATOM     41  C   UNL A   1      36.432  32.555  30.184  1.00  0.00    -0.014 A 
BRANCH  41  42
ATOM     42  C   UNL A   1      37.619  31.891  30.860  1.00  0.00     0.031 A 
ATOM     43  C   UNL A   1      38.220  30.809  30.214  1.00  0.00     0.074 A 
ATOM     44  C   UNL A   1      38.040  32.394  32.080  1.00  0.00     0.049 A 
ATOM     45  N   UNL A   1      39.284  30.111  30.614  1.00  0.00    -0.248 NA
ATOM     46  C   UNL A   1      37.755  30.250  28.935  1.00  0.00     0.031 C 
ATOM     47  C   UNL A   1      37.444  33.491  32.734  1.00  0.00     0.029 A 
ATOM     48  N   UNL A   1      39.077  31.946  32.866  1.00  0.00    -0.354 N 
ATOM     49  C   UNL A   1      39.574  29.161  29.721  1.00  0.00     0.074 A 
ATOM     50  C   UNL A   1      38.591  29.234  28.632  1.00  0.00     0.031 C 
ATOM     51  C   UNL A   1      38.106  33.692  33.904  1.00  0.00     0.029 A 
ATOM     52  C   UNL A   1      39.126  32.727  34.000  1.00  0.00     0.049 A 
ATOM     53  H   UNL A   1      39.680  31.196  32.656  1.00  0.00     0.167 HD
ATOM     54  C   UNL A   1      40.622  28.241  29.772  1.00  0.00     0.034 A 
ATOM     55  C   UNL A   1      40.001  32.619  35.069  1.00  0.00     0.034 A 
ATOM     56  C   UNL A   1      41.524  28.160  30.821  1.00  0.00     0.049 A 
ATOM     57  C   UNL A   1      41.013  31.659  35.148  1.00  0.00     0.074 A 
ATOM     58  C   UNL A   1      42.591  27.242  30.884  1.00  0.00     0.029 A 
ATOM     59  N   UNL A   1      41.557  28.925  31.965  1.00  0.00    -0.354 N 
ATOM     60  N   UNL A   1      41.328  30.736  34.236  1.00  0.00    -0.248 NA
ATOM     61  C   UNL A   1      41.925  31.514  36.289  1.00  0.00     0.031 C 
ATOM     62  C   UNL A   1      43.252  27.444  32.054  1.00  0.00     0.029 A 
ATOM     63  C   UNL A   1      42.609  28.492  32.742  1.00  0.00     0.049 A 
ATOM     64  H   UNL A   1      40.937  29.656  32.189  1.00  0.00     0.167 HD
ATOM     65  C   UNL A   1      42.366  30.011  34.656  1.00  0.00     0.074 A 
ATOM     66  C   UNL A   1      42.761  30.496  35.987  1.00  0.00     0.031 C 
ATOM     67  C   UNL A   1      43.004  28.968  33.983  1.00  0.00     0.034 A 
BRANCH  54  68
ATOM     68  C   UNL A   1      40.781  27.271  28.612  1.00  0.00     0.023 A 
ATOM     69  C   UNL A   1      40.016  26.118  28.630  1.00  0.00     0.012 A 
ATOM     70  C   UNL A   1      41.662  27.499  27.644  1.00  0.00     0.148 A 
ATOM     71  C   UNL A   1      40.462  25.120  27.730  1.00  0.00     0.002 A 
ATOM     72  C   UNL A   1      41.950  26.527  26.718  1.00  0.00     0.091 A 
ATOM     73  F   UNL A   1      42.272  28.680  27.572  1.00  0.00    -0.205 F 
ATOM     74  C   UNL A   1      41.274  25.338  26.712  1.00  0.00     0.022 A 
BRANCH  72  75
ATOM     75  S   UNL A   1      43.244  26.823  25.486  1.00  0.00     0.127 S 
ATOM     76  O   UNL A   1      42.736  27.820  24.442  1.00  0.00    -0.237 OA
ATOM     77  O   UNL A   1      44.484  27.394  26.177  1.00  0.00    -0.237 OA
ATOM     78  O   UNL A   1      43.647  25.349  24.718  1.00  0.00    -0.744 OA
ENDBRANCH  72  75
ENDBRANCH  54  68
BRANCH  55  79
ATOM     79  C   UNL A   1      39.852  33.598  36.221  1.00  0.00     0.023 A 
ATOM     80  C   UNL A   1      40.379  34.878  36.153  1.00  0.00     0.012 A 
ATOM     81  C   UNL A   1      39.155  33.195  37.278  1.00  0.00     0.148 A 
ATOM     82  C   UNL A   1      40.362  35.570  37.387  1.00  0.00     0.002 A 
ATOM     83  C   UNL A   1      39.069  33.983  38.400  1.00  0.00     0.091 A 
ATOM     84  F   UNL A   1      38.537  32.018  37.249  1.00  0.00    -0.205 F 
ATOM     85  C   UNL A   1      39.618  35.235  38.425  1.00  0.00     0.022 A 
BRANCH  83  86
ATOM     86  S   UNL A   1      38.217  33.354  39.867  1.00  0.00     0.127 S 
ATOM     87  O   UNL A   1      38.957  32.125  40.400  1.00  0.00    -0.237 OA
ATOM     88  O   UNL A   1      38.188  34.439  40.946  1.00  0.00    -0.237 OA
ATOM     89  O   UNL A   1      36.615  32.919  39.454  1.00  0.00    -0.744 OA
ENDBRANCH  83  86
ENDBRANCH  55  79
BRANCH  67  90
ATOM     90  C   UNL A   1      44.201  28.313  34.651  1.00  0.00     0.023 A 
ATOM     91  C   UNL A   1      45.456  28.878  34.502  1.00  0.00     0.012 A 
ATOM     92  C   UNL A   1      44.025  27.208  35.367  1.00  0.00     0.148 A 
ATOM     93  C   UNL A   1      46.517  28.037  34.912  1.00  0.00     0.002 A 
ATOM     94  C   UNL A   1      45.103  26.509  35.852  1.00  0.00     0.091 A 
ATOM     95  F   UNL A   1      42.792  26.774  35.616  1.00  0.00    -0.205 F 
ATOM     96  C   UNL A   1      46.376  26.979  35.690  1.00  0.00     0.022 A 
BRANCH  94  97
ATOM     97  S   UNL A   1      44.833  24.942  36.718  1.00  0.00     0.127 S 
ATOM     98  O   UNL A   1      43.818  25.151  37.846  1.00  0.00    -0.237 OA
ATOM     99  O   UNL A   1      44.295  23.902  35.735  1.00  0.00    -0.237 OA
ATOM    100  O   UNL A   1      46.312  24.393  37.377  1.00  0.00    -0.744 OA
ENDBRANCH  94  97
ENDBRANCH  67  90
ENDBRANCH  41  42
ENDBRANCH  33  36
ENDBRANCH  31  32
ENDBRANCH  30  31
ENDBRANCH   1  30
TORSDOF 18
ENDMDL
MODEL 2
REMARK VINA RESULT:     -12.2      5.401      9.389
REMARK SMILES O=C(NCCCCCCNC(=O)c1ccc(-c2c3nc(c(-c4cccc(S(=O)(=O)[O-])c4F)c4ccc([nH]4)c(-c4cccc(S(=O)(=O)[O-])c4F)c4nc(c(-c5cccc(S(=O)(=O)[O-])c5F)c5ccc2[nH]5)C=C4)C=C3)cc1)C1=Cc2cc(S(F)(F)(F)(F)F)cc(Br)c2O[C@H]1C(F)(F)F
REMARK SMILES IDX 7 1 6 2 5 3 4 4 3 5 1 6 2 7 76 9 77 10 92 11 78 12 91 13
REMARK SMILES IDX 79 14 90 15 80 16 88 17 87 18 89 19 93 20 94 21 95 22 96 23
REMARK SMILES IDX 81 24 82 25 83 26 84 27 85 28 86 29 8 30 9 31 10 32 11 33
REMARK SMILES IDX 12 35 13 36 14 37 75 38 15 39 74 40 16 41 17 42 18 43 68 44
REMARK SMILES IDX 19 45 73 46 67 47 69 48 20 49 72 50 66 51 65 52 21 54 53 55
REMARK SMILES IDX 33 56 52 57 34 58 37 59 51 60 70 61 35 62 36 63 50 65 71 66
REMARK SMILES IDX 38 67 22 68 23 69 31 70 24 71 26 72 32 73 25 74 27 75 28 76
REMARK SMILES IDX 29 77 30 78 54 79 55 80 63 81 56 82 58 83 64 84 57 85 59 86
REMARK SMILES IDX 60 87 61 88 62 89 39 90 40 91 48 92 41 93 43 94 49 95 42 96
REMARK SMILES IDX 44 97 45 98 46 99 47 100
REMARK H PARENT 3 8 10 34 69 53 37 64
REMARK Flexibility Score: inf
ROOT
ATOM      1  C   UNL A   1      36.845  20.905  25.121  1.00  0.00     0.002 C 
ENDROOT
BRANCH   1   2
ATOM      2  C   UNL A   1      37.393  22.274  24.753  1.00  0.00     0.002 C 
BRANCH   2   3
ATOM      3  C   UNL A   1      36.575  22.855  23.611  1.00  0.00     0.021 C 
BRANCH   3   4
ATOM      4  C   UNL A   1      35.458  23.718  24.176  1.00  0.00     0.116 C 
BRANCH   4   5
ATOM      5  N   UNL A   1      34.242  23.537  23.368  1.00  0.00    -0.352 N 
ATOM      6  O   UNL A   1      31.897  23.162  23.330  1.00  0.00    -0.270 OA
ATOM      7  C   UNL A   1      32.948  23.318  24.028  1.00  0.00     0.251 C 
ATOM      8  H   UNL A   1      34.296  23.564  22.385  1.00  0.00     0.163 HD
BRANCH   7   9
ATOM      9  C   UNL A   1      32.865  23.277  25.546  1.00  0.00     0.067 C 
ATOM     10  C   UNL A   1      32.833  24.437  26.257  1.00  0.00     0.025 C 
ATOM     11  C   UNL A   1      32.817  21.941  26.269  1.00  0.00     0.314 C 
ATOM     12  C   UNL A   1      32.880  25.773  25.534  1.00  0.00     0.020 A 
ATOM     13  O   UNL A   1      31.517  24.929  23.780  1.00  0.00    -0.474 OA
ATOM     14  C   UNL A   1      33.627  26.777  26.128  1.00  0.00     0.036 A 
ATOM     15  C   UNL A   1      32.141  26.011  24.457  1.00  0.00     0.142 A 
ATOM     16  C   UNL A   1      33.301  28.078  25.679  1.00  0.00     0.109 A 
ATOM     17  C   UNL A   1      31.974  27.292  23.992  1.00  0.00     0.062 A 
ATOM     18  C   UNL A   1      32.635  28.341  24.568  1.00  0.00     0.044 A 
ATOM     19  Br  UNL A   1      30.770  27.623  22.481  1.00  0.00    -0.047 Br
BRANCH  11  20
ATOM     20  C   UNL A   1      32.867  20.813  25.251  1.00  0.00     0.429 C 
ATOM     21  F   UNL A   1      33.916  20.972  24.450  1.00  0.00    -0.167 F 
ATOM     22  F   UNL A   1      33.000  19.681  25.938  1.00  0.00    -0.167 F 
ATOM     23  F   UNL A   1      31.756  20.759  24.521  1.00  0.00    -0.167 F 
ENDBRANCH  11  20
BRANCH  16  24
ATOM     24  S   UNL A   1      33.829  29.478  26.696  1.00  0.00     0.310 S 
ATOM     25  F   UNL A   1      34.075  28.546  27.955  1.00  0.00    -0.094 F 
ATOM     26  F   UNL A   1      32.342  29.637  27.189  1.00  0.00    -0.094 F 
ATOM     27  F   UNL A   1      34.279  30.680  27.573  1.00  0.00    -0.094 F 
ATOM     28  F   UNL A   1      35.336  29.215  26.298  1.00  0.00    -0.094 F 
ATOM     29  F   UNL A   1      33.406  28.187  25.888  1.00  0.00    -0.094 F 
ENDBRANCH  16  24
ENDBRANCH   7   9
ENDBRANCH   4   5
ENDBRANCH   3   4
ENDBRANCH   2   3
ENDBRANCH   1   2
BRANCH   1  30
ATOM     30  C   UNL A   1      37.928  19.856  24.927  1.00  0.00     0.021 C 
BRANCH  30  31
ATOM     31  C   UNL A   1      39.139  20.216  25.773  1.00  0.00     0.116 C 
BRANCH  31  32
ATOM     32  N   UNL A   1      40.085  19.090  25.778  1.00  0.00    -0.352 N 
ATOM     33  C   UNL A   1      41.503  19.322  26.092  1.00  0.00     0.251 C 
ATOM     34  H   UNL A   1      39.770  18.181  25.570  1.00  0.00     0.163 HD
ATOM     35  O   UNL A   1      42.320  18.349  26.096  1.00  0.00    -0.269 OA
BRANCH  33  36
ATOM     36  C   UNL A   1      41.989  20.726  26.413  1.00  0.00     0.039 A 
ATOM     37  C   UNL A   1      42.112  21.117  27.735  1.00  0.00     0.014 A 
ATOM     38  C   UNL A   1      42.289  21.554  25.418  1.00  0.00     0.014 A 
ATOM     39  C   UNL A   1      42.285  22.511  27.907  1.00  0.00     0.010 A 
ATOM     40  C   UNL A   1      42.582  22.872  25.671  1.00  0.00     0.010 A 
ATOM     41  C   UNL A   1      42.662  23.343  26.953  1.00  0.00    -0.014 A 
BRANCH  41  42
ATOM     42  C   UNL A   1      43.157  24.745  27.261  1.00  0.00     0.031 A 
ATOM     43  C   UNL A   1      44.523  25.002  27.123  1.00  0.00     0.074 A 
ATOM     44  C   UNL A   1      42.229  25.691  27.663  1.00  0.00     0.049 A 
ATOM     45  N   UNL A   1      45.155  26.162  27.309  1.00  0.00    -0.248 NA
ATOM     46  C   UNL A   1      45.517  23.991  26.730  1.00  0.00     0.031 C 
ATOM     47  C   UNL A   1      40.849  25.442  27.796  1.00  0.00     0.029 A 
ATOM     48  N   UNL A   1      42.455  27.007  27.998  1.00  0.00    -0.354 N 
ATOM     49  C   UNL A   1      46.461  26.020  27.063  1.00  0.00     0.074 A 
ATOM     50  C   UNL A   1      46.711  24.621  26.694  1.00  0.00     0.031 C 
ATOM     51  C   UNL A   1      40.253  26.588  28.218  1.00  0.00     0.029 A 
ATOM     52  C   UNL A   1      41.250  27.573  28.353  1.00  0.00     0.049 A 
ATOM     53  H   UNL A   1      43.326  27.465  27.986  1.00  0.00     0.167 HD
ATOM     54  C   UNL A   1      47.448  27.003  27.130  1.00  0.00     0.034 A 
ATOM     55  C   UNL A   1      41.013  28.871  28.777  1.00  0.00     0.034 A 
ATOM     56  C   UNL A   1      47.205  28.313  27.512  1.00  0.00     0.049 A 
ATOM     57  C   UNL A   1      42.012  29.840  28.901  1.00  0.00     0.074 A 
ATOM     58  C   UNL A   1      48.189  29.318  27.579  1.00  0.00     0.029 A 
ATOM     59  N   UNL A   1      46.005  28.871  27.891  1.00  0.00    -0.354 N 
ATOM     60  N   UNL A   1      43.309  29.707  28.617  1.00  0.00    -0.248 NA
ATOM     61  C   UNL A   1      41.779  31.209  29.379  1.00  0.00     0.031 C 
ATOM     62  C   UNL A   1      47.593  30.465  28.000  1.00  0.00     0.029 A 
ATOM     63  C   UNL A   1      46.226  30.194  28.205  1.00  0.00     0.049 A 
ATOM     64  H   UNL A   1      45.138  28.406  27.931  1.00  0.00     0.167 HD
ATOM     65  C   UNL A   1      43.949  30.857  28.843  1.00  0.00     0.074 A 
ATOM     66  C   UNL A   1      42.975  31.837  29.344  1.00  0.00     0.031 C 
ATOM     67  C   UNL A   1      45.303  31.130  28.649  1.00  0.00     0.034 A 
BRANCH  54  68
ATOM     68  C   UNL A   1      48.872  26.615  26.765  1.00  0.00     0.023 A 
ATOM     69  C   UNL A   1      49.615  25.933  27.714  1.00  0.00     0.012 A 
ATOM     70  C   UNL A   1      49.400  26.964  25.597  1.00  0.00     0.148 A 
ATOM     71  C   UNL A   1      51.005  25.918  27.451  1.00  0.00     0.002 A 
ATOM     72  C   UNL A   1      50.742  26.796  25.358  1.00  0.00     0.091 A 
ATOM     73  F   UNL A   1      48.621  27.482  24.651  1.00  0.00    -0.205 F 
ATOM     74  C   UNL A   1      51.549  26.183  26.278  1.00  0.00     0.022 A 
BRANCH  72  75
ATOM     75  S   UNL A   1      51.453  27.394  23.805  1.00  0.00     0.127 S 
ATOM     76  O   UNL A   1      51.425  28.925  23.787  1.00  0.00    -0.237 OA
ATOM     77  O   UNL A   1      52.900  26.909  23.687  1.00  0.00    -0.237 OA
ATOM     78  O   UNL A   1      50.541  26.792  22.490  1.00  0.00    -0.744 OA
ENDBRANCH  72  75
ENDBRANCH  54  68
BRANCH  55  79
ATOM     79  C   UNL A   1      39.588  29.263  29.126  1.00  0.00     0.023 A 
ATOM     80  C   UNL A   1      38.678  29.625  28.147  1.00  0.00     0.012 A 
ATOM     81  C   UNL A   1      39.234  29.201  30.406  1.00  0.00     0.148 A 
ATOM     82  C   UNL A   1      37.483  30.187  28.654  1.00  0.00     0.002 A 
ATOM     83  C   UNL A   1      37.998  29.642  30.811  1.00  0.00     0.091 A 
ATOM     84  F   UNL A   1      40.085  28.707  31.301  1.00  0.00    -0.205 F 
ATOM     85  C   UNL A   1      37.070  30.070  29.902  1.00  0.00     0.022 A 
BRANCH  83  86
ATOM     86  S   UNL A   1      37.592  29.658  32.575  1.00  0.00     0.127 S 
ATOM     87  O   UNL A   1      36.282  30.419  32.790  1.00  0.00    -0.237 OA
ATOM     88  O   UNL A   1      37.435  28.220  33.075  1.00  0.00    -0.237 OA
ATOM     89  O   UNL A   1      38.847  30.429  33.442  1.00  0.00    -0.744 OA
ENDBRANCH  83  86
ENDBRANCH  55  79
BRANCH  67  90
ATOM     90  C   UNL A   1      45.798  32.536  28.941  1.00  0.00     0.023 A 
ATOM     91  C   UNL A   1      46.142  32.880  30.238  1.00  0.00     0.012 A 
ATOM     92  C   UNL A   1      45.893  33.413  27.949  1.00  0.00     0.148 A 
ATOM     93  C   UNL A   1      46.303  34.271  30.439  1.00  0.00     0.002 A 
ATOM     94  C   UNL A   1      46.188  34.731  28.205  1.00  0.00     0.091 A 
ATOM     95  F   UNL A   1      45.701  33.013  26.695  1.00  0.00    -0.205 F 
ATOM     96  C   UNL A   1      46.479  35.152  29.472  1.00  0.00     0.022 A 
BRANCH  94  97
ATOM     97  S   UNL A   1      46.189  35.924  26.844  1.00  0.00     0.127 S 
ATOM     98  O   UNL A   1      47.603  36.483  26.657  1.00  0.00    -0.237 OA
ATOM     99  O   UNL A   1      45.742  35.230  25.556  1.00  0.00    -0.237 OA
ATOM    100  O   UNL A   1      45.114  37.203  27.206  1.00  0.00    -0.744 OA
ENDBRANCH  94  97
ENDBRANCH  67  90
ENDBRANCH  41  42
ENDBRANCH  33  36
ENDBRANCH  31  32
ENDBRANCH  30  31
ENDBRANCH   1  30
TORSDOF 18
ENDMDL
MODEL 3
REMARK VINA RESULT:     -12.1      2.351      8.116
REMARK SMILES O=C(NCCCCCCNC(=O)c1ccc(-c2c3nc(c(-c4cccc(S(=O)(=O)[O-])c4F)c4ccc([nH]4)c(-c4cccc(S(=O)(=O)[O-])c4F)c4nc(c(-c5cccc(S(=O)(=O)[O-])c5F)c5ccc2[nH]5)C=C4)C=C3)cc1)C1=Cc2cc(S(F)(F)(F)(F)F)cc(Br)c2O[C@H]1C(F)(F)F
REMARK SMILES IDX 7 1 6 2 5 3 4 4 3 5 1 6 2 7 76 9 77 10 92 11 78 12 91 13
REMARK SMILES IDX 79 14 90 15 80 16 88 17 87 18 89 19 93 20 94 21 95 22 96 23
REMARK SMILES IDX 81 24 82 25 83 26 84 27 85 28 86 29 8 30 9 31 10 32 11 33
REMARK SMILES IDX 12 35 13 36 14 37 75 38 15 39 74 40 16 41 17 42 18 43 68 44
REMARK SMILES IDX 19 45 73 46 67 47 69 48 20 49 72 50 66 51 65 52 21 54 53 55
REMARK SMILES IDX 33 56 52 57 34 58 37 59 51 60 70 61 35 62 36 63 50 65 71 66
REMARK SMILES IDX 38 67 22 68 23 69 31 70 24 71 26 72 32 73 25 74 27 75 28 76
REMARK SMILES IDX 29 77 30 78 54 79 55 80 63 81 56 82 58 83 64 84 57 85 59 86
REMARK SMILES IDX 60 87 61 88 62 89 39 90 40 91 48 92 41 93 43 94 49 95 42 96
REMARK SMILES IDX 44 97 45 98 46 99 47 100
REMARK H PARENT 3 8 10 34 69 53 37 64
REMARK Flexibility Score: inf
ROOT
ATOM      1  C   UNL A   1      32.257  28.941  27.257  1.00  0.00     0.002 C 
ENDROOT
BRANCH   1   2
ATOM      2  C   UNL A   1      33.771  28.962  27.128  1.00  0.00     0.002 C 
BRANCH   2   3
ATOM      3  C   UNL A   1      34.208  27.906  26.125  1.00  0.00     0.021 C 
BRANCH   3   4
ATOM      4  C   UNL A   1      33.466  26.608  26.399  1.00  0.00     0.116 C 
BRANCH   4   5
ATOM      5  N   UNL A   1      33.957  25.561  25.492  1.00  0.00    -0.352 N 
ATOM      6  O   UNL A   1      33.572  23.453  24.466  1.00  0.00    -0.270 OA
ATOM      7  C   UNL A   1      33.148  24.358  25.251  1.00  0.00     0.251 C 
ATOM      8  H   UNL A   1      34.828  25.667  25.044  1.00  0.00     0.163 HD
BRANCH   7   9
ATOM      9  C   UNL A   1      31.803  24.196  25.941  1.00  0.00     0.067 C 
ATOM     10  C   UNL A   1      30.738  24.944  25.542  1.00  0.00     0.025 C 
ATOM     11  C   UNL A   1      31.647  23.198  27.077  1.00  0.00     0.314 C 
ATOM     12  C   UNL A   1      30.894  25.942  24.405  1.00  0.00     0.020 A 
ATOM     13  O   UNL A   1      32.344  24.463  23.239  1.00  0.00    -0.474 OA
ATOM     14  C   UNL A   1      30.223  27.145  24.537  1.00  0.00     0.036 A 
ATOM     15  C   UNL A   1      31.533  25.629  23.285  1.00  0.00     0.142 A 
ATOM     16  C   UNL A   1      30.039  27.837  23.317  1.00  0.00     0.109 A 
ATOM     17  C   UNL A   1      31.419  26.422  22.169  1.00  0.00     0.062 A 
ATOM     18  C   UNL A   1      30.720  27.597  22.211  1.00  0.00     0.044 A 
ATOM     19  Br  UNL A   1      32.267  25.862  20.493  1.00  0.00    -0.047 Br
BRANCH  11  20
ATOM     20  C   UNL A   1      32.975  22.500  27.323  1.00  0.00     0.429 C 
ATOM     21  F   UNL A   1      33.953  23.399  27.386  1.00  0.00    -0.167 F 
ATOM     22  F   UNL A   1      32.869  21.876  28.493  1.00  0.00    -0.167 F 
ATOM     23  F   UNL A   1      33.248  21.613  26.371  1.00  0.00    -0.167 F 
ENDBRANCH  11  20
BRANCH  16  24
ATOM     24  S   UNL A   1      28.783  29.139  23.266  1.00  0.00     0.310 S 
ATOM     25  F   UNL A   1      28.925  29.296  21.695  1.00  0.00    -0.094 F 
ATOM     26  F   UNL A   1      29.933  30.206  23.408  1.00  0.00    -0.094 F 
ATOM     27  F   UNL A   1      27.709  30.262  23.221  1.00  0.00    -0.094 F 
ATOM     28  F   UNL A   1      27.660  28.064  22.985  1.00  0.00    -0.094 F 
ATOM     29  F   UNL A   1      29.874  27.996  23.198  1.00  0.00    -0.094 F 
ENDBRANCH  16  24
ENDBRANCH   7   9
ENDBRANCH   4   5
ENDBRANCH   3   4
ENDBRANCH   2   3
ENDBRANCH   1   2
BRANCH   1  30
ATOM     30  C   UNL A   1      31.698  30.308  26.899  1.00  0.00     0.021 C 
BRANCH  30  31
ATOM     31  C   UNL A   1      32.845  31.269  26.626  1.00  0.00     0.116 C 
BRANCH  31  32
ATOM     32  N   UNL A   1      32.411  32.643  26.916  1.00  0.00    -0.352 N 
ATOM     33  C   UNL A   1      33.170  33.469  27.867  1.00  0.00     0.251 C 
ATOM     34  H   UNL A   1      31.613  33.012  26.472  1.00  0.00     0.163 HD
ATOM     35  O   UNL A   1      32.795  34.657  28.116  1.00  0.00    -0.269 OA
BRANCH  33  36
ATOM     36  C   UNL A   1      34.401  32.900  28.552  1.00  0.00     0.039 A 
ATOM     37  C   UNL A   1      35.651  33.403  28.231  1.00  0.00     0.014 A 
ATOM     38  C   UNL A   1      34.259  31.928  29.447  1.00  0.00     0.014 A 
ATOM     39  C   UNL A   1      36.726  32.612  28.701  1.00  0.00     0.010 A 
ATOM     40  C   UNL A   1      35.358  31.290  29.967  1.00  0.00     0.010 A 
ATOM     41  C   UNL A   1      36.625  31.697  29.647  1.00  0.00    -0.014 A 
BRANCH  41  42
ATOM     42  C   UNL A   1      37.849  31.126  30.344  1.00  0.00     0.031 A 
ATOM     43  C   UNL A   1      38.131  31.570  31.638  1.00  0.00     0.074 A 
ATOM     44  C   UNL A   1      38.616  30.199  29.660  1.00  0.00     0.049 A 
ATOM     45  N   UNL A   1      39.127  31.176  32.433  1.00  0.00    -0.248 NA
ATOM     46  C   UNL A   1      37.338  32.580  32.355  1.00  0.00     0.031 C 
ATOM     47  C   UNL A   1      38.332  29.741  28.358  1.00  0.00     0.029 A 
ATOM     48  N   UNL A   1      39.760  29.566  30.090  1.00  0.00    -0.354 N 
ATOM     49  C   UNL A   1      39.060  31.813  33.606  1.00  0.00     0.074 A 
ATOM     50  C   UNL A   1      37.912  32.729  33.569  1.00  0.00     0.031 C 
ATOM     51  C   UNL A   1      39.299  28.853  28.005  1.00  0.00     0.029 A 
ATOM     52  C   UNL A   1      40.201  28.740  29.080  1.00  0.00     0.049 A 
ATOM     53  H   UNL A   1      40.189  29.683  30.969  1.00  0.00     0.167 HD
ATOM     54  C   UNL A   1      39.908  31.663  34.703  1.00  0.00     0.034 A 
ATOM     55  C   UNL A   1      41.325  27.930  29.075  1.00  0.00     0.034 A 
ATOM     56  C   UNL A   1      41.008  30.819  34.714  1.00  0.00     0.049 A 
ATOM     57  C   UNL A   1      42.209  27.824  30.152  1.00  0.00     0.074 A 
ATOM     58  C   UNL A   1      41.871  30.651  35.815  1.00  0.00     0.029 A 
ATOM     59  N   UNL A   1      41.463  30.013  33.694  1.00  0.00    -0.354 N 
ATOM     60  N   UNL A   1      42.117  28.430  31.337  1.00  0.00    -0.248 NA
ATOM     61  C   UNL A   1      43.419  26.993  30.147  1.00  0.00     0.031 C 
ATOM     62  C   UNL A   1      42.837  29.763  35.461  1.00  0.00     0.029 A 
ATOM     63  C   UNL A   1      42.595  29.362  34.133  1.00  0.00     0.049 A 
ATOM     64  H   UNL A   1      41.050  29.918  32.805  1.00  0.00     0.167 HD
ATOM     65  C   UNL A   1      43.138  28.068  32.118  1.00  0.00     0.074 A 
ATOM     66  C   UNL A   1      43.994  27.144  31.361  1.00  0.00     0.031 C 
ATOM     67  C   UNL A   1      43.387  28.466  33.432  1.00  0.00     0.034 A 
BRANCH  54  68
ATOM     68  C   UNL A   1      39.611  32.471  35.955  1.00  0.00     0.023 A 
ATOM     69  C   UNL A   1      38.775  31.903  36.902  1.00  0.00     0.012 A 
ATOM     70  C   UNL A   1      40.094  33.699  36.110  1.00  0.00     0.148 A 
ATOM     71  C   UNL A   1      38.269  32.826  37.847  1.00  0.00     0.002 A 
ATOM     72  C   UNL A   1      39.654  34.498  37.137  1.00  0.00     0.091 A 
ATOM     73  F   UNL A   1      41.010  34.158  35.262  1.00  0.00    -0.205 F 
ATOM     74  C   UNL A   1      38.781  34.021  38.076  1.00  0.00     0.022 A 
BRANCH  72  75
ATOM     75  S   UNL A   1      40.239  36.208  37.249  1.00  0.00     0.127 S 
ATOM     76  O   UNL A   1      39.437  36.952  38.320  1.00  0.00    -0.237 OA
ATOM     77  O   UNL A   1      41.722  36.215  37.625  1.00  0.00    -0.237 OA
ATOM     78  O   UNL A   1      40.029  36.982  35.739  1.00  0.00    -0.744 OA
ENDBRANCH  72  75
ENDBRANCH  54  68
BRANCH  55  79
ATOM     79  C   UNL A   1      41.613  27.110  27.829  1.00  0.00     0.023 A 
ATOM     80  C   UNL A   1      42.209  27.675  26.714  1.00  0.00     0.012 A 
ATOM     81  C   UNL A   1      41.312  25.816  27.868  1.00  0.00     0.148 A 
ATOM     82  C   UNL A   1      42.186  26.845  25.569  1.00  0.00     0.002 A 
ATOM     83  C   UNL A   1      41.443  25.034  26.746  1.00  0.00     0.091 A 
ATOM     84  F   UNL A   1      40.881  25.274  29.003  1.00  0.00    -0.205 F 
ATOM     85  C   UNL A   1      41.970  25.543  25.591  1.00  0.00     0.022 A 
BRANCH  83  86
ATOM     86  S   UNL A   1      40.911  23.305  26.797  1.00  0.00     0.127 S 
ATOM     87  O   UNL A   1      39.389  23.236  26.656  1.00  0.00    -0.237 OA
ATOM     88  O   UNL A   1      41.565  22.535  25.648  1.00  0.00    -0.237 OA
ATOM     89  O   UNL A   1      41.376  22.609  28.288  1.00  0.00    -0.744 OA
ENDBRANCH  83  86
ENDBRANCH  55  79
BRANCH  67  90
ATOM     90  C   UNL A   1      44.601  27.884  34.136  1.00  0.00     0.023 A 
ATOM     91  C   UNL A   1      45.825  28.523  34.021  1.00  0.00     0.012 A 
ATOM     92  C   UNL A   1      44.470  26.774  34.852  1.00  0.00     0.148 A 
ATOM     93  C   UNL A   1      46.922  27.746  34.465  1.00  0.00     0.002 A 
ATOM     94  C   UNL A   1      45.573  26.140  35.371  1.00  0.00     0.091 A 
ATOM     95  F   UNL A   1      43.258  26.269  35.068  1.00  0.00    -0.205 F 
ATOM     96  C   UNL A   1      46.821  26.684  35.243  1.00  0.00     0.022 A 
BRANCH  94  97
ATOM     97  S   UNL A   1      45.371  24.564  36.236  1.00  0.00     0.127 S 
ATOM     98  O   UNL A   1      46.731  24.089  36.755  1.00  0.00    -0.237 OA
ATOM     99  O   UNL A   1      44.412  24.747  37.414  1.00  0.00    -0.237 OA
ATOM    100  O   UNL A   1      44.735  23.399  35.159  1.00  0.00    -0.744 OA
ENDBRANCH  94  97
ENDBRANCH  67  90
ENDBRANCH  41  42
ENDBRANCH  33  36
ENDBRANCH  31  32
ENDBRANCH  30  31
ENDBRANCH   1  30
TORSDOF 18
ENDMDL
