MODEL 1
REMARK VINA RESULT:     -11.7      0.000      0.000
REMARK SMILES C[C@]1(CCC(=O)NCCCCCCNC(=O)c2ccc(-c3c4nc(c(-c5cccc(S(=O)(=O)[O-])c5F)c5ccc([nH]5)c(-c5cccc(S(=O)(=O)[O-])c5F)c5nc(c(-c6cccc(S(=O)(=O)[O-])c6F)c6ccc3[nH]6)C=C5)C=C4)cc2)CCCCC1=O
REMARK SMILES IDX 11 1 10 2 9 3 8 4 7 5 5 6 6 7 4 9 3 10 2 11 1 12 80 13 84 14
REMARK SMILES IDX 81 15 83 16 85 17 82 18 12 19 13 20 14 21 15 22 16 24 17 25
REMARK SMILES IDX 18 26 79 27 19 28 78 29 20 30 21 31 22 32 72 33 23 34 77 35
REMARK SMILES IDX 71 36 73 37 24 38 76 39 70 40 69 41 25 43 57 44 37 45 56 46
REMARK SMILES IDX 38 47 41 48 55 49 74 50 39 51 40 52 54 54 75 55 42 56 26 57
REMARK SMILES IDX 27 58 35 59 28 60 30 61 36 62 29 63 31 64 32 65 33 66 34 67
REMARK SMILES IDX 58 68 59 69 67 70 60 71 62 72 68 73 61 74 63 75 64 76 65 77
REMARK SMILES IDX 66 78 43 79 44 80 52 81 45 82 47 83 53 84 46 85 48 86 49 87
REMARK SMILES IDX 50 88 51 89
REMARK H PARENT 7 8 14 23 73 42 41 53
REMARK Flexibility Score: inf
ROOT
ATOM      1  C   UNL A   1      31.253  29.218  24.674  1.00  0.00     0.002 C 
ENDROOT
BRANCH   1   2
ATOM      2  C   UNL A   1      30.872  29.089  23.194  1.00  0.00     0.002 C 
BRANCH   2   3
ATOM      3  C   UNL A   1      29.794  28.041  22.823  1.00  0.00     0.021 C 
BRANCH   3   4
ATOM      4  C   UNL A   1      29.383  26.912  23.937  1.00  0.00     0.116 C 
BRANCH   4   5
ATOM      5  N   UNL A   1      30.398  25.894  25.311  1.00  0.00    -0.356 N 
ATOM      6  C   UNL A   1      31.531  25.429  25.974  1.00  0.00     0.220 C 
ATOM      7  O   UNL A   1      31.304  24.763  26.991  1.00  0.00    -0.275 OA
ATOM      8  H   UNL A   1      29.674  25.468  25.824  1.00  0.00     0.163 HD
BRANCH   6   9
ATOM      9  C   UNL A   1      32.930  25.722  25.568  1.00  0.00     0.101 C 
BRANCH   9  10
ATOM     10  C   UNL A   1      33.774  24.604  26.072  1.00  0.00     0.024 C 
BRANCH  10  11
ATOM     11  C   UNL A   1      34.418  23.928  24.843  1.00  0.00     0.027 C 
ATOM     12  C   UNL A   1      34.139  24.947  23.701  1.00  0.00     0.019 C 
ATOM     13  C   UNL A   1      36.326  23.895  25.157  1.00  0.00     0.014 C 
ATOM     14  C   UNL A   1      33.466  22.236  24.647  1.00  0.00     0.138 C 
ATOM     15  C   UNL A   1      37.290  22.209  25.279  1.00  0.00     0.001 C 
ATOM     16  C   UNL A   1      34.402  20.564  24.897  1.00  0.00     0.076 C 
ATOM     17  O   UNL A   1      32.260  22.234  24.386  1.00  0.00    -0.299 OA
ATOM     18  C   UNL A   1      36.342  20.526  25.010  1.00  0.00     0.008 C 
ENDBRANCH  10  11
ENDBRANCH   9  10
ENDBRANCH   6   9
ENDBRANCH   4   5
ENDBRANCH   3   4
ENDBRANCH   2   3
ENDBRANCH   1   2
BRANCH   1  19
ATOM     19  C   UNL A   1      32.744  29.362  24.961  1.00  0.00     0.021 C 
BRANCH  19  20
ATOM     20  C   UNL A   1      33.091  29.645  26.415  1.00  0.00     0.116 C 
BRANCH  20  21
ATOM     21  N   UNL A   1      32.906  31.041  26.788  1.00  0.00    -0.352 N 
ATOM     22  C   UNL A   1      33.726  31.842  27.546  1.00  0.00     0.251 C 
ATOM     23  H   UNL A   1      32.084  31.468  26.453  1.00  0.00     0.163 HD
ATOM     24  O   UNL A   1      33.388  32.978  27.848  1.00  0.00    -0.269 OA
BRANCH  22  25
ATOM     25  C   UNL A   1      35.008  31.285  28.019  1.00  0.00     0.039 A 
ATOM     26  C   UNL A   1      36.123  32.121  28.079  1.00  0.00     0.014 A 
ATOM     27  C   UNL A   1      35.075  29.965  28.471  1.00  0.00     0.014 A 
ATOM     28  C   UNL A   1      37.300  31.646  28.656  1.00  0.00     0.010 A 
ATOM     29  C   UNL A   1      36.219  29.523  29.119  1.00  0.00     0.010 A 
ATOM     30  C   UNL A   1      37.346  30.355  29.209  1.00  0.00    -0.014 A 
BRANCH  30  31
ATOM     31  C   UNL A   1      38.569  29.849  29.876  1.00  0.00     0.031 A 
ATOM     32  C   UNL A   1      38.938  30.360  31.241  1.00  0.00     0.074 A 
ATOM     33  C   UNL A   1      39.385  29.000  29.220  1.00  0.00     0.049 A 
ATOM     34  N   UNL A   1      39.986  30.080  31.969  1.00  0.00    -0.248 NA
ATOM     35  C   UNL A   1      38.029  31.343  31.854  1.00  0.00     0.031 C 
ATOM     36  C   UNL A   1      39.176  28.509  27.856  1.00  0.00     0.029 A 
ATOM     37  N   UNL A   1      40.566  28.419  29.605  1.00  0.00    -0.354 N 
ATOM     38  C   UNL A   1      39.882  30.876  33.103  1.00  0.00     0.074 A 
ATOM     39  C   UNL A   1      38.693  31.683  32.948  1.00  0.00     0.031 C 
ATOM     40  C   UNL A   1      40.190  27.694  27.523  1.00  0.00     0.029 A 
ATOM     41  C   UNL A   1      41.131  27.622  28.637  1.00  0.00     0.049 A 
ATOM     42  H   UNL A   1      40.971  28.559  30.491  1.00  0.00     0.167 HD
ATOM     43  C   UNL A   1      40.684  30.907  34.193  1.00  0.00     0.034 A 
ATOM     44  C   UNL A   1      42.275  26.912  28.650  1.00  0.00     0.034 A 
ATOM     45  C   UNL A   1      41.830  30.057  34.364  1.00  0.00     0.049 A 
ATOM     46  C   UNL A   1      43.112  26.909  29.901  1.00  0.00     0.074 A 
ATOM     47  C   UNL A   1      42.653  29.935  35.469  1.00  0.00     0.029 A 
ATOM     48  N   UNL A   1      42.315  29.183  33.404  1.00  0.00    -0.354 N 
ATOM     49  N   UNL A   1      42.907  27.542  31.032  1.00  0.00    -0.248 NA
ATOM     50  C   UNL A   1      44.316  26.066  29.895  1.00  0.00     0.031 C 
ATOM     51  C   UNL A   1      43.645  28.996  35.170  1.00  0.00     0.029 A 
ATOM     52  C   UNL A   1      43.428  28.520  33.887  1.00  0.00     0.049 A 
ATOM     53  H   UNL A   1      41.923  29.053  32.509  1.00  0.00     0.167 HD
ATOM     54  C   UNL A   1      43.933  27.147  31.882  1.00  0.00     0.074 A 
ATOM     55  C   UNL A   1      44.746  26.204  31.142  1.00  0.00     0.031 C 
ATOM     56  C   UNL A   1      44.190  27.541  33.154  1.00  0.00     0.034 A 
BRANCH  43  57
ATOM     57  C   UNL A   1      40.307  31.843  35.310  1.00  0.00     0.023 A 
ATOM     58  C   UNL A   1      41.010  33.055  35.467  1.00  0.00     0.012 A 
ATOM     59  C   UNL A   1      39.235  31.549  36.176  1.00  0.00     0.148 A 
ATOM     60  C   UNL A   1      40.680  33.943  36.489  1.00  0.00     0.002 A 
ATOM     61  C   UNL A   1      38.882  32.461  37.164  1.00  0.00     0.091 A 
ATOM     62  F   UNL A   1      38.594  30.381  36.027  1.00  0.00    -0.205 F 
ATOM     63  C   UNL A   1      39.610  33.651  37.329  1.00  0.00     0.022 A 
BRANCH  61  64
ATOM     64  S   UNL A   1      37.472  32.213  38.249  1.00  0.00     0.127 S 
ATOM     65  O   UNL A   1      37.293  30.764  38.174  1.00  0.00    -0.237 OA
ATOM     66  O   UNL A   1      37.982  32.698  39.532  1.00  0.00    -0.237 OA
ATOM     67  O   UNL A   1      36.389  33.007  37.687  1.00  0.00    -0.744 OA
ENDBRANCH  61  64
ENDBRANCH  43  57
BRANCH  44  68
ATOM     68  C   UNL A   1      42.649  26.079  27.472  1.00  0.00     0.023 A 
ATOM     69  C   UNL A   1      43.489  26.623  26.481  1.00  0.00     0.012 A 
ATOM     70  C   UNL A   1      42.208  24.747  27.343  1.00  0.00     0.148 A 
ATOM     71  C   UNL A   1      43.859  25.868  25.368  1.00  0.00     0.002 A 
ATOM     72  C   UNL A   1      42.624  23.983  26.259  1.00  0.00     0.091 A 
ATOM     73  F   UNL A   1      41.400  24.251  28.290  1.00  0.00    -0.205 F 
ATOM     74  C   UNL A   1      43.436  24.546  25.261  1.00  0.00     0.022 A 
BRANCH  72  75
ATOM     75  S   UNL A   1      42.235  22.235  26.109  1.00  0.00     0.127 S 
ATOM     76  O   UNL A   1      42.915  21.884  24.864  1.00  0.00    -0.237 OA
ATOM     77  O   UNL A   1      42.843  21.684  27.321  1.00  0.00    -0.237 OA
ATOM     78  O   UNL A   1      40.781  22.161  26.082  1.00  0.00    -0.744 OA
ENDBRANCH  72  75
ENDBRANCH  44  68
BRANCH  56  79
ATOM     79  C   UNL A   1      45.379  26.932  33.846  1.00  0.00     0.023 A 
ATOM     80  C   UNL A   1      46.627  27.582  33.791  1.00  0.00     0.012 A 
ATOM     81  C   UNL A   1      45.239  25.763  34.619  1.00  0.00     0.148 A 
ATOM     82  C   UNL A   1      47.727  27.062  34.472  1.00  0.00     0.002 A 
ATOM     83  C   UNL A   1      46.327  25.278  35.335  1.00  0.00     0.091 A 
ATOM     84  F   UNL A   1      44.047  25.150  34.643  1.00  0.00    -0.205 F 
ATOM     85  C   UNL A   1      47.574  25.919  35.254  1.00  0.00     0.022 A 
BRANCH  83  86
ATOM     86  S   UNL A   1      46.195  23.870  36.443  1.00  0.00     0.127 S 
ATOM     87  O   UNL A   1      45.602  22.859  35.570  1.00  0.00    -0.237 OA
ATOM     88  O   UNL A   1      47.592  23.623  36.802  1.00  0.00    -0.237 OA
ATOM     89  O   UNL A   1      45.358  24.311  37.551  1.00  0.00    -0.744 OA
ENDBRANCH  83  86
ENDBRANCH  56  79
ENDBRANCH  30  31
ENDBRANCH  22  25
ENDBRANCH  20  21
ENDBRANCH  19  20
ENDBRANCH   1  19
TORSDOF 18
ENDMDL
MODEL 2
REMARK VINA RESULT:     -11.4      5.131     10.014
REMARK SMILES C[C@]1(CCC(=O)NCCCCCCNC(=O)c2ccc(-c3c4nc(c(-c5cccc(S(=O)(=O)[O-])c5F)c5ccc([nH]5)c(-c5cccc(S(=O)(=O)[O-])c5F)c5nc(c(-c6cccc(S(=O)(=O)[O-])c6F)c6ccc3[nH]6)C=C5)C=C4)cc2)CCCCC1=O
REMARK SMILES IDX 11 1 10 2 9 3 8 4 7 5 5 6 6 7 4 9 3 10 2 11 1 12 80 13 84 14
REMARK SMILES IDX 81 15 83 16 85 17 82 18 12 19 13 20 14 21 15 22 16 24 17 25
REMARK SMILES IDX 18 26 79 27 19 28 78 29 20 30 21 31 22 32 72 33 23 34 77 35
REMARK SMILES IDX 71 36 73 37 24 38 76 39 70 40 69 41 25 43 57 44 37 45 56 46
REMARK SMILES IDX 38 47 41 48 55 49 74 50 39 51 40 52 54 54 75 55 42 56 26 57
REMARK SMILES IDX 27 58 35 59 28 60 30 61 36 62 29 63 31 64 32 65 33 66 34 67
REMARK SMILES IDX 58 68 59 69 67 70 60 71 62 72 68 73 61 74 63 75 64 76 65 77
REMARK SMILES IDX 66 78 43 79 44 80 52 81 45 82 47 83 53 84 46 85 48 86 49 87
REMARK SMILES IDX 50 88 51 89
REMARK H PARENT 7 8 14 23 73 42 41 53
REMARK Flexibility Score: inf
ROOT
ATOM      1  C   UNL A   1      35.295  22.660  23.664  1.00  0.00     0.002 C 
ENDROOT
BRANCH   1   2
ATOM      2  C   UNL A   1      34.865  24.127  23.774  1.00  0.00     0.002 C 
BRANCH   2   3
ATOM      3  C   UNL A   1      34.059  24.725  22.594  1.00  0.00     0.021 C 
BRANCH   3   4
ATOM      4  C   UNL A   1      33.394  26.211  22.774  1.00  0.00     0.116 C 
BRANCH   4   5
ATOM      5  N   UNL A   1      32.481  27.143  24.274  1.00  0.00    -0.356 N 
ATOM      6  C   UNL A   1      31.815  27.248  25.493  1.00  0.00     0.220 C 
ATOM      7  O   UNL A   1      31.595  28.405  25.870  1.00  0.00    -0.275 OA
ATOM      8  H   UNL A   1      32.527  28.084  23.987  1.00  0.00     0.163 HD
BRANCH   6   9
ATOM      9  C   UNL A   1      31.420  26.096  26.344  1.00  0.00     0.101 C 
BRANCH   9  10
ATOM     10  C   UNL A   1      32.352  24.979  26.026  1.00  0.00     0.024 C 
BRANCH  10  11
ATOM     11  C   UNL A   1      31.508  23.691  25.938  1.00  0.00     0.027 C 
ATOM     12  C   UNL A   1      30.164  24.111  26.597  1.00  0.00     0.019 C 
ATOM     13  C   UNL A   1      31.174  23.368  24.061  1.00  0.00     0.014 C 
ATOM     14  C   UNL A   1      32.511  22.364  26.958  1.00  0.00     0.138 C 
ATOM     15  C   UNL A   1      31.823  21.752  23.193  1.00  0.00     0.001 C 
ATOM     16  C   UNL A   1      33.266  20.825  26.065  1.00  0.00     0.076 C 
ATOM     17  O   UNL A   1      32.685  22.520  28.170  1.00  0.00    -0.299 OA
ATOM     18  C   UNL A   1      32.763  20.398  24.238  1.00  0.00     0.008 C 
ENDBRANCH  10  11
ENDBRANCH   9  10
ENDBRANCH   6   9
ENDBRANCH   4   5
ENDBRANCH   3   4
ENDBRANCH   2   3
ENDBRANCH   1   2
BRANCH   1  19
ATOM     19  C   UNL A   1      36.744  22.367  24.040  1.00  0.00     0.021 C 
BRANCH  19  20
ATOM     20  C   UNL A   1      36.958  21.944  25.485  1.00  0.00     0.116 C 
BRANCH  20  21
ATOM     21  N   UNL A   1      37.966  20.903  25.636  1.00  0.00    -0.352 N 
ATOM     22  C   UNL A   1      39.250  21.015  26.112  1.00  0.00     0.251 C 
ATOM     23  H   UNL A   1      37.690  19.998  25.359  1.00  0.00     0.163 HD
ATOM     24  O   UNL A   1      40.010  20.057  26.095  1.00  0.00    -0.269 OA
BRANCH  22  25
ATOM     25  C   UNL A   1      39.701  22.329  26.609  1.00  0.00     0.039 A 
ATOM     26  C   UNL A   1      40.696  22.373  27.586  1.00  0.00     0.014 A 
ATOM     27  C   UNL A   1      39.193  23.503  26.049  1.00  0.00     0.014 A 
ATOM     28  C   UNL A   1      41.230  23.605  27.960  1.00  0.00     0.010 A 
ATOM     29  C   UNL A   1      39.783  24.719  26.361  1.00  0.00     0.010 A 
ATOM     30  C   UNL A   1      40.800  24.783  27.327  1.00  0.00    -0.014 A 
BRANCH  30  31
ATOM     31  C   UNL A   1      41.392  26.098  27.669  1.00  0.00     0.031 A 
ATOM     32  C   UNL A   1      42.814  26.398  27.283  1.00  0.00     0.074 A 
ATOM     33  C   UNL A   1      40.680  26.982  28.396  1.00  0.00     0.049 A 
ATOM     34  N   UNL A   1      43.527  27.463  27.531  1.00  0.00    -0.248 NA
ATOM     35  C   UNL A   1      43.544  25.345  26.555  1.00  0.00     0.031 C 
ATOM     36  C   UNL A   1      39.324  26.763  28.905  1.00  0.00     0.029 A 
ATOM     37  N   UNL A   1      41.008  28.233  28.852  1.00  0.00    -0.354 N 
ATOM     38  C   UNL A   1      44.794  27.197  27.025  1.00  0.00     0.074 A 
ATOM     39  C   UNL A   1      44.765  25.852  26.495  1.00  0.00     0.031 C 
ATOM     40  C   UNL A   1      38.934  27.847  29.596  1.00  0.00     0.029 A 
ATOM     41  C   UNL A   1      40.016  28.827  29.598  1.00  0.00     0.049 A 
ATOM     42  H   UNL A   1      41.872  28.665  28.664  1.00  0.00     0.167 HD
ATOM     43  C   UNL A   1      45.873  28.012  26.972  1.00  0.00     0.034 A 
ATOM     44  C   UNL A   1      39.985  30.026  30.210  1.00  0.00     0.034 A 
ATOM     45  C   UNL A   1      45.873  29.367  27.446  1.00  0.00     0.049 A 
ATOM     46  C   UNL A   1      41.174  30.940  30.076  1.00  0.00     0.074 A 
ATOM     47  C   UNL A   1      46.880  30.312  27.353  1.00  0.00     0.029 A 
ATOM     48  N   UNL A   1      44.814  29.973  28.105  1.00  0.00    -0.354 N 
ATOM     49  N   UNL A   1      42.306  30.733  29.447  1.00  0.00    -0.248 NA
ATOM     50  C   UNL A   1      41.068  32.266  30.701  1.00  0.00     0.031 C 
ATOM     51  C   UNL A   1      46.432  31.486  27.968  1.00  0.00     0.029 A 
ATOM     52  C   UNL A   1      45.141  31.278  28.427  1.00  0.00     0.049 A 
ATOM     53  H   UNL A   1      43.955  29.538  28.312  1.00  0.00     0.167 HD
ATOM     54  C   UNL A   1      43.031  31.912  29.569  1.00  0.00     0.074 A 
ATOM     55  C   UNL A   1      42.201  32.836  30.314  1.00  0.00     0.031 C 
ATOM     56  C   UNL A   1      44.278  32.200  29.119  1.00  0.00     0.034 A 
BRANCH  43  57
ATOM     57  C   UNL A   1      47.119  27.476  26.319  1.00  0.00     0.023 A 
ATOM     58  C   UNL A   1      47.383  27.784  24.969  1.00  0.00     0.012 A 
ATOM     59  C   UNL A   1      48.049  26.707  27.046  1.00  0.00     0.148 A 
ATOM     60  C   UNL A   1      48.530  27.306  24.340  1.00  0.00     0.002 A 
ATOM     61  C   UNL A   1      49.214  26.273  26.425  1.00  0.00     0.091 A 
ATOM     62  F   UNL A   1      47.771  26.404  28.322  1.00  0.00    -0.205 F 
ATOM     63  C   UNL A   1      49.451  26.560  25.070  1.00  0.00     0.022 A 
BRANCH  61  64
ATOM     64  S   UNL A   1      50.498  25.370  27.300  1.00  0.00     0.127 S 
ATOM     65  O   UNL A   1      50.913  26.348  28.305  1.00  0.00    -0.237 OA
ATOM     66  O   UNL A   1      49.760  24.224  27.833  1.00  0.00    -0.237 OA
ATOM     67  O   UNL A   1      51.503  25.034  26.302  1.00  0.00    -0.744 OA
ENDBRANCH  61  64
ENDBRANCH  43  57
BRANCH  44  68
ATOM     68  C   UNL A   1      38.755  30.464  30.929  1.00  0.00     0.023 A 
ATOM     69  C   UNL A   1      38.658  30.256  32.319  1.00  0.00     0.012 A 
ATOM     70  C   UNL A   1      37.700  31.110  30.257  1.00  0.00     0.148 A 
ATOM     71  C   UNL A   1      37.521  30.657  33.022  1.00  0.00     0.002 A 
ATOM     72  C   UNL A   1      36.593  31.554  30.971  1.00  0.00     0.091 A 
ATOM     73  F   UNL A   1      37.805  31.288  28.932  1.00  0.00    -0.205 F 
ATOM     74  C   UNL A   1      36.494  31.315  32.351  1.00  0.00     0.022 A 
BRANCH  72  75
ATOM     75  S   UNL A   1      35.286  32.525  30.212  1.00  0.00     0.127 S 
ATOM     76  O   UNL A   1      34.340  32.668  31.318  1.00  0.00    -0.237 OA
ATOM     77  O   UNL A   1      35.994  33.752  29.844  1.00  0.00    -0.237 OA
ATOM     78  O   UNL A   1      34.824  31.737  29.078  1.00  0.00    -0.744 OA
ENDBRANCH  72  75
ENDBRANCH  44  68
BRANCH  56  79
ATOM     79  C   UNL A   1      44.815  33.580  29.390  1.00  0.00     0.023 A 
ATOM     80  C   UNL A   1      45.525  33.831  30.579  1.00  0.00     0.012 A 
ATOM     81  C   UNL A   1      44.690  34.600  28.427  1.00  0.00     0.148 A 
ATOM     82  C   UNL A   1      46.078  35.089  30.821  1.00  0.00     0.002 A 
ATOM     83  C   UNL A   1      45.285  35.835  28.653  1.00  0.00     0.091 A 
ATOM     84  F   UNL A   1      43.994  34.344  27.309  1.00  0.00    -0.205 F 
ATOM     85  C   UNL A   1      45.970  36.085  29.853  1.00  0.00     0.022 A 
BRANCH  83  86
ATOM     86  S   UNL A   1      45.280  37.142  27.420  1.00  0.00     0.127 S 
ATOM     87  O   UNL A   1      43.860  37.224  27.080  1.00  0.00    -0.237 OA
ATOM     88  O   UNL A   1      45.793  38.286  28.175  1.00  0.00    -0.237 OA
ATOM     89  O   UNL A   1      46.156  36.685  26.350  1.00  0.00    -0.744 OA
ENDBRANCH  83  86
ENDBRANCH  56  79
ENDBRANCH  30  31
ENDBRANCH  22  25
ENDBRANCH  20  21
ENDBRANCH  19  20
ENDBRANCH   1  19
TORSDOF 18
ENDMDL
MODEL 3
REMARK VINA RESULT:     -11.3      5.144     10.456
REMARK SMILES C[C@]1(CCC(=O)NCCCCCCNC(=O)c2ccc(-c3c4nc(c(-c5cccc(S(=O)(=O)[O-])c5F)c5ccc([nH]5)c(-c5cccc(S(=O)(=O)[O-])c5F)c5nc(c(-c6cccc(S(=O)(=O)[O-])c6F)c6ccc3[nH]6)C=C5)C=C4)cc2)CCCCC1=O
REMARK SMILES IDX 11 1 10 2 9 3 8 4 7 5 5 6 6 7 4 9 3 10 2 11 1 12 80 13 84 14
REMARK SMILES IDX 81 15 83 16 85 17 82 18 12 19 13 20 14 21 15 22 16 24 17 25
REMARK SMILES IDX 18 26 79 27 19 28 78 29 20 30 21 31 22 32 72 33 23 34 77 35
REMARK SMILES IDX 71 36 73 37 24 38 76 39 70 40 69 41 25 43 57 44 37 45 56 46
REMARK SMILES IDX 38 47 41 48 55 49 74 50 39 51 40 52 54 54 75 55 42 56 26 57
REMARK SMILES IDX 27 58 35 59 28 60 30 61 36 62 29 63 31 64 32 65 33 66 34 67
REMARK SMILES IDX 58 68 59 69 67 70 60 71 62 72 68 73 61 74 63 75 64 76 65 77
REMARK SMILES IDX 66 78 43 79 44 80 52 81 45 82 47 83 53 84 46 85 48 86 49 87
REMARK SMILES IDX 50 88 51 89
REMARK H PARENT 7 8 14 23 73 42 41 53
REMARK Flexibility Score: inf
ROOT
ATOM      1  C   UNL A   1      35.283  21.039  24.652  1.00  0.00     0.002 C 
ENDROOT
BRANCH   1   2
ATOM      2  C   UNL A   1      35.107  19.517  24.731  1.00  0.00     0.002 C 
BRANCH   2   3
ATOM      3  C   UNL A   1      33.682  18.951  24.518  1.00  0.00     0.021 C 
BRANCH   3   4
ATOM      4  C   UNL A   1      32.404  19.828  25.048  1.00  0.00     0.116 C 
BRANCH   4   5
ATOM      5  N   UNL A   1      32.200  21.342  26.321  1.00  0.00    -0.356 N 
ATOM      6  C   UNL A   1      32.413  22.624  26.821  1.00  0.00     0.220 C 
ATOM      7  O   UNL A   1      31.742  22.913  27.819  1.00  0.00    -0.275 OA
ATOM      8  H   UNL A   1      31.591  20.961  26.994  1.00  0.00     0.163 HD
BRANCH   6   9
ATOM      9  C   UNL A   1      33.323  23.629  26.213  1.00  0.00     0.101 C 
BRANCH   9  10
ATOM     10  C   UNL A   1      32.713  24.045  24.919  1.00  0.00     0.024 C 
BRANCH  10  11
ATOM     11  C   UNL A   1      32.808  25.583  24.843  1.00  0.00     0.027 C 
ATOM     12  C   UNL A   1      33.945  25.911  25.852  1.00  0.00     0.019 C 
ATOM     13  C   UNL A   1      33.444  26.018  23.069  1.00  0.00     0.014 C 
ATOM     14  C   UNL A   1      31.049  26.220  25.396  1.00  0.00     0.138 C 
ATOM     15  C   UNL A   1      32.356  27.071  21.847  1.00  0.00     0.001 C 
ATOM     16  C   UNL A   1      29.918  27.153  24.136  1.00  0.00     0.076 C 
ATOM     17  O   UNL A   1      30.647  26.007  26.543  1.00  0.00    -0.299 OA
ATOM     18  C   UNL A   1      30.630  27.764  22.434  1.00  0.00     0.008 C 
ENDBRANCH  10  11
ENDBRANCH   9  10
ENDBRANCH   6   9
ENDBRANCH   4   5
ENDBRANCH   3   4
ENDBRANCH   2   3
ENDBRANCH   1   2
BRANCH   1  19
ATOM     19  C   UNL A   1      36.228  21.649  25.681  1.00  0.00     0.021 C 
BRANCH  19  20
ATOM     20  C   UNL A   1      37.657  21.846  25.200  1.00  0.00     0.116 C 
BRANCH  20  21
ATOM     21  N   UNL A   1      38.571  20.814  25.673  1.00  0.00    -0.352 N 
ATOM     22  C   UNL A   1      39.717  20.958  26.417  1.00  0.00     0.251 C 
ATOM     23  H   UNL A   1      38.335  19.890  25.426  1.00  0.00     0.163 HD
ATOM     24  O   UNL A   1      40.429  19.994  26.663  1.00  0.00    -0.269 OA
BRANCH  22  25
ATOM     25  C   UNL A   1      40.087  22.308  26.880  1.00  0.00     0.039 A 
ATOM     26  C   UNL A   1      41.019  22.435  27.911  1.00  0.00     0.014 A 
ATOM     27  C   UNL A   1      39.570  23.436  26.238  1.00  0.00     0.014 A 
ATOM     28  C   UNL A   1      41.481  23.703  28.260  1.00  0.00     0.010 A 
ATOM     29  C   UNL A   1      40.094  24.687  26.529  1.00  0.00     0.010 A 
ATOM     30  C   UNL A   1      41.047  24.834  27.550  1.00  0.00    -0.014 A 
BRANCH  30  31
ATOM     31  C   UNL A   1      41.567  26.185  27.867  1.00  0.00     0.031 A 
ATOM     32  C   UNL A   1      42.960  26.564  27.448  1.00  0.00     0.074 A 
ATOM     33  C   UNL A   1      40.820  27.034  28.600  1.00  0.00     0.049 A 
ATOM     34  N   UNL A   1      43.614  27.672  27.669  1.00  0.00    -0.248 NA
ATOM     35  C   UNL A   1      43.736  25.548  26.714  1.00  0.00     0.031 C 
ATOM     36  C   UNL A   1      39.490  26.741  29.140  1.00  0.00     0.029 A 
ATOM     37  N   UNL A   1      41.082  28.307  29.037  1.00  0.00    -0.354 N 
ATOM     38  C   UNL A   1      44.884  27.476  27.139  1.00  0.00     0.074 A 
ATOM     39  C   UNL A   1      44.924  26.126  26.623  1.00  0.00     0.031 C 
ATOM     40  C   UNL A   1      39.051  27.807  29.828  1.00  0.00     0.029 A 
ATOM     41  C   UNL A   1      40.073  28.849  29.798  1.00  0.00     0.049 A 
ATOM     42  H   UNL A   1      41.915  28.787  28.826  1.00  0.00     0.167 HD
ATOM     43  C   UNL A   1      45.912  28.352  27.056  1.00  0.00     0.034 A 
ATOM     44  C   UNL A   1      39.983  30.050  30.399  1.00  0.00     0.034 A 
ATOM     45  C   UNL A   1      45.842  29.710  27.517  1.00  0.00     0.049 A 
ATOM     46  C   UNL A   1      41.113  31.031  30.231  1.00  0.00     0.074 A 
ATOM     47  C   UNL A   1      46.788  30.711  27.393  1.00  0.00     0.029 A 
ATOM     48  N   UNL A   1      44.762  30.259  28.192  1.00  0.00    -0.354 N 
ATOM     49  N   UNL A   1      42.242  30.885  29.580  1.00  0.00    -0.248 NA
ATOM     50  C   UNL A   1      40.942  32.355  30.845  1.00  0.00     0.031 C 
ATOM     51  C   UNL A   1      46.284  31.864  28.006  1.00  0.00     0.029 A 
ATOM     52  C   UNL A   1      45.018  31.585  28.494  1.00  0.00     0.049 A 
ATOM     53  H   UNL A   1      43.935  29.777  28.421  1.00  0.00     0.167 HD
ATOM     54  C   UNL A   1      42.899  32.106  29.675  1.00  0.00     0.074 A 
ATOM     55  C   UNL A   1      42.031  32.987  30.429  1.00  0.00     0.031 C 
ATOM     56  C   UNL A   1      44.116  32.462  29.196  1.00  0.00     0.034 A 
BRANCH  43  57
ATOM     57  C   UNL A   1      47.174  27.884  26.382  1.00  0.00     0.023 A 
ATOM     58  C   UNL A   1      48.192  27.286  27.153  1.00  0.00     0.012 A 
ATOM     59  C   UNL A   1      47.338  27.992  24.987  1.00  0.00     0.148 A 
ATOM     60  C   UNL A   1      49.369  26.839  26.555  1.00  0.00     0.002 A 
ATOM     61  C   UNL A   1      48.494  27.502  24.392  1.00  0.00     0.091 A 
ATOM     62  F   UNL A   1      46.370  28.585  24.273  1.00  0.00    -0.205 F 
ATOM     63  C   UNL A   1      49.515  26.937  25.174  1.00  0.00     0.022 A 
BRANCH  61  64
ATOM     64  S   UNL A   1      48.746  27.513  22.613  1.00  0.00     0.127 S 
ATOM     65  O   UNL A   1      48.696  26.086  22.299  1.00  0.00    -0.237 OA
ATOM     66  O   UNL A   1      47.592  28.281  22.143  1.00  0.00    -0.237 OA
ATOM     67  O   UNL A   1      50.033  28.157  22.393  1.00  0.00    -0.744 OA
ENDBRANCH  61  64
ENDBRANCH  43  57
BRANCH  44  68
ATOM     68  C   UNL A   1      38.745  30.423  31.140  1.00  0.00     0.023 A 
ATOM     69  C   UNL A   1      38.649  30.130  32.515  1.00  0.00     0.012 A 
ATOM     70  C   UNL A   1      37.680  31.091  30.505  1.00  0.00     0.148 A 
ATOM     71  C   UNL A   1      37.504  30.467  33.237  1.00  0.00     0.002 A 
ATOM     72  C   UNL A   1      36.565  31.472  31.243  1.00  0.00     0.091 A 
ATOM     73  F   UNL A   1      37.784  31.351  29.194  1.00  0.00    -0.205 F 
ATOM     74  C   UNL A   1      36.467  31.147  32.605  1.00  0.00     0.022 A 
BRANCH  72  75
ATOM     75  S   UNL A   1      35.242  32.465  30.541  1.00  0.00     0.127 S 
ATOM     76  O   UNL A   1      34.864  31.674  29.371  1.00  0.00    -0.237 OA
ATOM     77  O   UNL A   1      34.258  32.470  31.625  1.00  0.00    -0.237 OA
ATOM     78  O   UNL A   1      35.835  33.765  30.265  1.00  0.00    -0.744 OA
ENDBRANCH  72  75
ENDBRANCH  44  68
BRANCH  56  79
ATOM     79  C   UNL A   1      44.577  33.874  29.442  1.00  0.00     0.023 A 
ATOM     80  C   UNL A   1      45.180  34.207  30.670  1.00  0.00     0.012 A 
ATOM     81  C   UNL A   1      44.489  34.845  28.425  1.00  0.00     0.148 A 
ATOM     82  C   UNL A   1      45.662  35.497  30.894  1.00  0.00     0.002 A 
ATOM     83  C   UNL A   1      45.016  36.112  28.637  1.00  0.00     0.091 A 
ATOM     84  F   UNL A   1      43.895  34.510  27.270  1.00  0.00    -0.205 F 
ATOM     85  C   UNL A   1      45.593  36.443  29.874  1.00  0.00     0.022 A 
BRANCH  83  86
ATOM     86  S   UNL A   1      45.058  37.362  27.348  1.00  0.00     0.127 S 
ATOM     87  O   UNL A   1      43.641  37.488  27.010  1.00  0.00    -0.237 OA
ATOM     88  O   UNL A   1      45.623  38.515  28.049  1.00  0.00    -0.237 OA
ATOM     89  O   UNL A   1      45.908  36.822  26.295  1.00  0.00    -0.744 OA
ENDBRANCH  83  86
ENDBRANCH  56  79
ENDBRANCH  30  31
ENDBRANCH  22  25
ENDBRANCH  20  21
ENDBRANCH  19  20
ENDBRANCH   1  19
TORSDOF 18
ENDMDL
