MODEL 1
REMARK VINA RESULT:     -11.9      0.000      0.000
REMARK SMILES O=C(NCCCCCCNC(=O)[C@@H]1CC(=O)N(c2ccc(Cl)cc2C(=O)c2ccccc2)C1)c1ccc(-c2c3nc(c(-c4cccc(S(=O)(=O)[O-])c4F)c4ccc([nH]4)c(-c4cccc(S(=O)(=O)[O-])c4F)c4nc(c(-c5cccc(S(=O)(=O)[O-])c5F)c5ccc2[nH]5)C=C4)C=C3)cc1
REMARK SMILES IDX 6 1 5 2 4 3 3 4 1 5 2 6 34 8 35 9 96 10 36 11 95 12 37 13
REMARK SMILES IDX 38 14 39 15 89 16 40 17 94 18 88 19 90 20 41 21 93 22 87 23
REMARK SMILES IDX 86 24 42 26 74 27 54 28 73 29 55 30 58 31 72 32 91 33 56 34
REMARK SMILES IDX 57 35 71 37 92 38 59 39 43 40 44 41 52 42 45 43 47 44 53 45
REMARK SMILES IDX 46 46 48 47 49 48 50 49 51 50 75 51 76 52 84 53 77 54 79 55
REMARK SMILES IDX 85 56 78 57 80 58 81 59 82 60 83 61 60 62 61 63 69 64 62 65
REMARK SMILES IDX 64 66 70 67 63 68 65 69 66 70 67 71 68 72 7 73 8 74 9 75
REMARK SMILES IDX 10 76 11 77 12 79 13 80 14 81 33 82 15 83 17 84 16 85 18 86
REMARK SMILES IDX 19 87 24 88 20 89 23 90 21 91 22 92 25 93 26 94 27 95 28 96
REMARK SMILES IDX 32 97 29 98 31 99 30 100
REMARK H PARENT 3 7 90 25 58 36 10 78
REMARK Flexibility Score: inf
ROOT
ATOM      1  C   UNL A   1      40.555  22.567  27.779  1.00  0.00     0.002 C 
ENDROOT
BRANCH   1   2
ATOM      2  C   UNL A   1      41.038  21.133  27.567  1.00  0.00     0.021 C 
BRANCH   2   3
ATOM      3  C   UNL A   1      40.822  20.624  26.152  1.00  0.00     0.116 C 
BRANCH   3   4
ATOM      4  N   UNL A   1      41.872  19.693  25.773  1.00  0.00    -0.352 N 
ATOM      5  O   UNL A   1      43.782  19.143  24.711  1.00  0.00    -0.269 OA
ATOM      6  C   UNL A   1      43.123  19.985  25.306  1.00  0.00     0.251 C 
ATOM      7  H   UNL A   1      41.656  18.737  25.865  1.00  0.00     0.163 HD
BRANCH   6   8
ATOM      8  C   UNL A   1      43.637  21.339  25.554  1.00  0.00     0.039 A 
ATOM      9  C   UNL A   1      43.461  22.320  24.569  1.00  0.00     0.014 A 
ATOM     10  C   UNL A   1      44.301  21.622  26.745  1.00  0.00     0.014 A 
ATOM     11  C   UNL A   1      44.035  23.564  24.732  1.00  0.00     0.010 A 
ATOM     12  C   UNL A   1      44.776  22.913  26.958  1.00  0.00     0.010 A 
ATOM     13  C   UNL A   1      44.631  23.890  25.958  1.00  0.00    -0.014 A 
BRANCH  13  14
ATOM     14  C   UNL A   1      44.906  25.312  26.248  1.00  0.00     0.031 A 
ATOM     15  C   UNL A   1      46.293  25.866  26.198  1.00  0.00     0.074 A 
ATOM     16  C   UNL A   1      43.858  26.077  26.615  1.00  0.00     0.049 A 
ATOM     17  N   UNL A   1      46.694  27.072  26.496  1.00  0.00    -0.248 NA
ATOM     18  C   UNL A   1      47.371  24.958  25.774  1.00  0.00     0.031 C 
ATOM     19  C   UNL A   1      42.471  25.607  26.732  1.00  0.00     0.029 A 
ATOM     20  N   UNL A   1      43.789  27.394  26.981  1.00  0.00    -0.354 N 
ATOM     21  C   UNL A   1      48.074  27.060  26.348  1.00  0.00     0.074 A 
ATOM     22  C   UNL A   1      48.443  25.729  25.917  1.00  0.00     0.031 C 
ATOM     23  C   UNL A   1      41.692  26.617  27.135  1.00  0.00     0.029 A 
ATOM     24  C   UNL A   1      42.532  27.777  27.388  1.00  0.00     0.049 A 
ATOM     25  H   UNL A   1      44.560  28.006  26.956  1.00  0.00     0.167 HD
ATOM     26  C   UNL A   1      48.942  28.074  26.563  1.00  0.00     0.034 A 
ATOM     27  C   UNL A   1      42.108  28.916  27.964  1.00  0.00     0.034 A 
ATOM     28  C   UNL A   1      48.546  29.396  26.976  1.00  0.00     0.049 A 
ATOM     29  C   UNL A   1      43.108  30.009  28.196  1.00  0.00     0.074 A 
ATOM     30  C   UNL A   1      49.341  30.518  27.128  1.00  0.00     0.029 A 
ATOM     31  N   UNL A   1      47.260  29.766  27.338  1.00  0.00    -0.354 N 
ATOM     32  N   UNL A   1      44.383  30.036  27.895  1.00  0.00    -0.248 NA
ATOM     33  C   UNL A   1      42.610  31.237  28.829  1.00  0.00     0.031 C 
ATOM     34  C   UNL A   1      48.550  31.546  27.642  1.00  0.00     0.029 A 
ATOM     35  C   UNL A   1      47.249  31.085  27.755  1.00  0.00     0.049 A 
ATOM     36  H   UNL A   1      46.471  29.176  27.302  1.00  0.00     0.167 HD
ATOM     37  C   UNL A   1      44.836  31.289  28.282  1.00  0.00     0.074 A 
ATOM     38  C   UNL A   1      43.690  32.005  28.803  1.00  0.00     0.031 C 
ATOM     39  C   UNL A   1      46.091  31.794  28.234  1.00  0.00     0.034 A 
BRANCH  26  40
ATOM     40  C   UNL A   1      50.410  27.817  26.372  1.00  0.00     0.023 A 
ATOM     41  C   UNL A   1      51.216  27.455  27.468  1.00  0.00     0.012 A 
ATOM     42  C   UNL A   1      50.958  27.808  25.074  1.00  0.00     0.148 A 
ATOM     43  C   UNL A   1      52.550  27.097  27.276  1.00  0.00     0.002 A 
ATOM     44  C   UNL A   1      52.274  27.406  24.885  1.00  0.00     0.091 A 
ATOM     45  F   UNL A   1      50.176  28.174  24.049  1.00  0.00    -0.205 F 
ATOM     46  C   UNL A   1      53.073  27.057  25.985  1.00  0.00     0.022 A 
BRANCH  44  47
ATOM     47  S   UNL A   1      53.012  27.237  23.256  1.00  0.00     0.127 S 
ATOM     48  O   UNL A   1      53.742  28.499  23.134  1.00  0.00    -0.237 OA
ATOM     49  O   UNL A   1      53.860  26.058  23.428  1.00  0.00    -0.237 OA
ATOM     50  O   UNL A   1      51.907  27.069  22.324  1.00  0.00    -0.744 OA
ENDBRANCH  44  47
ENDBRANCH  26  40
BRANCH  27  51
ATOM     51  C   UNL A   1      40.690  29.061  28.393  1.00  0.00     0.023 A 
ATOM     52  C   UNL A   1      39.694  29.331  27.438  1.00  0.00     0.012 A 
ATOM     53  C   UNL A   1      40.327  28.939  29.750  1.00  0.00     0.148 A 
ATOM     54  C   UNL A   1      38.372  29.532  27.831  1.00  0.00     0.002 A 
ATOM     55  C   UNL A   1      39.000  29.074  30.127  1.00  0.00     0.091 A 
ATOM     56  F   UNL A   1      41.292  28.685  30.647  1.00  0.00    -0.205 F 
ATOM     57  C   UNL A   1      38.023  29.397  29.173  1.00  0.00     0.022 A 
BRANCH  55  58
ATOM     58  S   UNL A   1      38.444  28.784  31.809  1.00  0.00     0.127 S 
ATOM     59  O   UNL A   1      37.018  29.077  31.707  1.00  0.00    -0.237 OA
ATOM     60  O   UNL A   1      38.772  27.369  31.994  1.00  0.00    -0.237 OA
ATOM     61  O   UNL A   1      39.221  29.692  32.642  1.00  0.00    -0.744 OA
ENDBRANCH  55  58
ENDBRANCH  27  51
BRANCH  39  62
ATOM     62  C   UNL A   1      46.289  33.199  28.732  1.00  0.00     0.023 A 
ATOM     63  C   UNL A   1      46.697  33.421  30.063  1.00  0.00     0.012 A 
ATOM     64  C   UNL A   1      46.141  34.294  27.860  1.00  0.00     0.148 A 
ATOM     65  C   UNL A   1      46.921  34.716  30.527  1.00  0.00     0.002 A 
ATOM     66  C   UNL A   1      46.421  35.577  28.313  1.00  0.00     0.091 A 
ATOM     67  F   UNL A   1      45.739  34.059  26.603  1.00  0.00    -0.205 F 
ATOM     68  C   UNL A   1      46.796  35.790  29.650  1.00  0.00     0.022 A 
BRANCH  66  69
ATOM     69  S   UNL A   1      46.381  37.011  27.236  1.00  0.00     0.127 S 
ATOM     70  O   UNL A   1      47.011  38.031  28.076  1.00  0.00    -0.237 OA
ATOM     71  O   UNL A   1      47.192  36.567  26.104  1.00  0.00    -0.237 OA
ATOM     72  O   UNL A   1      44.978  37.249  26.927  1.00  0.00    -0.744 OA
ENDBRANCH  66  69
ENDBRANCH  39  62
ENDBRANCH  13  14
ENDBRANCH   6   8
ENDBRANCH   3   4
ENDBRANCH   2   3
ENDBRANCH   1   2
BRANCH   1  73
ATOM     73  C   UNL A   1      39.693  23.134  26.645  1.00  0.00     0.002 C 
BRANCH  73  74
ATOM     74  C   UNL A   1      38.625  24.125  27.091  1.00  0.00     0.021 C 
BRANCH  74  75
ATOM     75  C   UNL A   1      37.497  24.229  26.068  1.00  0.00     0.116 C 
BRANCH  75  76
ATOM     76  N   UNL A   1      36.663  22.828  25.993  1.00  0.00    -0.356 N 
ATOM     77  C   UNL A   1      35.142  21.901  25.193  1.00  0.00     0.225 C 
ATOM     78  H   UNL A   1      37.108  22.191  26.597  1.00  0.00     0.163 HD
ATOM     79  O   UNL A   1      34.837  20.655  25.266  1.00  0.00    -0.275 OA
BRANCH  77  80
ATOM     80  C   UNL A   1      33.812  22.467  24.160  1.00  0.00     0.107 C 
ATOM     81  C   UNL A   1      34.074  23.046  22.753  1.00  0.00     0.116 C 
ATOM     82  C   UNL A   1      32.566  23.228  24.571  1.00  0.00     0.139 C 
ATOM     83  C   UNL A   1      33.584  24.481  22.883  1.00  0.00     0.227 C 
ATOM     84  N   UNL A   1      32.817  24.554  24.063  1.00  0.00    -0.311 N 
ATOM     85  O   UNL A   1      33.939  25.395  22.156  1.00  0.00    -0.274 OA
BRANCH  84  86
ATOM     86  C   UNL A   1      32.767  25.731  24.850  1.00  0.00     0.055 A 
ATOM     87  C   UNL A   1      33.892  26.091  25.606  1.00  0.00     0.028 A 
ATOM     88  C   UNL A   1      31.624  26.549  24.924  1.00  0.00     0.048 A 
ATOM     89  C   UNL A   1      33.897  27.261  26.376  1.00  0.00     0.023 A 
ATOM     90  C   UNL A   1      31.630  27.720  25.701  1.00  0.00     0.035 A 
ATOM     91  C   UNL A   1      32.765  28.071  26.420  1.00  0.00     0.041 A 
ATOM     92  Cl  UNL A   1      32.759  29.496  27.380  1.00  0.00    -0.084 Cl
BRANCH  88  93
ATOM     93  C   UNL A   1      30.349  26.242  24.248  1.00  0.00     0.195 C 
ATOM     94  O   UNL A   1      29.879  25.111  24.336  1.00  0.00    -0.289 OA
BRANCH  93  95
ATOM     95  C   UNL A   1      29.597  27.243  23.457  1.00  0.00     0.023 A 
ATOM     96  C   UNL A   1      30.615  28.391  22.468  1.00  0.00     0.012 A 
ATOM     97  C   UNL A   1      27.783  27.570  23.655  1.00  0.00     0.012 A 
ATOM     98  C   UNL A   1      29.887  29.889  21.741  1.00  0.00     0.001 A 
ATOM     99  C   UNL A   1      27.049  29.064  22.893  1.00  0.00     0.001 A 
ATOM    100  C   UNL A   1      28.094  30.229  21.962  1.00  0.00     0.000 A 
ENDBRANCH  93  95
ENDBRANCH  88  93
ENDBRANCH  84  86
ENDBRANCH  77  80
ENDBRANCH  75  76
ENDBRANCH  74  75
ENDBRANCH  73  74
ENDBRANCH   1  73
TORSDOF 19
ENDMDL
MODEL 2
REMARK VINA RESULT:     -11.6      5.622     10.545
REMARK SMILES O=C(NCCCCCCNC(=O)[C@@H]1CC(=O)N(c2ccc(Cl)cc2C(=O)c2ccccc2)C1)c1ccc(-c2c3nc(c(-c4cccc(S(=O)(=O)[O-])c4F)c4ccc([nH]4)c(-c4cccc(S(=O)(=O)[O-])c4F)c4nc(c(-c5cccc(S(=O)(=O)[O-])c5F)c5ccc2[nH]5)C=C4)C=C3)cc1
REMARK SMILES IDX 6 1 5 2 4 3 3 4 1 5 2 6 34 8 35 9 96 10 36 11 95 12 37 13
REMARK SMILES IDX 38 14 39 15 89 16 40 17 94 18 88 19 90 20 41 21 93 22 87 23
REMARK SMILES IDX 86 24 42 26 74 27 54 28 73 29 55 30 58 31 72 32 91 33 56 34
REMARK SMILES IDX 57 35 71 37 92 38 59 39 43 40 44 41 52 42 45 43 47 44 53 45
REMARK SMILES IDX 46 46 48 47 49 48 50 49 51 50 75 51 76 52 84 53 77 54 79 55
REMARK SMILES IDX 85 56 78 57 80 58 81 59 82 60 83 61 60 62 61 63 69 64 62 65
REMARK SMILES IDX 64 66 70 67 63 68 65 69 66 70 67 71 68 72 7 73 8 74 9 75
REMARK SMILES IDX 10 76 11 77 12 79 13 80 14 81 33 82 15 83 17 84 16 85 18 86
REMARK SMILES IDX 19 87 24 88 20 89 23 90 21 91 22 92 25 93 26 94 27 95 28 96
REMARK SMILES IDX 32 97 29 98 31 99 30 100
REMARK H PARENT 3 7 90 25 58 36 10 78
REMARK Flexibility Score: inf
ROOT
ATOM      1  C   UNL A   1      35.831  29.514  27.605  1.00  0.00     0.002 C 
ENDROOT
BRANCH   1   2
ATOM      2  C   UNL A   1      36.297  30.390  28.766  1.00  0.00     0.021 C 
BRANCH   2   3
ATOM      3  C   UNL A   1      36.371  29.651  30.092  1.00  0.00     0.116 C 
BRANCH   3   4
ATOM      4  N   UNL A   1      36.288  30.581  31.206  1.00  0.00    -0.352 N 
ATOM      5  O   UNL A   1      36.716  31.225  33.324  1.00  0.00    -0.269 OA
ATOM      6  C   UNL A   1      37.084  30.634  32.316  1.00  0.00     0.251 C 
ATOM      7  H   UNL A   1      35.571  31.255  31.154  1.00  0.00     0.163 HD
BRANCH   6   8
ATOM      8  C   UNL A   1      38.389  29.964  32.242  1.00  0.00     0.039 A 
ATOM      9  C   UNL A   1      39.492  30.682  31.762  1.00  0.00     0.014 A 
ATOM     10  C   UNL A   1      38.508  28.631  32.630  1.00  0.00     0.014 A 
ATOM     11  C   UNL A   1      40.699  30.039  31.578  1.00  0.00     0.010 A 
ATOM     12  C   UNL A   1      39.756  28.019  32.554  1.00  0.00     0.010 A 
ATOM     13  C   UNL A   1      40.857  28.726  32.042  1.00  0.00    -0.014 A 
BRANCH  13  14
ATOM     14  C   UNL A   1      42.226  28.188  32.172  1.00  0.00     0.031 A 
ATOM     15  C   UNL A   1      43.024  28.377  33.421  1.00  0.00     0.074 A 
ATOM     16  C   UNL A   1      42.746  27.566  31.094  1.00  0.00     0.049 A 
ATOM     17  N   UNL A   1      44.259  28.024  33.653  1.00  0.00    -0.248 NA
ATOM     18  C   UNL A   1      42.367  29.056  34.550  1.00  0.00     0.031 C 
ATOM     19  C   UNL A   1      42.049  27.374  29.815  1.00  0.00     0.029 A 
ATOM     20  N   UNL A   1      43.977  27.006  30.884  1.00  0.00    -0.354 N 
ATOM     21  C   UNL A   1      44.550  28.479  34.931  1.00  0.00     0.074 A 
ATOM     22  C   UNL A   1      43.356  29.123  35.435  1.00  0.00     0.031 C 
ATOM     23  C   UNL A   1      42.858  26.739  28.960  1.00  0.00     0.029 A 
ATOM     24  C   UNL A   1      44.154  26.557  29.596  1.00  0.00     0.049 A 
ATOM     25  H   UNL A   1      44.665  26.931  31.584  1.00  0.00     0.167 HD
ATOM     26  C   UNL A   1      45.716  28.369  35.607  1.00  0.00     0.034 A 
ATOM     27  C   UNL A   1      45.256  26.107  28.971  1.00  0.00     0.034 A 
ATOM     28  C   UNL A   1      46.885  27.708  35.089  1.00  0.00     0.049 A 
ATOM     29  C   UNL A   1      46.530  26.015  29.756  1.00  0.00     0.074 A 
ATOM     30  C   UNL A   1      48.084  27.461  35.735  1.00  0.00     0.029 A 
ATOM     31  N   UNL A   1      47.020  27.224  33.798  1.00  0.00    -0.354 N 
ATOM     32  N   UNL A   1      46.742  26.299  31.018  1.00  0.00    -0.248 NA
ATOM     33  C   UNL A   1      47.714  25.521  29.040  1.00  0.00     0.031 C 
ATOM     34  C   UNL A   1      48.964  26.887  34.817  1.00  0.00     0.029 A 
ATOM     35  C   UNL A   1      48.297  26.721  33.614  1.00  0.00     0.049 A 
ATOM     36  H   UNL A   1      46.312  27.236  33.113  1.00  0.00     0.167 HD
ATOM     37  C   UNL A   1      48.077  26.001  31.253  1.00  0.00     0.074 A 
ATOM     38  C   UNL A   1      48.613  25.476  30.014  1.00  0.00     0.031 C 
ATOM     39  C   UNL A   1      48.801  26.168  32.385  1.00  0.00     0.034 A 
BRANCH  26  40
ATOM     40  C   UNL A   1      45.812  28.977  36.979  1.00  0.00     0.023 A 
ATOM     41  C   UNL A   1      45.984  30.367  37.128  1.00  0.00     0.012 A 
ATOM     42  C   UNL A   1      45.597  28.177  38.118  1.00  0.00     0.148 A 
ATOM     43  C   UNL A   1      45.950  30.950  38.394  1.00  0.00     0.002 A 
ATOM     44  C   UNL A   1      45.519  28.770  39.372  1.00  0.00     0.091 A 
ATOM     45  F   UNL A   1      45.455  26.854  37.951  1.00  0.00    -0.205 F 
ATOM     46  C   UNL A   1      45.703  30.155  39.512  1.00  0.00     0.022 A 
BRANCH  44  47
ATOM     47  S   UNL A   1      45.118  27.846  40.858  1.00  0.00     0.127 S 
ATOM     48  O   UNL A   1      46.449  27.476  41.341  1.00  0.00    -0.237 OA
ATOM     49  O   UNL A   1      44.436  28.855  41.668  1.00  0.00    -0.237 OA
ATOM     50  O   UNL A   1      44.284  26.732  40.432  1.00  0.00    -0.744 OA
ENDBRANCH  44  47
ENDBRANCH  26  40
BRANCH  27  51
ATOM     51  C   UNL A   1      45.210  25.751  27.527  1.00  0.00     0.023 A 
ATOM     52  C   UNL A   1      45.336  26.758  26.553  1.00  0.00     0.012 A 
ATOM     53  C   UNL A   1      45.034  24.414  27.115  1.00  0.00     0.148 A 
ATOM     54  C   UNL A   1      45.231  26.449  25.197  1.00  0.00     0.002 A 
ATOM     55  C   UNL A   1      44.996  24.104  25.764  1.00  0.00     0.091 A 
ATOM     56  F   UNL A   1      44.911  23.468  28.058  1.00  0.00    -0.205 F 
ATOM     57  C   UNL A   1      45.069  25.124  24.802  1.00  0.00     0.022 A 
BRANCH  55  58
ATOM     58  S   UNL A   1      44.926  22.413  25.168  1.00  0.00     0.127 S 
ATOM     59  O   UNL A   1      45.055  22.599  23.726  1.00  0.00    -0.237 OA
ATOM     60  O   UNL A   1      46.092  21.815  25.819  1.00  0.00    -0.237 OA
ATOM     61  O   UNL A   1      43.648  21.886  25.629  1.00  0.00    -0.744 OA
ENDBRANCH  55  58
ENDBRANCH  27  51
BRANCH  39  62
ATOM     62  C   UNL A   1      50.246  25.753  32.346  1.00  0.00     0.023 A 
ATOM     63  C   UNL A   1      51.241  26.704  32.043  1.00  0.00     0.012 A 
ATOM     64  C   UNL A   1      50.622  24.438  32.682  1.00  0.00     0.148 A 
ATOM     65  C   UNL A   1      52.587  26.343  32.041  1.00  0.00     0.002 A 
ATOM     66  C   UNL A   1      51.967  24.099  32.734  1.00  0.00     0.091 A 
ATOM     67  F   UNL A   1      49.657  23.548  32.954  1.00  0.00    -0.205 F 
ATOM     68  C   UNL A   1      52.950  25.046  32.399  1.00  0.00     0.022 A 
BRANCH  66  69
ATOM     69  S   UNL A   1      52.537  22.486  33.275  1.00  0.00     0.127 S 
ATOM     70  O   UNL A   1      53.988  22.674  33.292  1.00  0.00    -0.237 OA
ATOM     71  O   UNL A   1      51.922  22.371  34.596  1.00  0.00    -0.237 OA
ATOM     72  O   UNL A   1      52.052  21.531  32.288  1.00  0.00    -0.744 OA
ENDBRANCH  66  69
ENDBRANCH  39  62
ENDBRANCH  13  14
ENDBRANCH   6   8
ENDBRANCH   3   4
ENDBRANCH   2   3
ENDBRANCH   1   2
BRANCH   1  73
ATOM     73  C   UNL A   1      34.317  29.273  27.544  1.00  0.00     0.002 C 
BRANCH  73  74
ATOM     74  C   UNL A   1      33.539  30.307  26.741  1.00  0.00     0.021 C 
BRANCH  74  75
ATOM     75  C   UNL A   1      32.036  30.183  26.978  1.00  0.00     0.116 C 
BRANCH  75  76
ATOM     76  N   UNL A   1      31.492  28.739  26.445  1.00  0.00    -0.356 N 
ATOM     77  C   UNL A   1      31.945  27.109  25.470  1.00  0.00     0.225 C 
ATOM     78  H   UNL A   1      30.555  28.656  26.734  1.00  0.00     0.163 HD
ATOM     79  O   UNL A   1      31.254  26.032  25.348  1.00  0.00    -0.275 OA
BRANCH  77  80
ATOM     80  C   UNL A   1      33.380  26.643  24.531  1.00  0.00     0.107 C 
ATOM     81  C   UNL A   1      33.346  26.565  22.989  1.00  0.00     0.116 C 
ATOM     82  C   UNL A   1      34.411  25.581  24.863  1.00  0.00     0.139 C 
ATOM     83  C   UNL A   1      33.618  25.092  22.721  1.00  0.00     0.227 C 
ATOM     84  N   UNL A   1      34.109  24.535  23.919  1.00  0.00    -0.311 N 
ATOM     85  O   UNL A   1      33.311  24.515  21.689  1.00  0.00    -0.274 OA
BRANCH  84  86
ATOM     86  C   UNL A   1      33.850  23.188  24.276  1.00  0.00     0.055 A 
ATOM     87  C   UNL A   1      32.544  22.817  24.626  1.00  0.00     0.028 A 
ATOM     88  C   UNL A   1      34.857  22.204  24.319  1.00  0.00     0.048 A 
ATOM     89  C   UNL A   1      32.237  21.492  24.960  1.00  0.00     0.023 A 
ATOM     90  C   UNL A   1      34.547  20.876  24.657  1.00  0.00     0.035 A 
ATOM     91  C   UNL A   1      33.240  20.527  24.974  1.00  0.00     0.041 A 
ATOM     92  Cl  UNL A   1      32.872  18.904  25.402  1.00  0.00    -0.084 Cl
BRANCH  88  93
ATOM     93  C   UNL A   1      36.282  22.477  24.057  1.00  0.00     0.195 C 
ATOM     94  O   UNL A   1      36.645  22.745  22.915  1.00  0.00    -0.289 OA
BRANCH  93  95
ATOM     95  C   UNL A   1      37.316  22.444  25.119  1.00  0.00     0.023 A 
ATOM     96  C   UNL A   1      37.568  24.010  26.020  1.00  0.00     0.012 A 
ATOM     97  C   UNL A   1      38.517  21.052  25.352  1.00  0.00     0.012 A 
ATOM     98  C   UNL A   1      39.023  24.248  27.082  1.00  0.00     0.001 A 
ATOM     99  C   UNL A   1      39.965  21.286  26.449  1.00  0.00     0.001 A 
ATOM    100  C   UNL A   1      40.232  22.878  27.291  1.00  0.00     0.000 A 
ENDBRANCH  93  95
ENDBRANCH  88  93
ENDBRANCH  84  86
ENDBRANCH  77  80
ENDBRANCH  75  76
ENDBRANCH  74  75
ENDBRANCH  73  74
ENDBRANCH   1  73
TORSDOF 19
ENDMDL
MODEL 3
REMARK VINA RESULT:     -11.5      1.580      2.226
REMARK SMILES O=C(NCCCCCCNC(=O)[C@@H]1CC(=O)N(c2ccc(Cl)cc2C(=O)c2ccccc2)C1)c1ccc(-c2c3nc(c(-c4cccc(S(=O)(=O)[O-])c4F)c4ccc([nH]4)c(-c4cccc(S(=O)(=O)[O-])c4F)c4nc(c(-c5cccc(S(=O)(=O)[O-])c5F)c5ccc2[nH]5)C=C4)C=C3)cc1
REMARK SMILES IDX 6 1 5 2 4 3 3 4 1 5 2 6 34 8 35 9 96 10 36 11 95 12 37 13
REMARK SMILES IDX 38 14 39 15 89 16 40 17 94 18 88 19 90 20 41 21 93 22 87 23
REMARK SMILES IDX 86 24 42 26 74 27 54 28 73 29 55 30 58 31 72 32 91 33 56 34
REMARK SMILES IDX 57 35 71 37 92 38 59 39 43 40 44 41 52 42 45 43 47 44 53 45
REMARK SMILES IDX 46 46 48 47 49 48 50 49 51 50 75 51 76 52 84 53 77 54 79 55
REMARK SMILES IDX 85 56 78 57 80 58 81 59 82 60 83 61 60 62 61 63 69 64 62 65
REMARK SMILES IDX 64 66 70 67 63 68 65 69 66 70 67 71 68 72 7 73 8 74 9 75
REMARK SMILES IDX 10 76 11 77 12 79 13 80 14 81 33 82 15 83 17 84 16 85 18 86
REMARK SMILES IDX 19 87 24 88 20 89 23 90 21 91 22 92 25 93 26 94 27 95 28 96
REMARK SMILES IDX 32 97 29 98 31 99 30 100
REMARK H PARENT 3 7 90 25 58 36 10 78
REMARK Flexibility Score: inf
ROOT
ATOM      1  C   UNL A   1      41.110  21.707  27.848  1.00  0.00     0.002 C 
ENDROOT
BRANCH   1   2
ATOM      2  C   UNL A   1      41.750  20.419  27.333  1.00  0.00     0.021 C 
BRANCH   2   3
ATOM      3  C   UNL A   1      41.745  20.303  25.817  1.00  0.00     0.116 C 
BRANCH   3   4
ATOM      4  N   UNL A   1      42.812  19.426  25.365  1.00  0.00    -0.352 N 
ATOM      5  O   UNL A   1      44.688  18.982  24.196  1.00  0.00    -0.269 OA
ATOM      6  C   UNL A   1      44.025  19.782  24.844  1.00  0.00     0.251 C 
ATOM      7  H   UNL A   1      42.640  18.460  25.442  1.00  0.00     0.163 HD
BRANCH   6   8
ATOM      8  C   UNL A   1      44.495  21.150  25.102  1.00  0.00     0.039 A 
ATOM      9  C   UNL A   1      44.209  22.150  24.164  1.00  0.00     0.014 A 
ATOM     10  C   UNL A   1      45.227  21.427  26.254  1.00  0.00     0.014 A 
ATOM     11  C   UNL A   1      44.738  23.414  24.329  1.00  0.00     0.010 A 
ATOM     12  C   UNL A   1      45.659  22.731  26.477  1.00  0.00     0.010 A 
ATOM     13  C   UNL A   1      45.402  23.731  25.522  1.00  0.00    -0.014 A 
BRANCH  13  14
ATOM     14  C   UNL A   1      45.635  25.154  25.840  1.00  0.00     0.031 A 
ATOM     15  C   UNL A   1      47.011  25.736  25.860  1.00  0.00     0.074 A 
ATOM     16  C   UNL A   1      44.555  25.893  26.166  1.00  0.00     0.049 A 
ATOM     17  N   UNL A   1      47.373  26.946  26.190  1.00  0.00    -0.248 NA
ATOM     18  C   UNL A   1      48.126  24.855  25.476  1.00  0.00     0.031 C 
ATOM     19  C   UNL A   1      43.174  25.394  26.213  1.00  0.00     0.029 A 
ATOM     20  N   UNL A   1      44.442  27.205  26.543  1.00  0.00    -0.354 N 
ATOM     21  C   UNL A   1      48.758  26.964  26.105  1.00  0.00     0.074 A 
ATOM     22  C   UNL A   1      49.174  25.645  25.677  1.00  0.00     0.031 C 
ATOM     23  C   UNL A   1      42.357  26.383  26.591  1.00  0.00     0.029 A 
ATOM     24  C   UNL A   1      43.160  27.557  26.896  1.00  0.00     0.049 A 
ATOM     25  H   UNL A   1      45.201  27.832  26.560  1.00  0.00     0.167 HD
ATOM     26  C   UNL A   1      49.593  27.993  26.371  1.00  0.00     0.034 A 
ATOM     27  C   UNL A   1      42.687  28.680  27.463  1.00  0.00     0.034 A 
ATOM     28  C   UNL A   1      49.152  29.301  26.779  1.00  0.00     0.049 A 
ATOM     29  C   UNL A   1      43.652  29.791  27.753  1.00  0.00     0.074 A 
ATOM     30  C   UNL A   1      49.916  30.437  26.980  1.00  0.00     0.029 A 
ATOM     31  N   UNL A   1      47.843  29.641  27.085  1.00  0.00    -0.354 N 
ATOM     32  N   UNL A   1      44.939  29.847  27.511  1.00  0.00    -0.248 NA
ATOM     33  C   UNL A   1      43.100  31.001  28.375  1.00  0.00     0.031 C 
ATOM     34  C   UNL A   1      49.082  31.444  27.468  1.00  0.00     0.029 A 
ATOM     35  C   UNL A   1      47.786  30.955  27.515  1.00  0.00     0.049 A 
ATOM     36  H   UNL A   1      47.069  29.036  27.007  1.00  0.00     0.167 HD
ATOM     37  C   UNL A   1      45.348  31.104  27.933  1.00  0.00     0.074 A 
ATOM     38  C   UNL A   1      44.164  31.791  28.408  1.00  0.00     0.031 C 
ATOM     39  C   UNL A   1      46.593  31.635  27.949  1.00  0.00     0.034 A 
BRANCH  26  40
ATOM     40  C   UNL A   1      51.074  27.768  26.245  1.00  0.00     0.023 A 
ATOM     41  C   UNL A   1      51.851  27.501  27.389  1.00  0.00     0.012 A 
ATOM     42  C   UNL A   1      51.667  27.691  24.969  1.00  0.00     0.148 A 
ATOM     43  C   UNL A   1      53.200  27.170  27.264  1.00  0.00     0.002 A 
ATOM     44  C   UNL A   1      52.999  27.317  24.850  1.00  0.00     0.091 A 
ATOM     45  F   UNL A   1      50.911  27.968  23.897  1.00  0.00    -0.205 F 
ATOM     46  C   UNL A   1      53.768  27.063  25.997  1.00  0.00     0.022 A 
BRANCH  44  47
ATOM     47  S   UNL A   1      53.798  27.067  23.261  1.00  0.00     0.127 S 
ATOM     48  O   UNL A   1      53.725  28.408  22.682  1.00  0.00    -0.237 OA
ATOM     49  O   UNL A   1      55.141  26.647  23.659  1.00  0.00    -0.237 OA
ATOM     50  O   UNL A   1      53.016  26.052  22.569  1.00  0.00    -0.744 OA
ENDBRANCH  44  47
ENDBRANCH  26  40
BRANCH  27  51
ATOM     51  C   UNL A   1      41.248  28.792  27.827  1.00  0.00     0.023 A 
ATOM     52  C   UNL A   1      40.312  29.209  26.864  1.00  0.00     0.012 A 
ATOM     53  C   UNL A   1      40.805  28.491  29.132  1.00  0.00     0.148 A 
ATOM     54  C   UNL A   1      38.971  29.379  27.207  1.00  0.00     0.002 A 
ATOM     55  C   UNL A   1      39.460  28.599  29.449  1.00  0.00     0.091 A 
ATOM     56  F   UNL A   1      41.713  28.099  30.038  1.00  0.00    -0.205 F 
ATOM     57  C   UNL A   1      38.543  29.068  28.495  1.00  0.00     0.022 A 
BRANCH  55  58
ATOM     58  S   UNL A   1      38.804  28.090  31.041  1.00  0.00     0.127 S 
ATOM     59  O   UNL A   1      38.687  26.645  30.868  1.00  0.00    -0.237 OA
ATOM     60  O   UNL A   1      39.864  28.519  31.954  1.00  0.00    -0.237 OA
ATOM     61  O   UNL A   1      37.549  28.815  31.199  1.00  0.00    -0.744 OA
ENDBRANCH  55  58
ENDBRANCH  27  51
BRANCH  39  62
ATOM     62  C   UNL A   1      46.739  33.038  28.470  1.00  0.00     0.023 A 
ATOM     63  C   UNL A   1      47.076  33.252  29.822  1.00  0.00     0.012 A 
ATOM     64  C   UNL A   1      46.612  34.139  27.604  1.00  0.00     0.148 A 
ATOM     65  C   UNL A   1      47.252  34.545  30.310  1.00  0.00     0.002 A 
ATOM     66  C   UNL A   1      46.844  35.422  28.083  1.00  0.00     0.091 A 
ATOM     67  F   UNL A   1      46.278  33.911  26.326  1.00  0.00    -0.205 F 
ATOM     68  C   UNL A   1      47.149  35.627  29.439  1.00  0.00     0.022 A 
BRANCH  66  69
ATOM     69  S   UNL A   1      46.830  36.868  27.020  1.00  0.00     0.127 S 
ATOM     70  O   UNL A   1      45.414  36.959  26.661  1.00  0.00    -0.237 OA
ATOM     71  O   UNL A   1      47.298  37.917  27.924  1.00  0.00    -0.237 OA
ATOM     72  O   UNL A   1      47.728  36.568  25.914  1.00  0.00    -0.744 OA
ENDBRANCH  66  69
ENDBRANCH  39  62
ENDBRANCH  13  14
ENDBRANCH   6   8
ENDBRANCH   3   4
ENDBRANCH   2   3
ENDBRANCH   1   2
BRANCH   1  73
ATOM     73  C   UNL A   1      39.985  22.267  26.969  1.00  0.00     0.002 C 
BRANCH  73  74
ATOM     74  C   UNL A   1      39.897  23.788  26.939  1.00  0.00     0.021 C 
BRANCH  74  75
ATOM     75  C   UNL A   1      38.557  24.258  26.380  1.00  0.00     0.116 C 
BRANCH  75  76
ATOM     76  N   UNL A   1      37.497  23.018  26.315  1.00  0.00    -0.356 N 
ATOM     77  C   UNL A   1      35.613  22.507  26.349  1.00  0.00     0.225 C 
ATOM     78  H   UNL A   1      38.023  22.191  26.220  1.00  0.00     0.163 HD
ATOM     79  O   UNL A   1      35.093  21.355  26.119  1.00  0.00    -0.275 OA
BRANCH  77  80
ATOM     80  C   UNL A   1      34.133  23.438  26.664  1.00  0.00     0.107 C 
ATOM     81  C   UNL A   1      32.770  22.742  26.869  1.00  0.00     0.116 C 
ATOM     82  C   UNL A   1      33.707  24.757  26.047  1.00  0.00     0.139 C 
ATOM     83  C   UNL A   1      31.948  23.260  25.697  1.00  0.00     0.227 C 
ATOM     84  N   UNL A   1      32.638  24.367  25.162  1.00  0.00    -0.311 N 
ATOM     85  O   UNL A   1      30.961  22.698  25.251  1.00  0.00    -0.274 OA
BRANCH  84  86
ATOM     86  C   UNL A   1      32.593  24.678  23.781  1.00  0.00     0.055 A 
ATOM     87  C   UNL A   1      33.614  24.204  22.944  1.00  0.00     0.028 A 
ATOM     88  C   UNL A   1      31.575  25.466  23.210  1.00  0.00     0.048 A 
ATOM     89  C   UNL A   1      33.595  24.463  21.568  1.00  0.00     0.023 A 
ATOM     90  C   UNL A   1      31.561  25.728  21.830  1.00  0.00     0.035 A 
ATOM     91  C   UNL A   1      32.568  25.225  21.017  1.00  0.00     0.041 A 
ATOM     92  Cl  UNL A   1      32.552  25.563  19.332  1.00  0.00    -0.084 Cl
BRANCH  88  93
ATOM     93  C   UNL A   1      30.491  26.096  23.988  1.00  0.00     0.195 C 
ATOM     94  O   UNL A   1      29.336  25.713  23.830  1.00  0.00    -0.289 OA
BRANCH  93  95
ATOM     95  C   UNL A   1      30.730  27.184  24.965  1.00  0.00     0.023 A 
ATOM     96  C   UNL A   1      30.929  28.852  24.252  1.00  0.00     0.012 A 
ATOM     97  C   UNL A   1      31.126  26.902  26.753  1.00  0.00     0.012 A 
ATOM     98  C   UNL A   1      31.583  30.219  25.253  1.00  0.00     0.001 A 
ATOM     99  C   UNL A   1      31.755  28.292  27.766  1.00  0.00     0.001 A 
ATOM    100  C   UNL A   1      32.004  29.934  27.020  1.00  0.00     0.000 A 
ENDBRANCH  93  95
ENDBRANCH  88  93
ENDBRANCH  84  86
ENDBRANCH  77  80
ENDBRANCH  75  76
ENDBRANCH  74  75
ENDBRANCH  73  74
ENDBRANCH   1  73
TORSDOF 19
ENDMDL
