MODEL 1
REMARK VINA RESULT:     -11.4      0.000      0.000
REMARK SMILES Cc1ccc(NC(=O)C[C@H]([NH2+]Cc2cccnc2)C(=O)NCCCCCCNC(=O)c2ccc(-c3c4nc(c(-c5cccc(S(=O)(=O)[O-])c5F)c5ccc([nH]5)c(-c5cccc(S(=O)(=O)[O-])c5F)c5nc(c(-c6cccc(S(=O)(=O)[O-])c6F)c6ccc3[nH]6)C=C5)C=C4)cc2)cc1Cl
REMARK SMILES IDX 24 1 23 2 22 3 21 4 19 5 20 6 10 8 9 9 7 10 6 11 8 13 5 14
REMARK SMILES IDX 1 15 2 16 3 17 95 18 4 19 94 20 96 21 11 22 12 25 13 26
REMARK SMILES IDX 14 27 18 28 15 29 17 30 16 31 25 32 26 33 27 34 28 35 29 36
REMARK SMILES IDX 30 38 31 39 32 40 93 41 33 42 92 43 34 44 35 45 36 46 86 47
REMARK SMILES IDX 37 48 91 49 85 50 87 51 38 52 90 53 84 54 83 55 39 57 71 58
REMARK SMILES IDX 51 59 70 60 52 61 55 62 69 63 88 64 53 65 54 66 68 68 89 69
REMARK SMILES IDX 56 70 40 71 41 72 49 73 42 74 44 75 50 76 43 77 45 78 46 79
REMARK SMILES IDX 47 80 48 81 72 82 73 83 81 84 74 85 76 86 82 87 75 88 77 89
REMARK SMILES IDX 78 90 79 91 80 92 57 93 58 94 66 95 59 96 61 97 67 98 60 99
REMARK SMILES IDX 62 100 63 101 64 102 65 103
REMARK H PARENT 21 7 6 12 11 23 11 24 28 37 87 56 55 67
REMARK Flexibility Score: inf
ROOT
ATOM      1  C   UNL A   1      33.761  26.908  25.574  1.00  0.00     0.002 C 
ENDROOT
BRANCH   1   2
ATOM      2  C   UNL A   1      34.035  25.405  25.575  1.00  0.00     0.021 C 
BRANCH   2   3
ATOM      3  C   UNL A   1      32.901  24.492  26.075  1.00  0.00     0.116 C 
BRANCH   3   4
ATOM      4  N   UNL A   1      33.395  23.389  26.915  1.00  0.00    -0.351 N 
ATOM      5  C   UNL A   1      33.721  22.076  26.761  1.00  0.00     0.278 C 
ATOM      6  O   UNL A   1      34.118  21.516  27.798  1.00  0.00    -0.268 OA
ATOM      7  H   UNL A   1      33.527  23.682  27.845  1.00  0.00     0.163 HD
BRANCH   5   8
ATOM      8  C   UNL A   1      33.567  21.198  25.470  1.00  0.00     0.282 C 
BRANCH   8   9
ATOM      9  C   UNL A   1      32.285  21.386  24.690  1.00  0.00     0.175 C 
BRANCH   9  10
ATOM     10  C   UNL A   1      32.061  21.607  23.202  1.00  0.00     0.230 C 
ATOM     11  N   UNL A   1      31.890  22.708  22.444  1.00  0.00    -0.326 N 
ATOM     12  H   UNL A   1      31.772  22.450  21.502  1.00  0.00     0.169 HD
ATOM     13  O   UNL A   1      32.060  20.556  22.528  1.00  0.00    -0.274 OA
BRANCH  11  14
ATOM     14  C   UNL A   1      31.828  24.106  22.568  1.00  0.00     0.042 A 
ATOM     15  C   UNL A   1      31.774  28.450  22.676  1.00  0.00     0.046 C 
ATOM     16  C   UNL A   1      31.813  26.953  22.675  1.00  0.00    -0.032 A 
ATOM     17  C   UNL A   1      32.868  26.257  22.071  1.00  0.00     0.007 A 
ATOM     18  C   UNL A   1      30.787  26.208  23.244  1.00  0.00     0.046 A 
ATOM     19  C   UNL A   1      32.872  24.853  22.016  1.00  0.00     0.026 A 
ATOM     20  C   UNL A   1      30.836  24.815  23.212  1.00  0.00     0.047 A 
ATOM     21  Cl  UNL A   1      29.426  26.945  24.016  1.00  0.00    -0.084 Cl
ENDBRANCH  11  14
ENDBRANCH   9  10
ENDBRANCH   8   9
BRANCH   8  22
ATOM     22  N   UNL A   1      34.077  19.840  25.734  1.00  0.00    -0.332 N 
ATOM     23  H   UNL A   1      33.412  19.390  26.363  1.00  0.00     0.347 HD
ATOM     24  H   UNL A   1      35.016  19.999  26.097  1.00  0.00     0.347 HD
BRANCH  22  25
ATOM     25  C   UNL A   1      34.287  18.932  24.615  1.00  0.00     0.299 C 
BRANCH  25  26
ATOM     26  C   UNL A   1      33.881  17.526  24.997  1.00  0.00     0.024 A 
ATOM     27  C   UNL A   1      32.598  17.218  25.465  1.00  0.00     0.013 A 
ATOM     28  C   UNL A   1      34.760  16.457  24.833  1.00  0.00     0.120 A 
ATOM     29  C   UNL A   1      32.241  15.890  25.701  1.00  0.00     0.021 A 
ATOM     30  N   UNL A   1      34.447  15.160  25.070  1.00  0.00    -0.264 NA
ATOM     31  C   UNL A   1      33.189  14.905  25.481  1.00  0.00     0.111 A 
ENDBRANCH  25  26
ENDBRANCH  22  25
ENDBRANCH   8  22
ENDBRANCH   5   8
ENDBRANCH   3   4
ENDBRANCH   2   3
ENDBRANCH   1   2
BRANCH   1  32
ATOM     32  C   UNL A   1      32.641  27.380  26.504  1.00  0.00     0.002 C 
BRANCH  32  33
ATOM     33  C   UNL A   1      32.897  28.667  27.302  1.00  0.00     0.021 C 
BRANCH  33  34
ATOM     34  C   UNL A   1      33.832  29.699  26.665  1.00  0.00     0.116 C 
BRANCH  34  35
ATOM     35  N   UNL A   1      33.708  31.019  27.265  1.00  0.00    -0.352 N 
ATOM     36  C   UNL A   1      34.462  31.662  28.215  1.00  0.00     0.251 C 
ATOM     37  H   UNL A   1      32.946  31.545  26.930  1.00  0.00     0.163 HD
ATOM     38  O   UNL A   1      34.033  32.709  28.698  1.00  0.00    -0.269 OA
BRANCH  36  39
ATOM     39  C   UNL A   1      35.769  31.133  28.675  1.00  0.00     0.039 A 
ATOM     40  C   UNL A   1      35.773  30.017  29.520  1.00  0.00     0.014 A 
ATOM     41  C   UNL A   1      36.977  31.763  28.365  1.00  0.00     0.014 A 
ATOM     42  C   UNL A   1      36.981  29.508  30.011  1.00  0.00     0.010 A 
ATOM     43  C   UNL A   1      38.188  31.217  28.804  1.00  0.00     0.010 A 
ATOM     44  C   UNL A   1      38.205  30.087  29.636  1.00  0.00    -0.014 A 
BRANCH  44  45
ATOM     45  C   UNL A   1      39.495  29.495  30.089  1.00  0.00     0.031 A 
ATOM     46  C   UNL A   1      40.252  30.074  31.256  1.00  0.00     0.074 A 
ATOM     47  C   UNL A   1      40.021  28.461  29.403  1.00  0.00     0.049 A 
ATOM     48  N   UNL A   1      41.378  29.671  31.790  1.00  0.00    -0.248 NA
ATOM     49  C   UNL A   1      39.686  31.273  31.894  1.00  0.00     0.031 C 
ATOM     50  C   UNL A   1      39.434  27.858  28.204  1.00  0.00     0.029 A 
ATOM     51  N   UNL A   1      41.174  27.742  29.604  1.00  0.00    -0.354 N 
ATOM     52  C   UNL A   1      41.673  30.581  32.798  1.00  0.00     0.074 A 
ATOM     53  C   UNL A   1      40.621  31.574  32.786  1.00  0.00     0.031 C 
ATOM     54  C   UNL A   1      40.222  26.855  27.786  1.00  0.00     0.029 A 
ATOM     55  C   UNL A   1      41.380  26.755  28.668  1.00  0.00     0.049 A 
ATOM     56  H   UNL A   1      41.795  27.917  30.347  1.00  0.00     0.167 HD
ATOM     57  C   UNL A   1      42.711  30.578  33.671  1.00  0.00     0.034 A 
ATOM     58  C   UNL A   1      42.383  25.865  28.535  1.00  0.00     0.034 A 
ATOM     59  C   UNL A   1      43.734  29.567  33.712  1.00  0.00     0.049 A 
ATOM     60  C   UNL A   1      43.492  25.851  29.553  1.00  0.00     0.074 A 
ATOM     61  C   UNL A   1      44.765  29.421  34.624  1.00  0.00     0.029 A 
ATOM     62  N   UNL A   1      43.867  28.535  32.795  1.00  0.00    -0.354 N 
ATOM     63  N   UNL A   1      43.654  26.611  30.608  1.00  0.00    -0.248 NA
ATOM     64  C   UNL A   1      44.534  24.828  29.382  1.00  0.00     0.031 C 
ATOM     65  C   UNL A   1      45.537  28.317  34.244  1.00  0.00     0.029 A 
ATOM     66  C   UNL A   1      44.970  27.758  33.111  1.00  0.00     0.049 A 
ATOM     67  H   UNL A   1      43.266  28.378  32.033  1.00  0.00     0.167 HD
ATOM     68  C   UNL A   1      44.796  26.138  31.246  1.00  0.00     0.074 A 
ATOM     69  C   UNL A   1      45.266  25.007  30.473  1.00  0.00     0.031 C 
ATOM     70  C   UNL A   1      45.408  26.609  32.361  1.00  0.00     0.034 A 
BRANCH  57  71
ATOM     71  C   UNL A   1      42.767  31.683  34.698  1.00  0.00     0.023 A 
ATOM     72  C   UNL A   1      43.534  32.838  34.437  1.00  0.00     0.012 A 
ATOM     73  C   UNL A   1      42.013  31.611  35.886  1.00  0.00     0.148 A 
ATOM     74  C   UNL A   1      43.579  33.886  35.357  1.00  0.00     0.002 A 
ATOM     75  C   UNL A   1      42.027  32.678  36.778  1.00  0.00     0.091 A 
ATOM     76  F   UNL A   1      41.304  30.499  36.127  1.00  0.00    -0.205 F 
ATOM     77  C   UNL A   1      42.818  33.810  36.521  1.00  0.00     0.022 A 
BRANCH  75  78
ATOM     78  S   UNL A   1      41.021  32.711  38.266  1.00  0.00     0.127 S 
ATOM     79  O   UNL A   1      41.010  34.139  38.582  1.00  0.00    -0.237 OA
ATOM     80  O   UNL A   1      39.742  32.184  37.787  1.00  0.00    -0.237 OA
ATOM     81  O   UNL A   1      41.704  31.862  39.231  1.00  0.00    -0.744 OA
ENDBRANCH  75  78
ENDBRANCH  57  71
BRANCH  58  82
ATOM     82  C   UNL A   1      42.344  24.857  27.439  1.00  0.00     0.023 A 
ATOM     83  C   UNL A   1      43.153  25.042  26.301  1.00  0.00     0.012 A 
ATOM     84  C   UNL A   1      41.533  23.708  27.525  1.00  0.00     0.148 A 
ATOM     85  C   UNL A   1      43.132  24.119  25.255  1.00  0.00     0.002 A 
ATOM     86  C   UNL A   1      41.559  22.764  26.504  1.00  0.00     0.091 A 
ATOM     87  F   UNL A   1      40.760  23.556  28.610  1.00  0.00    -0.205 F 
ATOM     88  C   UNL A   1      42.344  22.978  25.361  1.00  0.00     0.022 A 
BRANCH  86  89
ATOM     89  S   UNL A   1      40.681  21.202  26.619  1.00  0.00     0.127 S 
ATOM     90  O   UNL A   1      41.477  20.347  25.739  1.00  0.00    -0.237 OA
ATOM     91  O   UNL A   1      40.802  20.895  28.047  1.00  0.00    -0.237 OA
ATOM     92  O   UNL A   1      39.326  21.479  26.178  1.00  0.00    -0.744 OA
ENDBRANCH  86  89
ENDBRANCH  58  82
BRANCH  70  93
ATOM     93  C   UNL A   1      46.646  25.885  32.829  1.00  0.00     0.023 A 
ATOM     94  C   UNL A   1      47.915  26.312  32.391  1.00  0.00     0.012 A 
ATOM     95  C   UNL A   1      46.555  24.809  33.734  1.00  0.00     0.148 A 
ATOM     96  C   UNL A   1      49.071  25.651  32.810  1.00  0.00     0.002 A 
ATOM     97  C   UNL A   1      47.713  24.187  34.187  1.00  0.00     0.091 A 
ATOM     98  F   UNL A   1      45.339  24.400  34.126  1.00  0.00    -0.205 F 
ATOM     99  C   UNL A   1      48.971  24.596  33.714  1.00  0.00     0.022 A 
BRANCH  97 100
ATOM    100  S   UNL A   1      47.681  22.886  35.425  1.00  0.00     0.127 S 
ATOM    101  O   UNL A   1      46.794  23.457  36.437  1.00  0.00    -0.237 OA
ATOM    102  O   UNL A   1      47.113  21.761  34.683  1.00  0.00    -0.237 OA
ATOM    103  O   UNL A   1      49.065  22.696  35.836  1.00  0.00    -0.744 OA
ENDBRANCH  97 100
ENDBRANCH  70  93
ENDBRANCH  44  45
ENDBRANCH  36  39
ENDBRANCH  34  35
ENDBRANCH  33  34
ENDBRANCH  32  33
ENDBRANCH   1  32
TORSDOF 22
ENDMDL
MODEL 2
REMARK VINA RESULT:     -11.3      4.936      9.187
REMARK SMILES Cc1ccc(NC(=O)C[C@H]([NH2+]Cc2cccnc2)C(=O)NCCCCCCNC(=O)c2ccc(-c3c4nc(c(-c5cccc(S(=O)(=O)[O-])c5F)c5ccc([nH]5)c(-c5cccc(S(=O)(=O)[O-])c5F)c5nc(c(-c6cccc(S(=O)(=O)[O-])c6F)c6ccc3[nH]6)C=C5)C=C4)cc2)cc1Cl
REMARK SMILES IDX 24 1 23 2 22 3 21 4 19 5 20 6 10 8 9 9 7 10 6 11 8 13 5 14
REMARK SMILES IDX 1 15 2 16 3 17 95 18 4 19 94 20 96 21 11 22 12 25 13 26
REMARK SMILES IDX 14 27 18 28 15 29 17 30 16 31 25 32 26 33 27 34 28 35 29 36
REMARK SMILES IDX 30 38 31 39 32 40 93 41 33 42 92 43 34 44 35 45 36 46 86 47
REMARK SMILES IDX 37 48 91 49 85 50 87 51 38 52 90 53 84 54 83 55 39 57 71 58
REMARK SMILES IDX 51 59 70 60 52 61 55 62 69 63 88 64 53 65 54 66 68 68 89 69
REMARK SMILES IDX 56 70 40 71 41 72 49 73 42 74 44 75 50 76 43 77 45 78 46 79
REMARK SMILES IDX 47 80 48 81 72 82 73 83 81 84 74 85 76 86 82 87 75 88 77 89
REMARK SMILES IDX 78 90 79 91 80 92 57 93 58 94 66 95 59 96 61 97 67 98 60 99
REMARK SMILES IDX 62 100 63 101 64 102 65 103
REMARK H PARENT 21 7 6 12 11 23 11 24 28 37 87 56 55 67
REMARK Flexibility Score: inf
ROOT
ATOM      1  C   UNL A   1      36.915  22.300  24.216  1.00  0.00     0.002 C 
ENDROOT
BRANCH   1   2
ATOM      2  C   UNL A   1      36.853  23.442  25.229  1.00  0.00     0.021 C 
BRANCH   2   3
ATOM      3  C   UNL A   1      35.473  24.071  25.484  1.00  0.00     0.116 C 
BRANCH   3   4
ATOM      4  N   UNL A   1      34.741  23.404  26.572  1.00  0.00    -0.351 N 
ATOM      5  C   UNL A   1      33.646  22.607  26.708  1.00  0.00     0.278 C 
ATOM      6  O   UNL A   1      33.397  22.263  27.876  1.00  0.00    -0.268 OA
ATOM      7  H   UNL A   1      35.161  23.584  27.444  1.00  0.00     0.163 HD
BRANCH   5   8
ATOM      8  C   UNL A   1      32.642  22.163  25.586  1.00  0.00     0.282 C 
BRANCH   8   9
ATOM      9  C   UNL A   1      31.173  22.317  25.913  1.00  0.00     0.175 C 
BRANCH   9  10
ATOM     10  C   UNL A   1      30.446  23.403  26.691  1.00  0.00     0.230 C 
ATOM     11  N   UNL A   1      30.304  24.732  26.513  1.00  0.00    -0.326 N 
ATOM     12  H   UNL A   1      29.750  25.108  27.236  1.00  0.00     0.169 HD
ATOM     13  O   UNL A   1      29.824  22.984  27.688  1.00  0.00    -0.274 OA
BRANCH  11  14
ATOM     14  C   UNL A   1      30.691  25.751  25.629  1.00  0.00     0.042 A 
ATOM     15  C   UNL A   1      31.596  29.004  22.893  1.00  0.00     0.046 C 
ATOM     16  C   UNL A   1      31.300  27.857  23.808  1.00  0.00    -0.032 A 
ATOM     17  C   UNL A   1      30.062  27.203  23.770  1.00  0.00     0.007 A 
ATOM     18  C   UNL A   1      32.230  27.427  24.746  1.00  0.00     0.046 A 
ATOM     19  C   UNL A   1      29.761  26.167  24.671  1.00  0.00     0.026 A 
ATOM     20  C   UNL A   1      31.923  26.369  25.601  1.00  0.00     0.047 A 
ATOM     21  Cl  UNL A   1      33.794  28.153  24.899  1.00  0.00    -0.084 Cl
ENDBRANCH  11  14
ENDBRANCH   9  10
ENDBRANCH   8   9
BRANCH   8  22
ATOM     22  N   UNL A   1      33.130  20.927  24.950  1.00  0.00    -0.332 N 
ATOM     23  H   UNL A   1      33.931  20.608  25.495  1.00  0.00     0.347 HD
ATOM     24  H   UNL A   1      33.314  21.206  23.987  1.00  0.00     0.347 HD
BRANCH  22  25
ATOM     25  C   UNL A   1      32.226  19.793  24.817  1.00  0.00     0.299 C 
BRANCH  25  26
ATOM     26  C   UNL A   1      32.999  18.495  24.880  1.00  0.00     0.024 A 
ATOM     27  C   UNL A   1      34.264  18.347  24.298  1.00  0.00     0.013 A 
ATOM     28  C   UNL A   1      32.505  17.401  25.588  1.00  0.00     0.120 A 
ATOM     29  C   UNL A   1      34.981  17.164  24.478  1.00  0.00     0.021 A 
ATOM     30  N   UNL A   1      33.171  16.234  25.764  1.00  0.00    -0.264 NA
ATOM     31  C   UNL A   1      34.401  16.150  25.220  1.00  0.00     0.111 A 
ENDBRANCH  25  26
ENDBRANCH  22  25
ENDBRANCH   8  22
ENDBRANCH   5   8
ENDBRANCH   3   4
ENDBRANCH   2   3
ENDBRANCH   1   2
BRANCH   1  32
ATOM     32  C   UNL A   1      36.779  20.890  24.794  1.00  0.00     0.002 C 
BRANCH  32  33
ATOM     33  C   UNL A   1      38.073  20.081  24.968  1.00  0.00     0.021 C 
BRANCH  33  34
ATOM     34  C   UNL A   1      39.063  20.583  26.022  1.00  0.00     0.116 C 
BRANCH  34  35
ATOM     35  N   UNL A   1      40.320  19.850  26.010  1.00  0.00    -0.352 N 
ATOM     36  C   UNL A   1      41.619  20.265  26.172  1.00  0.00     0.251 C 
ATOM     37  H   UNL A   1      40.221  18.882  25.858  1.00  0.00     0.163 HD
ATOM     38  O   UNL A   1      42.526  19.472  25.924  1.00  0.00    -0.269 OA
BRANCH  36  39
ATOM     39  C   UNL A   1      41.958  21.634  26.630  1.00  0.00     0.039 A 
ATOM     40  C   UNL A   1      42.080  22.645  25.670  1.00  0.00     0.014 A 
ATOM     41  C   UNL A   1      42.242  21.922  27.968  1.00  0.00     0.014 A 
ATOM     42  C   UNL A   1      42.436  23.943  26.053  1.00  0.00     0.010 A 
ATOM     43  C   UNL A   1      42.537  23.232  28.359  1.00  0.00     0.010 A 
ATOM     44  C   UNL A   1      42.643  24.257  27.406  1.00  0.00    -0.014 A 
BRANCH  44  45
ATOM     45  C   UNL A   1      42.939  25.656  27.824  1.00  0.00     0.031 A 
ATOM     46  C   UNL A   1      44.343  26.201  27.785  1.00  0.00     0.074 A 
ATOM     47  C   UNL A   1      41.941  26.426  28.301  1.00  0.00     0.049 A 
ATOM     48  N   UNL A   1      44.772  27.399  28.097  1.00  0.00    -0.248 NA
ATOM     49  C   UNL A   1      45.410  25.278  27.364  1.00  0.00     0.031 C 
ATOM     50  C   UNL A   1      40.551  25.996  28.471  1.00  0.00     0.029 A 
ATOM     51  N   UNL A   1      41.941  27.726  28.745  1.00  0.00    -0.354 N 
ATOM     52  C   UNL A   1      46.154  27.365  27.945  1.00  0.00     0.074 A 
ATOM     53  C   UNL A   1      46.496  26.020  27.538  1.00  0.00     0.031 C 
ATOM     54  C   UNL A   1      39.833  27.015  28.968  1.00  0.00     0.029 A 
ATOM     55  C   UNL A   1      40.710  28.163  29.175  1.00  0.00     0.049 A 
ATOM     56  H   UNL A   1      42.747  28.291  28.756  1.00  0.00     0.167 HD
ATOM     57  C   UNL A   1      47.053  28.367  28.105  1.00  0.00     0.034 A 
ATOM     58  C   UNL A   1      40.325  29.354  29.675  1.00  0.00     0.034 A 
ATOM     59  C   UNL A   1      46.708  29.716  28.469  1.00  0.00     0.049 A 
ATOM     60  C   UNL A   1      41.335  30.464  29.787  1.00  0.00     0.074 A 
ATOM     61  C   UNL A   1      47.535  30.824  28.554  1.00  0.00     0.029 A 
ATOM     62  N   UNL A   1      45.437  30.143  28.821  1.00  0.00    -0.354 N 
ATOM     63  N   UNL A   1      42.606  30.461  29.465  1.00  0.00    -0.248 NA
ATOM     64  C   UNL A   1      40.847  31.754  30.296  1.00  0.00     0.031 C 
ATOM     65  C   UNL A   1      46.768  31.913  28.983  1.00  0.00     0.029 A 
ATOM     66  C   UNL A   1      45.459  31.492  29.138  1.00  0.00     0.049 A 
ATOM     67  H   UNL A   1      44.636  29.571  28.842  1.00  0.00     0.167 HD
ATOM     68  C   UNL A   1      43.061  31.753  29.699  1.00  0.00     0.074 A 
ATOM     69  C   UNL A   1      41.922  32.519  30.162  1.00  0.00     0.031 C 
ATOM     70  C   UNL A   1      44.312  32.257  29.559  1.00  0.00     0.034 A 
BRANCH  57  71
ATOM     71  C   UNL A   1      48.506  28.056  27.837  1.00  0.00     0.023 A 
ATOM     72  C   UNL A   1      49.339  27.651  28.900  1.00  0.00     0.012 A 
ATOM     73  C   UNL A   1      49.029  28.099  26.530  1.00  0.00     0.148 A 
ATOM     74  C   UNL A   1      50.677  27.330  28.673  1.00  0.00     0.002 A 
ATOM     75  C   UNL A   1      50.351  27.734  26.304  1.00  0.00     0.091 A 
ATOM     76  F   UNL A   1      48.228  28.503  25.533  1.00  0.00    -0.205 F 
ATOM     77  C   UNL A   1      51.180  27.361  27.376  1.00  0.00     0.022 A 
BRANCH  75  78
ATOM     78  S   UNL A   1      51.072  27.666  24.659  1.00  0.00     0.127 S 
ATOM     79  O   UNL A   1      52.406  27.138  24.943  1.00  0.00    -0.237 OA
ATOM     80  O   UNL A   1      50.181  26.730  23.971  1.00  0.00    -0.237 OA
ATOM     81  O   UNL A   1      51.033  29.028  24.148  1.00  0.00    -0.744 OA
ENDBRANCH  75  78
ENDBRANCH  57  71
BRANCH  58  82
ATOM     82  C   UNL A   1      38.897  29.586  30.030  1.00  0.00     0.023 A 
ATOM     83  C   UNL A   1      38.429  29.195  31.300  1.00  0.00     0.012 A 
ATOM     84  C   UNL A   1      38.008  30.211  29.134  1.00  0.00     0.148 A 
ATOM     85  C   UNL A   1      37.095  29.391  31.659  1.00  0.00     0.002 A 
ATOM     86  C   UNL A   1      36.694  30.455  29.520  1.00  0.00     0.091 A 
ATOM     87  F   UNL A   1      38.469  30.565  27.925  1.00  0.00    -0.205 F 
ATOM     88  C   UNL A   1      36.232  30.029  30.774  1.00  0.00     0.022 A 
BRANCH  86  89
ATOM     89  S   UNL A   1      35.553  31.391  28.496  1.00  0.00     0.127 S 
ATOM     90  O   UNL A   1      35.066  30.363  27.577  1.00  0.00    -0.237 OA
ATOM     91  O   UNL A   1      34.570  31.847  29.484  1.00  0.00    -0.237 OA
ATOM     92  O   UNL A   1      36.340  32.454  27.899  1.00  0.00    -0.744 OA
ENDBRANCH  86  89
ENDBRANCH  58  82
BRANCH  70  93
ATOM     93  C   UNL A   1      44.514  33.715  29.888  1.00  0.00     0.023 A 
ATOM     94  C   UNL A   1      44.877  34.094  31.196  1.00  0.00     0.012 A 
ATOM     95  C   UNL A   1      44.384  34.705  28.894  1.00  0.00     0.148 A 
ATOM     96  C   UNL A   1      45.062  35.438  31.520  1.00  0.00     0.002 A 
ATOM     97  C   UNL A   1      44.620  36.038  29.212  1.00  0.00     0.091 A 
ATOM     98  F   UNL A   1      44.017  34.331  27.659  1.00  0.00    -0.205 F 
ATOM     99  C   UNL A   1      44.944  36.408  30.528  1.00  0.00     0.022 A 
BRANCH  97 100
ATOM    100  S   UNL A   1      44.583  37.338  27.974  1.00  0.00     0.127 S 
ATOM    101  O   UNL A   1      43.220  37.225  27.459  1.00  0.00    -0.237 OA
ATOM    102  O   UNL A   1      44.834  38.539  28.772  1.00  0.00    -0.237 OA
ATOM    103  O   UNL A   1      45.643  37.015  27.028  1.00  0.00    -0.744 OA
ENDBRANCH  97 100
ENDBRANCH  70  93
ENDBRANCH  44  45
ENDBRANCH  36  39
ENDBRANCH  34  35
ENDBRANCH  33  34
ENDBRANCH  32  33
ENDBRANCH   1  32
TORSDOF 22
ENDMDL
MODEL 3
REMARK VINA RESULT:     -11.2      2.478      4.895
REMARK SMILES Cc1ccc(NC(=O)C[C@H]([NH2+]Cc2cccnc2)C(=O)NCCCCCCNC(=O)c2ccc(-c3c4nc(c(-c5cccc(S(=O)(=O)[O-])c5F)c5ccc([nH]5)c(-c5cccc(S(=O)(=O)[O-])c5F)c5nc(c(-c6cccc(S(=O)(=O)[O-])c6F)c6ccc3[nH]6)C=C5)C=C4)cc2)cc1Cl
REMARK SMILES IDX 24 1 23 2 22 3 21 4 19 5 20 6 10 8 9 9 7 10 6 11 8 13 5 14
REMARK SMILES IDX 1 15 2 16 3 17 95 18 4 19 94 20 96 21 11 22 12 25 13 26
REMARK SMILES IDX 14 27 18 28 15 29 17 30 16 31 25 32 26 33 27 34 28 35 29 36
REMARK SMILES IDX 30 38 31 39 32 40 93 41 33 42 92 43 34 44 35 45 36 46 86 47
REMARK SMILES IDX 37 48 91 49 85 50 87 51 38 52 90 53 84 54 83 55 39 57 71 58
REMARK SMILES IDX 51 59 70 60 52 61 55 62 69 63 88 64 53 65 54 66 68 68 89 69
REMARK SMILES IDX 56 70 40 71 41 72 49 73 42 74 44 75 50 76 43 77 45 78 46 79
REMARK SMILES IDX 47 80 48 81 72 82 73 83 81 84 74 85 76 86 82 87 75 88 77 89
REMARK SMILES IDX 78 90 79 91 80 92 57 93 58 94 66 95 59 96 61 97 67 98 60 99
REMARK SMILES IDX 62 100 63 101 64 102 65 103
REMARK H PARENT 21 7 6 12 11 23 11 24 28 37 87 56 55 67
REMARK Flexibility Score: inf
ROOT
ATOM      1  C   UNL A   1      33.984  28.213  23.628  1.00  0.00     0.002 C 
ENDROOT
BRANCH   1   2
ATOM      2  C   UNL A   1      33.430  26.793  23.525  1.00  0.00     0.021 C 
BRANCH   2   3
ATOM      3  C   UNL A   1      33.487  25.931  24.798  1.00  0.00     0.116 C 
BRANCH   3   4
ATOM      4  N   UNL A   1      32.779  26.549  25.930  1.00  0.00    -0.351 N 
ATOM      5  C   UNL A   1      31.547  26.478  26.506  1.00  0.00     0.278 C 
ATOM      6  O   UNL A   1      31.395  27.215  27.495  1.00  0.00    -0.268 OA
ATOM      7  H   UNL A   1      33.356  27.192  26.401  1.00  0.00     0.163 HD
BRANCH   5   8
ATOM      8  C   UNL A   1      30.308  25.652  26.012  1.00  0.00     0.282 C 
BRANCH   8   9
ATOM      9  C   UNL A   1      30.548  24.179  25.768  1.00  0.00     0.175 C 
BRANCH   9  10
ATOM     10  C   UNL A   1      30.767  23.041  26.752  1.00  0.00     0.230 C 
ATOM     11  N   UNL A   1      31.758  22.143  26.924  1.00  0.00    -0.326 N 
ATOM     12  H   UNL A   1      31.544  21.550  27.681  1.00  0.00     0.169 HD
ATOM     13  O   UNL A   1      29.860  22.921  27.601  1.00  0.00    -0.274 OA
BRANCH  11  14
ATOM     14  C   UNL A   1      32.997  21.781  26.371  1.00  0.00     0.042 A 
ATOM     15  C   UNL A   1      36.967  20.824  24.885  1.00  0.00     0.046 C 
ATOM     16  C   UNL A   1      35.589  21.170  25.360  1.00  0.00    -0.032 A 
ATOM     17  C   UNL A   1      35.324  22.401  25.972  1.00  0.00     0.007 A 
ATOM     18  C   UNL A   1      34.540  20.268  25.238  1.00  0.00     0.046 A 
ATOM     19  C   UNL A   1      34.045  22.700  26.474  1.00  0.00     0.026 A 
ATOM     20  C   UNL A   1      33.271  20.605  25.707  1.00  0.00     0.047 A 
ATOM     21  Cl  UNL A   1      34.738  18.712  24.506  1.00  0.00    -0.084 Cl
ENDBRANCH  11  14
ENDBRANCH   9  10
ENDBRANCH   8   9
BRANCH   8  22
ATOM     22  N   UNL A   1      29.545  26.447  25.033  1.00  0.00    -0.332 N 
ATOM     23  H   UNL A   1      29.508  27.402  25.389  1.00  0.00     0.347 HD
ATOM     24  H   UNL A   1      28.657  25.952  24.956  1.00  0.00     0.347 HD
BRANCH  22  25
ATOM     25  C   UNL A   1      30.020  26.523  23.658  1.00  0.00     0.299 C 
BRANCH  25  26
ATOM     26  C   UNL A   1      29.489  27.771  22.989  1.00  0.00     0.024 A 
ATOM     27  C   UNL A   1      28.165  28.200  23.143  1.00  0.00     0.013 A 
ATOM     28  C   UNL A   1      30.327  28.592  22.235  1.00  0.00     0.120 A 
ATOM     29  C   UNL A   1      27.756  29.414  22.592  1.00  0.00     0.021 A 
ATOM     30  N   UNL A   1      29.953  29.767  21.675  1.00  0.00    -0.264 NA
ATOM     31  C   UNL A   1      28.681  30.159  21.882  1.00  0.00     0.111 A 
ENDBRANCH  25  26
ENDBRANCH  22  25
ENDBRANCH   8  22
ENDBRANCH   5   8
ENDBRANCH   3   4
ENDBRANCH   2   3
ENDBRANCH   1   2
BRANCH   1  32
ATOM     32  C   UNL A   1      33.113  29.213  24.394  1.00  0.00     0.002 C 
BRANCH  32  33
ATOM     33  C   UNL A   1      33.641  29.696  25.752  1.00  0.00     0.021 C 
BRANCH  33  34
ATOM     34  C   UNL A   1      32.610  30.276  26.725  1.00  0.00     0.116 C 
BRANCH  34  35
ATOM     35  N   UNL A   1      32.746  31.714  26.899  1.00  0.00    -0.352 N 
ATOM     36  C   UNL A   1      33.633  32.464  27.629  1.00  0.00     0.251 C 
ATOM     37  H   UNL A   1      32.081  32.245  26.403  1.00  0.00     0.163 HD
ATOM     38  O   UNL A   1      33.415  33.667  27.765  1.00  0.00    -0.269 OA
BRANCH  36  39
ATOM     39  C   UNL A   1      34.838  31.870  28.258  1.00  0.00     0.039 A 
ATOM     40  C   UNL A   1      36.042  32.581  28.191  1.00  0.00     0.014 A 
ATOM     41  C   UNL A   1      34.826  30.595  28.831  1.00  0.00     0.014 A 
ATOM     42  C   UNL A   1      37.212  32.040  28.736  1.00  0.00     0.010 A 
ATOM     43  C   UNL A   1      35.980  30.082  29.431  1.00  0.00     0.010 A 
ATOM     44  C   UNL A   1      37.188  30.795  29.386  1.00  0.00    -0.014 A 
BRANCH  44  45
ATOM     45  C   UNL A   1      38.414  30.257  30.040  1.00  0.00     0.031 A 
ATOM     46  C   UNL A   1      38.830  30.714  31.414  1.00  0.00     0.074 A 
ATOM     47  C   UNL A   1      39.194  29.391  29.364  1.00  0.00     0.049 A 
ATOM     48  N   UNL A   1      39.857  30.334  32.134  1.00  0.00    -0.248 NA
ATOM     49  C   UNL A   1      38.001  31.746  32.058  1.00  0.00     0.031 C 
ATOM     50  C   UNL A   1      38.953  28.930  27.995  1.00  0.00     0.029 A 
ATOM     51  N   UNL A   1      40.356  28.754  29.727  1.00  0.00    -0.354 N 
ATOM     52  C   UNL A   1      39.819  31.102  33.293  1.00  0.00     0.074 A 
ATOM     53  C   UNL A   1      38.682  31.987  33.170  1.00  0.00     0.031 C 
ATOM     54  C   UNL A   1      39.926  28.076  27.640  1.00  0.00     0.029 A 
ATOM     55  C   UNL A   1      40.873  27.945  28.742  1.00  0.00     0.049 A 
ATOM     56  H   UNL A   1      40.779  28.867  30.609  1.00  0.00     0.167 HD
ATOM     57  C   UNL A   1      40.640  31.056  34.371  1.00  0.00     0.034 A 
ATOM     58  C   UNL A   1      41.981  27.178  28.727  1.00  0.00     0.034 A 
ATOM     59  C   UNL A   1      41.745  30.145  34.512  1.00  0.00     0.049 A 
ATOM     60  C   UNL A   1      42.841  27.105  29.959  1.00  0.00     0.074 A 
ATOM     61  C   UNL A   1      42.568  29.952  35.609  1.00  0.00     0.029 A 
ATOM     62  N   UNL A   1      42.193  29.282  33.523  1.00  0.00    -0.354 N 
ATOM     63  N   UNL A   1      42.683  27.706  31.114  1.00  0.00    -0.248 NA
ATOM     64  C   UNL A   1      44.011  26.217  29.899  1.00  0.00     0.031 C 
ATOM     65  C   UNL A   1      43.530  28.992  35.273  1.00  0.00     0.029 A 
ATOM     66  C   UNL A   1      43.289  28.566  33.978  1.00  0.00     0.049 A 
ATOM     67  H   UNL A   1      41.791  29.191  32.630  1.00  0.00     0.167 HD
ATOM     68  C   UNL A   1      43.711  27.243  31.927  1.00  0.00     0.074 A 
ATOM     69  C   UNL A   1      44.468  26.290  31.141  1.00  0.00     0.031 C 
ATOM     70  C   UNL A   1      44.012  27.588  33.204  1.00  0.00     0.034 A 
BRANCH  57  71
ATOM     71  C   UNL A   1      40.343  31.990  35.519  1.00  0.00     0.023 A 
ATOM     72  C   UNL A   1      41.094  33.175  35.664  1.00  0.00     0.012 A 
ATOM     73  C   UNL A   1      39.284  31.732  36.411  1.00  0.00     0.148 A 
ATOM     74  C   UNL A   1      40.820  34.070  36.699  1.00  0.00     0.002 A 
ATOM     75  C   UNL A   1      38.987  32.650  37.413  1.00  0.00     0.091 A 
ATOM     76  F   UNL A   1      38.591  30.593  36.270  1.00  0.00    -0.205 F 
ATOM     77  C   UNL A   1      39.762  33.812  37.566  1.00  0.00     0.022 A 
BRANCH  75  78
ATOM     78  S   UNL A   1      37.595  32.450  38.531  1.00  0.00     0.127 S 
ATOM     79  O   UNL A   1      37.567  30.998  38.710  1.00  0.00    -0.237 OA
ATOM     80  O   UNL A   1      38.034  33.200  39.709  1.00  0.00    -0.237 OA
ATOM     81  O   UNL A   1      36.444  33.017  37.844  1.00  0.00    -0.744 OA
ENDBRANCH  75  78
ENDBRANCH  57  71
BRANCH  58  82
ATOM     82  C   UNL A   1      42.297  26.351  27.528  1.00  0.00     0.023 A 
ATOM     83  C   UNL A   1      42.985  26.936  26.447  1.00  0.00     0.012 A 
ATOM     84  C   UNL A   1      41.946  24.988  27.462  1.00  0.00     0.148 A 
ATOM     85  C   UNL A   1      43.288  26.190  25.308  1.00  0.00     0.002 A 
ATOM     86  C   UNL A   1      42.302  24.236  26.347  1.00  0.00     0.091 A 
ATOM     87  F   UNL A   1      41.281  24.452  28.495  1.00  0.00    -0.205 F 
ATOM     88  C   UNL A   1      42.956  24.839  25.263  1.00  0.00     0.022 A 
BRANCH  86  89
ATOM     89  S   UNL A   1      42.033  22.462  26.263  1.00  0.00     0.127 S 
ATOM     90  O   UNL A   1      42.619  22.012  27.526  1.00  0.00    -0.237 OA
ATOM     91  O   UNL A   1      40.571  22.382  26.202  1.00  0.00    -0.237 OA
ATOM     92  O   UNL A   1      42.709  22.019  25.058  1.00  0.00    -0.744 OA
ENDBRANCH  86  89
ENDBRANCH  58  82
BRANCH  70  93
ATOM     93  C   UNL A   1      45.198  26.913  33.844  1.00  0.00     0.023 A 
ATOM     94  C   UNL A   1      46.466  27.526  33.790  1.00  0.00     0.012 A 
ATOM     95  C   UNL A   1      45.052  25.693  34.532  1.00  0.00     0.148 A 
ATOM     96  C   UNL A   1      47.577  26.914  34.372  1.00  0.00     0.002 A 
ATOM     97  C   UNL A   1      46.153  25.113  35.153  1.00  0.00     0.091 A 
ATOM     98  F   UNL A   1      43.844  25.111  34.557  1.00  0.00    -0.205 F 
ATOM     99  C   UNL A   1      47.419  25.714  35.060  1.00  0.00     0.022 A 
BRANCH  97 100
ATOM    100  S   UNL A   1      46.018  23.620  36.142  1.00  0.00     0.127 S 
ATOM    101  O   UNL A   1      45.673  22.621  35.132  1.00  0.00    -0.237 OA
ATOM    102  O   UNL A   1      47.367  23.486  36.694  1.00  0.00    -0.237 OA
ATOM    103  O   UNL A   1      44.989  23.893  37.135  1.00  0.00    -0.744 OA
ENDBRANCH  97 100
ENDBRANCH  70  93
ENDBRANCH  44  45
ENDBRANCH  36  39
ENDBRANCH  34  35
ENDBRANCH  33  34
ENDBRANCH  32  33
ENDBRANCH   1  32
TORSDOF 22
ENDMDL
