MODEL 1
REMARK VINA RESULT:     -11.7      0.000      0.000
REMARK SMILES O=C(CNC(=O)c1ccc(N2CCCC2)cc1)NCCCCCCNC(=O)c1ccc(-c2c3nc(c(-c4cccc(S(=O)(=O)[O-])c4F)c4ccc([nH]4)c(-c4cccc(S(=O)(=O)[O-])c4F)c4nc(c(-c5cccc(S(=O)(=O)[O-])c5F)c5ccc2[nH]5)C=C4)C=C3)cc1
REMARK SMILES IDX 21 1 20 2 19 3 18 4 1 5 2 6 3 8 4 9 5 10 6 12 7 13 8 14
REMARK SMILES IDX 17 15 9 16 16 17 10 18 11 19 12 20 15 21 13 22 14 23 22 24
REMARK SMILES IDX 23 25 24 26 25 27 26 28 27 30 28 31 29 32 90 33 30 34 89 35
REMARK SMILES IDX 31 36 32 37 33 38 83 39 34 40 88 41 82 42 84 43 35 44 87 45
REMARK SMILES IDX 81 46 80 47 36 49 68 50 48 51 67 52 49 53 52 54 66 55 85 56
REMARK SMILES IDX 50 57 51 58 65 60 86 61 53 62 37 63 38 64 46 65 39 66 41 67
REMARK SMILES IDX 47 68 40 69 42 70 43 71 44 72 45 73 69 74 70 75 78 76 71 77
REMARK SMILES IDX 73 78 79 79 72 80 74 81 75 82 76 83 77 84 54 85 55 86 63 87
REMARK SMILES IDX 56 88 58 89 64 90 57 91 59 92 60 93 61 94 62 95
REMARK H PARENT 18 7 4 11 25 29 84 48 52 59
REMARK Flexibility Score: inf
ROOT
ATOM      1  C   UNL A   1      33.286  29.986  26.171  1.00  0.00     0.002 C 
ENDROOT
BRANCH   1   2
ATOM      2  C   UNL A   1      33.651  28.702  25.414  1.00  0.00     0.021 C 
BRANCH   2   3
ATOM      3  C   UNL A   1      33.793  27.461  26.298  1.00  0.00     0.116 C 
BRANCH   3   4
ATOM      4  N   UNL A   1      32.810  26.450  25.963  1.00  0.00    -0.355 N 
ATOM      5  O   UNL A   1      31.158  27.244  27.347  1.00  0.00    -0.273 OA
ATOM      6  C   UNL A   1      31.554  26.422  26.526  1.00  0.00     0.239 C 
ATOM      7  H   UNL A   1      33.051  25.755  25.307  1.00  0.00     0.163 HD
BRANCH   6   8
ATOM      8  C   UNL A   1      30.758  25.152  26.226  1.00  0.00     0.216 C 
BRANCH   8   9
ATOM      9  N   UNL A   1      31.046  24.576  24.916  1.00  0.00    -0.343 N 
ATOM     10  C   UNL A   1      30.758  25.033  23.657  1.00  0.00     0.251 C 
ATOM     11  H   UNL A   1      31.526  23.716  24.941  1.00  0.00     0.164 HD
ATOM     12  O   UNL A   1      30.996  24.320  22.686  1.00  0.00    -0.269 OA
BRANCH  10  13
ATOM     13  C   UNL A   1      30.124  26.354  23.450  1.00  0.00     0.039 A 
ATOM     14  C   UNL A   1      30.929  27.411  23.021  1.00  0.00     0.016 A 
ATOM     15  C   UNL A   1      28.774  26.580  23.713  1.00  0.00     0.016 A 
ATOM     16  C   UNL A   1      30.361  28.668  22.785  1.00  0.00     0.027 A 
ATOM     17  C   UNL A   1      28.221  27.844  23.475  1.00  0.00     0.027 A 
ATOM     18  C   UNL A   1      28.997  28.909  22.998  1.00  0.00     0.037 A 
BRANCH  18  19
ATOM     19  N   UNL A   1      28.456  30.142  22.717  1.00  0.00    -0.372 N 
ATOM     20  C   UNL A   1      28.002  30.570  21.401  1.00  0.00     0.116 C 
ATOM     21  C   UNL A   1      28.758  31.281  23.585  1.00  0.00     0.116 C 
ATOM     22  C   UNL A   1      28.480  32.014  21.318  1.00  0.00     0.023 C 
ATOM     23  C   UNL A   1      28.353  32.500  22.754  1.00  0.00     0.023 C 
ENDBRANCH  18  19
ENDBRANCH  10  13
ENDBRANCH   8   9
ENDBRANCH   6   8
ENDBRANCH   3   4
ENDBRANCH   2   3
ENDBRANCH   1   2
BRANCH   1  24
ATOM     24  C   UNL A   1      31.853  30.489  25.961  1.00  0.00     0.002 C 
BRANCH  24  25
ATOM     25  C   UNL A   1      31.529  31.836  26.611  1.00  0.00     0.021 C 
BRANCH  25  26
ATOM     26  C   UNL A   1      32.698  32.504  27.327  1.00  0.00     0.116 C 
BRANCH  26  27
ATOM     27  N   UNL A   1      32.458  33.917  27.587  1.00  0.00    -0.352 N 
ATOM     28  C   UNL A   1      33.052  34.746  28.505  1.00  0.00     0.251 C 
ATOM     29  H   UNL A   1      31.769  34.338  27.023  1.00  0.00     0.163 HD
ATOM     30  O   UNL A   1      32.599  35.874  28.698  1.00  0.00    -0.269 OA
BRANCH  28  31
ATOM     31  C   UNL A   1      34.224  34.279  29.280  1.00  0.00     0.039 A 
ATOM     32  C   UNL A   1      34.017  33.617  30.493  1.00  0.00     0.014 A 
ATOM     33  C   UNL A   1      35.523  34.490  28.811  1.00  0.00     0.014 A 
ATOM     34  C   UNL A   1      35.109  33.109  31.202  1.00  0.00     0.010 A 
ATOM     35  C   UNL A   1      36.603  33.919  29.481  1.00  0.00     0.010 A 
ATOM     36  C   UNL A   1      36.409  33.225  30.685  1.00  0.00    -0.014 A 
BRANCH  36  37
ATOM     37  C   UNL A   1      37.575  32.610  31.374  1.00  0.00     0.031 A 
ATOM     38  C   UNL A   1      38.317  31.463  30.738  1.00  0.00     0.074 A 
ATOM     39  C   UNL A   1      37.908  33.018  32.616  1.00  0.00     0.049 A 
ATOM     40  N   UNL A   1      39.309  30.758  31.214  1.00  0.00    -0.248 NA
ATOM     41  C   UNL A   1      37.870  31.036  29.400  1.00  0.00     0.031 C 
ATOM     42  C   UNL A   1      37.224  34.070  33.373  1.00  0.00     0.029 A 
ATOM     43  N   UNL A   1      38.886  32.577  33.475  1.00  0.00    -0.354 N 
ATOM     44  C   UNL A   1      39.574  29.779  30.265  1.00  0.00     0.074 A 
ATOM     45  C   UNL A   1      38.627  29.968  29.188  1.00  0.00     0.031 C 
ATOM     46  C   UNL A   1      37.804  34.193  34.578  1.00  0.00     0.029 A 
ATOM     47  C   UNL A   1      38.873  33.207  34.699  1.00  0.00     0.049 A 
ATOM     48  H   UNL A   1      39.535  31.877  33.237  1.00  0.00     0.167 HD
ATOM     49  C   UNL A   1      40.528  28.819  30.279  1.00  0.00     0.034 A 
ATOM     50  C   UNL A   1      39.624  33.002  35.800  1.00  0.00     0.034 A 
ATOM     51  C   UNL A   1      41.500  28.664  31.327  1.00  0.00     0.049 A 
ATOM     52  C   UNL A   1      40.698  31.948  35.769  1.00  0.00     0.074 A 
ATOM     53  C   UNL A   1      42.577  27.796  31.374  1.00  0.00     0.029 A 
ATOM     54  N   UNL A   1      41.506  29.374  32.516  1.00  0.00    -0.354 N 
ATOM     55  N   UNL A   1      41.046  31.152  34.787  1.00  0.00    -0.248 NA
ATOM     56  C   UNL A   1      41.506  31.785  36.987  1.00  0.00     0.031 C 
ATOM     57  C   UNL A   1      43.208  27.951  32.612  1.00  0.00     0.029 A 
ATOM     58  C   UNL A   1      42.553  28.947  33.314  1.00  0.00     0.049 A 
ATOM     59  H   UNL A   1      40.861  30.078  32.756  1.00  0.00     0.167 HD
ATOM     60  C   UNL A   1      42.140  30.430  35.252  1.00  0.00     0.074 A 
ATOM     61  C   UNL A   1      42.409  30.896  36.595  1.00  0.00     0.031 C 
ATOM     62  C   UNL A   1      42.850  29.460  34.626  1.00  0.00     0.034 A 
BRANCH  49  63
ATOM     63  C   UNL A   1      40.602  27.868  29.112  1.00  0.00     0.023 A 
ATOM     64  C   UNL A   1      39.675  26.812  29.006  1.00  0.00     0.012 A 
ATOM     65  C   UNL A   1      41.529  28.084  28.074  1.00  0.00     0.148 A 
ATOM     66  C   UNL A   1      39.684  25.970  27.894  1.00  0.00     0.002 A 
ATOM     67  C   UNL A   1      41.501  27.271  26.947  1.00  0.00     0.091 A 
ATOM     68  F   UNL A   1      42.414  29.082  28.204  1.00  0.00    -0.205 F 
ATOM     69  C   UNL A   1      40.587  26.208  26.861  1.00  0.00     0.022 A 
BRANCH  67  70
ATOM     70  S   UNL A   1      42.562  27.546  25.524  1.00  0.00     0.127 S 
ATOM     71  O   UNL A   1      42.041  28.811  25.009  1.00  0.00    -0.237 OA
ATOM     72  O   UNL A   1      43.885  27.637  26.142  1.00  0.00    -0.237 OA
ATOM     73  O   UNL A   1      42.375  26.396  24.650  1.00  0.00    -0.744 OA
ENDBRANCH  67  70
ENDBRANCH  49  63
BRANCH  50  74
ATOM     74  C   UNL A   1      39.422  33.837  37.020  1.00  0.00     0.023 A 
ATOM     75  C   UNL A   1      39.882  35.170  37.030  1.00  0.00     0.012 A 
ATOM     76  C   UNL A   1      38.799  33.320  38.170  1.00  0.00     0.148 A 
ATOM     77  C   UNL A   1      39.770  35.953  38.180  1.00  0.00     0.002 A 
ATOM     78  C   UNL A   1      38.637  34.125  39.292  1.00  0.00     0.091 A 
ATOM     79  F   UNL A   1      38.378  32.047  38.147  1.00  0.00    -0.205 F 
ATOM     80  C   UNL A   1      39.142  35.434  39.308  1.00  0.00     0.022 A 
BRANCH  78  81
ATOM     81  S   UNL A   1      37.726  33.580  40.741  1.00  0.00     0.127 S 
ATOM     82  O   UNL A   1      37.675  34.801  41.540  1.00  0.00    -0.237 OA
ATOM     83  O   UNL A   1      36.448  33.170  40.159  1.00  0.00    -0.237 OA
ATOM     84  O   UNL A   1      38.505  32.483  41.303  1.00  0.00    -0.744 OA
ENDBRANCH  78  81
ENDBRANCH  50  74
BRANCH  62  85
ATOM     85  C   UNL A   1      44.030  28.869  35.355  1.00  0.00     0.023 A 
ATOM     86  C   UNL A   1      45.307  29.446  35.221  1.00  0.00     0.012 A 
ATOM     87  C   UNL A   1      43.848  27.787  36.240  1.00  0.00     0.148 A 
ATOM     88  C   UNL A   1      46.394  28.933  35.929  1.00  0.00     0.002 A 
ATOM     89  C   UNL A   1      44.922  27.316  36.983  1.00  0.00     0.091 A 
ATOM     90  F   UNL A   1      42.626  27.242  36.341  1.00  0.00    -0.205 F 
ATOM     91  C   UNL A   1      46.198  27.878  36.818  1.00  0.00     0.022 A 
BRANCH  89  92
ATOM     92  S   UNL A   1      44.745  26.034  38.227  1.00  0.00     0.127 S 
ATOM     93  O   UNL A   1      43.810  26.655  39.164  1.00  0.00    -0.237 OA
ATOM     94  O   UNL A   1      44.185  24.926  37.452  1.00  0.00    -0.237 OA
ATOM     95  O   UNL A   1      46.082  25.790  38.750  1.00  0.00    -0.744 OA
ENDBRANCH  89  92
ENDBRANCH  62  85
ENDBRANCH  36  37
ENDBRANCH  28  31
ENDBRANCH  26  27
ENDBRANCH  25  26
ENDBRANCH  24  25
ENDBRANCH   1  24
TORSDOF 19
ENDMDL
MODEL 2
REMARK VINA RESULT:     -11.7      2.538      3.698
REMARK SMILES O=C(CNC(=O)c1ccc(N2CCCC2)cc1)NCCCCCCNC(=O)c1ccc(-c2c3nc(c(-c4cccc(S(=O)(=O)[O-])c4F)c4ccc([nH]4)c(-c4cccc(S(=O)(=O)[O-])c4F)c4nc(c(-c5cccc(S(=O)(=O)[O-])c5F)c5ccc2[nH]5)C=C4)C=C3)cc1
REMARK SMILES IDX 21 1 20 2 19 3 18 4 1 5 2 6 3 8 4 9 5 10 6 12 7 13 8 14
REMARK SMILES IDX 17 15 9 16 16 17 10 18 11 19 12 20 15 21 13 22 14 23 22 24
REMARK SMILES IDX 23 25 24 26 25 27 26 28 27 30 28 31 29 32 90 33 30 34 89 35
REMARK SMILES IDX 31 36 32 37 33 38 83 39 34 40 88 41 82 42 84 43 35 44 87 45
REMARK SMILES IDX 81 46 80 47 36 49 68 50 48 51 67 52 49 53 52 54 66 55 85 56
REMARK SMILES IDX 50 57 51 58 65 60 86 61 53 62 37 63 38 64 46 65 39 66 41 67
REMARK SMILES IDX 47 68 40 69 42 70 43 71 44 72 45 73 69 74 70 75 78 76 71 77
REMARK SMILES IDX 73 78 79 79 72 80 74 81 75 82 76 83 77 84 54 85 55 86 63 87
REMARK SMILES IDX 56 88 58 89 64 90 57 91 59 92 60 93 61 94 62 95
REMARK H PARENT 18 7 4 11 25 29 84 48 52 59
REMARK Flexibility Score: inf
ROOT
ATOM      1  C   UNL A   1      32.829  25.996  25.894  1.00  0.00     0.002 C 
ENDROOT
BRANCH   1   2
ATOM      2  C   UNL A   1      34.286  26.040  25.412  1.00  0.00     0.021 C 
BRANCH   2   3
ATOM      3  C   UNL A   1      34.976  24.676  25.346  1.00  0.00     0.116 C 
BRANCH   3   4
ATOM      4  N   UNL A   1      34.401  23.739  26.292  1.00  0.00    -0.355 N 
ATOM      5  O   UNL A   1      35.849  22.014  25.840  1.00  0.00    -0.273 OA
ATOM      6  C   UNL A   1      34.891  22.464  26.462  1.00  0.00     0.239 C 
ATOM      7  H   UNL A   1      33.630  24.026  26.833  1.00  0.00     0.163 HD
BRANCH   6   8
ATOM      8  C   UNL A   1      34.009  21.560  27.324  1.00  0.00     0.216 C 
BRANCH   8   9
ATOM      9  N   UNL A   1      33.479  20.404  26.607  1.00  0.00    -0.343 N 
ATOM     10  C   UNL A   1      32.629  20.331  25.535  1.00  0.00     0.251 C 
ATOM     11  H   UNL A   1      33.782  19.532  26.952  1.00  0.00     0.164 HD
ATOM     12  O   UNL A   1      32.220  19.235  25.162  1.00  0.00    -0.269 OA
BRANCH  10  13
ATOM     13  C   UNL A   1      32.162  21.553  24.845  1.00  0.00     0.039 A 
ATOM     14  C   UNL A   1      31.153  22.305  25.447  1.00  0.00     0.016 A 
ATOM     15  C   UNL A   1      32.661  21.942  23.603  1.00  0.00     0.016 A 
ATOM     16  C   UNL A   1      30.704  23.484  24.840  1.00  0.00     0.027 A 
ATOM     17  C   UNL A   1      32.201  23.121  23.006  1.00  0.00     0.027 A 
ATOM     18  C   UNL A   1      31.224  23.921  23.613  1.00  0.00     0.037 A 
BRANCH  18  19
ATOM     19  N   UNL A   1      30.796  25.105  23.059  1.00  0.00    -0.372 N 
ATOM     20  C   UNL A   1      31.546  25.885  22.083  1.00  0.00     0.116 C 
ATOM     21  C   UNL A   1      29.812  25.924  23.769  1.00  0.00     0.116 C 
ATOM     22  C   UNL A   1      31.324  27.321  22.537  1.00  0.00     0.023 C 
ATOM     23  C   UNL A   1      29.907  27.291  23.088  1.00  0.00     0.023 C 
ENDBRANCH  18  19
ENDBRANCH  10  13
ENDBRANCH   8   9
ENDBRANCH   6   8
ENDBRANCH   3   4
ENDBRANCH   2   3
ENDBRANCH   1   2
BRANCH   1  24
ATOM     24  C   UNL A   1      32.404  27.150  26.810  1.00  0.00     0.002 C 
BRANCH  24  25
ATOM     25  C   UNL A   1      31.785  28.356  26.101  1.00  0.00     0.021 C 
BRANCH  25  26
ATOM     26  C   UNL A   1      32.779  29.424  25.656  1.00  0.00     0.116 C 
BRANCH  26  27
ATOM     27  N   UNL A   1      32.370  30.765  26.047  1.00  0.00    -0.352 N 
ATOM     28  C   UNL A   1      32.938  31.615  26.963  1.00  0.00     0.251 C 
ATOM     29  H   UNL A   1      31.569  31.111  25.591  1.00  0.00     0.163 HD
ATOM     30  O   UNL A   1      32.351  32.648  27.288  1.00  0.00    -0.269 OA
BRANCH  28  31
ATOM     31  C   UNL A   1      34.243  31.283  27.576  1.00  0.00     0.039 A 
ATOM     32  C   UNL A   1      35.180  32.301  27.772  1.00  0.00     0.014 A 
ATOM     33  C   UNL A   1      34.543  29.973  27.959  1.00  0.00     0.014 A 
ATOM     34  C   UNL A   1      36.390  32.018  28.413  1.00  0.00     0.010 A 
ATOM     35  C   UNL A   1      35.716  29.708  28.662  1.00  0.00     0.010 A 
ATOM     36  C   UNL A   1      36.653  30.725  28.896  1.00  0.00    -0.014 A 
BRANCH  36  37
ATOM     37  C   UNL A   1      37.891  30.423  29.662  1.00  0.00     0.031 A 
ATOM     38  C   UNL A   1      38.933  29.497  29.090  1.00  0.00     0.074 A 
ATOM     39  C   UNL A   1      38.036  30.904  30.914  1.00  0.00     0.049 A 
ATOM     40  N   UNL A   1      40.039  29.063  29.635  1.00  0.00    -0.248 NA
ATOM     41  C   UNL A   1      38.689  28.969  27.735  1.00  0.00     0.031 C 
ATOM     42  C   UNL A   1      37.067  31.752  31.612  1.00  0.00     0.029 A 
ATOM     43  N   UNL A   1      39.039  30.722  31.836  1.00  0.00    -0.354 N 
ATOM     44  C   UNL A   1      40.597  28.179  28.720  1.00  0.00     0.074 A 
ATOM     45  C   UNL A   1      39.700  28.123  27.586  1.00  0.00     0.031 C 
ATOM     46  C   UNL A   1      37.523  32.019  32.847  1.00  0.00     0.029 A 
ATOM     47  C   UNL A   1      38.795  31.332  33.046  1.00  0.00     0.049 A 
ATOM     48  H   UNL A   1      39.856  30.207  31.648  1.00  0.00     0.167 HD
ATOM     49  C   UNL A   1      41.757  27.488  28.806  1.00  0.00     0.034 A 
ATOM     50  C   UNL A   1      39.505  31.323  34.192  1.00  0.00     0.034 A 
ATOM     51  C   UNL A   1      42.672  27.583  29.911  1.00  0.00     0.049 A 
ATOM     52  C   UNL A   1      40.808  30.570  34.242  1.00  0.00     0.074 A 
ATOM     53  C   UNL A   1      43.927  27.012  30.036  1.00  0.00     0.029 A 
ATOM     54  N   UNL A   1      42.429  28.274  31.086  1.00  0.00    -0.354 N 
ATOM     55  N   UNL A   1      41.402  29.885  33.296  1.00  0.00    -0.248 NA
ATOM     56  C   UNL A   1      41.556  30.617  35.508  1.00  0.00     0.031 C 
ATOM     57  C   UNL A   1      44.422  27.321  31.305  1.00  0.00     0.029 A 
ATOM     58  C   UNL A   1      43.498  28.124  31.951  1.00  0.00     0.049 A 
ATOM     59  H   UNL A   1      41.615  28.795  31.276  1.00  0.00     0.167 HD
ATOM     60  C   UNL A   1      42.611  29.460  33.836  1.00  0.00     0.074 A 
ATOM     61  C   UNL A   1      42.674  29.980  35.185  1.00  0.00     0.031 C 
ATOM     62  C   UNL A   1      43.578  28.698  33.269  1.00  0.00     0.034 A 
BRANCH  49  63
ATOM     63  C   UNL A   1      42.137  26.583  27.662  1.00  0.00     0.023 A 
ATOM     64  C   UNL A   1      42.999  27.053  26.651  1.00  0.00     0.012 A 
ATOM     65  C   UNL A   1      41.719  25.239  27.646  1.00  0.00     0.148 A 
ATOM     66  C   UNL A   1      43.420  26.205  25.627  1.00  0.00     0.002 A 
ATOM     67  C   UNL A   1      42.180  24.386  26.650  1.00  0.00     0.091 A 
ATOM     68  F   UNL A   1      40.884  24.818  28.607  1.00  0.00    -0.205 F 
ATOM     69  C   UNL A   1      43.021  24.871  25.635  1.00  0.00     0.022 A 
BRANCH  67  70
ATOM     70  S   UNL A   1      41.796  22.632  26.618  1.00  0.00     0.127 S 
ATOM     71  O   UNL A   1      40.335  22.650  26.592  1.00  0.00    -0.237 OA
ATOM     72  O   UNL A   1      42.424  22.204  25.369  1.00  0.00    -0.237 OA
ATOM     73  O   UNL A   1      42.388  22.066  27.824  1.00  0.00    -0.744 OA
ENDBRANCH  67  70
ENDBRANCH  49  63
BRANCH  50  74
ATOM     74  C   UNL A   1      39.028  32.083  35.384  1.00  0.00     0.023 A 
ATOM     75  C   UNL A   1      39.243  33.475  35.449  1.00  0.00     0.012 A 
ATOM     76  C   UNL A   1      38.382  31.440  36.457  1.00  0.00     0.148 A 
ATOM     77  C   UNL A   1      38.871  34.202  36.581  1.00  0.00     0.002 A 
ATOM     78  C   UNL A   1      37.960  32.180  37.555  1.00  0.00     0.091 A 
ATOM     79  F   UNL A   1      38.196  30.115  36.384  1.00  0.00    -0.205 F 
ATOM     80  C   UNL A   1      38.223  33.556  37.631  1.00  0.00     0.022 A 
BRANCH  78  81
ATOM     81  S   UNL A   1      37.006  31.454  38.893  1.00  0.00     0.127 S 
ATOM     82  O   UNL A   1      35.814  32.297  38.904  1.00  0.00    -0.237 OA
ATOM     83  O   UNL A   1      36.792  30.090  38.406  1.00  0.00    -0.237 OA
ATOM     84  O   UNL A   1      37.858  31.539  40.073  1.00  0.00    -0.744 OA
ENDBRANCH  78  81
ENDBRANCH  50  74
BRANCH  62  85
ATOM     85  C   UNL A   1      44.821  28.421  34.076  1.00  0.00     0.023 A 
ATOM     86  C   UNL A   1      45.914  29.308  34.021  1.00  0.00     0.012 A 
ATOM     87  C   UNL A   1      44.868  27.320  34.954  1.00  0.00     0.148 A 
ATOM     88  C   UNL A   1      47.048  29.083  34.799  1.00  0.00     0.002 A 
ATOM     89  C   UNL A   1      45.977  27.132  35.767  1.00  0.00     0.091 A 
ATOM     90  F   UNL A   1      43.823  26.478  34.980  1.00  0.00    -0.205 F 
ATOM     91  C   UNL A   1      47.074  28.005  35.681  1.00  0.00     0.022 A 
BRANCH  89  92
ATOM     92  S   UNL A   1      46.057  25.834  37.005  1.00  0.00     0.127 S 
ATOM     93  O   UNL A   1      47.433  25.961  37.481  1.00  0.00    -0.237 OA
ATOM     94  O   UNL A   1      45.037  26.259  37.964  1.00  0.00    -0.237 OA
ATOM     95  O   UNL A   1      45.751  24.592  36.308  1.00  0.00    -0.744 OA
ENDBRANCH  89  92
ENDBRANCH  62  85
ENDBRANCH  36  37
ENDBRANCH  28  31
ENDBRANCH  26  27
ENDBRANCH  25  26
ENDBRANCH  24  25
ENDBRANCH   1  24
TORSDOF 19
ENDMDL
MODEL 3
REMARK VINA RESULT:     -11.4      2.485      4.357
REMARK SMILES O=C(CNC(=O)c1ccc(N2CCCC2)cc1)NCCCCCCNC(=O)c1ccc(-c2c3nc(c(-c4cccc(S(=O)(=O)[O-])c4F)c4ccc([nH]4)c(-c4cccc(S(=O)(=O)[O-])c4F)c4nc(c(-c5cccc(S(=O)(=O)[O-])c5F)c5ccc2[nH]5)C=C4)C=C3)cc1
REMARK SMILES IDX 21 1 20 2 19 3 18 4 1 5 2 6 3 8 4 9 5 10 6 12 7 13 8 14
REMARK SMILES IDX 17 15 9 16 16 17 10 18 11 19 12 20 15 21 13 22 14 23 22 24
REMARK SMILES IDX 23 25 24 26 25 27 26 28 27 30 28 31 29 32 90 33 30 34 89 35
REMARK SMILES IDX 31 36 32 37 33 38 83 39 34 40 88 41 82 42 84 43 35 44 87 45
REMARK SMILES IDX 81 46 80 47 36 49 68 50 48 51 67 52 49 53 52 54 66 55 85 56
REMARK SMILES IDX 50 57 51 58 65 60 86 61 53 62 37 63 38 64 46 65 39 66 41 67
REMARK SMILES IDX 47 68 40 69 42 70 43 71 44 72 45 73 69 74 70 75 78 76 71 77
REMARK SMILES IDX 73 78 79 79 72 80 74 81 75 82 76 83 77 84 54 85 55 86 63 87
REMARK SMILES IDX 56 88 58 89 64 90 57 91 59 92 60 93 61 94 62 95
REMARK H PARENT 18 7 4 11 25 29 84 48 52 59
REMARK Flexibility Score: inf
ROOT
ATOM      1  C   UNL A   1      32.950  29.656  26.706  1.00  0.00     0.002 C 
ENDROOT
BRANCH   1   2
ATOM      2  C   UNL A   1      32.901  28.387  25.845  1.00  0.00     0.021 C 
BRANCH   2   3
ATOM      3  C   UNL A   1      32.208  27.194  26.506  1.00  0.00     0.116 C 
BRANCH   3   4
ATOM      4  N   UNL A   1      32.013  26.103  25.572  1.00  0.00    -0.355 N 
ATOM      5  O   UNL A   1      30.037  25.356  26.475  1.00  0.00    -0.273 OA
ATOM      6  C   UNL A   1      30.927  25.258  25.635  1.00  0.00     0.239 C 
ATOM      7  H   UNL A   1      32.683  25.960  24.865  1.00  0.00     0.163 HD
BRANCH   6   8
ATOM      8  C   UNL A   1      31.025  24.038  24.720  1.00  0.00     0.216 C 
BRANCH   8   9
ATOM      9  N   UNL A   1      31.825  24.268  23.521  1.00  0.00    -0.343 N 
ATOM     10  C   UNL A   1      32.690  23.441  22.853  1.00  0.00     0.251 C 
ATOM     11  H   UNL A   1      31.728  25.165  23.127  1.00  0.00     0.164 HD
ATOM     12  O   UNL A   1      33.352  23.887  21.920  1.00  0.00    -0.269 OA
BRANCH  10  13
ATOM     13  C   UNL A   1      32.872  22.032  23.264  1.00  0.00     0.039 A 
ATOM     14  C   UNL A   1      32.104  21.055  22.628  1.00  0.00     0.016 A 
ATOM     15  C   UNL A   1      33.742  21.663  24.289  1.00  0.00     0.016 A 
ATOM     16  C   UNL A   1      32.269  19.708  22.968  1.00  0.00     0.027 A 
ATOM     17  C   UNL A   1      33.893  20.312  24.621  1.00  0.00     0.027 A 
ATOM     18  C   UNL A   1      33.171  19.307  23.963  1.00  0.00     0.037 A 
BRANCH  18  19
ATOM     19  N   UNL A   1      33.345  17.973  24.248  1.00  0.00    -0.372 N 
ATOM     20  C   UNL A   1      32.362  17.129  24.915  1.00  0.00     0.116 C 
ATOM     21  C   UNL A   1      34.698  17.426  24.366  1.00  0.00     0.116 C 
ATOM     22  C   UNL A   1      33.208  16.283  25.858  1.00  0.00     0.023 C 
ATOM     23  C   UNL A   1      34.498  16.087  25.077  1.00  0.00     0.023 C 
ENDBRANCH  18  19
ENDBRANCH  10  13
ENDBRANCH   8   9
ENDBRANCH   6   8
ENDBRANCH   3   4
ENDBRANCH   2   3
ENDBRANCH   1   2
BRANCH   1  24
ATOM     24  C   UNL A   1      31.620  30.405  26.851  1.00  0.00     0.002 C 
BRANCH  24  25
ATOM     25  C   UNL A   1      31.690  31.916  26.621  1.00  0.00     0.021 C 
BRANCH  25  26
ATOM     26  C   UNL A   1      32.865  32.617  27.296  1.00  0.00     0.116 C 
BRANCH  26  27
ATOM     27  N   UNL A   1      32.566  34.000  27.638  1.00  0.00    -0.352 N 
ATOM     28  C   UNL A   1      33.106  34.789  28.623  1.00  0.00     0.251 C 
ATOM     29  H   UNL A   1      31.876  34.432  27.084  1.00  0.00     0.163 HD
ATOM     30  O   UNL A   1      32.606  35.886  28.874  1.00  0.00    -0.269 OA
BRANCH  28  31
ATOM     31  C   UNL A   1      34.276  34.316  29.396  1.00  0.00     0.039 A 
ATOM     32  C   UNL A   1      34.064  33.611  30.585  1.00  0.00     0.014 A 
ATOM     33  C   UNL A   1      35.577  34.563  28.952  1.00  0.00     0.014 A 
ATOM     34  C   UNL A   1      35.156  33.098  31.291  1.00  0.00     0.010 A 
ATOM     35  C   UNL A   1      36.658  33.988  29.616  1.00  0.00     0.010 A 
ATOM     36  C   UNL A   1      36.461  33.251  30.794  1.00  0.00    -0.014 A 
BRANCH  36  37
ATOM     37  C   UNL A   1      37.628  32.632  31.478  1.00  0.00     0.031 A 
ATOM     38  C   UNL A   1      38.367  31.487  30.835  1.00  0.00     0.074 A 
ATOM     39  C   UNL A   1      37.965  33.036  32.720  1.00  0.00     0.049 A 
ATOM     40  N   UNL A   1      39.359  30.779  31.306  1.00  0.00    -0.248 NA
ATOM     41  C   UNL A   1      37.915  31.065  29.497  1.00  0.00     0.031 C 
ATOM     42  C   UNL A   1      37.285  34.086  33.483  1.00  0.00     0.029 A 
ATOM     43  N   UNL A   1      38.945  32.591  33.574  1.00  0.00    -0.354 N 
ATOM     44  C   UNL A   1      39.620  29.802  30.353  1.00  0.00     0.074 A 
ATOM     45  C   UNL A   1      38.670  29.996  29.279  1.00  0.00     0.031 C 
ATOM     46  C   UNL A   1      37.868  34.205  34.687  1.00  0.00     0.029 A 
ATOM     47  C   UNL A   1      38.936  33.217  34.800  1.00  0.00     0.049 A 
ATOM     48  H   UNL A   1      39.593  31.891  33.332  1.00  0.00     0.167 HD
ATOM     49  C   UNL A   1      40.573  28.841  30.361  1.00  0.00     0.034 A 
ATOM     50  C   UNL A   1      39.690  33.008  35.898  1.00  0.00     0.034 A 
ATOM     51  C   UNL A   1      41.548  28.682  31.406  1.00  0.00     0.049 A 
ATOM     52  C   UNL A   1      40.764  31.952  35.861  1.00  0.00     0.074 A 
ATOM     53  C   UNL A   1      42.624  27.812  31.447  1.00  0.00     0.029 A 
ATOM     54  N   UNL A   1      41.559  29.388  32.597  1.00  0.00    -0.354 N 
ATOM     55  N   UNL A   1      41.107  31.159  34.875  1.00  0.00    -0.248 NA
ATOM     56  C   UNL A   1      41.575  31.784  37.076  1.00  0.00     0.031 C 
ATOM     57  C   UNL A   1      43.259  27.962  32.683  1.00  0.00     0.029 A 
ATOM     58  C   UNL A   1      42.607  28.957  33.390  1.00  0.00     0.049 A 
ATOM     59  H   UNL A   1      40.915  30.092  32.841  1.00  0.00     0.167 HD
ATOM     60  C   UNL A   1      42.202  30.434  35.334  1.00  0.00     0.074 A 
ATOM     61  C   UNL A   1      42.475  30.895  36.679  1.00  0.00     0.031 C 
ATOM     62  C   UNL A   1      42.909  29.466  34.703  1.00  0.00     0.034 A 
BRANCH  49  63
ATOM     63  C   UNL A   1      40.643  27.894  29.191  1.00  0.00     0.023 A 
ATOM     64  C   UNL A   1      39.743  26.813  29.108  1.00  0.00     0.012 A 
ATOM     65  C   UNL A   1      41.534  28.138  28.128  1.00  0.00     0.148 A 
ATOM     66  C   UNL A   1      39.746  25.972  27.995  1.00  0.00     0.002 A 
ATOM     67  C   UNL A   1      41.499  27.326  27.000  1.00  0.00     0.091 A 
ATOM     68  F   UNL A   1      42.393  29.161  28.236  1.00  0.00    -0.205 F 
ATOM     69  C   UNL A   1      40.613  26.237  26.938  1.00  0.00     0.022 A 
BRANCH  67  70
ATOM     70  S   UNL A   1      42.512  27.633  25.550  1.00  0.00     0.127 S 
ATOM     71  O   UNL A   1      43.852  27.684  26.133  1.00  0.00    -0.237 OA
ATOM     72  O   UNL A   1      42.245  26.449  24.734  1.00  0.00    -0.237 OA
ATOM     73  O   UNL A   1      42.035  28.886  24.981  1.00  0.00    -0.744 OA
ENDBRANCH  67  70
ENDBRANCH  49  63
BRANCH  50  74
ATOM     74  C   UNL A   1      39.494  33.839  37.122  1.00  0.00     0.023 A 
ATOM     75  C   UNL A   1      39.995  35.156  37.152  1.00  0.00     0.012 A 
ATOM     76  C   UNL A   1      38.833  33.332  38.257  1.00  0.00     0.148 A 
ATOM     77  C   UNL A   1      39.888  35.933  38.306  1.00  0.00     0.002 A 
ATOM     78  C   UNL A   1      38.677  34.133  39.382  1.00  0.00     0.091 A 
ATOM     79  F   UNL A   1      38.373  32.073  38.215  1.00  0.00    -0.205 F 
ATOM     80  C   UNL A   1      39.223  35.425  39.418  1.00  0.00     0.022 A 
BRANCH  78  81
ATOM     81  S   UNL A   1      37.724  33.605  40.811  1.00  0.00     0.127 S 
ATOM     82  O   UNL A   1      38.566  32.545  41.358  1.00  0.00    -0.237 OA
ATOM     83  O   UNL A   1      37.675  34.829  41.611  1.00  0.00    -0.237 OA
ATOM     84  O   UNL A   1      36.431  33.184  40.285  1.00  0.00    -0.744 OA
ENDBRANCH  78  81
ENDBRANCH  50  74
BRANCH  62  85
ATOM     85  C   UNL A   1      44.090  28.870  35.426  1.00  0.00     0.023 A 
ATOM     86  C   UNL A   1      45.376  29.420  35.257  1.00  0.00     0.012 A 
ATOM     87  C   UNL A   1      43.904  27.814  36.341  1.00  0.00     0.148 A 
ATOM     88  C   UNL A   1      46.464  28.904  35.959  1.00  0.00     0.002 A 
ATOM     89  C   UNL A   1      44.982  27.341  37.077  1.00  0.00     0.091 A 
ATOM     90  F   UNL A   1      42.675  27.294  36.476  1.00  0.00    -0.205 F 
ATOM     91  C   UNL A   1      46.265  27.876  36.877  1.00  0.00     0.022 A 
BRANCH  89  92
ATOM     92  S   UNL A   1      44.803  26.093  38.355  1.00  0.00     0.127 S 
ATOM     93  O   UNL A   1      44.316  24.948  37.587  1.00  0.00    -0.237 OA
ATOM     94  O   UNL A   1      46.174  25.957  38.849  1.00  0.00    -0.237 OA
ATOM     95  O   UNL A   1      43.863  26.639  39.324  1.00  0.00    -0.744 OA
ENDBRANCH  89  92
ENDBRANCH  62  85
ENDBRANCH  36  37
ENDBRANCH  28  31
ENDBRANCH  26  27
ENDBRANCH  25  26
ENDBRANCH  24  25
ENDBRANCH   1  24
TORSDOF 19
ENDMDL
