MODEL 1
REMARK VINA RESULT:     -12.6      0.000      0.000
REMARK SMILES CN1C(=O)[C@@H]2CC=CC[C@]2(C(=O)NCCCCCCNC(=O)c2ccc(-c3c4nc(c(-c5cccc(S(=O)(=O)[O-])c5F)c5ccc([nH]5)c(-c5cccc(S(=O)(=O)[O-])c5F)c5nc(c(-c6cccc(S(=O)(=O)[O-])c6F)c6ccc3[nH]6)C=C5)C=C4)cc2)[C@H]1c1ccccc1
REMARK SMILES IDX 17 1 16 2 15 3 14 4 13 5 11 6 12 7 10 9 1 10 2 11 3 12 86 13
REMARK SMILES IDX 4 14 5 15 6 16 9 17 7 18 8 19 87 20 88 21 92 22 89 23 91 24
REMARK SMILES IDX 90 25 18 26 19 27 20 28 21 29 22 31 23 32 24 33 85 34 25 35
REMARK SMILES IDX 84 36 26 37 27 38 28 39 78 40 29 41 83 42 77 43 79 44 30 45
REMARK SMILES IDX 82 46 76 47 75 48 31 50 63 51 43 52 62 53 44 54 47 55 61 56
REMARK SMILES IDX 80 57 45 58 46 59 60 61 81 62 48 63 32 64 33 65 41 66 34 67
REMARK SMILES IDX 36 68 42 69 35 70 37 71 38 72 39 73 40 74 64 75 65 76 73 77
REMARK SMILES IDX 66 78 68 79 74 80 67 81 69 82 70 83 71 84 72 85 49 86 50 87
REMARK SMILES IDX 58 88 51 89 53 90 59 91 52 92 54 93 55 94 56 95 57 96
REMARK H PARENT 13 8 20 30 79 49 47 60
REMARK Flexibility Score: inf
ROOT
ATOM      1  C   UNL A   1      31.491  30.560  26.086  1.00  0.00     0.002 C 
ENDROOT
BRANCH   1   2
ATOM      2  C   UNL A   1      32.893  29.983  25.856  1.00  0.00     0.002 C 
BRANCH   2   3
ATOM      3  C   UNL A   1      33.126  29.196  24.569  1.00  0.00     0.021 C 
BRANCH   3   4
ATOM      4  C   UNL A   1      33.746  27.810  24.692  1.00  0.00     0.116 C 
BRANCH   4   5
ATOM      5  N   UNL A   1      34.017  26.958  23.536  1.00  0.00    -0.356 N 
ATOM      6  C   UNL A   1      33.240  25.908  23.021  1.00  0.00     0.229 C 
ATOM      7  O   UNL A   1      33.401  25.590  21.842  1.00  0.00    -0.274 OA
ATOM      8  H   UNL A   1      34.856  27.145  23.055  1.00  0.00     0.163 HD
BRANCH   6   9
ATOM      9  C   UNL A   1      32.309  25.084  23.962  1.00  0.00     0.089 C 
ATOM     10  C   UNL A   1      32.346  21.787  25.741  1.00  0.00     0.147 C 
ATOM     11  N   UNL A   1      32.437  23.205  25.459  1.00  0.00    -0.337 N 
ATOM     12  C   UNL A   1      31.870  24.210  26.204  1.00  0.00     0.227 C 
ATOM     13  C   UNL A   1      33.001  23.688  24.236  1.00  0.00     0.131 C 
ATOM     14  O   UNL A   1      31.314  24.055  27.274  1.00  0.00    -0.275 OA
ATOM     15  C   UNL A   1      32.089  25.538  25.458  1.00  0.00     0.101 C 
ATOM     16  C   UNL A   1      30.982  26.517  25.848  1.00  0.00     0.041 C 
ATOM     17  C   UNL A   1      30.951  25.107  23.184  1.00  0.00     0.047 C 
ATOM     18  C   UNL A   1      29.932  26.729  24.825  1.00  0.00    -0.030 C 
ATOM     19  C   UNL A   1      29.915  26.100  23.649  1.00  0.00    -0.030 C 
BRANCH  13  20
ATOM     20  C   UNL A   1      34.543  23.722  24.333  1.00  0.00    -0.024 A 
ATOM     21  C   UNL A   1      35.378  23.153  23.358  1.00  0.00     0.006 A 
ATOM     22  C   UNL A   1      35.163  24.197  25.497  1.00  0.00     0.006 A 
ATOM     23  C   UNL A   1      36.709  22.838  23.632  1.00  0.00     0.000 A 
ATOM     24  C   UNL A   1      36.497  23.878  25.780  1.00  0.00     0.000 A 
ATOM     25  C   UNL A   1      37.255  23.155  24.866  1.00  0.00     0.000 A 
ENDBRANCH  13  20
ENDBRANCH   6   9
ENDBRANCH   4   5
ENDBRANCH   3   4
ENDBRANCH   2   3
ENDBRANCH   1   2
BRANCH   1  26
ATOM     26  C   UNL A   1      31.389  31.951  26.728  1.00  0.00     0.021 C 
BRANCH  26  27
ATOM     27  C   UNL A   1      32.689  32.549  27.254  1.00  0.00     0.116 C 
BRANCH  27  28
ATOM     28  N   UNL A   1      32.564  33.967  27.536  1.00  0.00    -0.352 N 
ATOM     29  C   UNL A   1      33.124  34.728  28.528  1.00  0.00     0.251 C 
ATOM     30  H   UNL A   1      31.982  34.462  26.915  1.00  0.00     0.163 HD
ATOM     31  O   UNL A   1      32.696  35.864  28.719  1.00  0.00    -0.269 OA
BRANCH  29  32
ATOM     32  C   UNL A   1      34.238  34.210  29.355  1.00  0.00     0.039 A 
ATOM     33  C   UNL A   1      35.549  34.416  28.914  1.00  0.00     0.014 A 
ATOM     34  C   UNL A   1      34.002  33.446  30.502  1.00  0.00     0.014 A 
ATOM     35  C   UNL A   1      36.616  33.858  29.621  1.00  0.00     0.010 A 
ATOM     36  C   UNL A   1      35.071  32.966  31.254  1.00  0.00     0.010 A 
ATOM     37  C   UNL A   1      36.386  33.128  30.796  1.00  0.00    -0.014 A 
BRANCH  37  38
ATOM     38  C   UNL A   1      37.505  32.468  31.514  1.00  0.00     0.031 A 
ATOM     39  C   UNL A   1      38.246  31.326  30.866  1.00  0.00     0.074 A 
ATOM     40  C   UNL A   1      37.832  32.869  32.758  1.00  0.00     0.049 A 
ATOM     41  N   UNL A   1      39.245  30.621  31.330  1.00  0.00    -0.248 NA
ATOM     42  C   UNL A   1      37.789  30.901  29.531  1.00  0.00     0.031 C 
ATOM     43  C   UNL A   1      37.144  33.915  33.517  1.00  0.00     0.029 A 
ATOM     44  N   UNL A   1      38.816  32.434  33.608  1.00  0.00    -0.354 N 
ATOM     45  C   UNL A   1      39.509  29.653  30.366  1.00  0.00     0.074 A 
ATOM     46  C   UNL A   1      38.537  29.831  29.311  1.00  0.00     0.031 C 
ATOM     47  C   UNL A   1      37.736  34.051  34.714  1.00  0.00     0.029 A 
ATOM     48  C   UNL A   1      38.824  33.084  34.819  1.00  0.00     0.049 A 
ATOM     49  H   UNL A   1      39.456  31.724  33.374  1.00  0.00     0.167 HD
ATOM     50  C   UNL A   1      40.491  28.722  30.343  1.00  0.00     0.034 A 
ATOM     51  C   UNL A   1      39.620  32.919  35.893  1.00  0.00     0.034 A 
ATOM     52  C   UNL A   1      41.479  28.577  31.376  1.00  0.00     0.049 A 
ATOM     53  C   UNL A   1      40.731  31.905  35.826  1.00  0.00     0.074 A 
ATOM     54  C   UNL A   1      42.563  27.717  31.419  1.00  0.00     0.029 A 
ATOM     55  N   UNL A   1      41.502  29.309  32.554  1.00  0.00    -0.354 N 
ATOM     56  N   UNL A   1      41.049  31.094  34.846  1.00  0.00    -0.248 NA
ATOM     57  C   UNL A   1      41.619  31.816  36.992  1.00  0.00     0.031 C 
ATOM     58  C   UNL A   1      43.221  27.907  32.638  1.00  0.00     0.029 A 
ATOM     59  C   UNL A   1      42.576  28.918  33.333  1.00  0.00     0.049 A 
ATOM     60  H   UNL A   1      40.850  30.004  32.800  1.00  0.00     0.167 HD
ATOM     61  C   UNL A   1      42.203  30.435  35.257  1.00  0.00     0.074 A 
ATOM     62  C   UNL A   1      42.533  30.954  36.569  1.00  0.00     0.031 C 
ATOM     63  C   UNL A   1      42.922  29.484  34.611  1.00  0.00     0.034 A 
BRANCH  50  64
ATOM     64  C   UNL A   1      40.569  27.812  29.143  1.00  0.00     0.023 A 
ATOM     65  C   UNL A   1      39.695  26.710  29.038  1.00  0.00     0.012 A 
ATOM     66  C   UNL A   1      41.473  28.076  28.094  1.00  0.00     0.148 A 
ATOM     67  C   UNL A   1      39.747  25.861  27.933  1.00  0.00     0.002 A 
ATOM     68  C   UNL A   1      41.483  27.256  26.972  1.00  0.00     0.091 A 
ATOM     69  F   UNL A   1      42.310  29.115  28.218  1.00  0.00    -0.205 F 
ATOM     70  C   UNL A   1      40.633  26.141  26.896  1.00  0.00     0.022 A 
BRANCH  68  71
ATOM     71  S   UNL A   1      42.526  27.577  25.546  1.00  0.00     0.127 S 
ATOM     72  O   UNL A   1      41.967  28.835  25.050  1.00  0.00    -0.237 OA
ATOM     73  O   UNL A   1      43.851  27.698  26.155  1.00  0.00    -0.237 OA
ATOM     74  O   UNL A   1      42.365  26.433  24.661  1.00  0.00    -0.744 OA
ENDBRANCH  68  71
ENDBRANCH  50  64
BRANCH  51  75
ATOM     75  C   UNL A   1      39.438  33.777  37.099  1.00  0.00     0.023 A 
ATOM     76  C   UNL A   1      39.879  35.114  37.075  1.00  0.00     0.012 A 
ATOM     77  C   UNL A   1      38.819  33.278  38.260  1.00  0.00     0.148 A 
ATOM     78  C   UNL A   1      39.744  35.928  38.200  1.00  0.00     0.002 A 
ATOM     79  C   UNL A   1      38.636  34.110  39.358  1.00  0.00     0.091 A 
ATOM     80  F   UNL A   1      38.412  32.000  38.264  1.00  0.00    -0.205 F 
ATOM     81  C   UNL A   1      39.116  35.429  39.338  1.00  0.00     0.022 A 
BRANCH  79  82
ATOM     82  S   UNL A   1      37.724  33.592  40.816  1.00  0.00     0.127 S 
ATOM     83  O   UNL A   1      36.417  33.265  40.251  1.00  0.00    -0.237 OA
ATOM     84  O   UNL A   1      38.507  32.441  41.266  1.00  0.00    -0.237 OA
ATOM     85  O   UNL A   1      37.754  34.730  41.723  1.00  0.00    -0.744 OA
ENDBRANCH  79  82
ENDBRANCH  51  75
BRANCH  63  86
ATOM     86  C   UNL A   1      44.179  28.986  35.276  1.00  0.00     0.023 A 
ATOM     87  C   UNL A   1      45.421  29.586  34.991  1.00  0.00     0.012 A 
ATOM     88  C   UNL A   1      44.110  27.957  36.236  1.00  0.00     0.148 A 
ATOM     89  C   UNL A   1      46.582  29.138  35.619  1.00  0.00     0.002 A 
ATOM     90  C   UNL A   1      45.262  27.555  36.899  1.00  0.00     0.091 A 
ATOM     91  F   UNL A   1      42.921  27.387  36.479  1.00  0.00    -0.205 F 
ATOM     92  C   UNL A   1      46.502  28.132  36.580  1.00  0.00     0.022 A 
BRANCH  90  93
ATOM     93  S   UNL A   1      45.232  26.345  38.225  1.00  0.00     0.127 S 
ATOM     94  O   UNL A   1      46.645  26.273  38.594  1.00  0.00    -0.237 OA
ATOM     95  O   UNL A   1      44.374  26.993  39.217  1.00  0.00    -0.237 OA
ATOM     96  O   UNL A   1      44.674  25.130  37.647  1.00  0.00    -0.744 OA
ENDBRANCH  90  93
ENDBRANCH  63  86
ENDBRANCH  37  38
ENDBRANCH  29  32
ENDBRANCH  27  28
ENDBRANCH  26  27
ENDBRANCH   1  26
TORSDOF 17
ENDMDL
MODEL 2
REMARK VINA RESULT:     -12.6      1.965      7.815
REMARK SMILES CN1C(=O)[C@@H]2CC=CC[C@]2(C(=O)NCCCCCCNC(=O)c2ccc(-c3c4nc(c(-c5cccc(S(=O)(=O)[O-])c5F)c5ccc([nH]5)c(-c5cccc(S(=O)(=O)[O-])c5F)c5nc(c(-c6cccc(S(=O)(=O)[O-])c6F)c6ccc3[nH]6)C=C5)C=C4)cc2)[C@H]1c1ccccc1
REMARK SMILES IDX 17 1 16 2 15 3 14 4 13 5 11 6 12 7 10 9 1 10 2 11 3 12 86 13
REMARK SMILES IDX 4 14 5 15 6 16 9 17 7 18 8 19 87 20 88 21 92 22 89 23 91 24
REMARK SMILES IDX 90 25 18 26 19 27 20 28 21 29 22 31 23 32 24 33 85 34 25 35
REMARK SMILES IDX 84 36 26 37 27 38 28 39 78 40 29 41 83 42 77 43 79 44 30 45
REMARK SMILES IDX 82 46 76 47 75 48 31 50 63 51 43 52 62 53 44 54 47 55 61 56
REMARK SMILES IDX 80 57 45 58 46 59 60 61 81 62 48 63 32 64 33 65 41 66 34 67
REMARK SMILES IDX 36 68 42 69 35 70 37 71 38 72 39 73 40 74 64 75 65 76 73 77
REMARK SMILES IDX 66 78 68 79 74 80 67 81 69 82 70 83 71 84 72 85 49 86 50 87
REMARK SMILES IDX 58 88 51 89 53 90 59 91 52 92 54 93 55 94 56 95 57 96
REMARK H PARENT 13 8 20 30 79 49 47 60
REMARK Flexibility Score: inf
ROOT
ATOM      1  C   UNL A   1      31.921  28.873  27.102  1.00  0.00     0.002 C 
ENDROOT
BRANCH   1   2
ATOM      2  C   UNL A   1      33.361  28.374  27.271  1.00  0.00     0.002 C 
BRANCH   2   3
ATOM      3  C   UNL A   1      34.053  27.794  26.041  1.00  0.00     0.021 C 
BRANCH   3   4
ATOM      4  C   UNL A   1      33.205  27.569  24.795  1.00  0.00     0.116 C 
BRANCH   4   5
ATOM      5  N   UNL A   1      33.657  26.761  23.664  1.00  0.00    -0.356 N 
ATOM      6  C   UNL A   1      33.056  25.622  23.107  1.00  0.00     0.229 C 
ATOM      7  O   UNL A   1      33.332  25.328  21.943  1.00  0.00    -0.274 OA
ATOM      8  H   UNL A   1      34.495  27.055  23.238  1.00  0.00     0.163 HD
BRANCH   6   9
ATOM      9  C   UNL A   1      32.178  24.683  23.991  1.00  0.00     0.089 C 
ATOM     10  C   UNL A   1      32.462  21.335  25.648  1.00  0.00     0.147 C 
ATOM     11  N   UNL A   1      32.434  22.766  25.421  1.00  0.00    -0.337 N 
ATOM     12  C   UNL A   1      31.763  23.688  26.187  1.00  0.00     0.227 C 
ATOM     13  C   UNL A   1      32.984  23.343  24.233  1.00  0.00     0.131 C 
ATOM     14  O   UNL A   1      31.198  23.444  27.234  1.00  0.00    -0.275 OA
ATOM     15  C   UNL A   1      31.883  25.058  25.497  1.00  0.00     0.101 C 
ATOM     16  C   UNL A   1      30.685  25.922  25.891  1.00  0.00     0.041 C 
ATOM     17  C   UNL A   1      30.843  24.618  23.178  1.00  0.00     0.047 C 
ATOM     18  C   UNL A   1      29.645  26.080  24.848  1.00  0.00    -0.030 C 
ATOM     19  C   UNL A   1      29.713  25.499  23.650  1.00  0.00    -0.030 C 
BRANCH  13  20
ATOM     20  C   UNL A   1      34.513  23.508  24.373  1.00  0.00    -0.024 A 
ATOM     21  C   UNL A   1      35.421  23.005  23.427  1.00  0.00     0.006 A 
ATOM     22  C   UNL A   1      35.057  24.040  25.551  1.00  0.00     0.006 A 
ATOM     23  C   UNL A   1      36.766  22.805  23.741  1.00  0.00     0.000 A 
ATOM     24  C   UNL A   1      36.405  23.836  25.874  1.00  0.00     0.000 A 
ATOM     25  C   UNL A   1      37.247  23.174  24.988  1.00  0.00     0.000 A 
ENDBRANCH  13  20
ENDBRANCH   6   9
ENDBRANCH   4   5
ENDBRANCH   3   4
ENDBRANCH   2   3
ENDBRANCH   1   2
BRANCH   1  26
ATOM     26  C   UNL A   1      31.705  30.384  26.939  1.00  0.00     0.021 C 
BRANCH  26  27
ATOM     27  C   UNL A   1      32.913  31.194  26.479  1.00  0.00     0.116 C 
BRANCH  27  28
ATOM     28  N   UNL A   1      32.910  32.539  27.024  1.00  0.00    -0.352 N 
ATOM     29  C   UNL A   1      33.700  33.108  27.987  1.00  0.00     0.251 C 
ATOM     30  H   UNL A   1      32.231  33.139  26.640  1.00  0.00     0.163 HD
ATOM     31  O   UNL A   1      33.371  34.193  28.462  1.00  0.00    -0.269 OA
BRANCH  29  32
ATOM     32  C   UNL A   1      34.941  32.446  28.450  1.00  0.00     0.039 A 
ATOM     33  C   UNL A   1      34.839  31.205  29.086  1.00  0.00     0.014 A 
ATOM     34  C   UNL A   1      36.186  33.074  28.347  1.00  0.00     0.014 A 
ATOM     35  C   UNL A   1      35.979  30.599  29.617  1.00  0.00     0.010 A 
ATOM     36  C   UNL A   1      37.334  32.427  28.798  1.00  0.00     0.010 A 
ATOM     37  C   UNL A   1      37.237  31.206  29.478  1.00  0.00    -0.014 A 
BRANCH  37  38
ATOM     38  C   UNL A   1      38.443  30.609  30.103  1.00  0.00     0.031 A 
ATOM     39  C   UNL A   1      38.864  31.036  31.486  1.00  0.00     0.074 A 
ATOM     40  C   UNL A   1      39.179  29.712  29.417  1.00  0.00     0.049 A 
ATOM     41  N   UNL A   1      39.885  30.635  32.199  1.00  0.00    -0.248 NA
ATOM     42  C   UNL A   1      38.047  32.068  32.148  1.00  0.00     0.031 C 
ATOM     43  C   UNL A   1      38.912  29.273  28.046  1.00  0.00     0.029 A 
ATOM     44  N   UNL A   1      40.309  29.022  29.774  1.00  0.00    -0.354 N 
ATOM     45  C   UNL A   1      39.853  31.388  33.368  1.00  0.00     0.074 A 
ATOM     46  C   UNL A   1      38.740  32.302  33.252  1.00  0.00     0.031 C 
ATOM     47  C   UNL A   1      39.843  28.377  27.683  1.00  0.00     0.029 A 
ATOM     48  C   UNL A   1      40.787  28.200  28.782  1.00  0.00     0.049 A 
ATOM     49  H   UNL A   1      40.736  29.107  30.656  1.00  0.00     0.167 HD
ATOM     50  C   UNL A   1      40.656  31.305  34.455  1.00  0.00     0.034 A 
ATOM     51  C   UNL A   1      41.867  27.394  28.761  1.00  0.00     0.034 A 
ATOM     52  C   UNL A   1      41.737  30.366  34.581  1.00  0.00     0.049 A 
ATOM     53  C   UNL A   1      42.719  27.289  29.998  1.00  0.00     0.074 A 
ATOM     54  C   UNL A   1      42.566  30.145  35.666  1.00  0.00     0.029 A 
ATOM     55  N   UNL A   1      42.143  29.493  33.582  1.00  0.00    -0.354 N 
ATOM     56  N   UNL A   1      42.588  27.909  31.145  1.00  0.00    -0.248 NA
ATOM     57  C   UNL A   1      43.838  26.339  29.953  1.00  0.00     0.031 C 
ATOM     58  C   UNL A   1      43.494  29.161  35.312  1.00  0.00     0.029 A 
ATOM     59  C   UNL A   1      43.213  28.735  34.024  1.00  0.00     0.049 A 
ATOM     60  H   UNL A   1      41.730  29.422  32.692  1.00  0.00     0.167 HD
ATOM     61  C   UNL A   1      43.576  27.389  31.974  1.00  0.00     0.074 A 
ATOM     62  C   UNL A   1      44.287  26.393  31.199  1.00  0.00     0.031 C 
ATOM     63  C   UNL A   1      43.873  27.709  33.258  1.00  0.00     0.034 A 
BRANCH  50  64
ATOM     64  C   UNL A   1      40.370  32.229  35.612  1.00  0.00     0.023 A 
ATOM     65  C   UNL A   1      41.156  33.385  35.799  1.00  0.00     0.012 A 
ATOM     66  C   UNL A   1      39.293  31.980  36.486  1.00  0.00     0.148 A 
ATOM     67  C   UNL A   1      40.903  34.255  36.859  1.00  0.00     0.002 A 
ATOM     68  C   UNL A   1      39.015  32.879  37.509  1.00  0.00     0.091 A 
ATOM     69  F   UNL A   1      38.568  30.867  36.306  1.00  0.00    -0.205 F 
ATOM     70  C   UNL A   1      39.826  34.007  37.706  1.00  0.00     0.022 A 
BRANCH  68  71
ATOM     71  S   UNL A   1      37.602  32.696  38.602  1.00  0.00     0.127 S 
ATOM     72  O   UNL A   1      36.503  33.124  37.736  1.00  0.00    -0.237 OA
ATOM     73  O   UNL A   1      37.624  31.263  38.896  1.00  0.00    -0.237 OA
ATOM     74  O   UNL A   1      37.862  33.557  39.747  1.00  0.00    -0.744 OA
ENDBRANCH  68  71
ENDBRANCH  50  64
BRANCH  51  75
ATOM     75  C   UNL A   1      42.166  26.573  27.553  1.00  0.00     0.023 A 
ATOM     76  C   UNL A   1      42.789  27.172  26.441  1.00  0.00     0.012 A 
ATOM     77  C   UNL A   1      41.849  25.203  27.508  1.00  0.00     0.148 A 
ATOM     78  C   UNL A   1      43.054  26.430  25.290  1.00  0.00     0.002 A 
ATOM     79  C   UNL A   1      42.168  24.456  26.381  1.00  0.00     0.091 A 
ATOM     80  F   UNL A   1      41.252  24.653  28.575  1.00  0.00    -0.205 F 
ATOM     81  C   UNL A   1      42.751  25.072  25.262  1.00  0.00     0.022 A 
BRANCH  79  82
ATOM     82  S   UNL A   1      41.933  22.677  26.306  1.00  0.00     0.127 S 
ATOM     83  O   UNL A   1      40.477  22.566  26.336  1.00  0.00    -0.237 OA
ATOM     84  O   UNL A   1      42.550  22.347  25.020  1.00  0.00    -0.237 OA
ATOM     85  O   UNL A   1      42.633  22.139  27.463  1.00  0.00    -0.744 OA
ENDBRANCH  79  82
ENDBRANCH  51  75
BRANCH  63  86
ATOM     86  C   UNL A   1      44.968  26.930  33.937  1.00  0.00     0.023 A 
ATOM     87  C   UNL A   1      46.314  27.319  33.790  1.00  0.00     0.012 A 
ATOM     88  C   UNL A   1      44.648  25.843  34.774  1.00  0.00     0.148 A 
ATOM     89  C   UNL A   1      47.329  26.609  34.432  1.00  0.00     0.002 A 
ATOM     90  C   UNL A   1      45.658  25.177  35.455  1.00  0.00     0.091 A 
ATOM     91  F   UNL A   1      43.363  25.478  34.885  1.00  0.00    -0.205 F 
ATOM     92  C   UNL A   1      47.001  25.547  35.273  1.00  0.00     0.022 A 
BRANCH  90  93
ATOM     93  S   UNL A   1      45.316  23.870  36.639  1.00  0.00     0.127 S 
ATOM     94  O   UNL A   1      46.619  23.702  37.281  1.00  0.00    -0.237 OA
ATOM     95  O   UNL A   1      44.293  24.481  37.487  1.00  0.00    -0.237 OA
ATOM     96  O   UNL A   1      44.852  22.732  35.857  1.00  0.00    -0.744 OA
ENDBRANCH  90  93
ENDBRANCH  63  86
ENDBRANCH  37  38
ENDBRANCH  29  32
ENDBRANCH  27  28
ENDBRANCH  26  27
ENDBRANCH   1  26
TORSDOF 17
ENDMDL
MODEL 3
REMARK VINA RESULT:     -12.4      0.910      7.673
REMARK SMILES CN1C(=O)[C@@H]2CC=CC[C@]2(C(=O)NCCCCCCNC(=O)c2ccc(-c3c4nc(c(-c5cccc(S(=O)(=O)[O-])c5F)c5ccc([nH]5)c(-c5cccc(S(=O)(=O)[O-])c5F)c5nc(c(-c6cccc(S(=O)(=O)[O-])c6F)c6ccc3[nH]6)C=C5)C=C4)cc2)[C@H]1c1ccccc1
REMARK SMILES IDX 17 1 16 2 15 3 14 4 13 5 11 6 12 7 10 9 1 10 2 11 3 12 86 13
REMARK SMILES IDX 4 14 5 15 6 16 9 17 7 18 8 19 87 20 88 21 92 22 89 23 91 24
REMARK SMILES IDX 90 25 18 26 19 27 20 28 21 29 22 31 23 32 24 33 85 34 25 35
REMARK SMILES IDX 84 36 26 37 27 38 28 39 78 40 29 41 83 42 77 43 79 44 30 45
REMARK SMILES IDX 82 46 76 47 75 48 31 50 63 51 43 52 62 53 44 54 47 55 61 56
REMARK SMILES IDX 80 57 45 58 46 59 60 61 81 62 48 63 32 64 33 65 41 66 34 67
REMARK SMILES IDX 36 68 42 69 35 70 37 71 38 72 39 73 40 74 64 75 65 76 73 77
REMARK SMILES IDX 66 78 68 79 74 80 67 81 69 82 70 83 71 84 72 85 49 86 50 87
REMARK SMILES IDX 58 88 51 89 53 90 59 91 52 92 54 93 55 94 56 95 57 96
REMARK H PARENT 13 8 20 30 79 49 47 60
REMARK Flexibility Score: inf
ROOT
ATOM      1  C   UNL A   1      31.832  30.378  26.773  1.00  0.00     0.002 C 
ENDROOT
BRANCH   1   2
ATOM      2  C   UNL A   1      31.811  29.745  25.376  1.00  0.00     0.002 C 
BRANCH   2   3
ATOM      3  C   UNL A   1      33.144  29.281  24.796  1.00  0.00     0.021 C 
BRANCH   3   4
ATOM      4  C   UNL A   1      33.487  27.801  24.908  1.00  0.00     0.116 C 
BRANCH   4   5
ATOM      5  N   UNL A   1      33.883  26.990  23.758  1.00  0.00    -0.356 N 
ATOM      6  C   UNL A   1      33.221  25.887  23.197  1.00  0.00     0.229 C 
ATOM      7  O   UNL A   1      33.464  25.598  22.023  1.00  0.00    -0.274 OA
ATOM      8  H   UNL A   1      34.725  27.253  23.321  1.00  0.00     0.163 HD
BRANCH   6   9
ATOM      9  C   UNL A   1      32.319  24.975  24.083  1.00  0.00     0.089 C 
ATOM     10  C   UNL A   1      32.472  21.583  25.667  1.00  0.00     0.147 C 
ATOM     11  N   UNL A   1      32.511  23.018  25.468  1.00  0.00    -0.337 N 
ATOM     12  C   UNL A   1      31.906  23.956  26.269  1.00  0.00     0.227 C 
ATOM     13  C   UNL A   1      33.061  23.591  24.279  1.00  0.00     0.131 C 
ATOM     14  O   UNL A   1      31.355  23.719  27.325  1.00  0.00    -0.275 OA
ATOM     15  C   UNL A   1      32.079  25.332  25.603  1.00  0.00     0.101 C 
ATOM     16  C   UNL A   1      30.937  26.247  26.045  1.00  0.00     0.041 C 
ATOM     17  C   UNL A   1      30.963  24.995  23.303  1.00  0.00     0.047 C 
ATOM     18  C   UNL A   1      29.881  26.480  25.031  1.00  0.00    -0.030 C 
ATOM     19  C   UNL A   1      29.890  25.920  23.820  1.00  0.00    -0.030 C 
BRANCH  13  20
ATOM     20  C   UNL A   1      34.600  23.676  24.384  1.00  0.00    -0.024 A 
ATOM     21  C   UNL A   1      35.456  23.252  23.354  1.00  0.00     0.006 A 
ATOM     22  C   UNL A   1      35.202  24.043  25.596  1.00  0.00     0.006 A 
ATOM     23  C   UNL A   1      36.799  22.961  23.596  1.00  0.00     0.000 A 
ATOM     24  C   UNL A   1      36.548  23.747  25.846  1.00  0.00     0.000 A 
ATOM     25  C   UNL A   1      37.333  23.161  24.860  1.00  0.00     0.000 A 
ENDBRANCH  13  20
ENDBRANCH   6   9
ENDBRANCH   4   5
ENDBRANCH   3   4
ENDBRANCH   2   3
ENDBRANCH   1   2
BRANCH   1  26
ATOM     26  C   UNL A   1      31.654  31.899  26.869  1.00  0.00     0.021 C 
BRANCH  26  27
ATOM     27  C   UNL A   1      32.925  32.717  27.071  1.00  0.00     0.116 C 
BRANCH  27  28
ATOM     28  N   UNL A   1      32.650  34.024  27.637  1.00  0.00    -0.352 N 
ATOM     29  C   UNL A   1      33.160  34.634  28.753  1.00  0.00     0.251 C 
ATOM     30  H   UNL A   1      31.992  34.560  27.138  1.00  0.00     0.163 HD
ATOM     31  O   UNL A   1      32.613  35.650  29.177  1.00  0.00    -0.269 OA
BRANCH  29  32
ATOM     32  C   UNL A   1      34.357  34.098  29.439  1.00  0.00     0.039 A 
ATOM     33  C   UNL A   1      35.618  34.395  28.912  1.00  0.00     0.014 A 
ATOM     34  C   UNL A   1      34.247  33.235  30.534  1.00  0.00     0.014 A 
ATOM     35  C   UNL A   1      36.760  33.827  29.479  1.00  0.00     0.010 A 
ATOM     36  C   UNL A   1      35.393  32.742  31.153  1.00  0.00     0.010 A 
ATOM     37  C   UNL A   1      36.658  32.995  30.604  1.00  0.00    -0.014 A 
BRANCH  37  38
ATOM     38  C   UNL A   1      37.856  32.327  31.170  1.00  0.00     0.031 A 
ATOM     39  C   UNL A   1      38.486  32.853  32.434  1.00  0.00     0.074 A 
ATOM     40  C   UNL A   1      38.399  31.272  30.530  1.00  0.00     0.049 A 
ATOM     41  N   UNL A   1      39.533  32.412  33.080  1.00  0.00    -0.248 NA
ATOM     42  C   UNL A   1      37.874  34.049  33.040  1.00  0.00     0.031 C 
ATOM     43  C   UNL A   1      37.922  30.715  29.263  1.00  0.00     0.029 A 
ATOM     44  N   UNL A   1      39.479  30.491  30.851  1.00  0.00    -0.354 N 
ATOM     45  C   UNL A   1      39.727  33.292  34.140  1.00  0.00     0.074 A 
ATOM     46  C   UNL A   1      38.716  34.319  34.026  1.00  0.00     0.031 C 
ATOM     47  C   UNL A   1      38.696  29.674  28.922  1.00  0.00     0.029 A 
ATOM     48  C   UNL A   1      39.740  29.507  29.928  1.00  0.00     0.049 A 
ATOM     49  H   UNL A   1      40.016  30.622  31.665  1.00  0.00     0.167 HD
ATOM     50  C   UNL A   1      40.640  33.234  35.138  1.00  0.00     0.034 A 
ATOM     51  C   UNL A   1      40.712  28.575  29.897  1.00  0.00     0.034 A 
ATOM     52  C   UNL A   1      41.616  32.188  35.268  1.00  0.00     0.049 A 
ATOM     53  C   UNL A   1      41.690  28.506  31.040  1.00  0.00     0.074 A 
ATOM     54  C   UNL A   1      42.540  31.990  36.279  1.00  0.00     0.029 A 
ATOM     55  N   UNL A   1      41.799  31.161  34.353  1.00  0.00    -0.354 N 
ATOM     56  N   UNL A   1      41.768  29.265  32.105  1.00  0.00    -0.248 NA
ATOM     57  C   UNL A   1      42.682  27.424  30.999  1.00  0.00     0.031 C 
ATOM     58  C   UNL A   1      43.303  30.863  35.958  1.00  0.00     0.029 A 
ATOM     59  C   UNL A   1      42.823  30.331  34.772  1.00  0.00     0.049 A 
ATOM     60  H   UNL A   1      41.277  31.042  33.527  1.00  0.00     0.167 HD
ATOM     61  C   UNL A   1      42.784  28.724  32.885  1.00  0.00     0.074 A 
ATOM     62  C   UNL A   1      43.281  27.564  32.174  1.00  0.00     0.031 C 
ATOM     63  C   UNL A   1      43.267  29.149  34.079  1.00  0.00     0.034 A 
BRANCH  50  64
ATOM     64  C   UNL A   1      40.600  34.313  36.190  1.00  0.00     0.023 A 
ATOM     65  C   UNL A   1      41.075  35.607  35.889  1.00  0.00     0.012 A 
ATOM     66  C   UNL A   1      40.048  34.062  37.462  1.00  0.00     0.148 A 
ATOM     67  C   UNL A   1      41.041  36.620  36.847  1.00  0.00     0.002 A 
ATOM     68  C   UNL A   1      39.969  35.090  38.394  1.00  0.00     0.091 A 
ATOM     69  F   UNL A   1      39.619  32.823  37.739  1.00  0.00    -0.205 F 
ATOM     70  C   UNL A   1      40.478  36.364  38.094  1.00  0.00     0.022 A 
BRANCH  68  71
ATOM     71  S   UNL A   1      39.187  34.887  39.998  1.00  0.00     0.127 S 
ATOM     72  O   UNL A   1      38.843  36.269  40.334  1.00  0.00    -0.237 OA
ATOM     73  O   UNL A   1      38.042  34.035  39.676  1.00  0.00    -0.237 OA
ATOM     74  O   UNL A   1      40.185  34.268  40.858  1.00  0.00    -0.744 OA
ENDBRANCH  68  71
ENDBRANCH  50  64
BRANCH  51  75
ATOM     75  C   UNL A   1      40.770  27.590  28.779  1.00  0.00     0.023 A 
ATOM     76  C   UNL A   1      39.829  26.543  28.724  1.00  0.00     0.012 A 
ATOM     77  C   UNL A   1      41.741  27.696  27.766  1.00  0.00     0.148 A 
ATOM     78  C   UNL A   1      39.881  25.594  27.703  1.00  0.00     0.002 A 
ATOM     79  C   UNL A   1      41.751  26.781  26.720  1.00  0.00     0.091 A 
ATOM     80  F   UNL A   1      42.630  28.696  27.840  1.00  0.00    -0.205 F 
ATOM     81  C   UNL A   1      40.836  25.717  26.697  1.00  0.00     0.022 A 
BRANCH  79  82
ATOM     82  S   UNL A   1      42.861  26.937  25.316  1.00  0.00     0.127 S 
ATOM     83  O   UNL A   1      44.160  27.053  25.973  1.00  0.00    -0.237 OA
ATOM     84  O   UNL A   1      42.635  25.673  24.614  1.00  0.00    -0.237 OA
ATOM     85  O   UNL A   1      42.412  28.115  24.589  1.00  0.00    -0.744 OA
ENDBRANCH  79  82
ENDBRANCH  51  75
BRANCH  63  86
ATOM     86  C   UNL A   1      44.342  28.322  34.733  1.00  0.00     0.023 A 
ATOM     87  C   UNL A   1      45.692  28.715  34.651  1.00  0.00     0.012 A 
ATOM     88  C   UNL A   1      43.998  27.180  35.483  1.00  0.00     0.148 A 
ATOM     89  C   UNL A   1      46.687  27.960  35.270  1.00  0.00     0.002 A 
ATOM     90  C   UNL A   1      44.987  26.465  36.144  1.00  0.00     0.091 A 
ATOM     91  F   UNL A   1      42.709  26.812  35.532  1.00  0.00    -0.205 F 
ATOM     92  C   UNL A   1      46.335  26.843  36.026  1.00  0.00     0.022 A 
BRANCH  90  93
ATOM     93  S   UNL A   1      44.611  25.081  37.224  1.00  0.00     0.127 S 
ATOM     94  O   UNL A   1      43.696  25.695  38.186  1.00  0.00    -0.237 OA
ATOM     95  O   UNL A   1      43.982  24.133  36.304  1.00  0.00    -0.237 OA
ATOM     96  O   UNL A   1      45.886  24.638  37.769  1.00  0.00    -0.744 OA
ENDBRANCH  90  93
ENDBRANCH  63  86
ENDBRANCH  37  38
ENDBRANCH  29  32
ENDBRANCH  27  28
ENDBRANCH  26  27
ENDBRANCH   1  26
TORSDOF 17
ENDMDL
