MODEL 1
REMARK VINA RESULT:     -11.1      0.000      0.000
REMARK SMILES CCOC(=O)C1=NN(c2cc(F)cc(F)c2)[C@@H](C(=O)NCCCCCCNC(=O)c2ccc(-c3c4nc(c(-c5cccc(S(=O)(=O)[O-])c5F)c5ccc([nH]5)c(-c5cccc(S(=O)(=O)[O-])c5F)c5nc(c(-c6cccc(S(=O)(=O)[O-])c6F)c6ccc3[nH]6)C=C5)C=C4)cc2)C1
REMARK SMILES IDX 23 1 22 2 21 3 20 4 18 5 19 6 17 8 6 9 7 10 93 11 8 12 4 13
REMARK SMILES IDX 5 14 3 15 2 16 1 17 9 18 10 19 16 20 11 21 14 22 12 23 13 24
REMARK SMILES IDX 15 25 24 26 25 27 26 28 27 29 28 30 29 32 30 33 31 34 92 35
REMARK SMILES IDX 32 36 91 37 33 38 34 39 35 40 85 41 36 42 90 43 84 44 86 45
REMARK SMILES IDX 37 46 89 47 83 48 82 49 38 51 70 52 50 53 69 54 51 55 54 56
REMARK SMILES IDX 68 57 87 58 52 59 53 60 67 62 88 63 55 64 39 65 40 66 48 67
REMARK SMILES IDX 41 68 43 69 49 70 42 71 44 72 45 73 46 74 47 75 71 76 72 77
REMARK SMILES IDX 80 78 73 79 75 80 81 81 74 82 76 83 77 84 78 85 79 86 56 87
REMARK SMILES IDX 57 88 65 89 58 90 60 91 66 92 59 93 61 94 62 95 63 96 64 97
REMARK H PARENT 20 7 27 31 86 50 54 61
REMARK Flexibility Score: inf
ROOT
ATOM      1  C   UNL A   1      35.306  18.772  24.602  1.00  0.00     0.002 C 
ENDROOT
BRANCH   1   2
ATOM      2  C   UNL A   1      33.870  19.311  24.635  1.00  0.00     0.021 C 
BRANCH   2   3
ATOM      3  C   UNL A   1      33.589  20.246  25.817  1.00  0.00     0.116 C 
BRANCH   3   4
ATOM      4  N   UNL A   1      32.184  20.601  25.886  1.00  0.00    -0.354 N 
ATOM      5  C   UNL A   1      31.556  21.760  25.522  1.00  0.00     0.245 C 
ATOM      6  O   UNL A   1      30.350  21.833  25.786  1.00  0.00    -0.273 OA
ATOM      7  H   UNL A   1      31.593  19.902  26.249  1.00  0.00     0.163 HD
BRANCH   5   8
ATOM      8  C   UNL A   1      32.279  22.869  24.709  1.00  0.00     0.203 C 
ATOM      9  C   UNL A   1      31.770  24.916  25.595  1.00  0.00     0.148 C 
ATOM     10  N   UNL A   1      32.917  24.635  26.130  1.00  0.00    -0.169 NA
ATOM     11  C   UNL A   1      31.331  24.049  24.462  1.00  0.00     0.103 C 
ATOM     12  N   UNL A   1      33.362  23.513  25.471  1.00  0.00    -0.252 N 
BRANCH   9  13
ATOM     13  C   UNL A   1      30.942  26.106  25.977  1.00  0.00     0.354 C 
ATOM     14  O   UNL A   1      29.857  25.981  26.521  1.00  0.00    -0.245 OA
BRANCH  13  15
ATOM     15  O   UNL A   1      31.619  27.237  25.708  1.00  0.00    -0.461 OA
BRANCH  15  16
ATOM     16  C   UNL A   1      31.673  27.611  24.325  1.00  0.00     0.230 C 
ATOM     17  C   UNL A   1      30.276  27.920  23.819  1.00  0.00     0.049 C 
ENDBRANCH  15  16
ENDBRANCH  13  15
ENDBRANCH   9  13
BRANCH  12  18
ATOM     18  C   UNL A   1      34.727  23.434  25.189  1.00  0.00     0.066 A 
ATOM     19  C   UNL A   1      35.724  23.785  26.110  1.00  0.00     0.067 A 
ATOM     20  C   UNL A   1      35.157  23.008  23.920  1.00  0.00     0.067 A 
ATOM     21  C   UNL A   1      37.076  23.753  25.757  1.00  0.00     0.128 A 
ATOM     22  C   UNL A   1      36.510  22.994  23.580  1.00  0.00     0.128 A 
ATOM     23  F   UNL A   1      37.988  24.114  26.667  1.00  0.00    -0.207 F 
ATOM     24  C   UNL A   1      37.482  23.372  24.490  1.00  0.00     0.078 A 
ATOM     25  F   UNL A   1      36.869  22.633  22.342  1.00  0.00    -0.207 F 
ENDBRANCH  12  18
ENDBRANCH   5   8
ENDBRANCH   3   4
ENDBRANCH   2   3
ENDBRANCH   1   2
BRANCH   1  26
ATOM     26  C   UNL A   1      36.391  19.787  24.986  1.00  0.00     0.002 C 
BRANCH  26  27
ATOM     27  C   UNL A   1      37.840  19.290  24.881  1.00  0.00     0.021 C 
BRANCH  27  28
ATOM     28  C   UNL A   1      38.865  20.063  25.713  1.00  0.00     0.116 C 
BRANCH  28  29
ATOM     29  N   UNL A   1      40.033  19.255  26.030  1.00  0.00    -0.352 N 
ATOM     30  C   UNL A   1      41.314  19.647  26.330  1.00  0.00     0.251 C 
ATOM     31  H   UNL A   1      39.882  18.282  26.028  1.00  0.00     0.163 HD
ATOM     32  O   UNL A   1      42.209  18.806  26.386  1.00  0.00    -0.269 OA
BRANCH  30  33
ATOM     33  C   UNL A   1      41.632  21.074  26.574  1.00  0.00     0.039 A 
ATOM     34  C   UNL A   1      41.823  21.505  27.891  1.00  0.00     0.014 A 
ATOM     35  C   UNL A   1      41.690  21.993  25.522  1.00  0.00     0.014 A 
ATOM     36  C   UNL A   1      42.124  22.846  28.151  1.00  0.00     0.010 A 
ATOM     37  C   UNL A   1      42.023  23.323  25.779  1.00  0.00     0.010 A 
ATOM     38  C   UNL A   1      42.241  23.761  27.094  1.00  0.00    -0.014 A 
BRANCH  38  39
ATOM     39  C   UNL A   1      42.604  25.179  27.336  1.00  0.00     0.031 A 
ATOM     40  C   UNL A   1      43.971  25.685  26.972  1.00  0.00     0.074 A 
ATOM     41  C   UNL A   1      41.736  25.988  27.974  1.00  0.00     0.049 A 
ATOM     42  N   UNL A   1      44.501  26.859  27.194  1.00  0.00    -0.248 NA
ATOM     43  C   UNL A   1      44.868  24.741  26.284  1.00  0.00     0.031 C 
ATOM     44  C   UNL A   1      40.402  25.599  28.432  1.00  0.00     0.029 A 
ATOM     45  N   UNL A   1      41.860  27.294  28.378  1.00  0.00    -0.354 N 
ATOM     46  C   UNL A   1      45.801  26.787  26.711  1.00  0.00     0.074 A 
ATOM     47  C   UNL A   1      45.984  25.450  26.186  1.00  0.00     0.031 C 
ATOM     48  C   UNL A   1      39.836  26.638  29.067  1.00  0.00     0.029 A 
ATOM     49  C   UNL A   1      40.771  27.759  29.077  1.00  0.00     0.049 A 
ATOM     50  H   UNL A   1      42.652  27.845  28.186  1.00  0.00     0.167 HD
ATOM     51  C   UNL A   1      46.750  27.751  26.686  1.00  0.00     0.034 A 
ATOM     52  C   UNL A   1      40.552  28.953  29.665  1.00  0.00     0.034 A 
ATOM     53  C   UNL A   1      46.552  29.100  27.146  1.00  0.00     0.049 A 
ATOM     54  C   UNL A   1      41.601  30.026  29.568  1.00  0.00     0.074 A 
ATOM     55  C   UNL A   1      47.427  30.169  27.080  1.00  0.00     0.029 A 
ATOM     56  N   UNL A   1      45.395  29.564  27.752  1.00  0.00    -0.354 N 
ATOM     57  N   UNL A   1      42.768  29.983  28.974  1.00  0.00    -0.248 NA
ATOM     58  C   UNL A   1      41.292  31.320  30.194  1.00  0.00     0.031 C 
ATOM     59  C   UNL A   1      46.793  31.287  27.636  1.00  0.00     0.029 A 
ATOM     60  C   UNL A   1      45.531  30.907  28.060  1.00  0.00     0.049 A 
ATOM     61  H   UNL A   1      44.596  29.020  27.935  1.00  0.00     0.167 HD
ATOM     62  C   UNL A   1      43.323  31.248  29.131  1.00  0.00     0.074 A 
ATOM     63  C   UNL A   1      42.357  32.041  29.863  1.00  0.00     0.031 C 
ATOM     64  C   UNL A   1      44.533  31.702  28.726  1.00  0.00     0.034 A 
BRANCH  51  65
ATOM     65  C   UNL A   1      48.073  27.407  26.064  1.00  0.00     0.023 A 
ATOM     66  C   UNL A   1      49.100  26.902  26.888  1.00  0.00     0.012 A 
ATOM     67  C   UNL A   1      48.287  27.525  24.678  1.00  0.00     0.148 A 
ATOM     68  C   UNL A   1      50.328  26.533  26.342  1.00  0.00     0.002 A 
ATOM     69  C   UNL A   1      49.509  27.132  24.138  1.00  0.00     0.091 A 
ATOM     70  F   UNL A   1      47.313  28.039  23.914  1.00  0.00    -0.205 F 
ATOM     71  C   UNL A   1      50.530  26.639  24.967  1.00  0.00     0.022 A 
BRANCH  69  72
ATOM     72  S   UNL A   1      49.811  27.197  22.365  1.00  0.00     0.127 S 
ATOM     73  O   UNL A   1      49.617  28.618  22.080  1.00  0.00    -0.237 OA
ATOM     74  O   UNL A   1      51.197  26.739  22.253  1.00  0.00    -0.237 OA
ATOM     75  O   UNL A   1      48.834  26.285  21.783  1.00  0.00    -0.744 OA
ENDBRANCH  69  72
ENDBRANCH  51  65
BRANCH  52  76
ATOM     76  C   UNL A   1      39.242  29.216  30.320  1.00  0.00     0.023 A 
ATOM     77  C   UNL A   1      39.001  28.682  31.600  1.00  0.00     0.012 A 
ATOM     78  C   UNL A   1      38.269  30.038  29.723  1.00  0.00     0.148 A 
ATOM     79  C   UNL A   1      37.806  28.953  32.269  1.00  0.00     0.002 A 
ATOM     80  C   UNL A   1      37.099  30.340  30.415  1.00  0.00     0.091 A 
ATOM     81  F   UNL A   1      38.500  30.521  28.494  1.00  0.00    -0.205 F 
ATOM     82  C   UNL A   1      36.860  29.793  31.683  1.00  0.00     0.022 A 
BRANCH  80  83
ATOM     83  S   UNL A   1      35.924  31.528  29.749  1.00  0.00     0.127 S 
ATOM     84  O   UNL A   1      35.040  31.755  30.888  1.00  0.00    -0.237 OA
ATOM     85  O   UNL A   1      36.777  32.665  29.397  1.00  0.00    -0.237 OA
ATOM     86  O   UNL A   1      35.345  30.846  28.597  1.00  0.00    -0.744 OA
ENDBRANCH  80  83
ENDBRANCH  52  76
BRANCH  64  87
ATOM     87  C   UNL A   1      44.889  33.127  29.048  1.00  0.00     0.023 A 
ATOM     88  C   UNL A   1      45.475  33.418  30.296  1.00  0.00     0.012 A 
ATOM     89  C   UNL A   1      44.734  34.152  28.096  1.00  0.00     0.148 A 
ATOM     90  C   UNL A   1      45.895  34.714  30.594  1.00  0.00     0.002 A 
ATOM     91  C   UNL A   1      45.180  35.436  28.390  1.00  0.00     0.091 A 
ATOM     92  F   UNL A   1      44.148  33.861  26.924  1.00  0.00    -0.205 F 
ATOM     93  C   UNL A   1      45.759  35.720  29.638  1.00  0.00     0.022 A 
BRANCH  91  94
ATOM     94  S   UNL A   1      45.099  36.756  27.170  1.00  0.00     0.127 S 
ATOM     95  O   UNL A   1      45.882  36.199  26.070  1.00  0.00    -0.237 OA
ATOM     96  O   UNL A   1      43.662  36.863  26.900  1.00  0.00    -0.237 OA
ATOM     97  O   UNL A   1      45.667  37.922  27.833  1.00  0.00    -0.744 OA
ENDBRANCH  91  94
ENDBRANCH  64  87
ENDBRANCH  38  39
ENDBRANCH  30  33
ENDBRANCH  28  29
ENDBRANCH  27  28
ENDBRANCH  26  27
ENDBRANCH   1  26
TORSDOF 20
ENDMDL
MODEL 2
REMARK VINA RESULT:     -11.0      5.252     10.379
REMARK SMILES CCOC(=O)C1=NN(c2cc(F)cc(F)c2)[C@@H](C(=O)NCCCCCCNC(=O)c2ccc(-c3c4nc(c(-c5cccc(S(=O)(=O)[O-])c5F)c5ccc([nH]5)c(-c5cccc(S(=O)(=O)[O-])c5F)c5nc(c(-c6cccc(S(=O)(=O)[O-])c6F)c6ccc3[nH]6)C=C5)C=C4)cc2)C1
REMARK SMILES IDX 23 1 22 2 21 3 20 4 18 5 19 6 17 8 6 9 7 10 93 11 8 12 4 13
REMARK SMILES IDX 5 14 3 15 2 16 1 17 9 18 10 19 16 20 11 21 14 22 12 23 13 24
REMARK SMILES IDX 15 25 24 26 25 27 26 28 27 29 28 30 29 32 30 33 31 34 92 35
REMARK SMILES IDX 32 36 91 37 33 38 34 39 35 40 85 41 36 42 90 43 84 44 86 45
REMARK SMILES IDX 37 46 89 47 83 48 82 49 38 51 70 52 50 53 69 54 51 55 54 56
REMARK SMILES IDX 68 57 87 58 52 59 53 60 67 62 88 63 55 64 39 65 40 66 48 67
REMARK SMILES IDX 41 68 43 69 49 70 42 71 44 72 45 73 46 74 47 75 71 76 72 77
REMARK SMILES IDX 80 78 73 79 75 80 81 81 74 82 76 83 77 84 78 85 79 86 56 87
REMARK SMILES IDX 57 88 65 89 58 90 60 91 66 92 59 93 61 94 62 95 63 96 64 97
REMARK H PARENT 20 7 27 31 86 50 54 61
REMARK Flexibility Score: inf
ROOT
ATOM      1  C   UNL A   1      30.377  27.194  24.490  1.00  0.00     0.002 C 
ENDROOT
BRANCH   1   2
ATOM      2  C   UNL A   1      30.378  26.302  25.738  1.00  0.00     0.021 C 
BRANCH   2   3
ATOM      3  C   UNL A   1      30.479  24.805  25.426  1.00  0.00     0.116 C 
BRANCH   3   4
ATOM      4  N   UNL A   1      30.913  24.053  26.588  1.00  0.00    -0.354 N 
ATOM      5  C   UNL A   1      32.135  23.508  26.871  1.00  0.00     0.245 C 
ATOM      6  O   UNL A   1      32.202  22.823  27.899  1.00  0.00    -0.273 OA
ATOM      7  H   UNL A   1      30.224  23.914  27.278  1.00  0.00     0.163 HD
BRANCH   5   8
ATOM      8  C   UNL A   1      33.398  23.834  26.028  1.00  0.00     0.203 C 
ATOM      9  C   UNL A   1      34.152  21.924  25.019  1.00  0.00     0.148 C 
ATOM     10  N   UNL A   1      33.449  22.496  24.090  1.00  0.00    -0.169 NA
ATOM     11  C   UNL A   1      34.462  22.746  26.224  1.00  0.00     0.103 C 
ATOM     12  N   UNL A   1      33.148  23.745  24.579  1.00  0.00    -0.252 N 
BRANCH   9  13
ATOM     13  C   UNL A   1      34.744  20.552  24.888  1.00  0.00     0.354 C 
ATOM     14  O   UNL A   1      35.909  20.330  25.175  1.00  0.00    -0.245 OA
BRANCH  13  15
ATOM     15  O   UNL A   1      33.793  19.679  24.514  1.00  0.00    -0.461 OA
BRANCH  15  16
ATOM     16  C   UNL A   1      32.933  19.213  25.562  1.00  0.00     0.230 C 
ATOM     17  C   UNL A   1      32.751  17.711  25.451  1.00  0.00     0.049 C 
ENDBRANCH  15  16
ENDBRANCH  13  15
ENDBRANCH   9  13
BRANCH  12  18
ATOM     18  C   UNL A   1      33.162  24.809  23.674  1.00  0.00     0.066 A 
ATOM     19  C   UNL A   1      32.605  24.733  22.390  1.00  0.00     0.067 A 
ATOM     20  C   UNL A   1      33.780  26.021  24.028  1.00  0.00     0.067 A 
ATOM     21  C   UNL A   1      32.705  25.803  21.496  1.00  0.00     0.128 A 
ATOM     22  C   UNL A   1      33.882  27.074  23.119  1.00  0.00     0.128 A 
ATOM     23  F   UNL A   1      32.171  25.674  20.276  1.00  0.00    -0.207 F 
ATOM     24  C   UNL A   1      33.353  26.975  21.844  1.00  0.00     0.078 A 
ATOM     25  F   UNL A   1      34.527  28.190  23.481  1.00  0.00    -0.207 F 
ENDBRANCH  12  18
ENDBRANCH   5   8
ENDBRANCH   3   4
ENDBRANCH   2   3
ENDBRANCH   1   2
BRANCH   1  26
ATOM     26  C   UNL A   1      30.961  28.599  24.693  1.00  0.00     0.002 C 
BRANCH  26  27
ATOM     27  C   UNL A   1      31.802  28.798  25.961  1.00  0.00     0.021 C 
BRANCH  27  28
ATOM     28  C   UNL A   1      33.041  29.682  25.799  1.00  0.00     0.116 C 
BRANCH  28  29
ATOM     29  N   UNL A   1      32.801  31.047  26.244  1.00  0.00    -0.352 N 
ATOM     30  C   UNL A   1      33.427  31.770  27.230  1.00  0.00     0.251 C 
ATOM     31  H   UNL A   1      32.082  31.522  25.768  1.00  0.00     0.163 HD
ATOM     32  O   UNL A   1      32.955  32.848  27.584  1.00  0.00    -0.269 OA
BRANCH  30  33
ATOM     33  C   UNL A   1      34.656  31.258  27.880  1.00  0.00     0.039 A 
ATOM     34  C   UNL A   1      35.769  32.101  27.973  1.00  0.00     0.014 A 
ATOM     35  C   UNL A   1      34.734  29.942  28.347  1.00  0.00     0.014 A 
ATOM     36  C   UNL A   1      36.943  31.644  28.582  1.00  0.00     0.010 A 
ATOM     37  C   UNL A   1      35.894  29.499  28.983  1.00  0.00     0.010 A 
ATOM     38  C   UNL A   1      37.007  30.344  29.105  1.00  0.00    -0.014 A 
BRANCH  38  39
ATOM     39  C   UNL A   1      38.223  29.849  29.796  1.00  0.00     0.031 A 
ATOM     40  C   UNL A   1      38.593  30.378  31.153  1.00  0.00     0.074 A 
ATOM     41  C   UNL A   1      39.047  28.994  29.160  1.00  0.00     0.049 A 
ATOM     42  N   UNL A   1      39.661  30.138  31.868  1.00  0.00    -0.248 NA
ATOM     43  C   UNL A   1      37.646  31.313  31.782  1.00  0.00     0.031 C 
ATOM     44  C   UNL A   1      38.830  28.455  27.817  1.00  0.00     0.029 A 
ATOM     45  N   UNL A   1      40.251  28.458  29.544  1.00  0.00    -0.354 N 
ATOM     46  C   UNL A   1      39.538  30.918  33.009  1.00  0.00     0.074 A 
ATOM     47  C   UNL A   1      38.291  31.645  32.893  1.00  0.00     0.031 C 
ATOM     48  C   UNL A   1      39.872  27.677  27.483  1.00  0.00     0.029 A 
ATOM     49  C   UNL A   1      40.839  27.675  28.578  1.00  0.00     0.049 A 
ATOM     50  H   UNL A   1      40.656  28.617  30.427  1.00  0.00     0.167 HD
ATOM     51  C   UNL A   1      40.375  31.006  34.069  1.00  0.00     0.034 A 
ATOM     52  C   UNL A   1      42.023  27.032  28.572  1.00  0.00     0.034 A 
ATOM     53  C   UNL A   1      41.581  30.238  34.219  1.00  0.00     0.049 A 
ATOM     54  C   UNL A   1      42.905  27.099  29.789  1.00  0.00     0.074 A 
ATOM     55  C   UNL A   1      42.446  30.196  35.297  1.00  0.00     0.029 A 
ATOM     56  N   UNL A   1      42.088  29.372  33.263  1.00  0.00    -0.354 N 
ATOM     57  N   UNL A   1      42.698  27.726  30.920  1.00  0.00    -0.248 NA
ATOM     58  C   UNL A   1      44.168  26.347  29.740  1.00  0.00     0.031 C 
ATOM     59  C   UNL A   1      43.473  29.292  34.999  1.00  0.00     0.029 A 
ATOM     60  C   UNL A   1      43.253  28.786  33.729  1.00  0.00     0.049 A 
ATOM     61  H   UNL A   1      41.681  29.199  32.385  1.00  0.00     0.167 HD
ATOM     62  C   UNL A   1      43.787  27.425  31.728  1.00  0.00     0.074 A 
ATOM     63  C   UNL A   1      44.647  26.547  30.963  1.00  0.00     0.031 C 
ATOM     64  C   UNL A   1      44.062  27.858  32.983  1.00  0.00     0.034 A 
BRANCH  51  65
ATOM     65  C   UNL A   1      39.972  31.912  35.197  1.00  0.00     0.023 A 
ATOM     66  C   UNL A   1      40.468  33.232  35.219  1.00  0.00     0.012 A 
ATOM     67  C   UNL A   1      39.073  31.490  36.194  1.00  0.00     0.148 A 
ATOM     68  C   UNL A   1      40.086  34.116  36.227  1.00  0.00     0.002 A 
ATOM     69  C   UNL A   1      38.678  32.386  37.185  1.00  0.00     0.091 A 
ATOM     70  F   UNL A   1      38.638  30.222  36.179  1.00  0.00    -0.205 F 
ATOM     71  C   UNL A   1      39.184  33.696  37.204  1.00  0.00     0.022 A 
BRANCH  69  72
ATOM     72  S   UNL A   1      37.478  31.920  38.442  1.00  0.00     0.127 S 
ATOM     73  O   UNL A   1      37.163  30.545  38.060  1.00  0.00    -0.237 OA
ATOM     74  O   UNL A   1      38.243  32.045  39.685  1.00  0.00    -0.237 OA
ATOM     75  O   UNL A   1      36.398  32.889  38.309  1.00  0.00    -0.744 OA
ENDBRANCH  69  72
ENDBRANCH  51  65
BRANCH  52  76
ATOM     76  C   UNL A   1      42.396  26.197  27.399  1.00  0.00     0.023 A 
ATOM     77  C   UNL A   1      43.178  26.767  26.376  1.00  0.00     0.012 A 
ATOM     78  C   UNL A   1      42.045  24.837  27.318  1.00  0.00     0.148 A 
ATOM     79  C   UNL A   1      43.592  25.999  25.286  1.00  0.00     0.002 A 
ATOM     80  C   UNL A   1      42.501  24.066  26.251  1.00  0.00     0.091 A 
ATOM     81  F   UNL A   1      41.281  24.310  28.286  1.00  0.00    -0.205 F 
ATOM     82  C   UNL A   1      43.266  24.645  25.230  1.00  0.00     0.022 A 
BRANCH  80  83
ATOM     83  S   UNL A   1      42.215  22.291  26.219  1.00  0.00     0.127 S 
ATOM     84  O   UNL A   1      42.986  21.878  25.050  1.00  0.00    -0.237 OA
ATOM     85  O   UNL A   1      42.765  21.850  27.504  1.00  0.00    -0.237 OA
ATOM     86  O   UNL A   1      40.765  22.165  26.125  1.00  0.00    -0.744 OA
ENDBRANCH  80  83
ENDBRANCH  52  76
BRANCH  64  87
ATOM     87  C   UNL A   1      45.336  27.384  33.622  1.00  0.00     0.023 A 
ATOM     88  C   UNL A   1      46.498  28.171  33.493  1.00  0.00     0.012 A 
ATOM     89  C   UNL A   1      45.366  26.225  34.421  1.00  0.00     0.148 A 
ATOM     90  C   UNL A   1      47.675  27.805  34.145  1.00  0.00     0.002 A 
ATOM     91  C   UNL A   1      46.537  25.881  35.090  1.00  0.00     0.091 A 
ATOM     92  F   UNL A   1      44.258  25.474  34.509  1.00  0.00    -0.205 F 
ATOM     93  C   UNL A   1      47.692  26.668  34.952  1.00  0.00     0.022 A 
BRANCH  91  94
ATOM     94  S   UNL A   1      46.596  24.468  36.202  1.00  0.00     0.127 S 
ATOM     95  O   UNL A   1      47.785  24.761  36.999  1.00  0.00    -0.237 OA
ATOM     96  O   UNL A   1      45.332  24.576  36.935  1.00  0.00    -0.237 OA
ATOM     97  O   UNL A   1      46.680  23.304  35.331  1.00  0.00    -0.744 OA
ENDBRANCH  91  94
ENDBRANCH  64  87
ENDBRANCH  38  39
ENDBRANCH  30  33
ENDBRANCH  28  29
ENDBRANCH  27  28
ENDBRANCH  26  27
ENDBRANCH   1  26
TORSDOF 20
ENDMDL
MODEL 3
REMARK VINA RESULT:     -10.8      4.877      9.673
REMARK SMILES CCOC(=O)C1=NN(c2cc(F)cc(F)c2)[C@@H](C(=O)NCCCCCCNC(=O)c2ccc(-c3c4nc(c(-c5cccc(S(=O)(=O)[O-])c5F)c5ccc([nH]5)c(-c5cccc(S(=O)(=O)[O-])c5F)c5nc(c(-c6cccc(S(=O)(=O)[O-])c6F)c6ccc3[nH]6)C=C5)C=C4)cc2)C1
REMARK SMILES IDX 23 1 22 2 21 3 20 4 18 5 19 6 17 8 6 9 7 10 93 11 8 12 4 13
REMARK SMILES IDX 5 14 3 15 2 16 1 17 9 18 10 19 16 20 11 21 14 22 12 23 13 24
REMARK SMILES IDX 15 25 24 26 25 27 26 28 27 29 28 30 29 32 30 33 31 34 92 35
REMARK SMILES IDX 32 36 91 37 33 38 34 39 35 40 85 41 36 42 90 43 84 44 86 45
REMARK SMILES IDX 37 46 89 47 83 48 82 49 38 51 70 52 50 53 69 54 51 55 54 56
REMARK SMILES IDX 68 57 87 58 52 59 53 60 67 62 88 63 55 64 39 65 40 66 48 67
REMARK SMILES IDX 41 68 43 69 49 70 42 71 44 72 45 73 46 74 47 75 71 76 72 77
REMARK SMILES IDX 80 78 73 79 75 80 81 81 74 82 76 83 77 84 78 85 79 86 56 87
REMARK SMILES IDX 57 88 65 89 58 90 60 91 66 92 59 93 61 94 62 95 63 96 64 97
REMARK H PARENT 20 7 27 31 86 50 54 61
REMARK Flexibility Score: inf
ROOT
ATOM      1  C   UNL A   1      30.660  26.924  25.347  1.00  0.00     0.002 C 
ENDROOT
BRANCH   1   2
ATOM      2  C   UNL A   1      30.829  26.505  23.881  1.00  0.00     0.021 C 
BRANCH   2   3
ATOM      3  C   UNL A   1      30.404  25.060  23.600  1.00  0.00     0.116 C 
BRANCH   3   4
ATOM      4  N   UNL A   1      30.333  24.284  24.824  1.00  0.00    -0.354 N 
ATOM      5  C   UNL A   1      30.943  23.105  25.149  1.00  0.00     0.245 C 
ATOM      6  O   UNL A   1      30.624  22.606  26.236  1.00  0.00    -0.273 OA
ATOM      7  H   UNL A   1      29.757  24.664  25.527  1.00  0.00     0.163 HD
BRANCH   5   8
ATOM      8  C   UNL A   1      32.069  22.490  24.273  1.00  0.00     0.203 C 
ATOM      9  C   UNL A   1      34.105  23.002  25.183  1.00  0.00     0.148 C 
ATOM     10  N   UNL A   1      33.871  21.805  25.627  1.00  0.00    -0.169 NA
ATOM     11  C   UNL A   1      33.212  23.497  24.095  1.00  0.00     0.103 C 
ATOM     12  N   UNL A   1      32.760  21.374  24.942  1.00  0.00    -0.252 N 
BRANCH   9  13
ATOM     13  C   UNL A   1      35.269  23.839  25.622  1.00  0.00     0.354 C 
ATOM     14  O   UNL A   1      35.182  25.052  25.718  1.00  0.00    -0.245 OA
BRANCH  13  15
ATOM     15  O   UNL A   1      36.305  23.045  25.947  1.00  0.00    -0.461 OA
BRANCH  15  16
ATOM     16  C   UNL A   1      37.244  22.791  24.893  1.00  0.00     0.230 C 
ATOM     17  C   UNL A   1      37.333  21.299  24.629  1.00  0.00     0.049 C 
ENDBRANCH  15  16
ENDBRANCH  13  15
ENDBRANCH   9  13
BRANCH  12  18
ATOM     18  C   UNL A   1      32.726  20.034  24.552  1.00  0.00     0.066 A 
ATOM     19  C   UNL A   1      32.494  19.623  23.232  1.00  0.00     0.067 A 
ATOM     20  C   UNL A   1      32.905  19.021  25.510  1.00  0.00     0.067 A 
ATOM     21  C   UNL A   1      32.402  18.268  22.904  1.00  0.00     0.128 A 
ATOM     22  C   UNL A   1      32.797  17.672  25.167  1.00  0.00     0.128 A 
ATOM     23  F   UNL A   1      32.162  17.928  21.632  1.00  0.00    -0.207 F 
ATOM     24  C   UNL A   1      32.539  17.281  23.865  1.00  0.00     0.078 A 
ATOM     25  F   UNL A   1      32.922  16.743  26.123  1.00  0.00    -0.207 F 
ENDBRANCH  12  18
ENDBRANCH   5   8
ENDBRANCH   3   4
ENDBRANCH   2   3
ENDBRANCH   1   2
BRANCH   1  26
ATOM     26  C   UNL A   1      31.553  28.087  25.800  1.00  0.00     0.002 C 
BRANCH  26  27
ATOM     27  C   UNL A   1      32.918  27.696  26.383  1.00  0.00     0.021 C 
BRANCH  27  28
ATOM     28  C   UNL A   1      34.066  28.660  26.078  1.00  0.00     0.116 C 
BRANCH  28  29
ATOM     29  N   UNL A   1      33.854  29.968  26.679  1.00  0.00    -0.352 N 
ATOM     30  C   UNL A   1      34.579  30.613  27.652  1.00  0.00     0.251 C 
ATOM     31  H   UNL A   1      33.076  30.465  26.338  1.00  0.00     0.163 HD
ATOM     32  O   UNL A   1      34.132  31.638  28.163  1.00  0.00    -0.269 OA
BRANCH  30  33
ATOM     33  C   UNL A   1      35.885  30.079  28.103  1.00  0.00     0.039 A 
ATOM     34  C   UNL A   1      36.991  30.199  27.253  1.00  0.00     0.014 A 
ATOM     35  C   UNL A   1      36.014  29.417  29.328  1.00  0.00     0.014 A 
ATOM     36  C   UNL A   1      38.236  29.703  27.652  1.00  0.00     0.010 A 
ATOM     37  C   UNL A   1      37.264  28.954  29.740  1.00  0.00     0.010 A 
ATOM     38  C   UNL A   1      38.384  29.091  28.906  1.00  0.00    -0.014 A 
BRANCH  38  39
ATOM     39  C   UNL A   1      39.703  28.597  29.374  1.00  0.00     0.031 A 
ATOM     40  C   UNL A   1      40.438  29.320  30.467  1.00  0.00     0.074 A 
ATOM     41  C   UNL A   1      40.283  27.555  28.748  1.00  0.00     0.049 A 
ATOM     42  N   UNL A   1      41.636  29.096  30.941  1.00  0.00    -0.248 NA
ATOM     43  C   UNL A   1      39.743  30.453  31.100  1.00  0.00     0.031 C 
ATOM     44  C   UNL A   1      39.697  26.808  27.634  1.00  0.00     0.029 A 
ATOM     45  N   UNL A   1      41.509  26.967  28.936  1.00  0.00    -0.354 N 
ATOM     46  C   UNL A   1      41.856  30.080  31.896  1.00  0.00     0.074 A 
ATOM     47  C   UNL A   1      40.669  30.907  31.934  1.00  0.00     0.031 C 
ATOM     48  C   UNL A   1      40.569  25.872  27.227  1.00  0.00     0.029 A 
ATOM     49  C   UNL A   1      41.781  25.962  28.038  1.00  0.00     0.049 A 
ATOM     50  H   UNL A   1      42.134  27.239  29.646  1.00  0.00     0.167 HD
ATOM     51  C   UNL A   1      42.939  30.265  32.686  1.00  0.00     0.034 A 
ATOM     52  C   UNL A   1      42.883  25.201  27.882  1.00  0.00     0.034 A 
ATOM     53  C   UNL A   1      44.094  29.408  32.698  1.00  0.00     0.049 A 
ATOM     54  C   UNL A   1      44.048  25.390  28.814  1.00  0.00     0.074 A 
ATOM     55  C   UNL A   1      45.201  29.467  33.526  1.00  0.00     0.029 A 
ATOM     56  N   UNL A   1      44.286  28.332  31.846  1.00  0.00    -0.354 N 
ATOM     57  N   UNL A   1      44.175  26.231  29.811  1.00  0.00    -0.248 NA
ATOM     58  C   UNL A   1      45.207  24.506  28.622  1.00  0.00     0.031 C 
ATOM     59  C   UNL A   1      46.060  28.415  33.182  1.00  0.00     0.029 A 
ATOM     60  C   UNL A   1      45.492  27.715  32.131  1.00  0.00     0.049 A 
ATOM     61  H   UNL A   1      43.658  28.049  31.144  1.00  0.00     0.167 HD
ATOM     62  C   UNL A   1      45.413  25.962  30.381  1.00  0.00     0.074 A 
ATOM     63  C   UNL A   1      45.994  24.870  29.628  1.00  0.00     0.031 C 
ATOM     64  C   UNL A   1      46.024  26.583  31.419  1.00  0.00     0.034 A 
BRANCH  51  65
ATOM     65  C   UNL A   1      42.894  31.400  33.669  1.00  0.00     0.023 A 
ATOM     66  C   UNL A   1      43.476  32.633  33.310  1.00  0.00     0.012 A 
ATOM     67  C   UNL A   1      42.240  31.274  34.909  1.00  0.00     0.148 A 
ATOM     68  C   UNL A   1      43.419  33.722  34.178  1.00  0.00     0.002 A 
ATOM     69  C   UNL A   1      42.168  32.373  35.760  1.00  0.00     0.091 A 
ATOM     70  F   UNL A   1      41.723  30.085  35.249  1.00  0.00    -0.205 F 
ATOM     71  C   UNL A   1      42.758  33.595  35.398  1.00  0.00     0.022 A 
BRANCH  69  72
ATOM     72  S   UNL A   1      41.285  32.287  37.326  1.00  0.00     0.127 S 
ATOM     73  O   UNL A   1      42.166  31.433  38.120  1.00  0.00    -0.237 OA
ATOM     74  O   UNL A   1      41.245  33.686  37.756  1.00  0.00    -0.237 OA
ATOM     75  O   UNL A   1      39.980  31.730  36.991  1.00  0.00    -0.744 OA
ENDBRANCH  69  72
ENDBRANCH  51  65
BRANCH  52  76
ATOM     76  C   UNL A   1      42.892  24.130  26.849  1.00  0.00     0.023 A 
ATOM     77  C   UNL A   1      43.601  24.344  25.651  1.00  0.00     0.012 A 
ATOM     78  C   UNL A   1      42.268  22.889  27.066  1.00  0.00     0.148 A 
ATOM     79  C   UNL A   1      43.677  23.342  24.682  1.00  0.00     0.002 A 
ATOM     80  C   UNL A   1      42.386  21.878  26.115  1.00  0.00     0.091 A 
ATOM     81  F   UNL A   1      41.576  22.705  28.200  1.00  0.00    -0.205 F 
ATOM     82  C   UNL A   1      43.082  22.104  24.919  1.00  0.00     0.022 A 
BRANCH  80  83
ATOM     83  S   UNL A   1      41.750  20.230  26.449  1.00  0.00     0.127 S 
ATOM     84  O   UNL A   1      42.254  19.974  27.795  1.00  0.00    -0.237 OA
ATOM     85  O   UNL A   1      40.300  20.418  26.362  1.00  0.00    -0.237 OA
ATOM     86  O   UNL A   1      42.304  19.410  25.377  1.00  0.00    -0.744 OA
ENDBRANCH  80  83
ENDBRANCH  52  76
BRANCH  64  87
ATOM     87  C   UNL A   1      47.388  26.094  31.821  1.00  0.00     0.023 A 
ATOM     88  C   UNL A   1      48.520  26.618  31.165  1.00  0.00     0.012 A 
ATOM     89  C   UNL A   1      47.557  25.200  32.895  1.00  0.00     0.148 A 
ATOM     90  C   UNL A   1      49.803  26.251  31.570  1.00  0.00     0.002 A 
ATOM     91  C   UNL A   1      48.840  24.860  33.311  1.00  0.00     0.091 A 
ATOM     92  F   UNL A   1      46.466  24.691  33.487  1.00  0.00    -0.205 F 
ATOM     93  C   UNL A   1      49.964  25.383  32.650  1.00  0.00     0.022 A 
BRANCH  91  94
ATOM     94  S   UNL A   1      49.109  23.803  34.742  1.00  0.00     0.127 S 
ATOM     95  O   UNL A   1      49.049  22.470  34.148  1.00  0.00    -0.237 OA
ATOM     96  O   UNL A   1      50.442  24.206  35.199  1.00  0.00    -0.237 OA
ATOM     97  O   UNL A   1      48.036  24.140  35.668  1.00  0.00    -0.744 OA
ENDBRANCH  91  94
ENDBRANCH  64  87
ENDBRANCH  38  39
ENDBRANCH  30  33
ENDBRANCH  28  29
ENDBRANCH  27  28
ENDBRANCH  26  27
ENDBRANCH   1  26
TORSDOF 20
ENDMDL
