MODEL 1
REMARK VINA RESULT:     -11.8      0.000      0.000
REMARK SMILES CCn1ncc(NC(=O)[C@@H]2CCCC[C@@H]2C(=O)NCCCCCCNC(=O)c2ccc(-c3c4nc(c(-c5cccc(S(=O)(=O)[O-])c5F)c5ccc([nH]5)c(-c5cccc(S(=O)(=O)[O-])c5F)c5nc(c(-c6cccc(S(=O)(=O)[O-])c6F)c6ccc3[nH]6)C=C5)C=C4)cc2)c1C(=O)Nc1cnn(C)c1C
REMARK SMILES IDX 21 1 20 2 19 3 18 4 16 5 17 6 15 8 10 9 11 10 12 11 14 12
REMARK SMILES IDX 13 13 8 14 7 15 9 17 6 18 3 19 4 20 91 21 5 22 2 23 1 24
REMARK SMILES IDX 92 25 93 26 94 27 95 29 96 30 100 31 97 32 98 33 101 34
REMARK SMILES IDX 99 35 22 36 23 37 24 38 25 39 26 40 27 42 28 43 29 44 90 45
REMARK SMILES IDX 30 46 89 47 31 48 32 49 33 50 83 51 34 52 88 53 82 54 84 55
REMARK SMILES IDX 35 56 87 57 81 58 80 59 36 61 68 62 48 63 67 64 49 65 52 66
REMARK SMILES IDX 66 67 85 68 50 69 51 70 65 72 86 73 53 74 37 75 38 76 46 77
REMARK SMILES IDX 39 78 41 79 47 80 40 81 42 82 43 83 44 84 45 85 69 86 70 87
REMARK SMILES IDX 78 88 71 89 73 90 79 91 72 92 74 93 75 94 76 95 77 96 54 97
REMARK SMILES IDX 55 98 63 99 56 100 58 101 64 102 57 103 59 104 60 105 61 106
REMARK SMILES IDX 62 107
REMARK H PARENT 18 7 7 16 94 28 25 41 84 60 52 71
REMARK Flexibility Score: inf
ROOT
ATOM      1  C   UNL A   1      34.803  30.475  27.331  1.00  0.00     0.002 C 
ENDROOT
BRANCH   1   2
ATOM      2  C   UNL A   1      33.803  29.366  27.004  1.00  0.00     0.021 C 
BRANCH   2   3
ATOM      3  C   UNL A   1      34.348  28.258  26.117  1.00  0.00     0.116 C 
BRANCH   3   4
ATOM      4  N   UNL A   1      34.216  28.591  24.715  1.00  0.00    -0.356 N 
ATOM      5  C   UNL A   1      33.368  28.070  23.800  1.00  0.00     0.223 C 
ATOM      6  O   UNL A   1      33.537  28.366  22.615  1.00  0.00    -0.275 OA
ATOM      7  H   UNL A   1      34.825  29.290  24.383  1.00  0.00     0.163 HD
BRANCH   5   8
ATOM      8  C   UNL A   1      32.191  27.232  24.275  1.00  0.00     0.091 C 
ATOM      9  C   UNL A   1      31.659  26.339  23.145  1.00  0.00     0.091 C 
ATOM     10  C   UNL A   1      30.812  27.137  22.211  1.00  0.00     0.014 C 
ATOM     11  C   UNL A   1      29.821  28.111  22.792  1.00  0.00     0.001 C 
ATOM     12  C   UNL A   1      31.136  28.178  24.885  1.00  0.00     0.014 C 
ATOM     13  C   UNL A   1      30.401  29.010  23.848  1.00  0.00     0.001 C 
BRANCH   9  14
ATOM     14  C   UNL A   1      32.743  25.520  22.412  1.00  0.00     0.228 C 
ATOM     15  N   UNL A   1      33.955  25.161  22.990  1.00  0.00    -0.322 N 
ATOM     16  H   UNL A   1      34.773  25.523  22.581  1.00  0.00     0.170 HD
ATOM     17  O   UNL A   1      32.605  25.301  21.203  1.00  0.00    -0.274 OA
BRANCH  15  18
ATOM     18  C   UNL A   1      34.112  24.323  24.111  1.00  0.00     0.092 A 
ATOM     19  N   UNL A   1      34.331  22.681  25.517  1.00  0.00    -0.258 N 
ATOM     20  N   UNL A   1      35.016  23.681  26.107  1.00  0.00    -0.178 NA
ATOM     21  C   UNL A   1      33.498  23.115  24.500  1.00  0.00     0.150 A 
ATOM     22  C   UNL A   1      34.901  24.677  25.233  1.00  0.00     0.162 A 
BRANCH  19  23
ATOM     23  C   UNL A   1      34.681  21.340  25.935  1.00  0.00     0.142 C 
ATOM     24  C   UNL A   1      35.891  20.802  25.185  1.00  0.00     0.029 C 
ENDBRANCH  19  23
BRANCH  21  25
ATOM     25  C   UNL A   1      32.281  22.474  23.989  1.00  0.00     0.276 C 
ATOM     26  O   UNL A   1      31.220  23.083  23.861  1.00  0.00    -0.267 OA
ATOM     27  N   UNL A   1      32.408  21.256  23.330  1.00  0.00    -0.318 N 
ATOM     28  H   UNL A   1      32.522  21.290  22.353  1.00  0.00     0.170 HD
BRANCH  27  29
ATOM     29  C   UNL A   1      32.388  20.008  23.908  1.00  0.00     0.082 A 
ATOM     30  C   UNL A   1      32.342  19.653  25.268  1.00  0.00     0.161 A 
ATOM     31  C   UNL A   1      32.423  18.807  23.220  1.00  0.00     0.059 A 
ATOM     32  N   UNL A   1      32.529  18.344  25.445  1.00  0.00    -0.179 NA
ATOM     33  N   UNL A   1      32.696  17.876  24.192  1.00  0.00    -0.271 N 
ATOM     34  C   UNL A   1      32.396  18.456  21.776  1.00  0.00     0.068 C 
ATOM     35  C   UNL A   1      33.327  16.589  24.016  1.00  0.00     0.174 C 
ENDBRANCH  27  29
ENDBRANCH  21  25
ENDBRANCH  15  18
ENDBRANCH   9  14
ENDBRANCH   5   8
ENDBRANCH   3   4
ENDBRANCH   2   3
ENDBRANCH   1   2
BRANCH   1  36
ATOM     36  C   UNL A   1      34.236  31.752  27.967  1.00  0.00     0.002 C 
BRANCH  36  37
ATOM     37  C   UNL A   1      35.047  33.045  27.815  1.00  0.00     0.021 C 
BRANCH  37  38
ATOM     38  C   UNL A   1      35.958  33.363  28.984  1.00  0.00     0.116 C 
BRANCH  38  39
ATOM     39  N   UNL A   1      35.253  33.342  30.261  1.00  0.00    -0.352 N 
ATOM     40  C   UNL A   1      35.303  32.365  31.241  1.00  0.00     0.251 C 
ATOM     41  H   UNL A   1      34.671  34.114  30.449  1.00  0.00     0.163 HD
ATOM     42  O   UNL A   1      34.429  32.261  32.077  1.00  0.00    -0.269 OA
BRANCH  40  43
ATOM     43  C   UNL A   1      36.464  31.454  31.234  1.00  0.00     0.039 A 
ATOM     44  C   UNL A   1      36.396  30.185  30.660  1.00  0.00     0.014 A 
ATOM     45  C   UNL A   1      37.656  31.942  31.756  1.00  0.00     0.014 A 
ATOM     46  C   UNL A   1      37.570  29.441  30.554  1.00  0.00     0.010 A 
ATOM     47  C   UNL A   1      38.829  31.299  31.471  1.00  0.00     0.010 A 
ATOM     48  C   UNL A   1      38.790  30.013  30.949  1.00  0.00    -0.014 A 
BRANCH  48  49
ATOM     49  C   UNL A   1      40.048  29.293  30.791  1.00  0.00     0.031 A 
ATOM     50  C   UNL A   1      40.732  28.895  32.050  1.00  0.00     0.074 A 
ATOM     51  C   UNL A   1      40.487  28.855  29.590  1.00  0.00     0.049 A 
ATOM     52  N   UNL A   1      41.846  29.355  32.519  1.00  0.00    -0.248 NA
ATOM     53  C   UNL A   1      40.047  27.959  32.953  1.00  0.00     0.031 C 
ATOM     54  C   UNL A   1      39.796  28.872  28.290  1.00  0.00     0.029 A 
ATOM     55  N   UNL A   1      41.620  28.162  29.310  1.00  0.00    -0.354 N 
ATOM     56  C   UNL A   1      42.112  28.617  33.671  1.00  0.00     0.074 A 
ATOM     57  C   UNL A   1      40.900  27.902  33.978  1.00  0.00     0.031 C 
ATOM     58  C   UNL A   1      40.390  27.996  27.452  1.00  0.00     0.029 A 
ATOM     59  C   UNL A   1      41.610  27.530  28.074  1.00  0.00     0.049 A 
ATOM     60  H   UNL A   1      42.384  28.114  29.929  1.00  0.00     0.167 HD
ATOM     61  C   UNL A   1      43.376  28.492  34.165  1.00  0.00     0.034 A 
ATOM     62  C   UNL A   1      42.532  26.657  27.609  1.00  0.00     0.034 A 
ATOM     63  C   UNL A   1      44.278  29.433  33.553  1.00  0.00     0.049 A 
ATOM     64  C   UNL A   1      43.772  26.887  28.384  1.00  0.00     0.074 A 
ATOM     65  C   UNL A   1      44.353  30.810  33.481  1.00  0.00     0.029 A 
ATOM     66  N   UNL A   1      45.082  28.959  32.544  1.00  0.00    -0.354 N 
ATOM     67  N   UNL A   1      44.458  27.994  28.326  1.00  0.00    -0.248 NA
ATOM     68  C   UNL A   1      44.010  26.059  29.553  1.00  0.00     0.031 C 
ATOM     69  C   UNL A   1      44.787  31.080  32.150  1.00  0.00     0.029 A 
ATOM     70  C   UNL A   1      45.010  29.857  31.512  1.00  0.00     0.049 A 
ATOM     71  H   UNL A   1      45.611  28.129  32.561  1.00  0.00     0.167 HD
ATOM     72  C   UNL A   1      44.861  28.220  29.636  1.00  0.00     0.074 A 
ATOM     73  C   UNL A   1      44.657  26.943  30.318  1.00  0.00     0.031 C 
ATOM     74  C   UNL A   1      45.049  29.487  30.113  1.00  0.00     0.034 A 
BRANCH  61  75
ATOM     75  C   UNL A   1      43.898  27.323  34.965  1.00  0.00     0.023 A 
ATOM     76  C   UNL A   1      44.631  27.608  36.140  1.00  0.00     0.012 A 
ATOM     77  C   UNL A   1      43.931  25.990  34.499  1.00  0.00     0.148 A 
ATOM     78  C   UNL A   1      45.388  26.628  36.792  1.00  0.00     0.002 A 
ATOM     79  C   UNL A   1      44.618  25.001  35.197  1.00  0.00     0.091 A 
ATOM     80  F   UNL A   1      43.412  25.687  33.306  1.00  0.00    -0.205 F 
ATOM     81  C   UNL A   1      45.374  25.320  36.327  1.00  0.00     0.022 A 
BRANCH  79  82
ATOM     82  S   UNL A   1      44.580  23.284  34.669  1.00  0.00     0.127 S 
ATOM     83  O   UNL A   1      45.458  23.315  33.503  1.00  0.00    -0.237 OA
ATOM     84  O   UNL A   1      45.129  22.596  35.839  1.00  0.00    -0.237 OA
ATOM     85  O   UNL A   1      43.176  22.990  34.415  1.00  0.00    -0.744 OA
ENDBRANCH  79  82
ENDBRANCH  61  75
BRANCH  62  86
ATOM     86  C   UNL A   1      42.345  25.485  26.730  1.00  0.00     0.023 A 
ATOM     87  C   UNL A   1      43.229  25.270  25.657  1.00  0.00     0.012 A 
ATOM     88  C   UNL A   1      41.482  24.433  27.114  1.00  0.00     0.148 A 
ATOM     89  C   UNL A   1      43.282  24.031  25.009  1.00  0.00     0.002 A 
ATOM     90  C   UNL A   1      41.539  23.204  26.467  1.00  0.00     0.091 A 
ATOM     91  F   UNL A   1      40.676  24.614  28.170  1.00  0.00    -0.205 F 
ATOM     92  C   UNL A   1      42.447  22.996  25.420  1.00  0.00     0.022 A 
BRANCH  90  93
ATOM     93  S   UNL A   1      40.521  21.806  26.963  1.00  0.00     0.127 S 
ATOM     94  O   UNL A   1      41.077  20.726  26.148  1.00  0.00    -0.237 OA
ATOM     95  O   UNL A   1      40.816  21.712  28.391  1.00  0.00    -0.237 OA
ATOM     96  O   UNL A   1      39.152  22.169  26.623  1.00  0.00    -0.744 OA
ENDBRANCH  90  93
ENDBRANCH  62  86
BRANCH  74  97
ATOM     97  C   UNL A   1      45.024  30.632  29.125  1.00  0.00     0.023 A 
ATOM     98  C   UNL A   1      43.858  31.388  28.879  1.00  0.00     0.012 A 
ATOM     99  C   UNL A   1      46.244  31.079  28.590  1.00  0.00     0.148 A 
ATOM    100  C   UNL A   1      43.905  32.552  28.106  1.00  0.00     0.002 A 
ATOM    101  C   UNL A   1      46.295  32.262  27.862  1.00  0.00     0.091 A 
ATOM    102  F   UNL A   1      47.346  30.354  28.836  1.00  0.00    -0.205 F 
ATOM    103  C   UNL A   1      45.127  32.997  27.610  1.00  0.00     0.022 A 
BRANCH 101 104
ATOM    104  S   UNL A   1      47.856  32.959  27.317  1.00  0.00     0.127 S 
ATOM    105  O   UNL A   1      47.424  34.160  26.606  1.00  0.00    -0.237 OA
ATOM    106  O   UNL A   1      48.548  33.214  28.582  1.00  0.00    -0.237 OA
ATOM    107  O   UNL A   1      48.487  31.935  26.493  1.00  0.00    -0.744 OA
ENDBRANCH 101 104
ENDBRANCH  74  97
ENDBRANCH  48  49
ENDBRANCH  40  43
ENDBRANCH  38  39
ENDBRANCH  37  38
ENDBRANCH  36  37
ENDBRANCH   1  36
TORSDOF 21
ENDMDL
MODEL 2
REMARK VINA RESULT:     -11.1      4.985      9.651
REMARK SMILES CCn1ncc(NC(=O)[C@@H]2CCCC[C@@H]2C(=O)NCCCCCCNC(=O)c2ccc(-c3c4nc(c(-c5cccc(S(=O)(=O)[O-])c5F)c5ccc([nH]5)c(-c5cccc(S(=O)(=O)[O-])c5F)c5nc(c(-c6cccc(S(=O)(=O)[O-])c6F)c6ccc3[nH]6)C=C5)C=C4)cc2)c1C(=O)Nc1cnn(C)c1C
REMARK SMILES IDX 21 1 20 2 19 3 18 4 16 5 17 6 15 8 10 9 11 10 12 11 14 12
REMARK SMILES IDX 13 13 8 14 7 15 9 17 6 18 3 19 4 20 91 21 5 22 2 23 1 24
REMARK SMILES IDX 92 25 93 26 94 27 95 29 96 30 100 31 97 32 98 33 101 34
REMARK SMILES IDX 99 35 22 36 23 37 24 38 25 39 26 40 27 42 28 43 29 44 90 45
REMARK SMILES IDX 30 46 89 47 31 48 32 49 33 50 83 51 34 52 88 53 82 54 84 55
REMARK SMILES IDX 35 56 87 57 81 58 80 59 36 61 68 62 48 63 67 64 49 65 52 66
REMARK SMILES IDX 66 67 85 68 50 69 51 70 65 72 86 73 53 74 37 75 38 76 46 77
REMARK SMILES IDX 39 78 41 79 47 80 40 81 42 82 43 83 44 84 45 85 69 86 70 87
REMARK SMILES IDX 78 88 71 89 73 90 79 91 72 92 74 93 75 94 76 95 77 96 54 97
REMARK SMILES IDX 55 98 63 99 56 100 58 101 64 102 57 103 59 104 60 105 61 106
REMARK SMILES IDX 62 107
REMARK H PARENT 18 7 7 16 94 28 25 41 84 60 52 71
REMARK Flexibility Score: inf
ROOT
ATOM      1  C   UNL A   1      37.845  31.097  33.228  1.00  0.00     0.002 C 
ENDROOT
BRANCH   1   2
ATOM      2  C   UNL A   1      39.056  31.500  32.388  1.00  0.00     0.021 C 
BRANCH   2   3
ATOM      3  C   UNL A   1      39.740  32.784  32.831  1.00  0.00     0.116 C 
BRANCH   3   4
ATOM      4  N   UNL A   1      39.750  33.769  31.770  1.00  0.00    -0.356 N 
ATOM      5  C   UNL A   1      40.804  34.237  31.064  1.00  0.00     0.223 C 
ATOM      6  O   UNL A   1      40.623  35.207  30.323  1.00  0.00    -0.275 OA
ATOM      7  H   UNL A   1      38.873  34.148  31.531  1.00  0.00     0.163 HD
BRANCH   5   8
ATOM      8  C   UNL A   1      42.130  33.495  31.132  1.00  0.00     0.091 C 
ATOM      9  C   UNL A   1      43.205  34.350  31.816  1.00  0.00     0.091 C 
ATOM     10  C   UNL A   1      43.738  35.368  30.866  1.00  0.00     0.014 C 
ATOM     11  C   UNL A   1      44.046  34.944  29.453  1.00  0.00     0.001 C 
ATOM     12  C   UNL A   1      42.501  33.030  29.708  1.00  0.00     0.014 C 
ATOM     13  C   UNL A   1      42.938  34.165  28.799  1.00  0.00     0.001 C 
BRANCH   9  14
ATOM     14  C   UNL A   1      42.772  34.965  33.165  1.00  0.00     0.228 C 
ATOM     15  N   UNL A   1      42.507  34.210  34.301  1.00  0.00    -0.322 N 
ATOM     16  H   UNL A   1      41.589  34.236  34.654  1.00  0.00     0.170 HD
ATOM     17  O   UNL A   1      42.494  36.169  33.206  1.00  0.00    -0.274 OA
BRANCH  15  18
ATOM     18  C   UNL A   1      43.439  33.411  34.990  1.00  0.00     0.092 A 
ATOM     19  N   UNL A   1      44.559  31.831  35.978  1.00  0.00    -0.258 N 
ATOM     20  N   UNL A   1      45.527  32.648  35.514  1.00  0.00    -0.178 NA
ATOM     21  C   UNL A   1      43.305  32.419  35.983  1.00  0.00     0.150 A 
ATOM     22  C   UNL A   1      44.840  33.600  34.890  1.00  0.00     0.162 A 
BRANCH  19  23
ATOM     23  C   UNL A   1      44.956  30.466  36.246  1.00  0.00     0.142 C 
ATOM     24  C   UNL A   1      46.394  30.193  35.830  1.00  0.00     0.029 C 
ENDBRANCH  19  23
BRANCH  21  25
ATOM     25  C   UNL A   1      42.153  32.090  36.831  1.00  0.00     0.276 C 
ATOM     26  O   UNL A   1      42.059  31.019  37.429  1.00  0.00    -0.267 OA
ATOM     27  N   UNL A   1      41.315  33.125  37.230  1.00  0.00    -0.318 N 
ATOM     28  H   UNL A   1      41.527  33.562  38.087  1.00  0.00     0.170 HD
BRANCH  27  29
ATOM     29  C   UNL A   1      40.219  33.600  36.547  1.00  0.00     0.082 A 
ATOM     30  C   UNL A   1      40.016  34.853  35.942  1.00  0.00     0.161 A 
ATOM     31  C   UNL A   1      39.047  32.895  36.327  1.00  0.00     0.059 A 
ATOM     32  N   UNL A   1      38.753  35.010  35.541  1.00  0.00    -0.179 NA
ATOM     33  N   UNL A   1      38.161  33.853  35.898  1.00  0.00    -0.271 N 
ATOM     34  C   UNL A   1      38.623  31.502  36.620  1.00  0.00     0.068 C 
ATOM     35  C   UNL A   1      36.721  33.819  36.000  1.00  0.00     0.174 C 
ENDBRANCH  27  29
ENDBRANCH  21  25
ENDBRANCH  15  18
ENDBRANCH   9  14
ENDBRANCH   5   8
ENDBRANCH   3   4
ENDBRANCH   2   3
ENDBRANCH   1   2
BRANCH   1  36
ATOM     36  C   UNL A   1      36.577  30.692  32.463  1.00  0.00     0.002 C 
BRANCH  36  37
ATOM     37  C   UNL A   1      35.461  31.737  32.329  1.00  0.00     0.021 C 
BRANCH  37  38
ATOM     38  C   UNL A   1      35.620  32.686  31.157  1.00  0.00     0.116 C 
BRANCH  38  39
ATOM     39  N   UNL A   1      34.781  32.315  30.022  1.00  0.00    -0.352 N 
ATOM     40  C   UNL A   1      35.180  31.754  28.821  1.00  0.00     0.251 C 
ATOM     41  H   UNL A   1      33.816  32.484  30.122  1.00  0.00     0.163 HD
ATOM     42  O   UNL A   1      34.483  31.818  27.830  1.00  0.00    -0.269 OA
BRANCH  40  43
ATOM     43  C   UNL A   1      36.487  31.070  28.791  1.00  0.00     0.039 A 
ATOM     44  C   UNL A   1      37.687  31.777  28.868  1.00  0.00     0.014 A 
ATOM     45  C   UNL A   1      36.475  29.681  28.759  1.00  0.00     0.014 A 
ATOM     46  C   UNL A   1      38.874  31.058  28.988  1.00  0.00     0.010 A 
ATOM     47  C   UNL A   1      37.613  28.990  29.077  1.00  0.00     0.010 A 
ATOM     48  C   UNL A   1      38.829  29.660  29.107  1.00  0.00    -0.014 A 
BRANCH  48  49
ATOM     49  C   UNL A   1      40.043  28.878  29.302  1.00  0.00     0.031 A 
ATOM     50  C   UNL A   1      40.450  28.650  30.715  1.00  0.00     0.074 A 
ATOM     51  C   UNL A   1      40.670  28.247  28.285  1.00  0.00     0.049 A 
ATOM     52  N   UNL A   1      41.483  29.134  31.323  1.00  0.00    -0.248 NA
ATOM     53  C   UNL A   1      39.546  27.888  31.589  1.00  0.00     0.031 C 
ATOM     54  C   UNL A   1      40.240  28.092  26.886  1.00  0.00     0.029 A 
ATOM     55  N   UNL A   1      41.788  27.478  28.334  1.00  0.00    -0.354 N 
ATOM     56  C   UNL A   1      41.478  28.570  32.598  1.00  0.00     0.074 A 
ATOM     57  C   UNL A   1      40.185  27.955  32.759  1.00  0.00     0.031 C 
ATOM     58  C   UNL A   1      40.922  27.078  26.313  1.00  0.00     0.029 A 
ATOM     59  C   UNL A   1      41.970  26.666  27.222  1.00  0.00     0.049 A 
ATOM     60  H   UNL A   1      42.417  27.495  29.092  1.00  0.00     0.167 HD
ATOM     61  C   UNL A   1      42.615  28.474  33.343  1.00  0.00     0.034 A 
ATOM     62  C   UNL A   1      42.903  25.699  27.076  1.00  0.00     0.034 A 
ATOM     63  C   UNL A   1      43.676  29.277  32.793  1.00  0.00     0.049 A 
ATOM     64  C   UNL A   1      43.987  25.998  28.038  1.00  0.00     0.074 A 
ATOM     65  C   UNL A   1      43.854  30.623  32.543  1.00  0.00     0.029 A 
ATOM     66  N   UNL A   1      44.623  28.625  32.039  1.00  0.00    -0.354 N 
ATOM     67  N   UNL A   1      44.743  27.057  27.960  1.00  0.00    -0.248 NA
ATOM     68  C   UNL A   1      43.945  25.349  29.337  1.00  0.00     0.031 C 
ATOM     69  C   UNL A   1      44.548  30.672  31.299  1.00  0.00     0.029 A 
ATOM     70  C   UNL A   1      44.806  29.359  30.896  1.00  0.00     0.049 A 
ATOM     71  H   UNL A   1      45.083  27.789  32.276  1.00  0.00     0.167 HD
ATOM     72  C   UNL A   1      44.906  27.463  29.278  1.00  0.00     0.074 A 
ATOM     73  C   UNL A   1      44.494  26.313  30.081  1.00  0.00     0.031 C 
ATOM     74  C   UNL A   1      45.084  28.780  29.598  1.00  0.00     0.034 A 
BRANCH  61  75
ATOM     75  C   UNL A   1      42.898  27.420  34.387  1.00  0.00     0.023 A 
ATOM     76  C   UNL A   1      42.885  27.822  35.743  1.00  0.00     0.012 A 
ATOM     77  C   UNL A   1      43.422  26.140  34.105  1.00  0.00     0.148 A 
ATOM     78  C   UNL A   1      43.402  27.008  36.758  1.00  0.00     0.002 A 
ATOM     79  C   UNL A   1      43.859  25.301  35.126  1.00  0.00     0.091 A 
ATOM     80  F   UNL A   1      43.630  25.767  32.839  1.00  0.00    -0.205 F 
ATOM     81  C   UNL A   1      43.881  25.741  36.451  1.00  0.00     0.022 A 
BRANCH  79  82
ATOM     82  S   UNL A   1      44.431  23.632  34.787  1.00  0.00     0.127 S 
ATOM     83  O   UNL A   1      43.277  23.058  34.102  1.00  0.00    -0.237 OA
ATOM     84  O   UNL A   1      45.597  23.879  33.937  1.00  0.00    -0.237 OA
ATOM     85  O   UNL A   1      44.757  23.065  36.090  1.00  0.00    -0.744 OA
ENDBRANCH  79  82
ENDBRANCH  61  75
BRANCH  62  86
ATOM     86  C   UNL A   1      42.808  24.416  26.352  1.00  0.00     0.023 A 
ATOM     87  C   UNL A   1      43.884  23.983  25.554  1.00  0.00     0.012 A 
ATOM     88  C   UNL A   1      41.790  23.489  26.669  1.00  0.00     0.148 A 
ATOM     89  C   UNL A   1      43.965  22.656  25.118  1.00  0.00     0.002 A 
ATOM     90  C   UNL A   1      41.874  22.171  26.234  1.00  0.00     0.091 A 
ATOM     91  F   UNL A   1      40.791  23.880  27.473  1.00  0.00    -0.205 F 
ATOM     92  C   UNL A   1      42.969  21.749  25.467  1.00  0.00     0.022 A 
BRANCH  90  93
ATOM     93  S   UNL A   1      40.649  20.930  26.673  1.00  0.00     0.127 S 
ATOM     94  O   UNL A   1      40.740  20.920  28.133  1.00  0.00    -0.237 OA
ATOM     95  O   UNL A   1      39.423  21.516  26.138  1.00  0.00    -0.237 OA
ATOM     96  O   UNL A   1      41.089  19.695  26.037  1.00  0.00    -0.744 OA
ENDBRANCH  90  93
ENDBRANCH  62  86
BRANCH  74  97
ATOM     97  C   UNL A   1      45.321  29.762  28.473  1.00  0.00     0.023 A 
ATOM     98  C   UNL A   1      44.263  30.429  27.821  1.00  0.00     0.012 A 
ATOM     99  C   UNL A   1      46.640  30.169  28.210  1.00  0.00     0.148 A 
ATOM    100  C   UNL A   1      44.513  31.464  26.916  1.00  0.00     0.002 A 
ATOM    101  C   UNL A   1      46.883  31.231  27.346  1.00  0.00     0.091 A 
ATOM    102  F   UNL A   1      47.637  29.531  28.841  1.00  0.00    -0.205 F 
ATOM    103  C   UNL A   1      45.824  31.876  26.689  1.00  0.00     0.022 A 
BRANCH 101 104
ATOM    104  S   UNL A   1      48.535  31.895  27.121  1.00  0.00     0.127 S 
ATOM    105  O   UNL A   1      49.275  30.724  26.657  1.00  0.00    -0.237 OA
ATOM    106  O   UNL A   1      48.325  32.928  26.105  1.00  0.00    -0.237 OA
ATOM    107  O   UNL A   1      48.938  32.418  28.421  1.00  0.00    -0.744 OA
ENDBRANCH 101 104
ENDBRANCH  74  97
ENDBRANCH  48  49
ENDBRANCH  40  43
ENDBRANCH  38  39
ENDBRANCH  37  38
ENDBRANCH  36  37
ENDBRANCH   1  36
TORSDOF 21
ENDMDL
MODEL 3
REMARK VINA RESULT:     -10.9      5.278      8.678
REMARK SMILES CCn1ncc(NC(=O)[C@@H]2CCCC[C@@H]2C(=O)NCCCCCCNC(=O)c2ccc(-c3c4nc(c(-c5cccc(S(=O)(=O)[O-])c5F)c5ccc([nH]5)c(-c5cccc(S(=O)(=O)[O-])c5F)c5nc(c(-c6cccc(S(=O)(=O)[O-])c6F)c6ccc3[nH]6)C=C5)C=C4)cc2)c1C(=O)Nc1cnn(C)c1C
REMARK SMILES IDX 21 1 20 2 19 3 18 4 16 5 17 6 15 8 10 9 11 10 12 11 14 12
REMARK SMILES IDX 13 13 8 14 7 15 9 17 6 18 3 19 4 20 91 21 5 22 2 23 1 24
REMARK SMILES IDX 92 25 93 26 94 27 95 29 96 30 100 31 97 32 98 33 101 34
REMARK SMILES IDX 99 35 22 36 23 37 24 38 25 39 26 40 27 42 28 43 29 44 90 45
REMARK SMILES IDX 30 46 89 47 31 48 32 49 33 50 83 51 34 52 88 53 82 54 84 55
REMARK SMILES IDX 35 56 87 57 81 58 80 59 36 61 68 62 48 63 67 64 49 65 52 66
REMARK SMILES IDX 66 67 85 68 50 69 51 70 65 72 86 73 53 74 37 75 38 76 46 77
REMARK SMILES IDX 39 78 41 79 47 80 40 81 42 82 43 83 44 84 45 85 69 86 70 87
REMARK SMILES IDX 78 88 71 89 73 90 79 91 72 92 74 93 75 94 76 95 77 96 54 97
REMARK SMILES IDX 55 98 63 99 56 100 58 101 64 102 57 103 59 104 60 105 61 106
REMARK SMILES IDX 62 107
REMARK H PARENT 18 7 7 16 94 28 25 41 84 60 52 71
REMARK Flexibility Score: inf
ROOT
ATOM      1  C   UNL A   1      37.029  29.286  29.416  1.00  0.00     0.002 C 
ENDROOT
BRANCH   1   2
ATOM      2  C   UNL A   1      38.117  28.818  30.382  1.00  0.00     0.021 C 
BRANCH   2   3
ATOM      3  C   UNL A   1      38.808  27.523  29.985  1.00  0.00     0.116 C 
BRANCH   3   4
ATOM      4  N   UNL A   1      40.231  27.719  29.802  1.00  0.00    -0.356 N 
ATOM      5  C   UNL A   1      40.967  27.560  28.679  1.00  0.00     0.223 C 
ATOM      6  O   UNL A   1      42.195  27.606  28.777  1.00  0.00    -0.275 OA
ATOM      7  H   UNL A   1      40.728  28.006  30.602  1.00  0.00     0.163 HD
BRANCH   5   8
ATOM      8  C   UNL A   1      40.256  27.435  27.340  1.00  0.00     0.091 C 
ATOM      9  C   UNL A   1      40.807  26.252  26.532  1.00  0.00     0.091 C 
ATOM     10  C   UNL A   1      42.105  26.620  25.895  1.00  0.00     0.014 C 
ATOM     11  C   UNL A   1      42.227  27.969  25.237  1.00  0.00     0.001 C 
ATOM     12  C   UNL A   1      40.346  28.794  26.614  1.00  0.00     0.014 C 
ATOM     13  C   UNL A   1      41.737  29.107  26.090  1.00  0.00     0.001 C 
BRANCH   9  14
ATOM     14  C   UNL A   1      40.884  24.923  27.315  1.00  0.00     0.228 C 
ATOM     15  N   UNL A   1      41.931  24.018  27.189  1.00  0.00    -0.322 N 
ATOM     16  H   UNL A   1      41.715  23.127  26.833  1.00  0.00     0.170 HD
ATOM     17  O   UNL A   1      39.899  24.563  27.970  1.00  0.00    -0.274 OA
BRANCH  15  18
ATOM     18  C   UNL A   1      43.275  24.268  27.525  1.00  0.00     0.092 A 
ATOM     19  N   UNL A   1      45.367  24.852  27.610  1.00  0.00    -0.258 N 
ATOM     20  N   UNL A   1      44.983  24.905  28.902  1.00  0.00    -0.178 NA
ATOM     21  C   UNL A   1      44.482  24.155  26.805  1.00  0.00     0.150 A 
ATOM     22  C   UNL A   1      43.697  24.571  28.844  1.00  0.00     0.162 A 
BRANCH  19  23
ATOM     23  C   UNL A   1      46.533  25.637  27.263  1.00  0.00     0.142 C 
ATOM     24  C   UNL A   1      47.828  24.869  27.479  1.00  0.00     0.029 C 
ENDBRANCH  19  23
BRANCH  21  25
ATOM     25  C   UNL A   1      44.758  23.465  25.539  1.00  0.00     0.276 C 
ATOM     26  O   UNL A   1      45.044  24.071  24.507  1.00  0.00    -0.267 OA
ATOM     27  N   UNL A   1      45.025  22.101  25.580  1.00  0.00    -0.318 N 
ATOM     28  H   UNL A   1      45.970  21.837  25.663  1.00  0.00     0.170 HD
BRANCH  27  29
ATOM     29  C   UNL A   1      44.101  21.085  25.516  1.00  0.00     0.082 A 
ATOM     30  C   UNL A   1      42.697  21.146  25.583  1.00  0.00     0.161 A 
ATOM     31  C   UNL A   1      44.400  19.740  25.376  1.00  0.00     0.059 A 
ATOM     32  N   UNL A   1      42.152  19.932  25.676  1.00  0.00    -0.179 NA
ATOM     33  N   UNL A   1      43.217  19.106  25.670  1.00  0.00    -0.271 N 
ATOM     34  C   UNL A   1      45.666  18.991  25.167  1.00  0.00     0.068 C 
ATOM     35  C   UNL A   1      43.047  17.760  26.168  1.00  0.00     0.174 C 
ENDBRANCH  27  29
ENDBRANCH  21  25
ENDBRANCH  15  18
ENDBRANCH   9  14
ENDBRANCH   5   8
ENDBRANCH   3   4
ENDBRANCH   2   3
ENDBRANCH   1   2
BRANCH   1  36
ATOM     36  C   UNL A   1      37.443  30.317  28.357  1.00  0.00     0.002 C 
BRANCH  36  37
ATOM     37  C   UNL A   1      36.358  31.258  27.816  1.00  0.00     0.021 C 
BRANCH  37  38
ATOM     38  C   UNL A   1      34.986  31.063  28.432  1.00  0.00     0.116 C 
BRANCH  38  39
ATOM     39  N   UNL A   1      34.345  32.329  28.776  1.00  0.00    -0.352 N 
ATOM     40  C   UNL A   1      34.514  33.078  29.928  1.00  0.00     0.251 C 
ATOM     41  H   UNL A   1      33.718  32.693  28.111  1.00  0.00     0.163 HD
ATOM     42  O   UNL A   1      33.691  33.899  30.276  1.00  0.00    -0.269 OA
BRANCH  40  43
ATOM     43  C   UNL A   1      35.738  32.843  30.720  1.00  0.00     0.039 A 
ATOM     44  C   UNL A   1      36.900  33.586  30.512  1.00  0.00     0.014 A 
ATOM     45  C   UNL A   1      35.662  31.899  31.738  1.00  0.00     0.014 A 
ATOM     46  C   UNL A   1      37.963  33.414  31.395  1.00  0.00     0.010 A 
ATOM     47  C   UNL A   1      36.623  31.882  32.712  1.00  0.00     0.010 A 
ATOM     48  C   UNL A   1      37.812  32.569  32.506  1.00  0.00    -0.014 A 
BRANCH  48  49
ATOM     49  C   UNL A   1      38.877  32.416  33.490  1.00  0.00     0.031 A 
ATOM     50  C   UNL A   1      38.667  33.110  34.789  1.00  0.00     0.074 A 
ATOM     51  C   UNL A   1      39.909  31.561  33.314  1.00  0.00     0.049 A 
ATOM     52  N   UNL A   1      39.319  34.125  35.252  1.00  0.00    -0.248 NA
ATOM     53  C   UNL A   1      37.526  32.703  35.623  1.00  0.00     0.031 C 
ATOM     54  C   UNL A   1      40.114  30.565  32.251  1.00  0.00     0.029 A 
ATOM     55  N   UNL A   1      40.946  31.312  34.154  1.00  0.00    -0.354 N 
ATOM     56  C   UNL A   1      38.813  34.357  36.530  1.00  0.00     0.074 A 
ATOM     57  C   UNL A   1      37.610  33.570  36.634  1.00  0.00     0.031 C 
ATOM     58  C   UNL A   1      41.032  29.659  32.652  1.00  0.00     0.029 A 
ATOM     59  C   UNL A   1      41.625  30.130  33.885  1.00  0.00     0.049 A 
ATOM     60  H   UNL A   1      41.197  31.917  34.889  1.00  0.00     0.167 HD
ATOM     61  C   UNL A   1      39.537  35.017  37.478  1.00  0.00     0.034 A 
ATOM     62  C   UNL A   1      42.589  29.565  34.645  1.00  0.00     0.034 A 
ATOM     63  C   UNL A   1      40.682  35.676  36.904  1.00  0.00     0.049 A 
ATOM     64  C   UNL A   1      43.149  30.637  35.497  1.00  0.00     0.074 A 
ATOM     65  C   UNL A   1      40.868  36.662  35.956  1.00  0.00     0.029 A 
ATOM     66  N   UNL A   1      41.893  35.041  37.031  1.00  0.00    -0.354 N 
ATOM     67  N   UNL A   1      43.805  31.660  35.023  1.00  0.00    -0.248 NA
ATOM     68  C   UNL A   1      42.606  30.803  36.833  1.00  0.00     0.031 C 
ATOM     69  C   UNL A   1      42.016  36.244  35.220  1.00  0.00     0.029 A 
ATOM     70  C   UNL A   1      42.495  35.066  35.800  1.00  0.00     0.049 A 
ATOM     71  H   UNL A   1      42.261  34.642  37.853  1.00  0.00     0.167 HD
ATOM     72  C   UNL A   1      43.376  32.733  35.794  1.00  0.00     0.074 A 
ATOM     73  C   UNL A   1      42.734  32.127  36.959  1.00  0.00     0.031 C 
ATOM     74  C   UNL A   1      43.325  33.999  35.282  1.00  0.00     0.034 A 
BRANCH  61  75
ATOM     75  C   UNL A   1      39.418  34.824  38.971  1.00  0.00     0.023 A 
ATOM     76  C   UNL A   1      39.086  35.954  39.754  1.00  0.00     0.012 A 
ATOM     77  C   UNL A   1      39.859  33.675  39.664  1.00  0.00     0.148 A 
ATOM     78  C   UNL A   1      39.225  35.952  41.146  1.00  0.00     0.002 A 
ATOM     79  C   UNL A   1      39.916  33.651  41.054  1.00  0.00     0.091 A 
ATOM     80  F   UNL A   1      40.356  32.636  38.985  1.00  0.00    -0.205 F 
ATOM     81  C   UNL A   1      39.630  34.796  41.799  1.00  0.00     0.022 A 
BRANCH  79  82
ATOM     82  S   UNL A   1      40.377  32.162  41.947  1.00  0.00     0.127 S 
ATOM     83  O   UNL A   1      39.133  31.398  41.909  1.00  0.00    -0.237 OA
ATOM     84  O   UNL A   1      41.456  31.630  41.113  1.00  0.00    -0.237 OA
ATOM     85  O   UNL A   1      40.814  32.620  43.260  1.00  0.00    -0.744 OA
ENDBRANCH  79  82
ENDBRANCH  61  75
BRANCH  62  86
ATOM     86  C   UNL A   1      42.882  28.135  34.865  1.00  0.00     0.023 A 
ATOM     87  C   UNL A   1      41.891  27.294  35.405  1.00  0.00     0.012 A 
ATOM     88  C   UNL A   1      44.025  27.541  34.282  1.00  0.00     0.148 A 
ATOM     89  C   UNL A   1      42.014  25.902  35.333  1.00  0.00     0.002 A 
ATOM     90  C   UNL A   1      44.142  26.157  34.213  1.00  0.00     0.091 A 
ATOM     91  F   UNL A   1      44.946  28.334  33.718  1.00  0.00    -0.205 F 
ATOM     92  C   UNL A   1      43.131  25.334  34.727  1.00  0.00     0.022 A 
BRANCH  90  93
ATOM     93  S   UNL A   1      45.535  25.346  33.414  1.00  0.00     0.127 S 
ATOM     94  O   UNL A   1      45.246  23.935  33.665  1.00  0.00    -0.237 OA
ATOM     95  O   UNL A   1      45.372  25.769  32.025  1.00  0.00    -0.237 OA
ATOM     96  O   UNL A   1      46.726  25.843  34.090  1.00  0.00    -0.744 OA
ENDBRANCH  90  93
ENDBRANCH  62  86
BRANCH  74  97
ATOM     97  C   UNL A   1      43.954  34.248  33.929  1.00  0.00     0.023 A 
ATOM     98  C   UNL A   1      45.335  34.490  33.776  1.00  0.00     0.012 A 
ATOM     99  C   UNL A   1      43.173  34.033  32.781  1.00  0.00     0.148 A 
ATOM    100  C   UNL A   1      45.922  34.533  32.507  1.00  0.00     0.002 A 
ATOM    101  C   UNL A   1      43.769  34.029  31.524  1.00  0.00     0.091 A 
ATOM    102  F   UNL A   1      41.863  33.799  32.941  1.00  0.00    -0.205 F 
ATOM    103  C   UNL A   1      45.141  34.288  31.381  1.00  0.00     0.022 A 
BRANCH 101 104
ATOM    104  S   UNL A   1      42.844  33.583  30.052  1.00  0.00     0.127 S 
ATOM    105  O   UNL A   1      43.884  33.582  29.026  1.00  0.00    -0.237 OA
ATOM    106  O   UNL A   1      42.323  32.258  30.396  1.00  0.00    -0.237 OA
ATOM    107  O   UNL A   1      41.814  34.603  29.901  1.00  0.00    -0.744 OA
ENDBRANCH 101 104
ENDBRANCH  74  97
ENDBRANCH  48  49
ENDBRANCH  40  43
ENDBRANCH  38  39
ENDBRANCH  37  38
ENDBRANCH  36  37
ENDBRANCH   1  36
TORSDOF 21
ENDMDL
