MODEL 1
REMARK VINA RESULT:     -10.8      0.000      0.000
REMARK SMILES C[C@@H]1CC[N@H+]1[C@H](C(=O)NCCCCCCNC(=O)c1ccc(-c2c3nc(c(-c4cccc(S(=O)(=O)[O-])c4F)c4ccc([nH]4)c(-c4cccc(S(=O)(=O)[O-])c4F)c4nc(c(-c5cccc(S(=O)(=O)[O-])c5F)c5ccc2[nH]5)C=C4)C=C3)cc1)C1CC1
REMARK SMILES IDX 13 1 12 2 11 3 10 4 9 5 7 6 8 7 6 9 5 10 1 11 2 12 3 13 4 14
REMARK SMILES IDX 82 16 83 17 84 18 14 19 15 20 16 21 17 22 18 24 19 25 20 26
REMARK SMILES IDX 81 27 21 28 80 29 22 30 23 31 24 32 74 33 25 34 79 35 73 36
REMARK SMILES IDX 75 37 26 38 78 39 72 40 71 41 27 43 59 44 39 45 58 46 40 47
REMARK SMILES IDX 43 48 57 49 76 50 41 51 42 52 56 54 77 55 44 56 28 57 29 58
REMARK SMILES IDX 37 59 30 60 32 61 38 62 31 63 33 64 34 65 35 66 36 67 60 68
REMARK SMILES IDX 61 69 69 70 62 71 64 72 70 73 63 74 65 75 66 76 67 77 68 78
REMARK SMILES IDX 45 79 46 80 54 81 47 82 49 83 55 84 48 85 50 86 51 87 52 88
REMARK SMILES IDX 53 89
REMARK H PARENT 9 8 5 15 16 23 75 42 43 53
REMARK Flexibility Score: inf
ROOT
ATOM      1  C   UNL A   1      33.585  21.382  25.574  1.00  0.00     0.002 C 
ENDROOT
BRANCH   1   2
ATOM      2  C   UNL A   1      33.626  21.762  24.093  1.00  0.00     0.002 C 
BRANCH   2   3
ATOM      3  C   UNL A   1      32.279  21.816  23.382  1.00  0.00     0.021 C 
BRANCH   3   4
ATOM      4  C   UNL A   1      31.728  23.203  23.101  1.00  0.00     0.116 C 
BRANCH   4   5
ATOM      5  N   UNL A   1      32.407  23.954  22.085  1.00  0.00    -0.351 N 
ATOM      6  C   UNL A   1      32.897  25.227  22.172  1.00  0.00     0.278 C 
ATOM      7  O   UNL A   1      33.653  25.571  21.251  1.00  0.00    -0.268 OA
ATOM      8  H   UNL A   1      32.536  23.497  21.222  1.00  0.00     0.163 HD
BRANCH   6   9
ATOM      9  C   UNL A   1      32.503  26.242  23.290  1.00  0.00     0.277 C 
BRANCH   9  10
ATOM     10  N   UNL A   1      31.098  26.690  23.103  1.00  0.00    -0.322 N 
ATOM     11  C   UNL A   1      29.275  26.078  24.664  1.00  0.00     0.075 C 
ATOM     12  C   UNL A   1      30.350  27.091  24.303  1.00  0.00     0.187 C 
ATOM     13  C   UNL A   1      29.792  28.286  23.499  1.00  0.00     0.126 C 
ATOM     14  C   UNL A   1      30.968  28.046  22.541  1.00  0.00     0.269 C 
ATOM     15  H   UNL A   1      30.779  25.870  22.586  1.00  0.00     0.349 HD
ENDBRANCH   9  10
BRANCH   9  16
ATOM     16  C   UNL A   1      33.114  26.179  24.681  1.00  0.00     0.057 C 
ATOM     17  C   UNL A   1      33.070  25.113  25.759  1.00  0.00     0.011 C 
ATOM     18  C   UNL A   1      34.340  25.347  24.988  1.00  0.00     0.011 C 
ENDBRANCH   9  16
ENDBRANCH   6   9
ENDBRANCH   4   5
ENDBRANCH   3   4
ENDBRANCH   2   3
ENDBRANCH   1   2
BRANCH   1  19
ATOM     19  C   UNL A   1      34.845  21.692  26.388  1.00  0.00     0.021 C 
BRANCH  19  20
ATOM     20  C   UNL A   1      36.093  22.025  25.580  1.00  0.00     0.116 C 
BRANCH  20  21
ATOM     21  N   UNL A   1      37.035  20.921  25.526  1.00  0.00    -0.352 N 
ATOM     22  C   UNL A   1      38.394  20.927  25.716  1.00  0.00     0.251 C 
ATOM     23  H   UNL A   1      36.642  20.041  25.325  1.00  0.00     0.163 HD
ATOM     24  O   UNL A   1      39.053  19.923  25.472  1.00  0.00    -0.269 OA
BRANCH  22  25
ATOM     25  C   UNL A   1      39.062  22.156  26.196  1.00  0.00     0.039 A 
ATOM     26  C   UNL A   1      40.203  22.032  26.992  1.00  0.00     0.014 A 
ATOM     27  C   UNL A   1      38.568  23.421  25.865  1.00  0.00     0.014 A 
ATOM     28  C   UNL A   1      40.880  23.179  27.413  1.00  0.00     0.010 A 
ATOM     29  C   UNL A   1      39.286  24.560  26.223  1.00  0.00     0.010 A 
ATOM     30  C   UNL A   1      40.446  24.453  27.006  1.00  0.00    -0.014 A 
BRANCH  30  31
ATOM     31  C   UNL A   1      41.194  25.677  27.388  1.00  0.00     0.031 A 
ATOM     32  C   UNL A   1      40.514  26.766  28.179  1.00  0.00     0.074 A 
ATOM     33  C   UNL A   1      42.466  25.840  26.970  1.00  0.00     0.049 A 
ATOM     34  N   UNL A   1      40.981  27.929  28.549  1.00  0.00    -0.248 NA
ATOM     35  C   UNL A   1      39.120  26.524  28.588  1.00  0.00     0.031 C 
ATOM     36  C   UNL A   1      43.216  24.888  26.147  1.00  0.00     0.029 A 
ATOM     37  N   UNL A   1      43.347  26.876  27.159  1.00  0.00    -0.354 N 
ATOM     38  C   UNL A   1      39.939  28.564  29.215  1.00  0.00     0.074 A 
ATOM     39  C   UNL A   1      38.799  27.675  29.160  1.00  0.00     0.031 C 
ATOM     40  C   UNL A   1      44.441  25.382  25.905  1.00  0.00     0.029 A 
ATOM     41  C   UNL A   1      44.554  26.699  26.523  1.00  0.00     0.049 A 
ATOM     42  H   UNL A   1      43.135  27.672  27.699  1.00  0.00     0.167 HD
ATOM     43  C   UNL A   1      39.939  29.762  29.846  1.00  0.00     0.034 A 
ATOM     44  C   UNL A   1      45.626  27.512  26.434  1.00  0.00     0.034 A 
ATOM     45  C   UNL A   1      41.083  30.630  29.926  1.00  0.00     0.049 A 
ATOM     46  C   UNL A   1      45.594  28.839  27.146  1.00  0.00     0.074 A 
ATOM     47  C   UNL A   1      41.196  31.842  30.585  1.00  0.00     0.029 A 
ATOM     48  N   UNL A   1      42.308  30.382  29.330  1.00  0.00    -0.354 N 
ATOM     49  N   UNL A   1      44.641  29.360  27.881  1.00  0.00    -0.248 NA
ATOM     50  C   UNL A   1      46.798  29.675  27.047  1.00  0.00     0.031 C 
ATOM     51  C   UNL A   1      42.484  32.338  30.368  1.00  0.00     0.029 A 
ATOM     52  C   UNL A   1      43.185  31.418  29.605  1.00  0.00     0.049 A 
ATOM     53  H   UNL A   1      42.524  29.587  28.792  1.00  0.00     0.167 HD
ATOM     54  C   UNL A   1      45.150  30.558  28.369  1.00  0.00     0.074 A 
ATOM     55  C   UNL A   1      46.502  30.676  27.865  1.00  0.00     0.031 C 
ATOM     56  C   UNL A   1      44.549  31.487  29.153  1.00  0.00     0.034 A 
BRANCH  43  57
ATOM     57  C   UNL A   1      38.681  30.183  30.562  1.00  0.00     0.023 A 
ATOM     58  C   UNL A   1      38.524  29.865  31.927  1.00  0.00     0.012 A 
ATOM     59  C   UNL A   1      37.703  30.964  29.917  1.00  0.00     0.148 A 
ATOM     60  C   UNL A   1      37.403  30.296  32.633  1.00  0.00     0.002 A 
ATOM     61  C   UNL A   1      36.609  31.428  30.640  1.00  0.00     0.091 A 
ATOM     62  F   UNL A   1      37.863  31.243  28.617  1.00  0.00    -0.205 F 
ATOM     63  C   UNL A   1      36.453  31.086  31.994  1.00  0.00     0.022 A 
BRANCH  61  64
ATOM     64  S   UNL A   1      35.368  32.518  29.935  1.00  0.00     0.127 S 
ATOM     65  O   UNL A   1      36.176  33.676  29.552  1.00  0.00    -0.237 OA
ATOM     66  O   UNL A   1      34.868  31.726  28.811  1.00  0.00    -0.237 OA
ATOM     67  O   UNL A   1      34.397  32.764  30.992  1.00  0.00    -0.744 OA
ENDBRANCH  61  64
ENDBRANCH  43  57
BRANCH  44  68
ATOM     68  C   UNL A   1      46.841  27.091  25.677  1.00  0.00     0.023 A 
ATOM     69  C   UNL A   1      47.809  26.284  26.308  1.00  0.00     0.012 A 
ATOM     70  C   UNL A   1      47.058  27.509  24.351  1.00  0.00     0.148 A 
ATOM     71  C   UNL A   1      48.995  25.950  25.652  1.00  0.00     0.002 A 
ATOM     72  C   UNL A   1      48.214  27.122  23.682  1.00  0.00     0.091 A 
ATOM     73  F   UNL A   1      46.133  28.285  23.768  1.00  0.00    -0.205 F 
ATOM     74  C   UNL A   1      49.195  26.362  24.339  1.00  0.00     0.022 A 
BRANCH  72  75
ATOM     75  S   UNL A   1      48.489  27.502  21.949  1.00  0.00     0.127 S 
ATOM     76  O   UNL A   1      49.710  28.301  22.007  1.00  0.00    -0.237 OA
ATOM     77  O   UNL A   1      48.652  26.169  21.367  1.00  0.00    -0.237 OA
ATOM     78  O   UNL A   1      47.289  28.202  21.508  1.00  0.00    -0.744 OA
ENDBRANCH  72  75
ENDBRANCH  44  68
BRANCH  56  79
ATOM     79  C   UNL A   1      45.362  32.684  29.570  1.00  0.00     0.023 A 
ATOM     80  C   UNL A   1      46.151  32.632  30.736  1.00  0.00     0.012 A 
ATOM     81  C   UNL A   1      45.394  33.839  28.763  1.00  0.00     0.148 A 
ATOM     82  C   UNL A   1      46.931  33.725  31.111  1.00  0.00     0.002 A 
ATOM     83  C   UNL A   1      46.215  34.903  29.114  1.00  0.00     0.091 A 
ATOM     84  F   UNL A   1      44.622  33.873  27.666  1.00  0.00    -0.205 F 
ATOM     85  C   UNL A   1      46.972  34.855  30.295  1.00  0.00     0.022 A 
BRANCH  83  86
ATOM     86  S   UNL A   1      46.410  36.355  28.076  1.00  0.00     0.127 S 
ATOM     87  O   UNL A   1      46.922  35.768  26.837  1.00  0.00    -0.237 OA
ATOM     88  O   UNL A   1      45.039  36.859  27.991  1.00  0.00    -0.237 OA
ATOM     89  O   UNL A   1      47.337  37.232  28.778  1.00  0.00    -0.744 OA
ENDBRANCH  83  86
ENDBRANCH  56  79
ENDBRANCH  30  31
ENDBRANCH  22  25
ENDBRANCH  20  21
ENDBRANCH  19  20
ENDBRANCH   1  19
TORSDOF 18
ENDMDL
MODEL 2
REMARK VINA RESULT:     -10.6      4.735      7.356
REMARK SMILES C[C@@H]1CC[N@H+]1[C@H](C(=O)NCCCCCCNC(=O)c1ccc(-c2c3nc(c(-c4cccc(S(=O)(=O)[O-])c4F)c4ccc([nH]4)c(-c4cccc(S(=O)(=O)[O-])c4F)c4nc(c(-c5cccc(S(=O)(=O)[O-])c5F)c5ccc2[nH]5)C=C4)C=C3)cc1)C1CC1
REMARK SMILES IDX 13 1 12 2 11 3 10 4 9 5 7 6 8 7 6 9 5 10 1 11 2 12 3 13 4 14
REMARK SMILES IDX 82 16 83 17 84 18 14 19 15 20 16 21 17 22 18 24 19 25 20 26
REMARK SMILES IDX 81 27 21 28 80 29 22 30 23 31 24 32 74 33 25 34 79 35 73 36
REMARK SMILES IDX 75 37 26 38 78 39 72 40 71 41 27 43 59 44 39 45 58 46 40 47
REMARK SMILES IDX 43 48 57 49 76 50 41 51 42 52 56 54 77 55 44 56 28 57 29 58
REMARK SMILES IDX 37 59 30 60 32 61 38 62 31 63 33 64 34 65 35 66 36 67 60 68
REMARK SMILES IDX 61 69 69 70 62 71 64 72 70 73 63 74 65 75 66 76 67 77 68 78
REMARK SMILES IDX 45 79 46 80 54 81 47 82 49 83 55 84 48 85 50 86 51 87 52 88
REMARK SMILES IDX 53 89
REMARK H PARENT 9 8 5 15 16 23 75 42 43 53
REMARK Flexibility Score: inf
ROOT
ATOM      1  C   UNL A   1      32.579  28.182  24.255  1.00  0.00     0.002 C 
ENDROOT
BRANCH   1   2
ATOM      2  C   UNL A   1      31.495  27.521  25.107  1.00  0.00     0.002 C 
BRANCH   2   3
ATOM      3  C   UNL A   1      30.523  26.615  24.362  1.00  0.00     0.021 C 
BRANCH   3   4
ATOM      4  C   UNL A   1      30.790  25.123  24.464  1.00  0.00     0.116 C 
BRANCH   4   5
ATOM      5  N   UNL A   1      30.731  24.565  25.784  1.00  0.00    -0.351 N 
ATOM      6  C   UNL A   1      31.640  23.738  26.384  1.00  0.00     0.278 C 
ATOM      7  O   UNL A   1      31.495  23.583  27.606  1.00  0.00    -0.268 OA
ATOM      8  H   UNL A   1      29.943  24.806  26.323  1.00  0.00     0.163 HD
BRANCH   6   9
ATOM      9  C   UNL A   1      32.754  22.958  25.617  1.00  0.00     0.277 C 
BRANCH   9  10
ATOM     10  N   UNL A   1      32.149  21.880  24.793  1.00  0.00    -0.322 N 
ATOM     11  C   UNL A   1      32.146  21.926  22.316  1.00  0.00     0.075 C 
ATOM     12  C   UNL A   1      32.868  21.475  23.576  1.00  0.00     0.187 C 
ATOM     13  C   UNL A   1      32.561  20.005  23.941  1.00  0.00     0.126 C 
ATOM     14  C   UNL A   1      32.303  20.529  25.360  1.00  0.00     0.269 C 
ATOM     15  H   UNL A   1      31.229  22.310  24.690  1.00  0.00     0.349 HD
ENDBRANCH   9  10
BRANCH   9  16
ATOM     16  C   UNL A   1      34.047  23.631  25.182  1.00  0.00     0.057 C 
ATOM     17  C   UNL A   1      34.334  24.695  24.141  1.00  0.00     0.011 C 
ATOM     18  C   UNL A   1      34.407  25.038  25.603  1.00  0.00     0.011 C 
ENDBRANCH   9  16
ENDBRANCH   6   9
ENDBRANCH   4   5
ENDBRANCH   3   4
ENDBRANCH   2   3
ENDBRANCH   1   2
BRANCH   1  19
ATOM     19  C   UNL A   1      33.881  28.546  24.976  1.00  0.00     0.021 C 
BRANCH  19  20
ATOM     20  C   UNL A   1      33.788  28.671  26.493  1.00  0.00     0.116 C 
BRANCH  20  21
ATOM     21  N   UNL A   1      33.685  30.050  26.935  1.00  0.00    -0.352 N 
ATOM     22  C   UNL A   1      34.516  30.762  27.762  1.00  0.00     0.251 C 
ATOM     23  H   UNL A   1      32.907  30.546  26.591  1.00  0.00     0.163 HD
ATOM     24  O   UNL A   1      34.184  31.874  28.157  1.00  0.00    -0.269 OA
BRANCH  22  25
ATOM     25  C   UNL A   1      35.804  30.174  28.192  1.00  0.00     0.039 A 
ATOM     26  C   UNL A   1      36.895  30.244  27.323  1.00  0.00     0.014 A 
ATOM     27  C   UNL A   1      35.934  29.558  29.439  1.00  0.00     0.014 A 
ATOM     28  C   UNL A   1      38.134  29.742  27.729  1.00  0.00     0.010 A 
ATOM     29  C   UNL A   1      37.187  29.125  29.870  1.00  0.00     0.010 A 
ATOM     30  C   UNL A   1      38.299  29.207  29.018  1.00  0.00    -0.014 A 
BRANCH  30  31
ATOM     31  C   UNL A   1      39.625  28.731  29.489  1.00  0.00     0.031 A 
ATOM     32  C   UNL A   1      40.361  29.484  30.567  1.00  0.00     0.074 A 
ATOM     33  C   UNL A   1      40.196  27.660  28.902  1.00  0.00     0.049 A 
ATOM     34  N   UNL A   1      41.552  29.261  31.060  1.00  0.00    -0.248 NA
ATOM     35  C   UNL A   1      39.681  30.653  31.150  1.00  0.00     0.031 C 
ATOM     36  C   UNL A   1      39.613  26.882  27.806  1.00  0.00     0.029 A 
ATOM     37  N   UNL A   1      41.406  27.052  29.129  1.00  0.00    -0.354 N 
ATOM     38  C   UNL A   1      41.770  30.267  31.995  1.00  0.00     0.074 A 
ATOM     39  C   UNL A   1      40.609  31.129  31.968  1.00  0.00     0.031 C 
ATOM     40  C   UNL A   1      40.462  25.902  27.459  1.00  0.00     0.029 A 
ATOM     41  C   UNL A   1      41.664  26.000  28.279  1.00  0.00     0.049 A 
ATOM     42  H   UNL A   1      42.031  27.340  29.833  1.00  0.00     0.167 HD
ATOM     43  C   UNL A   1      42.826  30.439  32.826  1.00  0.00     0.034 A 
ATOM     44  C   UNL A   1      42.753  25.213  28.164  1.00  0.00     0.034 A 
ATOM     45  C   UNL A   1      43.965  29.563  32.872  1.00  0.00     0.049 A 
ATOM     46  C   UNL A   1      43.911  25.432  29.102  1.00  0.00     0.074 A 
ATOM     47  C   UNL A   1      45.063  29.627  33.713  1.00  0.00     0.029 A 
ATOM     48  N   UNL A   1      44.157  28.468  32.046  1.00  0.00    -0.354 N 
ATOM     49  N   UNL A   1      44.039  26.309  30.068  1.00  0.00    -0.248 NA
ATOM     50  C   UNL A   1      45.062  24.528  28.960  1.00  0.00     0.031 C 
ATOM     51  C   UNL A   1      45.929  28.581  33.380  1.00  0.00     0.029 A 
ATOM     52  C   UNL A   1      45.354  27.846  32.356  1.00  0.00     0.049 A 
ATOM     53  H   UNL A   1      43.533  28.175  31.343  1.00  0.00     0.167 HD
ATOM     54  C   UNL A   1      45.258  26.031  30.676  1.00  0.00     0.074 A 
ATOM     55  C   UNL A   1      45.820  24.890  29.984  1.00  0.00     0.031 C 
ATOM     56  C   UNL A   1      45.867  26.671  31.704  1.00  0.00     0.034 A 
BRANCH  43  57
ATOM     57  C   UNL A   1      42.774  31.584  33.805  1.00  0.00     0.023 A 
ATOM     58  C   UNL A   1      43.201  32.863  33.394  1.00  0.00     0.012 A 
ATOM     59  C   UNL A   1      42.225  31.418  35.091  1.00  0.00     0.148 A 
ATOM     60  C   UNL A   1      43.105  33.955  34.254  1.00  0.00     0.002 A 
ATOM     61  C   UNL A   1      42.090  32.521  35.928  1.00  0.00     0.091 A 
ATOM     62  F   UNL A   1      41.839  30.191  35.467  1.00  0.00    -0.205 F 
ATOM     63  C   UNL A   1      42.539  33.787  35.515  1.00  0.00     0.022 A 
BRANCH  61  64
ATOM     64  S   UNL A   1      41.304  32.430  37.540  1.00  0.00     0.127 S 
ATOM     65  O   UNL A   1      41.321  33.833  37.955  1.00  0.00    -0.237 OA
ATOM     66  O   UNL A   1      39.978  31.910  37.204  1.00  0.00    -0.237 OA
ATOM     67  O   UNL A   1      42.127  31.538  38.343  1.00  0.00    -0.744 OA
ENDBRANCH  61  64
ENDBRANCH  43  57
BRANCH  44  68
ATOM     68  C   UNL A   1      42.798  24.118  27.152  1.00  0.00     0.023 A 
ATOM     69  C   UNL A   1      43.449  24.334  25.921  1.00  0.00     0.012 A 
ATOM     70  C   UNL A   1      42.175  22.878  27.387  1.00  0.00     0.148 A 
ATOM     71  C   UNL A   1      43.429  23.359  24.924  1.00  0.00     0.002 A 
ATOM     72  C   UNL A   1      42.212  21.887  26.412  1.00  0.00     0.091 A 
ATOM     73  F   UNL A   1      41.550  22.691  28.558  1.00  0.00    -0.205 F 
ATOM     74  C   UNL A   1      42.818  22.134  25.171  1.00  0.00     0.022 A 
BRANCH  72  75
ATOM     75  S   UNL A   1      41.561  20.239  26.699  1.00  0.00     0.127 S 
ATOM     76  O   UNL A   1      40.141  20.508  26.908  1.00  0.00    -0.237 OA
ATOM     77  O   UNL A   1      41.882  19.562  25.442  1.00  0.00    -0.237 OA
ATOM     78  O   UNL A   1      42.290  19.727  27.853  1.00  0.00    -0.744 OA
ENDBRANCH  72  75
ENDBRANCH  44  68
BRANCH  56  79
ATOM     79  C   UNL A   1      47.181  26.120  32.192  1.00  0.00     0.023 A 
ATOM     80  C   UNL A   1      47.212  25.221  33.277  1.00  0.00     0.012 A 
ATOM     81  C   UNL A   1      48.380  26.444  31.527  1.00  0.00     0.148 A 
ATOM     82  C   UNL A   1      48.422  24.683  33.714  1.00  0.00     0.002 A 
ATOM     83  C   UNL A   1      49.573  25.861  31.933  1.00  0.00     0.091 A 
ATOM     84  F   UNL A   1      48.329  27.314  30.507  1.00  0.00    -0.205 F 
ATOM     85  C   UNL A   1      49.599  24.993  33.036  1.00  0.00     0.022 A 
BRANCH  83  86
ATOM     86  S   UNL A   1      51.121  26.122  31.060  1.00  0.00     0.127 S 
ATOM     87  O   UNL A   1      51.976  25.098  31.660  1.00  0.00    -0.237 OA
ATOM     88  O   UNL A   1      50.738  25.861  29.672  1.00  0.00    -0.237 OA
ATOM     89  O   UNL A   1      51.512  27.498  31.333  1.00  0.00    -0.744 OA
ENDBRANCH  83  86
ENDBRANCH  56  79
ENDBRANCH  30  31
ENDBRANCH  22  25
ENDBRANCH  20  21
ENDBRANCH  19  20
ENDBRANCH   1  19
TORSDOF 18
ENDMDL
MODEL 3
REMARK VINA RESULT:     -10.5      6.028     11.206
REMARK SMILES C[C@@H]1CC[N@H+]1[C@H](C(=O)NCCCCCCNC(=O)c1ccc(-c2c3nc(c(-c4cccc(S(=O)(=O)[O-])c4F)c4ccc([nH]4)c(-c4cccc(S(=O)(=O)[O-])c4F)c4nc(c(-c5cccc(S(=O)(=O)[O-])c5F)c5ccc2[nH]5)C=C4)C=C3)cc1)C1CC1
REMARK SMILES IDX 13 1 12 2 11 3 10 4 9 5 7 6 8 7 6 9 5 10 1 11 2 12 3 13 4 14
REMARK SMILES IDX 82 16 83 17 84 18 14 19 15 20 16 21 17 22 18 24 19 25 20 26
REMARK SMILES IDX 81 27 21 28 80 29 22 30 23 31 24 32 74 33 25 34 79 35 73 36
REMARK SMILES IDX 75 37 26 38 78 39 72 40 71 41 27 43 59 44 39 45 58 46 40 47
REMARK SMILES IDX 43 48 57 49 76 50 41 51 42 52 56 54 77 55 44 56 28 57 29 58
REMARK SMILES IDX 37 59 30 60 32 61 38 62 31 63 33 64 34 65 35 66 36 67 60 68
REMARK SMILES IDX 61 69 69 70 62 71 64 72 70 73 63 74 65 75 66 76 67 77 68 78
REMARK SMILES IDX 45 79 46 80 54 81 47 82 49 83 55 84 48 85 50 86 51 87 52 88
REMARK SMILES IDX 53 89
REMARK H PARENT 9 8 5 15 16 23 75 42 43 53
REMARK Flexibility Score: inf
ROOT
ATOM      1  C   UNL A   1      31.713  30.566  26.315  1.00  0.00     0.002 C 
ENDROOT
BRANCH   1   2
ATOM      2  C   UNL A   1      33.145  30.033  26.386  1.00  0.00     0.002 C 
BRANCH   2   3
ATOM      3  C   UNL A   1      33.318  28.681  27.066  1.00  0.00     0.021 C 
BRANCH   3   4
ATOM      4  C   UNL A   1      33.490  27.487  26.143  1.00  0.00     0.116 C 
BRANCH   4   5
ATOM      5  N   UNL A   1      32.351  26.624  26.014  1.00  0.00    -0.351 N 
ATOM      6  C   UNL A   1      32.343  25.283  25.749  1.00  0.00     0.278 C 
ATOM      7  O   UNL A   1      31.257  24.711  25.925  1.00  0.00    -0.268 OA
ATOM      8  H   UNL A   1      31.470  27.048  26.132  1.00  0.00     0.163 HD
BRANCH   6   9
ATOM      9  C   UNL A   1      33.568  24.495  25.188  1.00  0.00     0.277 C 
BRANCH   9  10
ATOM     10  N   UNL A   1      33.754  23.231  25.948  1.00  0.00    -0.322 N 
ATOM     11  C   UNL A   1      32.536  21.145  25.403  1.00  0.00     0.075 C 
ATOM     12  C   UNL A   1      33.788  21.979  25.180  1.00  0.00     0.187 C 
ATOM     13  C   UNL A   1      34.970  21.522  26.064  1.00  0.00     0.126 C 
ATOM     14  C   UNL A   1      35.134  23.007  26.415  1.00  0.00     0.269 C 
ATOM     15  H   UNL A   1      32.989  23.374  26.607  1.00  0.00     0.349 HD
ENDBRANCH   9  10
BRANCH   9  16
ATOM     16  C   UNL A   1      33.976  24.584  23.726  1.00  0.00     0.057 C 
ATOM     17  C   UNL A   1      33.188  24.412  22.442  1.00  0.00     0.011 C 
ATOM     18  C   UNL A   1      33.642  25.782  22.865  1.00  0.00     0.011 C 
ENDBRANCH   9  16
ENDBRANCH   6   9
ENDBRANCH   4   5
ENDBRANCH   3   4
ENDBRANCH   2   3
ENDBRANCH   1   2
BRANCH   1  19
ATOM     19  C   UNL A   1      31.505  32.012  26.777  1.00  0.00     0.021 C 
BRANCH  19  20
ATOM     20  C   UNL A   1      32.750  32.737  27.276  1.00  0.00     0.116 C 
BRANCH  20  21
ATOM     21  N   UNL A   1      32.487  34.120  27.629  1.00  0.00    -0.352 N 
ATOM     22  C   UNL A   1      33.057  34.890  28.612  1.00  0.00     0.251 C 
ATOM     23  H   UNL A   1      31.801  34.571  27.085  1.00  0.00     0.163 HD
ATOM     24  O   UNL A   1      32.595  35.995  28.872  1.00  0.00    -0.269 OA
BRANCH  22  25
ATOM     25  C   UNL A   1      34.218  34.372  29.368  1.00  0.00     0.039 A 
ATOM     26  C   UNL A   1      33.993  33.753  30.600  1.00  0.00     0.014 A 
ATOM     27  C   UNL A   1      35.517  34.495  28.869  1.00  0.00     0.014 A 
ATOM     28  C   UNL A   1      35.068  33.210  31.306  1.00  0.00     0.010 A 
ATOM     29  C   UNL A   1      36.577  33.888  29.539  1.00  0.00     0.010 A 
ATOM     30  C   UNL A   1      36.366  33.245  30.768  1.00  0.00    -0.014 A 
BRANCH  30  31
ATOM     31  C   UNL A   1      37.508  32.612  31.476  1.00  0.00     0.031 A 
ATOM     32  C   UNL A   1      38.229  31.442  30.856  1.00  0.00     0.074 A 
ATOM     33  C   UNL A   1      37.856  33.047  32.704  1.00  0.00     0.049 A 
ATOM     34  N   UNL A   1      39.203  30.721  31.348  1.00  0.00    -0.248 NA
ATOM     35  C   UNL A   1      37.784  31.013  29.519  1.00  0.00     0.031 C 
ATOM     36  C   UNL A   1      37.196  34.129  33.438  1.00  0.00     0.029 A 
ATOM     37  N   UNL A   1      38.836  32.617  33.564  1.00  0.00    -0.354 N 
ATOM     38  C   UNL A   1      39.473  29.746  30.394  1.00  0.00     0.074 A 
ATOM     39  C   UNL A   1      38.532  29.939  29.314  1.00  0.00     0.031 C 
ATOM     40  C   UNL A   1      37.791  34.280  34.632  1.00  0.00     0.029 A 
ATOM     41  C   UNL A   1      38.849  33.285  34.767  1.00  0.00     0.049 A 
ATOM     42  H   UNL A   1      39.471  31.898  33.341  1.00  0.00     0.167 HD
ATOM     43  C   UNL A   1      40.441  28.798  30.401  1.00  0.00     0.034 A 
ATOM     44  C   UNL A   1      39.615  33.104  35.861  1.00  0.00     0.034 A 
ATOM     45  C   UNL A   1      41.395  28.628  31.462  1.00  0.00     0.049 A 
ATOM     46  C   UNL A   1      40.681  32.040  35.836  1.00  0.00     0.074 A 
ATOM     47  C   UNL A   1      42.443  27.727  31.538  1.00  0.00     0.029 A 
ATOM     48  N   UNL A   1      41.420  29.370  32.632  1.00  0.00    -0.354 N 
ATOM     49  N   UNL A   1      41.004  31.216  34.870  1.00  0.00    -0.248 NA
ATOM     50  C   UNL A   1      41.512  31.904  37.041  1.00  0.00     0.031 C 
ATOM     51  C   UNL A   1      43.089  27.910  32.764  1.00  0.00     0.029 A 
ATOM     52  C   UNL A   1      42.465  28.949  33.436  1.00  0.00     0.049 A 
ATOM     53  H   UNL A   1      40.788  30.091  32.856  1.00  0.00     0.167 HD
ATOM     54  C   UNL A   1      42.103  30.501  35.330  1.00  0.00     0.074 A 
ATOM     55  C   UNL A   1      42.404  31.003  36.654  1.00  0.00     0.031 C 
ATOM     56  C   UNL A   1      42.794  29.506  34.721  1.00  0.00     0.034 A 
BRANCH  43  57
ATOM     57  C   UNL A   1      40.562  27.906  29.191  1.00  0.00     0.023 A 
ATOM     58  C   UNL A   1      39.702  26.797  29.062  1.00  0.00     0.012 A 
ATOM     59  C   UNL A   1      41.457  28.212  28.148  1.00  0.00     0.148 A 
ATOM     60  C   UNL A   1      39.745  25.992  27.926  1.00  0.00     0.002 A 
ATOM     61  C   UNL A   1      41.463  27.431  26.997  1.00  0.00     0.091 A 
ATOM     62  F   UNL A   1      42.276  29.262  28.296  1.00  0.00    -0.205 F 
ATOM     63  C   UNL A   1      40.616  26.315  26.890  1.00  0.00     0.022 A 
BRANCH  61  64
ATOM     64  S   UNL A   1      42.488  27.806  25.571  1.00  0.00     0.127 S 
ATOM     65  O   UNL A   1      41.913  29.073  25.120  1.00  0.00    -0.237 OA
ATOM     66  O   UNL A   1      43.817  27.919  26.172  1.00  0.00    -0.237 OA
ATOM     67  O   UNL A   1      42.324  26.691  24.650  1.00  0.00    -0.744 OA
ENDBRANCH  61  64
ENDBRANCH  43  57
BRANCH  44  68
ATOM     68  C   UNL A   1      39.440  33.969  37.064  1.00  0.00     0.023 A 
ATOM     69  C   UNL A   1      39.940  35.287  37.053  1.00  0.00     0.012 A 
ATOM     70  C   UNL A   1      38.811  33.487  38.227  1.00  0.00     0.148 A 
ATOM     71  C   UNL A   1      39.869  36.086  38.195  1.00  0.00     0.002 A 
ATOM     72  C   UNL A   1      38.688  34.310  39.341  1.00  0.00     0.091 A 
ATOM     73  F   UNL A   1      38.350  32.228  38.227  1.00  0.00    -0.205 F 
ATOM     74  C   UNL A   1      39.238  35.601  39.336  1.00  0.00     0.022 A 
BRANCH  72  75
ATOM     75  S   UNL A   1      37.777  33.808  40.805  1.00  0.00     0.127 S 
ATOM     76  O   UNL A   1      37.515  35.092  41.450  1.00  0.00    -0.237 OA
ATOM     77  O   UNL A   1      36.602  33.158  40.224  1.00  0.00    -0.237 OA
ATOM     78  O   UNL A   1      38.664  32.903  41.525  1.00  0.00    -0.744 OA
ENDBRANCH  72  75
ENDBRANCH  44  68
BRANCH  56  79
ATOM     79  C   UNL A   1      43.984  28.934  35.446  1.00  0.00     0.023 A 
ATOM     80  C   UNL A   1      45.256  29.518  35.289  1.00  0.00     0.012 A 
ATOM     81  C   UNL A   1      43.822  27.854  36.336  1.00  0.00     0.148 A 
ATOM     82  C   UNL A   1      46.356  29.013  35.981  1.00  0.00     0.002 A 
ATOM     83  C   UNL A   1      44.912  27.391  37.063  1.00  0.00     0.091 A 
ATOM     84  F   UNL A   1      42.606  27.302  36.458  1.00  0.00    -0.205 F 
ATOM     85  C   UNL A   1      46.182  27.958  36.876  1.00  0.00     0.022 A 
BRANCH  83  86
ATOM     86  S   UNL A   1      44.765  26.107  38.310  1.00  0.00     0.127 S 
ATOM     87  O   UNL A   1      46.156  25.938  38.729  1.00  0.00    -0.237 OA
ATOM     88  O   UNL A   1      43.900  26.742  39.305  1.00  0.00    -0.237 OA
ATOM     89  O   UNL A   1      44.174  24.957  37.638  1.00  0.00    -0.744 OA
ENDBRANCH  83  86
ENDBRANCH  56  79
ENDBRANCH  30  31
ENDBRANCH  22  25
ENDBRANCH  20  21
ENDBRANCH  19  20
ENDBRANCH   1  19
TORSDOF 18
ENDMDL
