MODEL 1
REMARK VINA RESULT:     -12.5      0.000      0.000
REMARK SMILES Cc1ccc(CCC(=O)N2CCC3(CC2)[C@H](C(=O)NCCCCCCNC(=O)c2ccc(-c4c5nc(c(-c6cccc(S(=O)(=O)[O-])c6F)c6ccc([nH]6)c(-c6cccc(S(=O)(=O)[O-])c6F)c6nc(c(-c7cccc(S(=O)(=O)[O-])c7F)c7ccc4[nH]7)C=C6)C=C5)cc2)CC(=O)N3C)cc1
REMARK SMILES IDX 22 1 21 2 20 3 19 4 17 5 18 6 16 8 8 9 9 10 10 11 11 12
REMARK SMILES IDX 15 13 12 14 14 15 13 16 95 17 92 18 93 19 96 20 94 21 7 22
REMARK SMILES IDX 6 23 5 24 1 25 2 26 3 27 98 28 4 29 97 30 23 31 24 32 25 33
REMARK SMILES IDX 26 34 27 35 28 37 29 38 30 39 91 40 31 41 90 42 32 43 33 44
REMARK SMILES IDX 34 45 84 46 35 47 89 48 83 49 85 50 36 51 88 52 82 53 81 54
REMARK SMILES IDX 37 56 69 57 49 58 68 59 50 60 53 61 67 62 86 63 51 64 52 65
REMARK SMILES IDX 66 67 87 68 54 69 38 70 39 71 47 72 40 73 42 74 48 75 41 76
REMARK SMILES IDX 43 77 44 78 45 79 46 80 70 81 71 82 79 83 72 84 74 85 80 86
REMARK SMILES IDX 73 87 75 88 76 89 77 90 78 91 55 92 56 93 64 94 57 95 59 96
REMARK SMILES IDX 65 97 58 98 60 99 61 100 62 101 63 102
REMARK H PARENT 19 7 26 36 85 55 53 66
REMARK Flexibility Score: inf
ROOT
ATOM      1  C   UNL A   1      34.876  30.509  28.334  1.00  0.00     0.002 C 
ENDROOT
BRANCH   1   2
ATOM      2  C   UNL A   1      35.419  29.509  27.312  1.00  0.00     0.021 C 
BRANCH   2   3
ATOM      3  C   UNL A   1      34.341  28.868  26.431  1.00  0.00     0.116 C 
BRANCH   3   4
ATOM      4  N   UNL A   1      33.200  29.724  26.152  1.00  0.00    -0.356 N 
ATOM      5  C   UNL A   1      32.181  29.671  25.257  1.00  0.00     0.226 C 
ATOM      6  O   UNL A   1      31.296  30.526  25.385  1.00  0.00    -0.275 OA
ATOM      7  H   UNL A   1      33.156  30.513  26.740  1.00  0.00     0.163 HD
BRANCH   5   8
ATOM      8  C   UNL A   1      32.041  28.635  24.135  1.00  0.00     0.113 C 
ATOM      9  C   UNL A   1      31.650  23.845  26.233  1.00  0.00     0.222 C 
ATOM     10  O   UNL A   1      31.376  23.547  27.399  1.00  0.00    -0.275 OA
ATOM     11  N   UNL A   1      30.900  24.780  25.544  1.00  0.00    -0.343 N 
ATOM     12  C   UNL A   1      30.237  25.851  26.260  1.00  0.00     0.122 C 
ATOM     13  C   UNL A   1      30.803  24.926  24.116  1.00  0.00     0.122 C 
ATOM     14  C   UNL A   1      30.938  27.149  25.867  1.00  0.00     0.051 C 
ATOM     15  C   UNL A   1      31.562  26.168  23.651  1.00  0.00     0.051 C 
ATOM     16  C   UNL A   1      31.044  27.458  24.344  1.00  0.00     0.058 C 
ATOM     17  N   UNL A   1      29.884  27.953  23.576  1.00  0.00    -0.339 N 
ATOM     18  C   UNL A   1      31.673  29.297  22.816  1.00  0.00     0.116 C 
ATOM     19  C   UNL A   1      30.255  28.873  22.587  1.00  0.00     0.223 C 
ATOM     20  C   UNL A   1      28.574  27.337  23.500  1.00  0.00     0.147 C 
ATOM     21  O   UNL A   1      29.559  29.291  21.675  1.00  0.00    -0.275 OA
BRANCH   9  22
ATOM     22  C   UNL A   1      32.993  23.379  25.658  1.00  0.00     0.105 C 
BRANCH  22  23
ATOM     23  C   UNL A   1      34.066  24.383  25.208  1.00  0.00     0.045 C 
BRANCH  23  24
ATOM     24  C   UNL A   1      35.455  23.783  25.049  1.00  0.00    -0.047 A 
ATOM     25  C   UNL A   1      38.866  21.262  25.673  1.00  0.00     0.044 C 
ATOM     26  C   UNL A   1      37.791  22.245  25.315  1.00  0.00    -0.051 A 
ATOM     27  C   UNL A   1      37.655  23.446  26.018  1.00  0.00     0.004 A 
ATOM     28  C   UNL A   1      36.833  21.911  24.350  1.00  0.00     0.004 A 
ATOM     29  C   UNL A   1      36.510  24.231  25.857  1.00  0.00     0.004 A 
ATOM     30  C   UNL A   1      35.677  22.681  24.211  1.00  0.00     0.004 A 
ENDBRANCH  23  24
ENDBRANCH  22  23
ENDBRANCH   9  22
ENDBRANCH   5   8
ENDBRANCH   3   4
ENDBRANCH   2   3
ENDBRANCH   1   2
BRANCH   1  31
ATOM     31  C   UNL A   1      35.255  31.968  28.051  1.00  0.00     0.002 C 
BRANCH  31  32
ATOM     32  C   UNL A   1      34.073  32.936  27.932  1.00  0.00     0.021 C 
BRANCH  32  33
ATOM     33  C   UNL A   1      34.399  34.350  28.386  1.00  0.00     0.116 C 
BRANCH  33  34
ATOM     34  N   UNL A   1      33.680  34.736  29.587  1.00  0.00    -0.352 N 
ATOM     35  C   UNL A   1      33.958  34.483  30.907  1.00  0.00     0.251 C 
ATOM     36  H   UNL A   1      32.865  35.263  29.428  1.00  0.00     0.163 HD
ATOM     37  O   UNL A   1      33.057  34.601  31.719  1.00  0.00    -0.269 OA
BRANCH  35  38
ATOM     38  C   UNL A   1      35.365  34.241  31.350  1.00  0.00     0.039 A 
ATOM     39  C   UNL A   1      36.382  34.557  30.437  1.00  0.00     0.014 A 
ATOM     40  C   UNL A   1      35.673  33.524  32.501  1.00  0.00     0.014 A 
ATOM     41  C   UNL A   1      37.632  33.953  30.549  1.00  0.00     0.010 A 
ATOM     42  C   UNL A   1      36.872  32.852  32.566  1.00  0.00     0.010 A 
ATOM     43  C   UNL A   1      37.824  33.018  31.555  1.00  0.00    -0.014 A 
BRANCH  43  44
ATOM     44  C   UNL A   1      38.973  32.139  31.676  1.00  0.00     0.031 A 
ATOM     45  C   UNL A   1      38.942  30.817  31.028  1.00  0.00     0.074 A 
ATOM     46  C   UNL A   1      40.127  32.660  32.146  1.00  0.00     0.049 A 
ATOM     47  N   UNL A   1      39.855  29.919  31.162  1.00  0.00    -0.248 NA
ATOM     48  C   UNL A   1      37.830  30.392  30.189  1.00  0.00     0.031 C 
ATOM     49  C   UNL A   1      41.479  32.170  31.909  1.00  0.00     0.029 A 
ATOM     50  N   UNL A   1      40.283  33.629  33.143  1.00  0.00    -0.354 N 
ATOM     51  C   UNL A   1      39.606  28.929  30.234  1.00  0.00     0.074 A 
ATOM     52  C   UNL A   1      38.290  29.227  29.726  1.00  0.00     0.031 C 
ATOM     53  C   UNL A   1      42.272  32.603  32.901  1.00  0.00     0.029 A 
ATOM     54  C   UNL A   1      41.404  33.221  33.888  1.00  0.00     0.049 A 
ATOM     55  H   UNL A   1      39.726  34.426  33.292  1.00  0.00     0.167 HD
ATOM     56  C   UNL A   1      40.614  28.066  29.923  1.00  0.00     0.034 A 
ATOM     57  C   UNL A   1      41.350  32.875  35.208  1.00  0.00     0.034 A 
ATOM     58  C   UNL A   1      41.748  28.251  30.842  1.00  0.00     0.049 A 
ATOM     59  C   UNL A   1      41.867  31.475  35.485  1.00  0.00     0.074 A 
ATOM     60  C   UNL A   1      42.951  28.930  30.749  1.00  0.00     0.029 A 
ATOM     61  N   UNL A   1      41.590  27.911  32.180  1.00  0.00    -0.354 N 
ATOM     62  N   UNL A   1      42.110  30.584  34.563  1.00  0.00    -0.248 NA
ATOM     63  C   UNL A   1      42.147  30.965  36.824  1.00  0.00     0.031 C 
ATOM     64  C   UNL A   1      43.476  29.072  32.063  1.00  0.00     0.029 A 
ATOM     65  C   UNL A   1      42.609  28.449  32.947  1.00  0.00     0.049 A 
ATOM     66  H   UNL A   1      40.853  27.363  32.535  1.00  0.00     0.167 HD
ATOM     67  C   UNL A   1      42.468  29.391  35.138  1.00  0.00     0.074 A 
ATOM     68  C   UNL A   1      42.541  29.707  36.556  1.00  0.00     0.031 C 
ATOM     69  C   UNL A   1      42.621  28.248  34.394  1.00  0.00     0.034 A 
BRANCH  56  70
ATOM     70  C   UNL A   1      40.723  27.224  28.657  1.00  0.00     0.023 A 
ATOM     71  C   UNL A   1      39.893  26.081  28.574  1.00  0.00     0.012 A 
ATOM     72  C   UNL A   1      41.625  27.398  27.581  1.00  0.00     0.148 A 
ATOM     73  C   UNL A   1      40.003  25.135  27.547  1.00  0.00     0.002 A 
ATOM     74  C   UNL A   1      41.764  26.438  26.572  1.00  0.00     0.091 A 
ATOM     75  F   UNL A   1      42.337  28.517  27.477  1.00  0.00    -0.205 F 
ATOM     76  C   UNL A   1      40.957  25.301  26.556  1.00  0.00     0.022 A 
BRANCH  74  77
ATOM     77  S   UNL A   1      43.012  26.569  25.274  1.00  0.00     0.127 S 
ATOM     78  O   UNL A   1      42.820  25.315  24.542  1.00  0.00    -0.237 OA
ATOM     79  O   UNL A   1      42.589  27.766  24.551  1.00  0.00    -0.237 OA
ATOM     80  O   UNL A   1      44.301  26.676  25.947  1.00  0.00    -0.744 OA
ENDBRANCH  74  77
ENDBRANCH  56  70
BRANCH  57  81
ATOM     81  C   UNL A   1      40.284  33.585  35.973  1.00  0.00     0.023 A 
ATOM     82  C   UNL A   1      39.039  32.919  36.084  1.00  0.00     0.012 A 
ATOM     83  C   UNL A   1      40.584  34.616  36.880  1.00  0.00     0.148 A 
ATOM     84  C   UNL A   1      38.175  33.181  37.148  1.00  0.00     0.002 A 
ATOM     85  C   UNL A   1      39.714  34.875  37.939  1.00  0.00     0.091 A 
ATOM     86  F   UNL A   1      41.749  35.263  36.748  1.00  0.00    -0.205 F 
ATOM     87  C   UNL A   1      38.531  34.134  38.094  1.00  0.00     0.022 A 
BRANCH  85  88
ATOM     88  S   UNL A   1      40.109  36.055  39.239  1.00  0.00     0.127 S 
ATOM     89  O   UNL A   1      41.308  35.458  39.820  1.00  0.00    -0.237 OA
ATOM     90  O   UNL A   1      40.337  37.285  38.483  1.00  0.00    -0.237 OA
ATOM     91  O   UNL A   1      38.928  36.088  40.091  1.00  0.00    -0.744 OA
ENDBRANCH  85  88
ENDBRANCH  57  81
BRANCH  69  92
ATOM     92  C   UNL A   1      42.769  26.827  34.929  1.00  0.00     0.023 A 
ATOM     93  C   UNL A   1      41.678  26.065  35.385  1.00  0.00     0.012 A 
ATOM     94  C   UNL A   1      44.016  26.143  34.851  1.00  0.00     0.148 A 
ATOM     95  C   UNL A   1      41.809  24.726  35.776  1.00  0.00     0.002 A 
ATOM     96  C   UNL A   1      44.119  24.783  35.132  1.00  0.00     0.091 A 
ATOM     97  F   UNL A   1      45.130  26.812  34.522  1.00  0.00    -0.205 F 
ATOM     98  C   UNL A   1      43.024  24.075  35.623  1.00  0.00     0.022 A 
BRANCH  96  99
ATOM     99  S   UNL A   1      45.611  23.867  34.711  1.00  0.00     0.127 S 
ATOM    100  O   UNL A   1      45.113  22.498  34.610  1.00  0.00    -0.237 OA
ATOM    101  O   UNL A   1      46.003  24.467  33.433  1.00  0.00    -0.237 OA
ATOM    102  O   UNL A   1      46.535  24.143  35.803  1.00  0.00    -0.744 OA
ENDBRANCH  96  99
ENDBRANCH  69  92
ENDBRANCH  43  44
ENDBRANCH  35  38
ENDBRANCH  33  34
ENDBRANCH  32  33
ENDBRANCH  31  32
ENDBRANCH   1  31
TORSDOF 19
ENDMDL
MODEL 2
REMARK VINA RESULT:     -12.0      1.626      2.042
REMARK SMILES Cc1ccc(CCC(=O)N2CCC3(CC2)[C@H](C(=O)NCCCCCCNC(=O)c2ccc(-c4c5nc(c(-c6cccc(S(=O)(=O)[O-])c6F)c6ccc([nH]6)c(-c6cccc(S(=O)(=O)[O-])c6F)c6nc(c(-c7cccc(S(=O)(=O)[O-])c7F)c7ccc4[nH]7)C=C6)C=C5)cc2)CC(=O)N3C)cc1
REMARK SMILES IDX 22 1 21 2 20 3 19 4 17 5 18 6 16 8 8 9 9 10 10 11 11 12
REMARK SMILES IDX 15 13 12 14 14 15 13 16 95 17 92 18 93 19 96 20 94 21 7 22
REMARK SMILES IDX 6 23 5 24 1 25 2 26 3 27 98 28 4 29 97 30 23 31 24 32 25 33
REMARK SMILES IDX 26 34 27 35 28 37 29 38 30 39 91 40 31 41 90 42 32 43 33 44
REMARK SMILES IDX 34 45 84 46 35 47 89 48 83 49 85 50 36 51 88 52 82 53 81 54
REMARK SMILES IDX 37 56 69 57 49 58 68 59 50 60 53 61 67 62 86 63 51 64 52 65
REMARK SMILES IDX 66 67 87 68 54 69 38 70 39 71 47 72 40 73 42 74 48 75 41 76
REMARK SMILES IDX 43 77 44 78 45 79 46 80 70 81 71 82 79 83 72 84 74 85 80 86
REMARK SMILES IDX 73 87 75 88 76 89 77 90 78 91 55 92 56 93 64 94 57 95 59 96
REMARK SMILES IDX 65 97 58 98 60 99 61 100 62 101 63 102
REMARK H PARENT 19 7 26 36 85 55 53 66
REMARK Flexibility Score: inf
ROOT
ATOM      1  C   UNL A   1      34.110  31.202  28.127  1.00  0.00     0.002 C 
ENDROOT
BRANCH   1   2
ATOM      2  C   UNL A   1      35.256  30.264  27.745  1.00  0.00     0.021 C 
BRANCH   2   3
ATOM      3  C   UNL A   1      34.804  28.861  27.327  1.00  0.00     0.116 C 
BRANCH   3   4
ATOM      4  N   UNL A   1      33.414  28.560  27.627  1.00  0.00    -0.356 N 
ATOM      5  C   UNL A   1      32.381  28.062  26.900  1.00  0.00     0.226 C 
ATOM      6  O   UNL A   1      31.342  27.816  27.524  1.00  0.00    -0.275 OA
ATOM      7  H   UNL A   1      33.168  28.759  28.560  1.00  0.00     0.163 HD
BRANCH   5   8
ATOM      8  C   UNL A   1      32.418  27.769  25.395  1.00  0.00     0.113 C 
ATOM      9  C   UNL A   1      32.194  22.588  24.627  1.00  0.00     0.222 C 
ATOM     10  O   UNL A   1      31.840  21.716  25.426  1.00  0.00    -0.275 OA
ATOM     11  N   UNL A   1      31.442  23.733  24.446  1.00  0.00    -0.343 N 
ATOM     12  C   UNL A   1      30.642  24.257  25.534  1.00  0.00     0.122 C 
ATOM     13  C   UNL A   1      31.462  24.607  23.303  1.00  0.00     0.122 C 
ATOM     14  C   UNL A   1      31.277  25.578  25.959  1.00  0.00     0.051 C 
ATOM     15  C   UNL A   1      32.167  25.920  23.644  1.00  0.00     0.051 C 
ATOM     16  C   UNL A   1      31.496  26.643  24.844  1.00  0.00     0.058 C 
ATOM     17  N   UNL A   1      30.376  27.451  24.320  1.00  0.00    -0.339 N 
ATOM     18  C   UNL A   1      32.122  29.021  24.583  1.00  0.00     0.116 C 
ATOM     19  C   UNL A   1      30.765  28.759  24.006  1.00  0.00     0.223 C 
ATOM     20  C   UNL A   1      29.126  26.946  23.784  1.00  0.00     0.147 C 
ATOM     21  O   UNL A   1      30.124  29.584  23.373  1.00  0.00    -0.275 OA
BRANCH   9  22
ATOM     22  C   UNL A   1      33.613  22.515  24.051  1.00  0.00     0.105 C 
BRANCH  22  23
ATOM     23  C   UNL A   1      34.654  21.526  24.602  1.00  0.00     0.045 C 
BRANCH  23  24
ATOM     24  C   UNL A   1      36.013  22.148  24.891  1.00  0.00    -0.047 A 
ATOM     25  C   UNL A   1      39.406  23.620  27.057  1.00  0.00     0.044 C 
ATOM     26  C   UNL A   1      38.315  23.176  26.129  1.00  0.00    -0.051 A 
ATOM     27  C   UNL A   1      37.240  24.019  25.831  1.00  0.00     0.004 A 
ATOM     28  C   UNL A   1      38.302  21.863  25.645  1.00  0.00     0.004 A 
ATOM     29  C   UNL A   1      36.109  23.517  25.181  1.00  0.00     0.004 A 
ATOM     30  C   UNL A   1      37.160  21.354  25.021  1.00  0.00     0.004 A 
ENDBRANCH  23  24
ENDBRANCH  22  23
ENDBRANCH   9  22
ENDBRANCH   5   8
ENDBRANCH   3   4
ENDBRANCH   2   3
ENDBRANCH   1   2
BRANCH   1  31
ATOM     31  C   UNL A   1      34.211  32.604  27.513  1.00  0.00     0.002 C 
BRANCH  31  32
ATOM     32  C   UNL A   1      33.470  33.705  28.278  1.00  0.00     0.021 C 
BRANCH  32  33
ATOM     33  C   UNL A   1      34.354  34.880  28.658  1.00  0.00     0.116 C 
BRANCH  33  34
ATOM     34  N   UNL A   1      34.490  35.044  30.094  1.00  0.00    -0.352 N 
ATOM     35  C   UNL A   1      34.955  34.171  31.046  1.00  0.00     0.251 C 
ATOM     36  H   UNL A   1      34.203  35.919  30.439  1.00  0.00     0.163 HD
ATOM     37  O   UNL A   1      34.666  34.380  32.211  1.00  0.00    -0.269 OA
BRANCH  35  38
ATOM     38  C   UNL A   1      35.931  33.100  30.677  1.00  0.00     0.039 A 
ATOM     39  C   UNL A   1      35.836  31.888  31.377  1.00  0.00     0.014 A 
ATOM     40  C   UNL A   1      37.030  33.339  29.861  1.00  0.00     0.014 A 
ATOM     41  C   UNL A   1      36.940  31.040  31.455  1.00  0.00     0.010 A 
ATOM     42  C   UNL A   1      38.151  32.556  30.008  1.00  0.00     0.010 A 
ATOM     43  C   UNL A   1      38.123  31.443  30.857  1.00  0.00    -0.014 A 
BRANCH  43  44
ATOM     44  C   UNL A   1      39.413  30.801  31.030  1.00  0.00     0.031 A 
ATOM     45  C   UNL A   1      39.689  29.534  30.331  1.00  0.00     0.074 A 
ATOM     46  C   UNL A   1      40.408  31.513  31.603  1.00  0.00     0.049 A 
ATOM     47  N   UNL A   1      40.751  28.827  30.498  1.00  0.00    -0.248 NA
ATOM     48  C   UNL A   1      38.741  28.943  29.396  1.00  0.00     0.031 C 
ATOM     49  C   UNL A   1      41.843  31.310  31.449  1.00  0.00     0.029 A 
ATOM     50  N   UNL A   1      40.302  32.440  32.646  1.00  0.00    -0.354 N 
ATOM     51  C   UNL A   1      40.766  27.857  29.517  1.00  0.00     0.074 A 
ATOM     52  C   UNL A   1      39.453  27.917  28.924  1.00  0.00     0.031 C 
ATOM     53  C   UNL A   1      42.467  31.838  32.513  1.00  0.00     0.029 A 
ATOM     54  C   UNL A   1      41.431  32.221  33.455  1.00  0.00     0.049 A 
ATOM     55  H   UNL A   1      39.589  33.104  32.783  1.00  0.00     0.167 HD
ATOM     56  C   UNL A   1      41.944  27.226  29.248  1.00  0.00     0.034 A 
ATOM     57  C   UNL A   1      41.361  31.804  34.753  1.00  0.00     0.034 A 
ATOM     58  C   UNL A   1      42.956  27.581  30.255  1.00  0.00     0.049 A 
ATOM     59  C   UNL A   1      42.128  30.520  35.015  1.00  0.00     0.074 A 
ATOM     60  C   UNL A   1      44.003  28.487  30.278  1.00  0.00     0.029 A 
ATOM     61  N   UNL A   1      42.782  27.148  31.564  1.00  0.00    -0.354 N 
ATOM     62  N   UNL A   1      42.602  29.743  34.080  1.00  0.00    -0.248 NA
ATOM     63  C   UNL A   1      42.415  30.005  36.350  1.00  0.00     0.031 C 
ATOM     64  C   UNL A   1      44.402  28.660  31.632  1.00  0.00     0.029 A 
ATOM     65  C   UNL A   1      43.621  27.834  32.425  1.00  0.00     0.049 A 
ATOM     66  H   UNL A   1      42.147  26.448  31.842  1.00  0.00     0.167 HD
ATOM     67  C   UNL A   1      43.152  28.614  34.634  1.00  0.00     0.074 A 
ATOM     68  C   UNL A   1      43.069  28.865  36.064  1.00  0.00     0.031 C 
ATOM     69  C   UNL A   1      43.578  27.564  33.859  1.00  0.00     0.034 A 
BRANCH  56  70
ATOM     70  C   UNL A   1      42.301  26.488  27.963  1.00  0.00     0.023 A 
ATOM     71  C   UNL A   1      42.102  27.186  26.748  1.00  0.00     0.012 A 
ATOM     72  C   UNL A   1      42.731  25.147  27.829  1.00  0.00     0.148 A 
ATOM     73  C   UNL A   1      42.237  26.578  25.493  1.00  0.00     0.002 A 
ATOM     74  C   UNL A   1      42.832  24.525  26.580  1.00  0.00     0.091 A 
ATOM     75  F   UNL A   1      43.101  24.452  28.902  1.00  0.00    -0.205 F 
ATOM     76  C   UNL A   1      42.579  25.238  25.408  1.00  0.00     0.022 A 
BRANCH  74  77
ATOM     77  S   UNL A   1      43.233  22.775  26.396  1.00  0.00     0.127 S 
ATOM     78  O   UNL A   1      42.906  22.535  24.990  1.00  0.00    -0.237 OA
ATOM     79  O   UNL A   1      44.662  22.746  26.702  1.00  0.00    -0.237 OA
ATOM     80  O   UNL A   1      42.385  22.054  27.339  1.00  0.00    -0.744 OA
ENDBRANCH  74  77
ENDBRANCH  56  70
BRANCH  57  81
ATOM     81  C   UNL A   1      40.127  32.250  35.463  1.00  0.00     0.023 A 
ATOM     82  C   UNL A   1      38.974  31.447  35.286  1.00  0.00     0.012 A 
ATOM     83  C   UNL A   1      40.180  33.129  36.559  1.00  0.00     0.148 A 
ATOM     84  C   UNL A   1      37.960  31.424  36.245  1.00  0.00     0.002 A 
ATOM     85  C   UNL A   1      39.161  33.102  37.512  1.00  0.00     0.091 A 
ATOM     86  F   UNL A   1      41.260  33.908  36.702  1.00  0.00    -0.205 F 
ATOM     87  C   UNL A   1      38.072  32.225  37.375  1.00  0.00     0.022 A 
BRANCH  85  88
ATOM     88  S   UNL A   1      39.239  34.066  39.029  1.00  0.00     0.127 S 
ATOM     89  O   UNL A   1      40.492  33.593  39.611  1.00  0.00    -0.237 OA
ATOM     90  O   UNL A   1      39.275  35.437  38.524  1.00  0.00    -0.237 OA
ATOM     91  O   UNL A   1      38.024  33.728  39.755  1.00  0.00    -0.744 OA
ENDBRANCH  85  88
ENDBRANCH  57  81
BRANCH  69  92
ATOM     92  C   UNL A   1      43.972  26.174  34.349  1.00  0.00     0.023 A 
ATOM     93  C   UNL A   1      43.044  25.127  34.500  1.00  0.00     0.012 A 
ATOM     94  C   UNL A   1      45.340  25.825  34.537  1.00  0.00     0.148 A 
ATOM     95  C   UNL A   1      43.432  23.826  34.849  1.00  0.00     0.002 A 
ATOM     96  C   UNL A   1      45.730  24.509  34.772  1.00  0.00     0.091 A 
ATOM     97  F   UNL A   1      46.286  26.775  34.511  1.00  0.00    -0.205 F 
ATOM     98  C   UNL A   1      44.777  23.509  34.958  1.00  0.00     0.022 A 
BRANCH  96  99
ATOM     99  S   UNL A   1      47.463  24.032  34.675  1.00  0.00     0.127 S 
ATOM    100  O   UNL A   1      47.379  22.574  34.628  1.00  0.00    -0.237 OA
ATOM    101  O   UNL A   1      47.895  24.655  33.421  1.00  0.00    -0.237 OA
ATOM    102  O   UNL A   1      48.074  24.609  35.864  1.00  0.00    -0.744 OA
ENDBRANCH  96  99
ENDBRANCH  69  92
ENDBRANCH  43  44
ENDBRANCH  35  38
ENDBRANCH  33  34
ENDBRANCH  32  33
ENDBRANCH  31  32
ENDBRANCH   1  31
TORSDOF 19
ENDMDL
MODEL 3
REMARK VINA RESULT:     -11.9      4.646     10.380
REMARK SMILES Cc1ccc(CCC(=O)N2CCC3(CC2)[C@H](C(=O)NCCCCCCNC(=O)c2ccc(-c4c5nc(c(-c6cccc(S(=O)(=O)[O-])c6F)c6ccc([nH]6)c(-c6cccc(S(=O)(=O)[O-])c6F)c6nc(c(-c7cccc(S(=O)(=O)[O-])c7F)c7ccc4[nH]7)C=C6)C=C5)cc2)CC(=O)N3C)cc1
REMARK SMILES IDX 22 1 21 2 20 3 19 4 17 5 18 6 16 8 8 9 9 10 10 11 11 12
REMARK SMILES IDX 15 13 12 14 14 15 13 16 95 17 92 18 93 19 96 20 94 21 7 22
REMARK SMILES IDX 6 23 5 24 1 25 2 26 3 27 98 28 4 29 97 30 23 31 24 32 25 33
REMARK SMILES IDX 26 34 27 35 28 37 29 38 30 39 91 40 31 41 90 42 32 43 33 44
REMARK SMILES IDX 34 45 84 46 35 47 89 48 83 49 85 50 36 51 88 52 82 53 81 54
REMARK SMILES IDX 37 56 69 57 49 58 68 59 50 60 53 61 67 62 86 63 51 64 52 65
REMARK SMILES IDX 66 67 87 68 54 69 38 70 39 71 47 72 40 73 42 74 48 75 41 76
REMARK SMILES IDX 43 77 44 78 45 79 46 80 70 81 71 82 79 83 72 84 74 85 80 86
REMARK SMILES IDX 73 87 75 88 76 89 77 90 78 91 55 92 56 93 64 94 57 95 59 96
REMARK SMILES IDX 65 97 58 98 60 99 61 100 62 101 63 102
REMARK H PARENT 19 7 26 36 85 55 53 66
REMARK Flexibility Score: inf
ROOT
ATOM      1  C   UNL A   1      36.443  22.313  23.995  1.00  0.00     0.002 C 
ENDROOT
BRANCH   1   2
ATOM      2  C   UNL A   1      35.839  21.393  25.056  1.00  0.00     0.021 C 
BRANCH   2   3
ATOM      3  C   UNL A   1      34.322  21.542  25.222  1.00  0.00     0.116 C 
BRANCH   3   4
ATOM      4  N   UNL A   1      33.912  22.656  26.060  1.00  0.00    -0.356 N 
ATOM      5  C   UNL A   1      32.910  23.569  25.987  1.00  0.00     0.226 C 
ATOM      6  O   UNL A   1      32.782  24.319  26.962  1.00  0.00    -0.275 OA
ATOM      7  H   UNL A   1      34.484  22.773  26.853  1.00  0.00     0.163 HD
BRANCH   5   8
ATOM      8  C   UNL A   1      31.933  23.719  24.815  1.00  0.00     0.113 C 
ATOM      9  C   UNL A   1      32.612  28.413  22.578  1.00  0.00     0.222 C 
ATOM     10  O   UNL A   1      33.575  29.176  22.693  1.00  0.00    -0.275 OA
ATOM     11  N   UNL A   1      32.799  27.066  22.327  1.00  0.00    -0.343 N 
ATOM     12  C   UNL A   1      33.996  26.399  22.796  1.00  0.00     0.122 C 
ATOM     13  C   UNL A   1      31.844  26.154  21.756  1.00  0.00     0.122 C 
ATOM     14  C   UNL A   1      33.564  25.423  23.886  1.00  0.00     0.051 C 
ATOM     15  C   UNL A   1      31.307  25.201  22.825  1.00  0.00     0.051 C 
ATOM     16  C   UNL A   1      32.447  24.403  23.514  1.00  0.00     0.058 C 
ATOM     17  N   UNL A   1      32.735  23.214  22.686  1.00  0.00    -0.339 N 
ATOM     18  C   UNL A   1      31.350  22.375  24.407  1.00  0.00     0.116 C 
ATOM     19  C   UNL A   1      31.985  22.098  23.079  1.00  0.00     0.223 C 
ATOM     20  C   UNL A   1      33.369  23.205  21.382  1.00  0.00     0.147 C 
ATOM     21  O   UNL A   1      31.853  21.049  22.468  1.00  0.00    -0.275 OA
BRANCH   9  22
ATOM     22  C   UNL A   1      31.226  28.919  22.996  1.00  0.00     0.105 C 
BRANCH  22  23
ATOM     23  C   UNL A   1      30.651  28.626  24.391  1.00  0.00     0.045 C 
BRANCH  23  24
ATOM     24  C   UNL A   1      31.639  28.830  25.530  1.00  0.00    -0.047 A 
ATOM     25  C   UNL A   1      35.346  29.329  27.625  1.00  0.00     0.044 C 
ATOM     26  C   UNL A   1      33.959  29.157  27.080  1.00  0.00    -0.051 A 
ATOM     27  C   UNL A   1      33.422  27.882  26.877  1.00  0.00     0.004 A 
ATOM     28  C   UNL A   1      33.233  30.275  26.654  1.00  0.00     0.004 A 
ATOM     29  C   UNL A   1      32.247  27.722  26.138  1.00  0.00     0.004 A 
ATOM     30  C   UNL A   1      32.074  30.112  25.892  1.00  0.00     0.004 A 
ENDBRANCH  23  24
ENDBRANCH  22  23
ENDBRANCH   9  22
ENDBRANCH   5   8
ENDBRANCH   3   4
ENDBRANCH   2   3
ENDBRANCH   1   2
BRANCH   1  31
ATOM     31  C   UNL A   1      37.146  23.553  24.562  1.00  0.00     0.002 C 
BRANCH  31  32
ATOM     32  C   UNL A   1      37.361  23.543  26.079  1.00  0.00     0.021 C 
BRANCH  32  33
ATOM     33  C   UNL A   1      38.801  23.803  26.489  1.00  0.00     0.116 C 
BRANCH  33  34
ATOM     34  N   UNL A   1      39.659  22.648  26.302  1.00  0.00    -0.352 N 
ATOM     35  C   UNL A   1      41.020  22.569  26.152  1.00  0.00     0.251 C 
ATOM     36  H   UNL A   1      39.188  21.783  26.281  1.00  0.00     0.163 HD
ATOM     37  O   UNL A   1      41.490  21.552  25.672  1.00  0.00    -0.269 OA
BRANCH  35  38
ATOM     38  C   UNL A   1      41.907  23.629  26.722  1.00  0.00     0.039 A 
ATOM     39  C   UNL A   1      42.106  23.611  28.111  1.00  0.00     0.014 A 
ATOM     40  C   UNL A   1      42.333  24.725  25.981  1.00  0.00     0.014 A 
ATOM     41  C   UNL A   1      42.495  24.773  28.774  1.00  0.00     0.010 A 
ATOM     42  C   UNL A   1      42.627  25.898  26.636  1.00  0.00     0.010 A 
ATOM     43  C   UNL A   1      42.644  25.935  28.034  1.00  0.00    -0.014 A 
BRANCH  43  44
ATOM     44  C   UNL A   1      42.821  27.266  28.587  1.00  0.00     0.031 A 
ATOM     45  C   UNL A   1      41.643  28.128  28.786  1.00  0.00     0.074 A 
ATOM     46  C   UNL A   1      44.012  27.570  29.147  1.00  0.00     0.049 A 
ATOM     47  N   UNL A   1      41.696  29.357  29.164  1.00  0.00    -0.248 NA
ATOM     48  C   UNL A   1      40.288  27.659  28.531  1.00  0.00     0.031 C 
ATOM     49  C   UNL A   1      44.279  28.582  30.161  1.00  0.00     0.029 A 
ATOM     50  N   UNL A   1      45.282  27.161  28.727  1.00  0.00    -0.354 N 
ATOM     51  C   UNL A   1      40.412  29.757  29.468  1.00  0.00     0.074 A 
ATOM     52  C   UNL A   1      39.572  28.697  28.967  1.00  0.00     0.031 C 
ATOM     53  C   UNL A   1      45.574  28.929  30.089  1.00  0.00     0.029 A 
ATOM     54  C   UNL A   1      46.113  28.281  28.907  1.00  0.00     0.049 A 
ATOM     55  H   UNL A   1      45.539  26.277  28.379  1.00  0.00     0.167 HD
ATOM     56  C   UNL A   1      40.245  30.875  30.230  1.00  0.00     0.034 A 
ATOM     57  C   UNL A   1      46.748  28.923  27.884  1.00  0.00     0.034 A 
ATOM     58  C   UNL A   1      41.528  31.573  30.402  1.00  0.00     0.049 A 
ATOM     59  C   UNL A   1      46.409  30.401  27.799  1.00  0.00     0.074 A 
ATOM     60  C   UNL A   1      42.468  31.607  31.418  1.00  0.00     0.029 A 
ATOM     61  N   UNL A   1      42.125  32.164  29.294  1.00  0.00    -0.354 N 
ATOM     62  N   UNL A   1      45.437  30.972  28.455  1.00  0.00    -0.248 NA
ATOM     63  C   UNL A   1      47.135  31.353  26.963  1.00  0.00     0.031 C 
ATOM     64  C   UNL A   1      43.670  32.148  30.884  1.00  0.00     0.029 A 
ATOM     65  C   UNL A   1      43.448  32.474  29.555  1.00  0.00     0.049 A 
ATOM     66  H   UNL A   1      41.668  32.338  28.439  1.00  0.00     0.167 HD
ATOM     67  C   UNL A   1      45.324  32.289  28.088  1.00  0.00     0.074 A 
ATOM     68  C   UNL A   1      46.459  32.491  27.201  1.00  0.00     0.031 C 
ATOM     69  C   UNL A   1      44.280  33.071  28.514  1.00  0.00     0.034 A 
BRANCH  56  70
ATOM     70  C   UNL A   1      39.008  31.237  31.044  1.00  0.00     0.023 A 
ATOM     71  C   UNL A   1      38.946  30.742  32.368  1.00  0.00     0.012 A 
ATOM     72  C   UNL A   1      37.863  31.942  30.605  1.00  0.00     0.148 A 
ATOM     73  C   UNL A   1      37.803  30.863  33.170  1.00  0.00     0.002 A 
ATOM     74  C   UNL A   1      36.707  32.034  31.388  1.00  0.00     0.091 A 
ATOM     75  F   UNL A   1      37.877  32.584  29.439  1.00  0.00    -0.205 F 
ATOM     76  C   UNL A   1      36.673  31.489  32.672  1.00  0.00     0.022 A 
BRANCH  74  77
ATOM     77  S   UNL A   1      35.187  32.799  30.789  1.00  0.00     0.127 S 
ATOM     78  O   UNL A   1      34.256  32.524  31.884  1.00  0.00    -0.237 OA
ATOM     79  O   UNL A   1      35.572  34.203  30.656  1.00  0.00    -0.237 OA
ATOM     80  O   UNL A   1      34.851  32.129  29.537  1.00  0.00    -0.744 OA
ENDBRANCH  74  77
ENDBRANCH  56  70
BRANCH  57  81
ATOM     81  C   UNL A   1      47.093  28.035  26.736  1.00  0.00     0.023 A 
ATOM     82  C   UNL A   1      46.045  27.740  25.830  1.00  0.00     0.012 A 
ATOM     83  C   UNL A   1      48.423  27.844  26.321  1.00  0.00     0.148 A 
ATOM     84  C   UNL A   1      46.316  27.393  24.506  1.00  0.00     0.002 A 
ATOM     85  C   UNL A   1      48.685  27.494  24.995  1.00  0.00     0.091 A 
ATOM     86  F   UNL A   1      49.407  28.094  27.194  1.00  0.00    -0.205 F 
ATOM     87  C   UNL A   1      47.636  27.306  24.081  1.00  0.00     0.022 A 
BRANCH  85  88
ATOM     88  S   UNL A   1      50.358  27.402  24.340  1.00  0.00     0.127 S 
ATOM     89  O   UNL A   1      50.861  28.740  24.638  1.00  0.00    -0.237 OA
ATOM     90  O   UNL A   1      50.947  26.331  25.142  1.00  0.00    -0.237 OA
ATOM     91  O   UNL A   1      50.195  27.073  22.932  1.00  0.00    -0.744 OA
ENDBRANCH  85  88
ENDBRANCH  57  81
BRANCH  69  92
ATOM     92  C   UNL A   1      43.907  34.454  27.990  1.00  0.00     0.023 A 
ATOM     93  C   UNL A   1      43.028  34.649  26.908  1.00  0.00     0.012 A 
ATOM     94  C   UNL A   1      44.319  35.631  28.676  1.00  0.00     0.148 A 
ATOM     95  C   UNL A   1      42.610  35.924  26.502  1.00  0.00     0.002 A 
ATOM     96  C   UNL A   1      43.813  36.885  28.342  1.00  0.00     0.091 A 
ATOM     97  F   UNL A   1      45.231  35.554  29.656  1.00  0.00    -0.205 F 
ATOM     98  C   UNL A   1      42.980  37.041  27.236  1.00  0.00     0.022 A 
BRANCH  96  99
ATOM     99  S   UNL A   1      44.080  38.303  29.419  1.00  0.00     0.127 S 
ATOM    100  O   UNL A   1      45.507  38.561  29.238  1.00  0.00    -0.237 OA
ATOM    101  O   UNL A   1      43.201  39.318  28.833  1.00  0.00    -0.237 OA
ATOM    102  O   UNL A   1      43.664  37.850  30.739  1.00  0.00    -0.744 OA
ENDBRANCH  96  99
ENDBRANCH  69  92
ENDBRANCH  43  44
ENDBRANCH  35  38
ENDBRANCH  33  34
ENDBRANCH  32  33
ENDBRANCH  31  32
ENDBRANCH   1  31
TORSDOF 19
ENDMDL
