MODEL 1
REMARK VINA RESULT:     -10.5      0.000      0.000
REMARK SMILES CC(C)[C@@H]([NH3+])C(=O)N[C@@H](Cc1ccccc1)C(=O)NCCCCCCNC(=O)c1ccc(-c2c3nc(c(-c4cccc(S(=O)(=O)[O-])c4F)c4ccc([nH]4)c(-c4cccc(S(=O)(=O)[O-])c4F)c4nc(c(-c5cccc(S(=O)(=O)[O-])c5F)c5ccc2[nH]5)C=C4)C=C3)cc1
REMARK SMILES IDX 22 1 21 2 20 3 19 4 17 5 18 6 9 8 8 9 6 10 7 11 4 13 2 14
REMARK SMILES IDX 1 15 3 16 5 17 10 21 11 22 12 23 16 24 13 25 15 26 14 27
REMARK SMILES IDX 23 28 24 29 25 30 26 31 27 32 28 34 29 35 30 36 91 37 31 38
REMARK SMILES IDX 90 39 32 40 33 41 34 42 84 43 35 44 89 45 83 46 85 47 36 48
REMARK SMILES IDX 88 49 82 50 81 51 37 53 69 54 49 55 68 56 50 57 53 58 67 59
REMARK SMILES IDX 86 60 51 61 52 62 66 64 87 65 54 66 38 67 39 68 47 69 40 70
REMARK SMILES IDX 42 71 48 72 41 73 43 74 44 75 45 76 46 77 70 78 71 79 79 80
REMARK SMILES IDX 72 81 74 82 80 83 73 84 75 85 76 86 77 87 78 88 55 89 56 90
REMARK SMILES IDX 64 91 57 92 59 93 65 94 58 95 60 96 61 97 62 98 63 99
REMARK H PARENT 19 7 8 12 5 18 5 19 5 20 26 33 85 52 53 63
REMARK Flexibility Score: inf
ROOT
ATOM      1  C   UNL A   1      34.154  23.233  23.077  1.00  0.00     0.002 C 
ENDROOT
BRANCH   1   2
ATOM      2  C   UNL A   1      33.136  24.022  22.251  1.00  0.00     0.021 C 
BRANCH   2   3
ATOM      3  C   UNL A   1      33.215  25.533  22.416  1.00  0.00     0.116 C 
BRANCH   3   4
ATOM      4  N   UNL A   1      32.051  26.231  21.915  1.00  0.00    -0.354 N 
ATOM      5  C   UNL A   1      31.189  27.070  22.556  1.00  0.00     0.242 C 
ATOM      6  O   UNL A   1      30.592  27.887  21.842  1.00  0.00    -0.273 OA
ATOM      7  H   UNL A   1      31.850  26.076  20.963  1.00  0.00     0.163 HD
BRANCH   5   8
ATOM      8  C   UNL A   1      31.036  27.133  24.097  1.00  0.00     0.175 C 
BRANCH   8   9
ATOM      9  N   UNL A   1      30.650  28.441  24.640  1.00  0.00    -0.339 N 
ATOM     10  C   UNL A   1      31.416  29.520  24.954  1.00  0.00     0.279 C 
ATOM     11  O   UNL A   1      30.835  30.586  25.181  1.00  0.00    -0.268 OA
ATOM     12  H   UNL A   1      29.686  28.554  24.802  1.00  0.00     0.164 HD
BRANCH  10  13
ATOM     13  C   UNL A   1      32.954  29.432  25.069  1.00  0.00     0.273 C 
BRANCH  13  14
ATOM     14  C   UNL A   1      33.413  28.333  26.060  1.00  0.00     0.051 C 
ATOM     15  C   UNL A   1      34.322  27.293  25.398  1.00  0.00     0.014 C 
ATOM     16  C   UNL A   1      34.142  28.946  27.263  1.00  0.00     0.014 C 
ENDBRANCH  13  14
BRANCH  13  17
ATOM     17  N   UNL A   1      33.537  29.293  23.718  1.00  0.00    -0.347 N 
ATOM     18  H   UNL A   1      33.853  30.205  23.388  1.00  0.00     0.345 HD
ATOM     19  H   UNL A   1      32.831  28.925  23.079  1.00  0.00     0.345 HD
ATOM     20  H   UNL A   1      34.330  28.651  23.755  1.00  0.00     0.345 HD
ENDBRANCH  13  17
ENDBRANCH  10  13
ENDBRANCH   8   9
BRANCH   8  21
ATOM     21  C   UNL A   1      30.218  25.964  24.682  1.00  0.00     0.070 C 
BRANCH  21  22
ATOM     22  C   UNL A   1      30.982  24.806  25.275  1.00  0.00    -0.045 A 
ATOM     23  C   UNL A   1      30.768  23.494  24.831  1.00  0.00     0.004 A 
ATOM     24  C   UNL A   1      31.923  25.034  26.292  1.00  0.00     0.004 A 
ATOM     25  C   UNL A   1      31.505  22.437  25.367  1.00  0.00     0.000 A 
ATOM     26  C   UNL A   1      32.653  23.974  26.832  1.00  0.00     0.000 A 
ATOM     27  C   UNL A   1      32.448  22.677  26.366  1.00  0.00     0.000 A 
ENDBRANCH  21  22
ENDBRANCH   8  21
ENDBRANCH   5   8
ENDBRANCH   3   4
ENDBRANCH   2   3
ENDBRANCH   1   2
BRANCH   1  28
ATOM     28  C   UNL A   1      35.047  24.056  24.013  1.00  0.00     0.002 C 
BRANCH  28  29
ATOM     29  C   UNL A   1      36.423  23.465  24.334  1.00  0.00     0.021 C 
BRANCH  29  30
ATOM     30  C   UNL A   1      36.726  23.255  25.812  1.00  0.00     0.116 C 
BRANCH  30  31
ATOM     31  N   UNL A   1      37.843  22.355  26.031  1.00  0.00    -0.352 N 
ATOM     32  C   UNL A   1      39.112  22.623  26.471  1.00  0.00     0.251 C 
ATOM     33  H   UNL A   1      37.661  21.408  25.832  1.00  0.00     0.163 HD
ATOM     34  O   UNL A   1      39.954  21.725  26.454  1.00  0.00    -0.269 OA
BRANCH  32  35
ATOM     35  C   UNL A   1      39.486  23.975  26.950  1.00  0.00     0.039 A 
ATOM     36  C   UNL A   1      40.058  24.865  26.037  1.00  0.00     0.014 A 
ATOM     37  C   UNL A   1      39.332  24.354  28.286  1.00  0.00     0.014 A 
ATOM     38  C   UNL A   1      40.456  26.135  26.456  1.00  0.00     0.010 A 
ATOM     39  C   UNL A   1      39.661  25.650  28.687  1.00  0.00     0.010 A 
ATOM     40  C   UNL A   1      40.251  26.544  27.784  1.00  0.00    -0.014 A 
BRANCH  40  41
ATOM     41  C   UNL A   1      40.685  27.890  28.237  1.00  0.00     0.031 A 
ATOM     42  C   UNL A   1      42.144  28.267  28.216  1.00  0.00     0.074 A 
ATOM     43  C   UNL A   1      39.772  28.762  28.708  1.00  0.00     0.049 A 
ATOM     44  N   UNL A   1      42.708  29.400  28.549  1.00  0.00    -0.248 NA
ATOM     45  C   UNL A   1      43.099  27.229  27.793  1.00  0.00     0.031 C 
ATOM     46  C   UNL A   1      38.343  28.488  28.862  1.00  0.00     0.029 A 
ATOM     47  N   UNL A   1      39.914  30.052  29.157  1.00  0.00    -0.354 N 
ATOM     48  C   UNL A   1      44.076  29.203  28.406  1.00  0.00     0.074 A 
ATOM     49  C   UNL A   1      44.263  27.828  27.996  1.00  0.00     0.031 C 
ATOM     50  C   UNL A   1      37.736  29.578  29.357  1.00  0.00     0.029 A 
ATOM     51  C   UNL A   1      38.733  30.624  29.570  1.00  0.00     0.049 A 
ATOM     52  H   UNL A   1      40.778  30.521  29.182  1.00  0.00     0.167 HD
ATOM     53  C   UNL A   1      45.085  30.093  28.564  1.00  0.00     0.034 A 
ATOM     54  C   UNL A   1      38.481  31.855  30.055  1.00  0.00     0.034 A 
ATOM     55  C   UNL A   1      44.892  31.472  28.918  1.00  0.00     0.049 A 
ATOM     56  C   UNL A   1      39.611  32.845  30.156  1.00  0.00     0.074 A 
ATOM     57  C   UNL A   1      45.838  32.479  29.009  1.00  0.00     0.029 A 
ATOM     58  N   UNL A   1      43.671  32.042  29.241  1.00  0.00    -0.354 N 
ATOM     59  N   UNL A   1      40.875  32.690  29.845  1.00  0.00    -0.248 NA
ATOM     60  C   UNL A   1      39.270  34.194  30.632  1.00  0.00     0.031 C 
ATOM     61  C   UNL A   1      45.189  33.655  29.402  1.00  0.00     0.029 A 
ATOM     62  C   UNL A   1      43.836  33.384  29.538  1.00  0.00     0.049 A 
ATOM     63  H   UNL A   1      42.811  31.563  29.256  1.00  0.00     0.167 HD
ATOM     64  C   UNL A   1      41.474  33.926  30.060  1.00  0.00     0.074 A 
ATOM     65  C   UNL A   1      40.427  34.826  30.497  1.00  0.00     0.031 C 
ATOM     66  C   UNL A   1      42.777  34.280  29.926  1.00  0.00     0.034 A 
BRANCH  53  67
ATOM     67  C   UNL A   1      46.488  29.614  28.288  1.00  0.00     0.023 A 
ATOM     68  C   UNL A   1      47.068  29.860  27.026  1.00  0.00     0.012 A 
ATOM     69  C   UNL A   1      47.249  28.971  29.284  1.00  0.00     0.148 A 
ATOM     70  C   UNL A   1      48.368  29.442  26.746  1.00  0.00     0.002 A 
ATOM     71  C   UNL A   1      48.560  28.594  29.010  1.00  0.00     0.091 A 
ATOM     72  F   UNL A   1      46.675  28.725  30.470  1.00  0.00    -0.205 F 
ATOM     73  C   UNL A   1      49.117  28.819  27.740  1.00  0.00     0.022 A 
BRANCH  71  74
ATOM     74  S   UNL A   1      49.633  27.855  30.248  1.00  0.00     0.127 S 
ATOM     75  O   UNL A   1      49.623  28.877  31.294  1.00  0.00    -0.237 OA
ATOM     76  O   UNL A   1      48.910  26.628  30.589  1.00  0.00    -0.237 OA
ATOM     77  O   UNL A   1      50.913  27.641  29.592  1.00  0.00    -0.744 OA
ENDBRANCH  71  74
ENDBRANCH  53  67
BRANCH  54  78
ATOM     78  C   UNL A   1      37.085  32.246  30.399  1.00  0.00     0.023 A 
ATOM     79  C   UNL A   1      36.619  32.055  31.715  1.00  0.00     0.012 A 
ATOM     80  C   UNL A   1      36.230  32.832  29.447  1.00  0.00     0.148 A 
ATOM     81  C   UNL A   1      35.317  32.410  32.068  1.00  0.00     0.002 A 
ATOM     82  C   UNL A   1      34.952  33.235  29.819  1.00  0.00     0.091 A 
ATOM     83  F   UNL A   1      36.687  32.994  28.197  1.00  0.00    -0.205 F 
ATOM     84  C   UNL A   1      34.488  33.009  31.123  1.00  0.00     0.022 A 
BRANCH  82  85
ATOM     85  S   UNL A   1      33.869  34.134  28.704  1.00  0.00     0.127 S 
ATOM     86  O   UNL A   1      32.882  34.690  29.628  1.00  0.00    -0.237 OA
ATOM     87  O   UNL A   1      34.784  35.118  28.119  1.00  0.00    -0.237 OA
ATOM     88  O   UNL A   1      33.372  33.148  27.760  1.00  0.00    -0.744 OA
ENDBRANCH  82  85
ENDBRANCH  54  78
BRANCH  66  89
ATOM     89  C   UNL A   1      43.145  35.707  30.239  1.00  0.00     0.023 A 
ATOM     90  C   UNL A   1      43.674  36.027  31.505  1.00  0.00     0.012 A 
ATOM     91  C   UNL A   1      43.024  36.716  29.264  1.00  0.00     0.148 A 
ATOM     92  C   UNL A   1      44.042  37.337  31.809  1.00  0.00     0.002 A 
ATOM     93  C   UNL A   1      43.437  38.011  29.558  1.00  0.00     0.091 A 
ATOM     94  F   UNL A   1      42.500  36.397  28.072  1.00  0.00    -0.205 F 
ATOM     95  C   UNL A   1      43.935  38.325  30.833  1.00  0.00     0.022 A 
BRANCH  93  96
ATOM     96  S   UNL A   1      43.423  39.321  28.330  1.00  0.00     0.127 S 
ATOM     97  O   UNL A   1      44.251  38.745  27.270  1.00  0.00    -0.237 OA
ATOM     98  O   UNL A   1      42.002  39.429  28.001  1.00  0.00    -0.237 OA
ATOM     99  O   UNL A   1      43.977  40.493  28.994  1.00  0.00    -0.744 OA
ENDBRANCH  93  96
ENDBRANCH  66  89
ENDBRANCH  40  41
ENDBRANCH  32  35
ENDBRANCH  30  31
ENDBRANCH  29  30
ENDBRANCH  28  29
ENDBRANCH   1  28
TORSDOF 22
ENDMDL
MODEL 2
REMARK VINA RESULT:     -10.2      1.872      2.238
REMARK SMILES CC(C)[C@@H]([NH3+])C(=O)N[C@@H](Cc1ccccc1)C(=O)NCCCCCCNC(=O)c1ccc(-c2c3nc(c(-c4cccc(S(=O)(=O)[O-])c4F)c4ccc([nH]4)c(-c4cccc(S(=O)(=O)[O-])c4F)c4nc(c(-c5cccc(S(=O)(=O)[O-])c5F)c5ccc2[nH]5)C=C4)C=C3)cc1
REMARK SMILES IDX 22 1 21 2 20 3 19 4 17 5 18 6 9 8 8 9 6 10 7 11 4 13 2 14
REMARK SMILES IDX 1 15 3 16 5 17 10 21 11 22 12 23 16 24 13 25 15 26 14 27
REMARK SMILES IDX 23 28 24 29 25 30 26 31 27 32 28 34 29 35 30 36 91 37 31 38
REMARK SMILES IDX 90 39 32 40 33 41 34 42 84 43 35 44 89 45 83 46 85 47 36 48
REMARK SMILES IDX 88 49 82 50 81 51 37 53 69 54 49 55 68 56 50 57 53 58 67 59
REMARK SMILES IDX 86 60 51 61 52 62 66 64 87 65 54 66 38 67 39 68 47 69 40 70
REMARK SMILES IDX 42 71 48 72 41 73 43 74 44 75 45 76 46 77 70 78 71 79 79 80
REMARK SMILES IDX 72 81 74 82 80 83 73 84 75 85 76 86 77 87 78 88 55 89 56 90
REMARK SMILES IDX 64 91 57 92 59 93 65 94 58 95 60 96 61 97 62 98 63 99
REMARK H PARENT 19 7 8 12 5 18 5 19 5 20 26 33 85 52 53 63
REMARK Flexibility Score: inf
ROOT
ATOM      1  C   UNL A   1      34.509  23.145  23.605  1.00  0.00     0.002 C 
ENDROOT
BRANCH   1   2
ATOM      2  C   UNL A   1      33.723  23.869  22.509  1.00  0.00     0.021 C 
BRANCH   2   3
ATOM      3  C   UNL A   1      33.490  25.351  22.765  1.00  0.00     0.116 C 
BRANCH   3   4
ATOM      4  N   UNL A   1      32.328  25.880  22.083  1.00  0.00    -0.354 N 
ATOM      5  C   UNL A   1      31.355  26.721  22.534  1.00  0.00     0.242 C 
ATOM      6  O   UNL A   1      30.767  27.387  21.670  1.00  0.00    -0.273 OA
ATOM      7  H   UNL A   1      32.224  25.586  21.149  1.00  0.00     0.163 HD
BRANCH   5   8
ATOM      8  C   UNL A   1      31.061  26.972  24.035  1.00  0.00     0.175 C 
BRANCH   8   9
ATOM      9  N   UNL A   1      30.592  28.322  24.369  1.00  0.00    -0.339 N 
ATOM     10  C   UNL A   1      31.294  29.428  24.735  1.00  0.00     0.279 C 
ATOM     11  O   UNL A   1      30.695  30.508  24.744  1.00  0.00    -0.268 OA
ATOM     12  H   UNL A   1      29.616  28.446  24.321  1.00  0.00     0.164 HD
BRANCH  10  13
ATOM     13  C   UNL A   1      32.775  29.357  25.169  1.00  0.00     0.273 C 
BRANCH  13  14
ATOM     14  C   UNL A   1      33.003  28.367  26.340  1.00  0.00     0.051 C 
ATOM     15  C   UNL A   1      34.379  28.541  26.990  1.00  0.00     0.014 C 
ATOM     16  C   UNL A   1      31.917  28.523  27.411  1.00  0.00     0.014 C 
ENDBRANCH  13  14
BRANCH  13  17
ATOM     17  N   UNL A   1      33.617  29.081  23.987  1.00  0.00    -0.347 N 
ATOM     18  H   UNL A   1      34.534  28.754  24.290  1.00  0.00     0.345 HD
ATOM     19  H   UNL A   1      33.724  29.935  23.438  1.00  0.00     0.345 HD
ATOM     20  H   UNL A   1      33.172  28.363  23.413  1.00  0.00     0.345 HD
ENDBRANCH  13  17
ENDBRANCH  10  13
ENDBRANCH   8   9
BRANCH   8  21
ATOM     21  C   UNL A   1      30.226  25.856  24.692  1.00  0.00     0.070 C 
BRANCH  21  22
ATOM     22  C   UNL A   1      30.972  24.694  25.303  1.00  0.00    -0.045 A 
ATOM     23  C   UNL A   1      31.838  24.881  26.389  1.00  0.00     0.004 A 
ATOM     24  C   UNL A   1      30.807  23.402  24.780  1.00  0.00     0.004 A 
ATOM     25  C   UNL A   1      32.497  23.793  26.963  1.00  0.00     0.000 A 
ATOM     26  C   UNL A   1      31.474  22.316  25.351  1.00  0.00     0.000 A 
ATOM     27  C   UNL A   1      32.313  22.511  26.445  1.00  0.00     0.000 A 
ENDBRANCH  21  22
ENDBRANCH   8  21
ENDBRANCH   5   8
ENDBRANCH   3   4
ENDBRANCH   2   3
ENDBRANCH   1   2
BRANCH   1  28
ATOM     28  C   UNL A   1      35.240  24.039  24.613  1.00  0.00     0.002 C 
BRANCH  28  29
ATOM     29  C   UNL A   1      36.723  23.732  24.843  1.00  0.00     0.021 C 
BRANCH  29  30
ATOM     30  C   UNL A   1      37.055  23.002  26.139  1.00  0.00     0.116 C 
BRANCH  30  31
ATOM     31  N   UNL A   1      38.258  22.198  26.034  1.00  0.00    -0.352 N 
ATOM     32  C   UNL A   1      39.562  22.535  26.285  1.00  0.00     0.251 C 
ATOM     33  H   UNL A   1      38.116  21.270  25.737  1.00  0.00     0.163 HD
ATOM     34  O   UNL A   1      40.453  21.736  25.997  1.00  0.00    -0.269 OA
BRANCH  32  35
ATOM     35  C   UNL A   1      39.912  23.847  26.879  1.00  0.00     0.039 A 
ATOM     36  C   UNL A   1      40.088  24.936  26.021  1.00  0.00     0.014 A 
ATOM     37  C   UNL A   1      40.123  24.004  28.252  1.00  0.00     0.014 A 
ATOM     38  C   UNL A   1      40.452  26.180  26.538  1.00  0.00     0.010 A 
ATOM     39  C   UNL A   1      40.413  25.265  28.776  1.00  0.00     0.010 A 
ATOM     40  C   UNL A   1      40.608  26.359  27.922  1.00  0.00    -0.014 A 
BRANCH  40  41
ATOM     41  C   UNL A   1      41.009  27.678  28.475  1.00  0.00     0.031 A 
ATOM     42  C   UNL A   1      42.466  28.033  28.617  1.00  0.00     0.074 A 
ATOM     43  C   UNL A   1      40.063  28.543  28.889  1.00  0.00     0.049 A 
ATOM     44  N   UNL A   1      43.005  29.143  29.054  1.00  0.00    -0.248 NA
ATOM     45  C   UNL A   1      43.447  27.000  28.247  1.00  0.00     0.031 C 
ATOM     46  C   UNL A   1      38.622  28.284  28.887  1.00  0.00     0.029 A 
ATOM     47  N   UNL A   1      40.171  29.810  29.406  1.00  0.00    -0.354 N 
ATOM     48  C   UNL A   1      44.379  28.931  29.040  1.00  0.00     0.074 A 
ATOM     49  C   UNL A   1      44.592  27.573  28.591  1.00  0.00     0.031 C 
ATOM     50  C   UNL A   1      37.980  29.362  29.366  1.00  0.00     0.029 A 
ATOM     51  C   UNL A   1      38.962  30.382  29.724  1.00  0.00     0.049 A 
ATOM     52  H   UNL A   1      41.034  30.265  29.538  1.00  0.00     0.167 HD
ATOM     53  C   UNL A   1      45.377  29.798  29.337  1.00  0.00     0.034 A 
ATOM     54  C   UNL A   1      38.675  31.595  30.234  1.00  0.00     0.034 A 
ATOM     55  C   UNL A   1      45.163  31.164  29.730  1.00  0.00     0.049 A 
ATOM     56  C   UNL A   1      39.799  32.563  30.491  1.00  0.00     0.074 A 
ATOM     57  C   UNL A   1      46.107  32.152  29.959  1.00  0.00     0.029 A 
ATOM     58  N   UNL A   1      43.922  31.738  29.954  1.00  0.00    -0.354 N 
ATOM     59  N   UNL A   1      41.087  32.402  30.302  1.00  0.00    -0.248 NA
ATOM     60  C   UNL A   1      39.427  33.895  30.988  1.00  0.00     0.031 C 
ATOM     61  C   UNL A   1      45.433  33.320  30.336  1.00  0.00     0.029 A 
ATOM     62  C   UNL A   1      44.071  33.064  30.324  1.00  0.00     0.049 A 
ATOM     63  H   UNL A   1      43.060  31.272  29.861  1.00  0.00     0.167 HD
ATOM     64  C   UNL A   1      41.675  33.619  30.629  1.00  0.00     0.074 A 
ATOM     65  C   UNL A   1      40.598  34.516  30.998  1.00  0.00     0.031 C 
ATOM     66  C   UNL A   1      42.988  33.959  30.642  1.00  0.00     0.034 A 
BRANCH  53  67
ATOM     67  C   UNL A   1      46.795  29.311  29.183  1.00  0.00     0.023 A 
ATOM     68  C   UNL A   1      47.472  28.787  30.304  1.00  0.00     0.012 A 
ATOM     69  C   UNL A   1      47.439  29.321  27.931  1.00  0.00     0.148 A 
ATOM     70  C   UNL A   1      48.779  28.315  30.190  1.00  0.00     0.002 A 
ATOM     71  C   UNL A   1      48.728  28.810  27.817  1.00  0.00     0.091 A 
ATOM     72  F   UNL A   1      46.789  29.843  26.881  1.00  0.00    -0.205 F 
ATOM     73  C   UNL A   1      49.403  28.318  28.946  1.00  0.00     0.022 A 
BRANCH  71  74
ATOM     74  S   UNL A   1      49.588  28.697  26.243  1.00  0.00     0.127 S 
ATOM     75  O   UNL A   1      50.146  30.043  26.116  1.00  0.00    -0.237 OA
ATOM     76  O   UNL A   1      50.578  27.650  26.506  1.00  0.00    -0.237 OA
ATOM     77  O   UNL A   1      48.578  28.342  25.258  1.00  0.00    -0.744 OA
ENDBRANCH  71  74
ENDBRANCH  53  67
BRANCH  54  78
ATOM     78  C   UNL A   1      37.256  31.992  30.453  1.00  0.00     0.023 A 
ATOM     79  C   UNL A   1      36.671  31.795  31.720  1.00  0.00     0.012 A 
ATOM     80  C   UNL A   1      36.494  32.590  29.431  1.00  0.00     0.148 A 
ATOM     81  C   UNL A   1      35.345  32.155  31.956  1.00  0.00     0.002 A 
ATOM     82  C   UNL A   1      35.189  32.998  29.689  1.00  0.00     0.091 A 
ATOM     83  F   UNL A   1      37.063  32.758  28.229  1.00  0.00    -0.205 F 
ATOM     84  C   UNL A   1      34.608  32.766  30.944  1.00  0.00     0.022 A 
BRANCH  82  85
ATOM     85  S   UNL A   1      34.217  33.912  28.487  1.00  0.00     0.127 S 
ATOM     86  O   UNL A   1      35.071  35.071  28.232  1.00  0.00    -0.237 OA
ATOM     87  O   UNL A   1      34.130  32.958  27.378  1.00  0.00    -0.237 OA
ATOM     88  O   UNL A   1      32.948  34.188  29.138  1.00  0.00    -0.744 OA
ENDBRANCH  82  85
ENDBRANCH  54  78
BRANCH  66  89
ATOM     89  C   UNL A   1      43.337  35.365  31.052  1.00  0.00     0.023 A 
ATOM     90  C   UNL A   1      43.567  36.342  30.064  1.00  0.00     0.012 A 
ATOM     91  C   UNL A   1      43.378  35.732  32.412  1.00  0.00     0.148 A 
ATOM     92  C   UNL A   1      43.869  37.655  30.422  1.00  0.00     0.002 A 
ATOM     93  C   UNL A   1      43.634  37.054  32.760  1.00  0.00     0.091 A 
ATOM     94  F   UNL A   1      43.178  34.785  33.339  1.00  0.00    -0.205 F 
ATOM     95  C   UNL A   1      43.891  38.014  31.768  1.00  0.00     0.022 A 
BRANCH  93  96
ATOM     96  S   UNL A   1      43.586  37.620  34.464  1.00  0.00     0.127 S 
ATOM     97  O   UNL A   1      43.748  39.065  34.303  1.00  0.00    -0.237 OA
ATOM     98  O   UNL A   1      42.252  37.202  34.897  1.00  0.00    -0.237 OA
ATOM     99  O   UNL A   1      44.678  36.935  35.141  1.00  0.00    -0.744 OA
ENDBRANCH  93  96
ENDBRANCH  66  89
ENDBRANCH  40  41
ENDBRANCH  32  35
ENDBRANCH  30  31
ENDBRANCH  29  30
ENDBRANCH  28  29
ENDBRANCH   1  28
TORSDOF 22
ENDMDL
MODEL 3
REMARK VINA RESULT:     -10.2      4.360      9.500
REMARK SMILES CC(C)[C@@H]([NH3+])C(=O)N[C@@H](Cc1ccccc1)C(=O)NCCCCCCNC(=O)c1ccc(-c2c3nc(c(-c4cccc(S(=O)(=O)[O-])c4F)c4ccc([nH]4)c(-c4cccc(S(=O)(=O)[O-])c4F)c4nc(c(-c5cccc(S(=O)(=O)[O-])c5F)c5ccc2[nH]5)C=C4)C=C3)cc1
REMARK SMILES IDX 22 1 21 2 20 3 19 4 17 5 18 6 9 8 8 9 6 10 7 11 4 13 2 14
REMARK SMILES IDX 1 15 3 16 5 17 10 21 11 22 12 23 16 24 13 25 15 26 14 27
REMARK SMILES IDX 23 28 24 29 25 30 26 31 27 32 28 34 29 35 30 36 91 37 31 38
REMARK SMILES IDX 90 39 32 40 33 41 34 42 84 43 35 44 89 45 83 46 85 47 36 48
REMARK SMILES IDX 88 49 82 50 81 51 37 53 69 54 49 55 68 56 50 57 53 58 67 59
REMARK SMILES IDX 86 60 51 61 52 62 66 64 87 65 54 66 38 67 39 68 47 69 40 70
REMARK SMILES IDX 42 71 48 72 41 73 43 74 44 75 45 76 46 77 70 78 71 79 79 80
REMARK SMILES IDX 72 81 74 82 80 83 73 84 75 85 76 86 77 87 78 88 55 89 56 90
REMARK SMILES IDX 64 91 57 92 59 93 65 94 58 95 60 96 61 97 62 98 63 99
REMARK H PARENT 19 7 8 12 5 18 5 19 5 20 26 33 85 52 53 63
REMARK Flexibility Score: inf
ROOT
ATOM      1  C   UNL A   1      32.765  25.338  26.280  1.00  0.00     0.002 C 
ENDROOT
BRANCH   1   2
ATOM      2  C   UNL A   1      34.200  24.869  26.032  1.00  0.00     0.021 C 
BRANCH   2   3
ATOM      3  C   UNL A   1      34.608  23.627  26.813  1.00  0.00     0.116 C 
BRANCH   3   4
ATOM      4  N   UNL A   1      35.348  22.666  26.024  1.00  0.00    -0.354 N 
ATOM      5  C   UNL A   1      35.048  22.103  24.820  1.00  0.00     0.242 C 
ATOM      6  O   UNL A   1      36.011  21.706  24.149  1.00  0.00    -0.273 OA
ATOM      7  H   UNL A   1      36.201  22.372  26.419  1.00  0.00     0.163 HD
BRANCH   5   8
ATOM      8  C   UNL A   1      33.621  22.069  24.218  1.00  0.00     0.175 C 
BRANCH   8   9
ATOM      9  N   UNL A   1      33.540  22.294  22.770  1.00  0.00    -0.339 N 
ATOM     10  C   UNL A   1      33.089  23.372  22.074  1.00  0.00     0.279 C 
ATOM     11  O   UNL A   1      33.333  23.415  20.865  1.00  0.00    -0.268 OA
ATOM     12  H   UNL A   1      33.863  21.547  22.215  1.00  0.00     0.164 HD
BRANCH  10  13
ATOM     13  C   UNL A   1      32.262  24.495  22.741  1.00  0.00     0.273 C 
BRANCH  13  14
ATOM     14  C   UNL A   1      32.381  25.845  21.989  1.00  0.00     0.051 C 
ATOM     15  C   UNL A   1      31.165  26.747  22.218  1.00  0.00     0.014 C 
ATOM     16  C   UNL A   1      33.651  26.597  22.405  1.00  0.00     0.014 C 
ENDBRANCH  13  14
BRANCH  13  17
ATOM     17  N   UNL A   1      30.870  24.035  22.919  1.00  0.00    -0.347 N 
ATOM     18  H   UNL A   1      30.351  24.175  22.053  1.00  0.00     0.345 HD
ATOM     19  H   UNL A   1      30.429  24.569  23.669  1.00  0.00     0.345 HD
ATOM     20  H   UNL A   1      30.867  23.044  23.162  1.00  0.00     0.345 HD
ENDBRANCH  13  17
ENDBRANCH  10  13
ENDBRANCH   8   9
BRANCH   8  21
ATOM     21  C   UNL A   1      32.781  20.867  24.696  1.00  0.00     0.070 C 
BRANCH  21  22
ATOM     22  C   UNL A   1      33.088  19.518  24.091  1.00  0.00    -0.045 A 
ATOM     23  C   UNL A   1      34.140  18.730  24.577  1.00  0.00     0.004 A 
ATOM     24  C   UNL A   1      32.316  19.036  23.023  1.00  0.00     0.004 A 
ATOM     25  C   UNL A   1      34.392  17.472  24.029  1.00  0.00     0.000 A 
ATOM     26  C   UNL A   1      32.575  17.780  22.472  1.00  0.00     0.000 A 
ATOM     27  C   UNL A   1      33.609  16.996  22.978  1.00  0.00     0.000 A 
ENDBRANCH  21  22
ENDBRANCH   8  21
ENDBRANCH   5   8
ENDBRANCH   3   4
ENDBRANCH   2   3
ENDBRANCH   1   2
BRANCH   1  28
ATOM     28  C   UNL A   1      32.446  26.780  25.867  1.00  0.00     0.002 C 
BRANCH  28  29
ATOM     29  C   UNL A   1      32.979  27.883  26.786  1.00  0.00     0.021 C 
BRANCH  29  30
ATOM     30  C   UNL A   1      33.973  28.850  26.154  1.00  0.00     0.116 C 
BRANCH  30  31
ATOM     31  N   UNL A   1      33.845  30.200  26.671  1.00  0.00    -0.352 N 
ATOM     32  C   UNL A   1      34.632  30.874  27.566  1.00  0.00     0.251 C 
ATOM     33  H   UNL A   1      33.075  30.707  26.325  1.00  0.00     0.163 HD
ATOM     34  O   UNL A   1      34.263  31.974  27.977  1.00  0.00    -0.269 OA
BRANCH  32  35
ATOM     35  C   UNL A   1      35.904  30.293  28.055  1.00  0.00     0.039 A 
ATOM     36  C   UNL A   1      35.908  29.665  29.304  1.00  0.00     0.014 A 
ATOM     37  C   UNL A   1      37.095  30.406  27.331  1.00  0.00     0.014 A 
ATOM     38  C   UNL A   1      37.095  29.136  29.816  1.00  0.00     0.010 A 
ATOM     39  C   UNL A   1      38.263  29.810  27.809  1.00  0.00     0.010 A 
ATOM     40  C   UNL A   1      38.282  29.195  29.068  1.00  0.00    -0.014 A 
BRANCH  40  41
ATOM     41  C   UNL A   1      39.548  28.644  29.614  1.00  0.00     0.031 A 
ATOM     42  C   UNL A   1      40.178  29.256  30.839  1.00  0.00     0.074 A 
ATOM     43  C   UNL A   1      40.156  27.620  28.986  1.00  0.00     0.049 A 
ATOM     44  N   UNL A   1      41.265  28.897  31.473  1.00  0.00    -0.248 NA
ATOM     45  C   UNL A   1      39.518  30.441  31.412  1.00  0.00     0.031 C 
ATOM     46  C   UNL A   1      39.696  26.997  27.743  1.00  0.00     0.029 A 
ATOM     47  N   UNL A   1      41.302  26.930  29.298  1.00  0.00    -0.354 N 
ATOM     48  C   UNL A   1      41.435  29.824  32.494  1.00  0.00     0.074 A 
ATOM     49  C   UNL A   1      40.364  30.788  32.372  1.00  0.00     0.031 C 
ATOM     50  C   UNL A   1      40.542  26.011  27.406  1.00  0.00     0.029 A 
ATOM     51  C   UNL A   1      41.612  25.939  28.397  1.00  0.00     0.049 A 
ATOM     52  H   UNL A   1      41.850  27.128  30.091  1.00  0.00     0.167 HD
ATOM     53  C   UNL A   1      42.375  29.853  33.470  1.00  0.00     0.034 A 
ATOM     54  C   UNL A   1      42.636  25.064  28.377  1.00  0.00     0.034 A 
ATOM     55  C   UNL A   1      43.406  28.863  33.622  1.00  0.00     0.049 A 
ATOM     56  C   UNL A   1      43.627  25.075  29.510  1.00  0.00     0.074 A 
ATOM     57  C   UNL A   1      44.347  28.748  34.631  1.00  0.00     0.029 A 
ATOM     58  N   UNL A   1      43.635  27.819  32.741  1.00  0.00    -0.354 N 
ATOM     59  N   UNL A   1      43.667  25.852  30.565  1.00  0.00    -0.248 NA
ATOM     60  C   UNL A   1      44.688  24.059  29.473  1.00  0.00     0.031 C 
ATOM     61  C   UNL A   1      45.155  27.639  34.350  1.00  0.00     0.029 A 
ATOM     62  C   UNL A   1      44.705  27.055  33.177  1.00  0.00     0.049 A 
ATOM     63  H   UNL A   1      43.113  27.644  31.925  1.00  0.00     0.167 HD
ATOM     64  C   UNL A   1      44.736  25.402  31.330  1.00  0.00     0.074 A 
ATOM     65  C   UNL A   1      45.298  24.264  30.632  1.00  0.00     0.031 C 
ATOM     66  C   UNL A   1      45.223  25.896  32.497  1.00  0.00     0.034 A 
BRANCH  53  67
ATOM     67  C   UNL A   1      42.289  30.960  34.491  1.00  0.00     0.023 A 
ATOM     68  C   UNL A   1      41.523  30.765  35.659  1.00  0.00     0.012 A 
ATOM     69  C   UNL A   1      42.999  32.164  34.324  1.00  0.00     0.148 A 
ATOM     70  C   UNL A   1      41.435  31.763  36.627  1.00  0.00     0.002 A 
ATOM     71  C   UNL A   1      42.940  33.139  35.315  1.00  0.00     0.091 A 
ATOM     72  F   UNL A   1      43.704  32.342  33.198  1.00  0.00    -0.205 F 
ATOM     73  C   UNL A   1      42.150  32.945  36.460  1.00  0.00     0.022 A 
BRANCH  71  74
ATOM     74  S   UNL A   1      43.887  34.664  35.230  1.00  0.00     0.127 S 
ATOM     75  O   UNL A   1      43.505  35.318  36.480  1.00  0.00    -0.237 OA
ATOM     76  O   UNL A   1      45.265  34.170  35.197  1.00  0.00    -0.237 OA
ATOM     77  O   UNL A   1      43.456  35.336  34.013  1.00  0.00    -0.744 OA
ENDBRANCH  71  74
ENDBRANCH  53  67
BRANCH  54  78
ATOM     78  C   UNL A   1      42.723  24.048  27.291  1.00  0.00     0.023 A 
ATOM     79  C   UNL A   1      43.524  24.311  26.162  1.00  0.00     0.012 A 
ATOM     80  C   UNL A   1      42.049  22.815  27.382  1.00  0.00     0.148 A 
ATOM     81  C   UNL A   1      43.626  23.380  25.128  1.00  0.00     0.002 A 
ATOM     82  C   UNL A   1      42.198  21.869  26.373  1.00  0.00     0.091 A 
ATOM     83  F   UNL A   1      41.282  22.588  28.457  1.00  0.00    -0.205 F 
ATOM     84  C   UNL A   1      42.972  22.156  25.239  1.00  0.00     0.022 A 
BRANCH  82  85
ATOM     85  S   UNL A   1      41.502  20.218  26.499  1.00  0.00     0.127 S 
ATOM     86  O   UNL A   1      40.073  20.485  26.343  1.00  0.00    -0.237 OA
ATOM     87  O   UNL A   1      42.127  19.537  25.363  1.00  0.00    -0.237 OA
ATOM     88  O   UNL A   1      41.916  19.716  27.798  1.00  0.00    -0.744 OA
ENDBRANCH  82  85
ENDBRANCH  54  78
BRANCH  66  89
ATOM     89  C   UNL A   1      46.413  25.201  33.102  1.00  0.00     0.023 A 
ATOM     90  C   UNL A   1      46.214  24.171  34.042  1.00  0.00     0.012 A 
ATOM     91  C   UNL A   1      47.723  25.524  32.698  1.00  0.00     0.148 A 
ATOM     92  C   UNL A   1      47.301  23.498  34.599  1.00  0.00     0.002 A 
ATOM     93  C   UNL A   1      48.800  24.817  33.222  1.00  0.00     0.091 A 
ATOM     94  F   UNL A   1      47.896  26.521  31.818  1.00  0.00    -0.205 F 
ATOM     95  C   UNL A   1      48.592  23.813  34.180  1.00  0.00     0.022 A 
BRANCH  93  96
ATOM     96  S   UNL A   1      50.486  25.093  32.666  1.00  0.00     0.127 S 
ATOM     97  O   UNL A   1      51.257  24.682  33.839  1.00  0.00    -0.237 OA
ATOM     98  O   UNL A   1      50.592  24.188  31.521  1.00  0.00    -0.237 OA
ATOM     99  O   UNL A   1      50.565  26.506  32.324  1.00  0.00    -0.744 OA
ENDBRANCH  93  96
ENDBRANCH  66  89
ENDBRANCH  40  41
ENDBRANCH  32  35
ENDBRANCH  30  31
ENDBRANCH  29  30
ENDBRANCH  28  29
ENDBRANCH   1  28
TORSDOF 22
ENDMDL
