MODEL 1
REMARK VINA RESULT:     -10.8      0.000      0.000
REMARK SMILES CNC(=O)[C@H](C)S(=O)(=O)c1cc(C(=O)NCCCCCCNC(=O)c2ccc(-c3c4nc(c(-c5cccc(S(=O)(=O)[O-])c5F)c5ccc([nH]5)c(-c5cccc(S(=O)(=O)[O-])c5F)c5nc(c(-c6cccc(S(=O)(=O)[O-])c6F)c6ccc3[nH]6)C=C5)C=C4)cc2)c(C)cc1C
REMARK SMILES IDX 18 1 17 2 16 3 15 4 13 5 14 6 12 8 10 9 11 10 91 11 90 12
REMARK SMILES IDX 92 13 88 14 89 15 7 16 8 17 9 18 5 19 6 20 3 21 1 22 2 23
REMARK SMILES IDX 4 25 19 26 20 27 21 28 22 29 23 30 24 32 25 33 26 34 87 35
REMARK SMILES IDX 27 36 86 37 28 38 29 39 30 40 80 41 31 42 85 43 79 44 81 45
REMARK SMILES IDX 32 46 84 47 78 48 77 49 33 51 65 52 45 53 64 54 46 55 49 56
REMARK SMILES IDX 63 57 82 58 47 59 48 60 62 62 83 63 50 64 34 65 35 66 43 67
REMARK SMILES IDX 36 68 38 69 44 70 37 71 39 72 40 73 41 74 42 75 66 76 67 77
REMARK SMILES IDX 75 78 68 79 70 80 76 81 69 82 71 83 72 84 73 85 74 86 51 87
REMARK SMILES IDX 52 88 60 89 53 90 55 91 61 92 54 93 56 94 57 95 58 96 59 97
REMARK H PARENT 15 7 2 24 22 31 81 50 49 61
REMARK Flexibility Score: inf
ROOT
ATOM      1  C   UNL A   1      35.554  31.468  28.162  1.00  0.00     0.002 C 
ENDROOT
BRANCH   1   2
ATOM      2  C   UNL A   1      34.241  30.850  27.672  1.00  0.00     0.021 C 
BRANCH   2   3
ATOM      3  C   UNL A   1      34.355  29.380  27.244  1.00  0.00     0.116 C 
BRANCH   3   4
ATOM      4  N   UNL A   1      33.144  28.683  27.626  1.00  0.00    -0.352 N 
ATOM      5  C   UNL A   1      32.227  27.916  26.964  1.00  0.00     0.251 C 
ATOM      6  O   UNL A   1      31.241  27.585  27.632  1.00  0.00    -0.269 OA
ATOM      7  H   UNL A   1      32.934  28.784  28.583  1.00  0.00     0.163 HD
BRANCH   5   8
ATOM      8  C   UNL A   1      32.354  27.363  25.573  1.00  0.00     0.044 A 
ATOM      9  C   UNL A   1      33.076  25.321  24.365  1.00  0.00     0.071 A 
ATOM     10  C   UNL A   1      32.913  26.064  25.549  1.00  0.00     0.034 A 
ATOM     11  C   UNL A   1      32.761  25.901  23.134  1.00  0.00    -0.032 A 
ATOM     12  C   UNL A   1      32.167  27.173  23.155  1.00  0.00     0.009 A 
ATOM     13  C   UNL A   1      32.895  25.225  21.800  1.00  0.00     0.046 C 
ATOM     14  C   UNL A   1      31.884  27.874  24.354  1.00  0.00    -0.038 A 
ATOM     15  C   UNL A   1      30.985  29.062  24.190  1.00  0.00     0.045 C 
BRANCH   9  16
ATOM     16  S   UNL A   1      33.444  23.579  24.567  1.00  0.00     0.190 S 
ATOM     17  O   UNL A   1      33.723  23.324  25.971  1.00  0.00    -0.223 OA
ATOM     18  O   UNL A   1      34.493  23.263  23.613  1.00  0.00    -0.223 OA
BRANCH  16  19
ATOM     19  C   UNL A   1      31.994  22.654  24.135  1.00  0.00     0.199 C 
ATOM     20  C   UNL A   1      32.216  21.803  22.888  1.00  0.00     0.036 C 
BRANCH  19  21
ATOM     21  C   UNL A   1      31.548  21.800  25.295  1.00  0.00     0.238 C 
ATOM     22  C   UNL A   1      30.306  23.662  26.510  1.00  0.00     0.142 C 
ATOM     23  N   UNL A   1      30.750  22.304  26.278  1.00  0.00    -0.358 N 
ATOM     24  H   UNL A   1      30.425  21.644  26.931  1.00  0.00     0.163 HD
ATOM     25  O   UNL A   1      31.858  20.610  25.376  1.00  0.00    -0.274 OA
ENDBRANCH  19  21
ENDBRANCH  16  19
ENDBRANCH   9  16
ENDBRANCH   5   8
ENDBRANCH   3   4
ENDBRANCH   2   3
ENDBRANCH   1   2
BRANCH   1  26
ATOM     26  C   UNL A   1      35.636  32.990  28.018  1.00  0.00     0.002 C 
BRANCH  26  27
ATOM     27  C   UNL A   1      34.293  33.728  28.002  1.00  0.00     0.021 C 
BRANCH  27  28
ATOM     28  C   UNL A   1      34.354  35.211  28.367  1.00  0.00     0.116 C 
BRANCH  28  29
ATOM     29  N   UNL A   1      33.475  35.534  29.479  1.00  0.00    -0.352 N 
ATOM     30  C   UNL A   1      33.495  35.068  30.771  1.00  0.00     0.251 C 
ATOM     31  H   UNL A   1      32.761  36.182  29.278  1.00  0.00     0.163 HD
ATOM     32  O   UNL A   1      32.543  35.287  31.516  1.00  0.00    -0.269 OA
BRANCH  30  33
ATOM     33  C   UNL A   1      34.655  34.293  31.266  1.00  0.00     0.039 A 
ATOM     34  C   UNL A   1      34.451  32.993  31.738  1.00  0.00     0.014 A 
ATOM     35  C   UNL A   1      35.934  34.858  31.297  1.00  0.00     0.014 A 
ATOM     36  C   UNL A   1      35.537  32.239  32.191  1.00  0.00     0.010 A 
ATOM     37  C   UNL A   1      37.024  34.086  31.699  1.00  0.00     0.010 A 
ATOM     38  C   UNL A   1      36.836  32.772  32.153  1.00  0.00    -0.014 A 
BRANCH  38  39
ATOM     39  C   UNL A   1      38.013  31.967  32.571  1.00  0.00     0.031 A 
ATOM     40  C   UNL A   1      38.730  32.278  33.855  1.00  0.00     0.074 A 
ATOM     41  C   UNL A   1      38.493  31.016  31.744  1.00  0.00     0.049 A 
ATOM     42  N   UNL A   1      39.809  31.728  34.351  1.00  0.00    -0.248 NA
ATOM     43  C   UNL A   1      38.178  33.364  34.681  1.00  0.00     0.031 C 
ATOM     44  C   UNL A   1      37.936  30.677  30.434  1.00  0.00     0.029 A 
ATOM     45  N   UNL A   1      39.578  30.186  31.868  1.00  0.00    -0.354 N 
ATOM     46  C   UNL A   1      40.087  32.422  35.522  1.00  0.00     0.074 A 
ATOM     47  C   UNL A   1      39.076  33.450  35.652  1.00  0.00     0.031 C 
ATOM     48  C   UNL A   1      38.684  29.713  29.874  1.00  0.00     0.029 A 
ATOM     49  C   UNL A   1      39.785  29.379  30.774  1.00  0.00     0.049 A 
ATOM     50  H   UNL A   1      40.155  30.168  32.667  1.00  0.00     0.167 HD
ATOM     51  C   UNL A   1      41.074  32.205  36.423  1.00  0.00     0.034 A 
ATOM     52  C   UNL A   1      40.752  28.475  30.521  1.00  0.00     0.034 A 
ATOM     53  C   UNL A   1      42.042  31.146  36.322  1.00  0.00     0.049 A 
ATOM     54  C   UNL A   1      41.800  28.211  31.568  1.00  0.00     0.074 A 
ATOM     55  C   UNL A   1      43.018  30.782  37.233  1.00  0.00     0.029 A 
ATOM     56  N   UNL A   1      42.156  30.279  35.247  1.00  0.00    -0.354 N 
ATOM     57  N   UNL A   1      41.944  28.764  32.747  1.00  0.00    -0.248 NA
ATOM     58  C   UNL A   1      42.796  27.172  31.267  1.00  0.00     0.031 C 
ATOM     59  C   UNL A   1      43.727  29.698  36.705  1.00  0.00     0.029 A 
ATOM     60  C   UNL A   1      43.187  29.383  35.468  1.00  0.00     0.049 A 
ATOM     61  H   UNL A   1      41.586  30.297  34.444  1.00  0.00     0.167 HD
ATOM     62  C   UNL A   1      43.025  28.122  33.340  1.00  0.00     0.074 A 
ATOM     63  C   UNL A   1      43.485  27.123  32.399  1.00  0.00     0.031 C 
ATOM     64  C   UNL A   1      43.597  28.354  34.547  1.00  0.00     0.034 A 
BRANCH  51  65
ATOM     65  C   UNL A   1      41.113  33.089  37.641  1.00  0.00     0.023 A 
ATOM     66  C   UNL A   1      40.369  32.723  38.780  1.00  0.00     0.012 A 
ATOM     67  C   UNL A   1      41.925  34.239  37.686  1.00  0.00     0.148 A 
ATOM     68  C   UNL A   1      40.406  33.504  39.936  1.00  0.00     0.002 A 
ATOM     69  C   UNL A   1      41.986  34.993  38.854  1.00  0.00     0.091 A 
ATOM     70  F   UNL A   1      42.607  34.585  36.584  1.00  0.00    -0.205 F 
ATOM     71  C   UNL A   1      41.222  34.631  39.975  1.00  0.00     0.022 A 
BRANCH  69  72
ATOM     72  S   UNL A   1      43.062  36.421  39.023  1.00  0.00     0.127 S 
ATOM     73  O   UNL A   1      42.767  36.852  40.388  1.00  0.00    -0.237 OA
ATOM     74  O   UNL A   1      44.391  35.835  38.843  1.00  0.00    -0.237 OA
ATOM     75  O   UNL A   1      42.662  37.345  37.971  1.00  0.00    -0.744 OA
ENDBRANCH  69  72
ENDBRANCH  51  65
BRANCH  52  76
ATOM     76  C   UNL A   1      40.718  27.693  29.254  1.00  0.00     0.023 A 
ATOM     77  C   UNL A   1      39.743  26.690  29.093  1.00  0.00     0.012 A 
ATOM     78  C   UNL A   1      41.606  27.966  28.195  1.00  0.00     0.148 A 
ATOM     79  C   UNL A   1      39.667  25.956  27.909  1.00  0.00     0.002 A 
ATOM     80  C   UNL A   1      41.492  27.265  26.999  1.00  0.00     0.091 A 
ATOM     81  F   UNL A   1      42.539  28.911  28.372  1.00  0.00    -0.205 F 
ATOM     82  C   UNL A   1      40.532  26.250  26.859  1.00  0.00     0.022 A 
BRANCH  80  83
ATOM     83  S   UNL A   1      42.477  27.679  25.555  1.00  0.00     0.127 S 
ATOM     84  O   UNL A   1      41.902  28.959  25.156  1.00  0.00    -0.237 OA
ATOM     85  O   UNL A   1      43.827  27.756  26.114  1.00  0.00    -0.237 OA
ATOM     86  O   UNL A   1      42.283  26.572  24.626  1.00  0.00    -0.744 OA
ENDBRANCH  80  83
ENDBRANCH  52  76
BRANCH  64  87
ATOM     87  C   UNL A   1      44.777  27.502  34.935  1.00  0.00     0.023 A 
ATOM     88  C   UNL A   1      46.081  27.978  34.697  1.00  0.00     0.012 A 
ATOM     89  C   UNL A   1      44.598  26.275  35.602  1.00  0.00     0.148 A 
ATOM     90  C   UNL A   1      47.190  27.234  35.096  1.00  0.00     0.002 A 
ATOM     91  C   UNL A   1      45.707  25.558  36.033  1.00  0.00     0.091 A 
ATOM     92  F   UNL A   1      43.348  25.829  35.799  1.00  0.00    -0.205 F 
ATOM     93  C   UNL A   1      47.004  26.032  35.775  1.00  0.00     0.022 A 
BRANCH  91  94
ATOM     94  S   UNL A   1      45.553  24.044  36.989  1.00  0.00     0.127 S 
ATOM     95  O   UNL A   1      44.788  24.498  38.147  1.00  0.00    -0.237 OA
ATOM     96  O   UNL A   1      44.816  23.168  36.076  1.00  0.00    -0.237 OA
ATOM     97  O   UNL A   1      46.917  23.610  37.263  1.00  0.00    -0.744 OA
ENDBRANCH  91  94
ENDBRANCH  64  87
ENDBRANCH  38  39
ENDBRANCH  30  33
ENDBRANCH  28  29
ENDBRANCH  27  28
ENDBRANCH  26  27
ENDBRANCH   1  26
TORSDOF 19
ENDMDL
MODEL 2
REMARK VINA RESULT:     -10.5      6.296     11.744
REMARK SMILES CNC(=O)[C@H](C)S(=O)(=O)c1cc(C(=O)NCCCCCCNC(=O)c2ccc(-c3c4nc(c(-c5cccc(S(=O)(=O)[O-])c5F)c5ccc([nH]5)c(-c5cccc(S(=O)(=O)[O-])c5F)c5nc(c(-c6cccc(S(=O)(=O)[O-])c6F)c6ccc3[nH]6)C=C5)C=C4)cc2)c(C)cc1C
REMARK SMILES IDX 18 1 17 2 16 3 15 4 13 5 14 6 12 8 10 9 11 10 91 11 90 12
REMARK SMILES IDX 92 13 88 14 89 15 7 16 8 17 9 18 5 19 6 20 3 21 1 22 2 23
REMARK SMILES IDX 4 25 19 26 20 27 21 28 22 29 23 30 24 32 25 33 26 34 87 35
REMARK SMILES IDX 27 36 86 37 28 38 29 39 30 40 80 41 31 42 85 43 79 44 81 45
REMARK SMILES IDX 32 46 84 47 78 48 77 49 33 51 65 52 45 53 64 54 46 55 49 56
REMARK SMILES IDX 63 57 82 58 47 59 48 60 62 62 83 63 50 64 34 65 35 66 43 67
REMARK SMILES IDX 36 68 38 69 44 70 37 71 39 72 40 73 41 74 42 75 66 76 67 77
REMARK SMILES IDX 75 78 68 79 70 80 76 81 69 82 71 83 72 84 73 85 74 86 51 87
REMARK SMILES IDX 52 88 60 89 53 90 55 91 61 92 54 93 56 94 57 95 58 96 59 97
REMARK H PARENT 15 7 2 24 22 31 81 50 49 61
REMARK Flexibility Score: inf
ROOT
ATOM      1  C   UNL A   1      39.350  21.717  26.149  1.00  0.00     0.002 C 
ENDROOT
BRANCH   1   2
ATOM      2  C   UNL A   1      39.228  23.231  26.352  1.00  0.00     0.021 C 
BRANCH   2   3
ATOM      3  C   UNL A   1      37.824  23.793  26.091  1.00  0.00     0.116 C 
BRANCH   3   4
ATOM      4  N   UNL A   1      37.526  23.680  24.678  1.00  0.00    -0.352 N 
ATOM      5  C   UNL A   1      36.463  23.217  23.954  1.00  0.00     0.251 C 
ATOM      6  O   UNL A   1      36.640  23.180  22.731  1.00  0.00    -0.269 OA
ATOM      7  H   UNL A   1      38.257  24.015  24.109  1.00  0.00     0.163 HD
BRANCH   5   8
ATOM      8  C   UNL A   1      35.103  22.861  24.481  1.00  0.00     0.044 A 
ATOM      9  C   UNL A   1      32.789  23.745  24.611  1.00  0.00     0.071 A 
ATOM     10  C   UNL A   1      34.145  23.876  24.256  1.00  0.00     0.034 A 
ATOM     11  C   UNL A   1      32.360  22.607  25.296  1.00  0.00    -0.032 A 
ATOM     12  C   UNL A   1      33.297  21.578  25.486  1.00  0.00     0.009 A 
ATOM     13  C   UNL A   1      30.950  22.345  25.740  1.00  0.00     0.046 C 
ATOM     14  C   UNL A   1      34.632  21.653  25.018  1.00  0.00    -0.038 A 
ATOM     15  C   UNL A   1      35.381  20.355  25.044  1.00  0.00     0.045 C 
BRANCH   9  16
ATOM     16  S   UNL A   1      31.668  24.959  23.919  1.00  0.00     0.190 S 
ATOM     17  O   UNL A   1      31.122  25.759  25.003  1.00  0.00    -0.223 OA
ATOM     18  O   UNL A   1      30.722  24.227  23.093  1.00  0.00    -0.223 OA
BRANCH  16  19
ATOM     19  C   UNL A   1      32.605  26.044  22.874  1.00  0.00     0.199 C 
ATOM     20  C   UNL A   1      32.563  25.600  21.414  1.00  0.00     0.036 C 
BRANCH  19  21
ATOM     21  C   UNL A   1      32.117  27.464  23.017  1.00  0.00     0.238 C 
ATOM     22  C   UNL A   1      33.754  28.102  24.861  1.00  0.00     0.142 C 
ATOM     23  N   UNL A   1      32.719  28.334  23.877  1.00  0.00    -0.358 N 
ATOM     24  H   UNL A   1      32.401  29.263  23.820  1.00  0.00     0.163 HD
ATOM     25  O   UNL A   1      31.185  27.897  22.338  1.00  0.00    -0.274 OA
ENDBRANCH  19  21
ENDBRANCH  16  19
ENDBRANCH   9  16
ENDBRANCH   5   8
ENDBRANCH   3   4
ENDBRANCH   2   3
ENDBRANCH   1   2
BRANCH   1  26
ATOM     26  C   UNL A   1      40.515  21.065  26.898  1.00  0.00     0.002 C 
BRANCH  26  27
ATOM     27  C   UNL A   1      40.905  19.661  26.423  1.00  0.00     0.021 C 
BRANCH  27  28
ATOM     28  C   UNL A   1      42.318  19.211  26.794  1.00  0.00     0.116 C 
BRANCH  28  29
ATOM     29  N   UNL A   1      43.131  18.946  25.618  1.00  0.00    -0.352 N 
ATOM     30  C   UNL A   1      43.820  19.824  24.818  1.00  0.00     0.251 C 
ATOM     31  H   UNL A   1      43.197  17.998  25.357  1.00  0.00     0.163 HD
ATOM     32  O   UNL A   1      44.275  19.443  23.742  1.00  0.00    -0.269 OA
BRANCH  30  33
ATOM     33  C   UNL A   1      44.006  21.230  25.242  1.00  0.00     0.039 A 
ATOM     34  C   UNL A   1      44.523  21.491  26.514  1.00  0.00     0.014 A 
ATOM     35  C   UNL A   1      43.642  22.287  24.402  1.00  0.00     0.014 A 
ATOM     36  C   UNL A   1      44.724  22.812  26.924  1.00  0.00     0.010 A 
ATOM     37  C   UNL A   1      43.893  23.601  24.792  1.00  0.00     0.010 A 
ATOM     38  C   UNL A   1      44.432  23.878  26.057  1.00  0.00    -0.014 A 
BRANCH  38  39
ATOM     39  C   UNL A   1      44.697  25.286  26.449  1.00  0.00     0.031 A 
ATOM     40  C   UNL A   1      46.088  25.850  26.365  1.00  0.00     0.074 A 
ATOM     41  C   UNL A   1      43.699  26.028  26.970  1.00  0.00     0.049 A 
ATOM     42  N   UNL A   1      46.521  27.033  26.721  1.00  0.00    -0.248 NA
ATOM     43  C   UNL A   1      47.136  24.963  25.834  1.00  0.00     0.031 C 
ATOM     44  C   UNL A   1      42.326  25.568  27.179  1.00  0.00     0.029 A 
ATOM     45  N   UNL A   1      43.695  27.314  27.450  1.00  0.00    -0.354 N 
ATOM     46  C   UNL A   1      47.891  27.020  26.495  1.00  0.00     0.074 A 
ATOM     47  C   UNL A   1      48.224  25.705  25.992  1.00  0.00     0.031 C 
ATOM     48  C   UNL A   1      41.614  26.554  27.749  1.00  0.00     0.029 A 
ATOM     49  C   UNL A   1      42.482  27.708  27.963  1.00  0.00     0.049 A 
ATOM     50  H   UNL A   1      44.487  27.899  27.428  1.00  0.00     0.167 HD
ATOM     51  C   UNL A   1      48.788  28.022  26.660  1.00  0.00     0.034 A 
ATOM     52  C   UNL A   1      42.110  28.867  28.543  1.00  0.00     0.034 A 
ATOM     53  C   UNL A   1      48.447  29.347  27.104  1.00  0.00     0.049 A 
ATOM     54  C   UNL A   1      43.112  29.984  28.657  1.00  0.00     0.074 A 
ATOM     55  C   UNL A   1      49.265  30.457  27.209  1.00  0.00     0.029 A 
ATOM     56  N   UNL A   1      47.183  29.741  27.517  1.00  0.00    -0.354 N 
ATOM     57  N   UNL A   1      44.366  30.007  28.278  1.00  0.00    -0.248 NA
ATOM     58  C   UNL A   1      42.638  31.246  29.242  1.00  0.00     0.031 C 
ATOM     59  C   UNL A   1      48.498  31.523  27.690  1.00  0.00     0.029 A 
ATOM     60  C   UNL A   1      47.200  31.077  27.880  1.00  0.00     0.049 A 
ATOM     61  H   UNL A   1      46.391  29.158  27.546  1.00  0.00     0.167 HD
ATOM     62  C   UNL A   1      44.823  31.291  28.551  1.00  0.00     0.074 A 
ATOM     63  C   UNL A   1      43.704  32.023  29.106  1.00  0.00     0.031 C 
ATOM     64  C   UNL A   1      46.063  31.810  28.376  1.00  0.00     0.034 A 
BRANCH  51  65
ATOM     65  C   UNL A   1      50.220  27.745  26.288  1.00  0.00     0.023 A 
ATOM     66  C   UNL A   1      51.143  27.421  27.303  1.00  0.00     0.012 A 
ATOM     67  C   UNL A   1      50.641  27.743  24.944  1.00  0.00     0.148 A 
ATOM     68  C   UNL A   1      52.471  27.129  26.990  1.00  0.00     0.002 A 
ATOM     69  C   UNL A   1      51.958  27.415  24.637  1.00  0.00     0.091 A 
ATOM     70  F   UNL A   1      49.755  28.078  23.995  1.00  0.00    -0.205 F 
ATOM     71  C   UNL A   1      52.874  27.116  25.658  1.00  0.00     0.022 A 
BRANCH  69  72
ATOM     72  S   UNL A   1      52.553  27.304  22.945  1.00  0.00     0.127 S 
ATOM     73  O   UNL A   1      53.573  26.263  23.059  1.00  0.00    -0.237 OA
ATOM     74  O   UNL A   1      51.350  26.901  22.216  1.00  0.00    -0.237 OA
ATOM     75  O   UNL A   1      53.045  28.633  22.610  1.00  0.00    -0.744 OA
ENDBRANCH  69  72
ENDBRANCH  51  65
BRANCH  52  76
ATOM     76  C   UNL A   1      40.699  29.053  28.980  1.00  0.00     0.023 A 
ATOM     77  C   UNL A   1      39.704  29.279  28.009  1.00  0.00     0.012 A 
ATOM     78  C   UNL A   1      40.328  28.961  30.336  1.00  0.00     0.148 A 
ATOM     79  C   UNL A   1      38.369  29.433  28.382  1.00  0.00     0.002 A 
ATOM     80  C   UNL A   1      38.988  29.065  30.695  1.00  0.00     0.091 A 
ATOM     81  F   UNL A   1      41.290  28.764  31.248  1.00  0.00    -0.205 F 
ATOM     82  C   UNL A   1      38.009  29.315  29.721  1.00  0.00     0.022 A 
BRANCH  80  83
ATOM     83  S   UNL A   1      38.430  28.787  32.380  1.00  0.00     0.127 S 
ATOM     84  O   UNL A   1      38.893  27.426  32.629  1.00  0.00    -0.237 OA
ATOM     85  O   UNL A   1      39.147  29.827  33.118  1.00  0.00    -0.237 OA
ATOM     86  O   UNL A   1      36.985  28.977  32.342  1.00  0.00    -0.744 OA
ENDBRANCH  80  83
ENDBRANCH  52  76
BRANCH  64  87
ATOM     87  C   UNL A   1      46.280  33.246  28.771  1.00  0.00     0.023 A 
ATOM     88  C   UNL A   1      46.827  33.541  30.035  1.00  0.00     0.012 A 
ATOM     89  C   UNL A   1      46.020  34.295  27.867  1.00  0.00     0.148 A 
ATOM     90  C   UNL A   1      47.088  34.860  30.404  1.00  0.00     0.002 A 
ATOM     91  C   UNL A   1      46.321  35.604  28.226  1.00  0.00     0.091 A 
ATOM     92  F   UNL A   1      45.479  33.996  26.676  1.00  0.00    -0.205 F 
ATOM     93  C   UNL A   1      46.848  35.889  29.496  1.00  0.00     0.022 A 
BRANCH  91  94
ATOM     94  S   UNL A   1      46.122  36.976  27.083  1.00  0.00     0.127 S 
ATOM     95  O   UNL A   1      44.670  37.037  26.939  1.00  0.00    -0.237 OA
ATOM     96  O   UNL A   1      46.710  38.093  27.826  1.00  0.00    -0.237 OA
ATOM     97  O   UNL A   1      46.861  36.602  25.884  1.00  0.00    -0.744 OA
ENDBRANCH  91  94
ENDBRANCH  64  87
ENDBRANCH  38  39
ENDBRANCH  30  33
ENDBRANCH  28  29
ENDBRANCH  27  28
ENDBRANCH  26  27
ENDBRANCH   1  26
TORSDOF 19
ENDMDL
MODEL 3
REMARK VINA RESULT:     -10.3      4.346      9.196
REMARK SMILES CNC(=O)[C@H](C)S(=O)(=O)c1cc(C(=O)NCCCCCCNC(=O)c2ccc(-c3c4nc(c(-c5cccc(S(=O)(=O)[O-])c5F)c5ccc([nH]5)c(-c5cccc(S(=O)(=O)[O-])c5F)c5nc(c(-c6cccc(S(=O)(=O)[O-])c6F)c6ccc3[nH]6)C=C5)C=C4)cc2)c(C)cc1C
REMARK SMILES IDX 18 1 17 2 16 3 15 4 13 5 14 6 12 8 10 9 11 10 91 11 90 12
REMARK SMILES IDX 92 13 88 14 89 15 7 16 8 17 9 18 5 19 6 20 3 21 1 22 2 23
REMARK SMILES IDX 4 25 19 26 20 27 21 28 22 29 23 30 24 32 25 33 26 34 87 35
REMARK SMILES IDX 27 36 86 37 28 38 29 39 30 40 80 41 31 42 85 43 79 44 81 45
REMARK SMILES IDX 32 46 84 47 78 48 77 49 33 51 65 52 45 53 64 54 46 55 49 56
REMARK SMILES IDX 63 57 82 58 47 59 48 60 62 62 83 63 50 64 34 65 35 66 43 67
REMARK SMILES IDX 36 68 38 69 44 70 37 71 39 72 40 73 41 74 42 75 66 76 67 77
REMARK SMILES IDX 75 78 68 79 70 80 76 81 69 82 71 83 72 84 73 85 74 86 51 87
REMARK SMILES IDX 52 88 60 89 53 90 55 91 61 92 54 93 56 94 57 95 58 96 59 97
REMARK H PARENT 15 7 2 24 22 31 81 50 49 61
REMARK Flexibility Score: inf
ROOT
ATOM      1  C   UNL A   1      35.011  32.336  32.027  1.00  0.00     0.002 C 
ENDROOT
BRANCH   1   2
ATOM      2  C   UNL A   1      36.511  32.413  32.326  1.00  0.00     0.021 C 
BRANCH   2   3
ATOM      3  C   UNL A   1      36.850  32.861  33.755  1.00  0.00     0.116 C 
BRANCH   3   4
ATOM      4  N   UNL A   1      37.270  31.707  34.523  1.00  0.00    -0.352 N 
ATOM      5  C   UNL A   1      37.935  31.529  35.704  1.00  0.00     0.251 C 
ATOM      6  O   UNL A   1      38.214  30.356  35.976  1.00  0.00    -0.269 OA
ATOM      7  H   UNL A   1      37.019  30.856  34.096  1.00  0.00     0.163 HD
BRANCH   5   8
ATOM      8  C   UNL A   1      38.251  32.585  36.725  1.00  0.00     0.044 A 
ATOM      9  C   UNL A   1      38.115  33.017  39.164  1.00  0.00     0.071 A 
ATOM     10  C   UNL A   1      37.867  32.214  38.034  1.00  0.00     0.034 A 
ATOM     11  C   UNL A   1      38.686  34.281  39.002  1.00  0.00    -0.032 A 
ATOM     12  C   UNL A   1      39.107  34.637  37.711  1.00  0.00     0.009 A 
ATOM     13  C   UNL A   1      38.994  35.239  40.117  1.00  0.00     0.046 C 
ATOM     14  C   UNL A   1      38.975  33.780  36.591  1.00  0.00    -0.038 A 
ATOM     15  C   UNL A   1      39.747  34.205  35.379  1.00  0.00     0.045 C 
BRANCH   9  16
ATOM     16  S   UNL A   1      37.900  32.230  40.758  1.00  0.00     0.190 S 
ATOM     17  O   UNL A   1      39.085  32.481  41.563  1.00  0.00    -0.223 OA
ATOM     18  O   UNL A   1      37.559  30.842  40.494  1.00  0.00    -0.223 OA
BRANCH  16  19
ATOM     19  C   UNL A   1      36.528  33.001  41.575  1.00  0.00     0.199 C 
ATOM     20  C   UNL A   1      35.194  32.577  40.965  1.00  0.00     0.036 C 
BRANCH  19  21
ATOM     21  C   UNL A   1      36.559  32.704  43.053  1.00  0.00     0.238 C 
ATOM     22  C   UNL A   1      37.700  34.881  43.719  1.00  0.00     0.142 C 
ATOM     23  N   UNL A   1      37.039  33.615  43.947  1.00  0.00    -0.358 N 
ATOM     24  H   UNL A   1      36.918  33.373  44.893  1.00  0.00     0.163 HD
ATOM     25  O   UNL A   1      36.120  31.646  43.508  1.00  0.00    -0.274 OA
ENDBRANCH  19  21
ENDBRANCH  16  19
ENDBRANCH   9  16
ENDBRANCH   5   8
ENDBRANCH   3   4
ENDBRANCH   2   3
ENDBRANCH   1   2
BRANCH   1  26
ATOM     26  C   UNL A   1      34.301  33.691  31.966  1.00  0.00     0.002 C 
BRANCH  26  27
ATOM     27  C   UNL A   1      34.030  34.235  30.559  1.00  0.00     0.021 C 
BRANCH  27  28
ATOM     28  C   UNL A   1      34.966  33.721  29.466  1.00  0.00     0.116 C 
BRANCH  28  29
ATOM     29  N   UNL A   1      34.314  32.745  28.607  1.00  0.00    -0.352 N 
ATOM     30  C   UNL A   1      34.784  31.541  28.141  1.00  0.00     0.251 C 
ATOM     31  H   UNL A   1      33.403  32.980  28.317  1.00  0.00     0.163 HD
ATOM     32  O   UNL A   1      34.177  30.950  27.251  1.00  0.00    -0.269 OA
BRANCH  30  33
ATOM     33  C   UNL A   1      36.025  30.959  28.700  1.00  0.00     0.039 A 
ATOM     34  C   UNL A   1      35.933  29.844  29.538  1.00  0.00     0.014 A 
ATOM     35  C   UNL A   1      37.271  31.530  28.427  1.00  0.00     0.014 A 
ATOM     36  C   UNL A   1      37.095  29.269  30.059  1.00  0.00     0.010 A 
ATOM     37  C   UNL A   1      38.432  30.923  28.904  1.00  0.00     0.010 A 
ATOM     38  C   UNL A   1      38.356  29.790  29.728  1.00  0.00    -0.014 A 
BRANCH  38  39
ATOM     39  C   UNL A   1      39.607  29.157  30.219  1.00  0.00     0.031 A 
ATOM     40  C   UNL A   1      40.296  29.686  31.447  1.00  0.00     0.074 A 
ATOM     41  C   UNL A   1      40.174  28.165  29.504  1.00  0.00     0.049 A 
ATOM     42  N   UNL A   1      41.425  29.305  31.987  1.00  0.00    -0.248 NA
ATOM     43  C   UNL A   1      39.644  30.806  32.146  1.00  0.00     0.031 C 
ATOM     44  C   UNL A   1      39.646  27.619  28.252  1.00  0.00     0.029 A 
ATOM     45  N   UNL A   1      41.335  27.463  29.709  1.00  0.00    -0.354 N 
ATOM     46  C   UNL A   1      41.639  30.158  33.062  1.00  0.00     0.074 A 
ATOM     47  C   UNL A   1      40.535  31.093  33.085  1.00  0.00     0.031 C 
ATOM     48  C   UNL A   1      40.482  26.671  27.799  1.00  0.00     0.029 A 
ATOM     49  C   UNL A   1      41.614  26.555  28.714  1.00  0.00     0.049 A 
ATOM     50  H   UNL A   1      41.914  27.596  30.495  1.00  0.00     0.167 HD
ATOM     51  C   UNL A   1      42.646  30.146  33.968  1.00  0.00     0.034 A 
ATOM     52  C   UNL A   1      42.663  25.723  28.556  1.00  0.00     0.034 A 
ATOM     53  C   UNL A   1      43.712  29.180  33.978  1.00  0.00     0.049 A 
ATOM     54  C   UNL A   1      43.736  25.688  29.610  1.00  0.00     0.074 A 
ATOM     55  C   UNL A   1      44.723  29.023  34.910  1.00  0.00     0.029 A 
ATOM     56  N   UNL A   1      43.905  28.205  33.011  1.00  0.00    -0.354 N 
ATOM     57  N   UNL A   1      43.831  26.390  30.713  1.00  0.00    -0.248 NA
ATOM     58  C   UNL A   1      44.826  24.720  29.419  1.00  0.00     0.031 C 
ATOM     59  C   UNL A   1      45.531  27.956  34.503  1.00  0.00     0.029 A 
ATOM     60  C   UNL A   1      45.019  27.445  33.321  1.00  0.00     0.049 A 
ATOM     61  H   UNL A   1      43.333  28.073  32.221  1.00  0.00     0.167 HD
ATOM     62  C   UNL A   1      44.971  25.930  31.361  1.00  0.00     0.074 A 
ATOM     63  C   UNL A   1      45.522  24.873  30.538  1.00  0.00     0.031 C 
ATOM     64  C   UNL A   1      45.523  26.357  32.523  1.00  0.00     0.034 A 
BRANCH  51  65
ATOM     65  C   UNL A   1      42.605  31.169  35.071  1.00  0.00     0.023 A 
ATOM     66  C   UNL A   1      41.931  30.861  36.270  1.00  0.00     0.012 A 
ATOM     67  C   UNL A   1      43.276  32.402  34.954  1.00  0.00     0.148 A 
ATOM     68  C   UNL A   1      41.899  31.773  37.324  1.00  0.00     0.002 A 
ATOM     69  C   UNL A   1      43.270  33.293  36.022  1.00  0.00     0.091 A 
ATOM     70  F   UNL A   1      43.891  32.689  33.797  1.00  0.00    -0.205 F 
ATOM     71  C   UNL A   1      42.577  32.983  37.203  1.00  0.00     0.022 A 
BRANCH  69  72
ATOM     72  S   UNL A   1      44.174  34.845  35.987  1.00  0.00     0.127 S 
ATOM     73  O   UNL A   1      43.490  35.559  34.910  1.00  0.00    -0.237 OA
ATOM     74  O   UNL A   1      43.927  35.381  37.326  1.00  0.00    -0.237 OA
ATOM     75  O   UNL A   1      45.562  34.490  35.726  1.00  0.00    -0.744 OA
ENDBRANCH  69  72
ENDBRANCH  51  65
BRANCH  52  76
ATOM     76  C   UNL A   1      42.700  24.796  27.391  1.00  0.00     0.023 A 
ATOM     77  C   UNL A   1      43.403  25.178  26.232  1.00  0.00     0.012 A 
ATOM     78  C   UNL A   1      42.091  23.527  27.439  1.00  0.00     0.148 A 
ATOM     79  C   UNL A   1      43.479  24.323  25.133  1.00  0.00     0.002 A 
ATOM     80  C   UNL A   1      42.214  22.659  26.359  1.00  0.00     0.091 A 
ATOM     81  F   UNL A   1      41.411  23.186  28.543  1.00  0.00    -0.205 F 
ATOM     82  C   UNL A   1      42.896  23.061  25.199  1.00  0.00     0.022 A 
BRANCH  80  83
ATOM     83  S   UNL A   1      41.610  20.968  26.421  1.00  0.00     0.127 S 
ATOM     84  O   UNL A   1      42.345  20.346  25.324  1.00  0.00    -0.237 OA
ATOM     85  O   UNL A   1      42.021  20.542  27.759  1.00  0.00    -0.237 OA
ATOM     86  O   UNL A   1      40.166  21.070  26.249  1.00  0.00    -0.744 OA
ENDBRANCH  80  83
ENDBRANCH  52  76
BRANCH  64  87
ATOM     87  C   UNL A   1      46.781  25.675  32.990  1.00  0.00     0.023 A 
ATOM     88  C   UNL A   1      48.032  26.175  32.580  1.00  0.00     0.012 A 
ATOM     89  C   UNL A   1      46.729  24.596  33.893  1.00  0.00     0.148 A 
ATOM     90  C   UNL A   1      49.213  25.596  33.042  1.00  0.00     0.002 A 
ATOM     91  C   UNL A   1      47.909  24.049  34.382  1.00  0.00     0.091 A 
ATOM     92  F   UNL A   1      45.527  24.120  34.254  1.00  0.00    -0.205 F 
ATOM     93  C   UNL A   1      49.152  24.543  33.952  1.00  0.00     0.022 A 
BRANCH  91  94
ATOM     94  S   UNL A   1      47.918  22.748  35.621  1.00  0.00     0.127 S 
ATOM     95  O   UNL A   1      47.064  21.738  35.000  1.00  0.00    -0.237 OA
ATOM     96  O   UNL A   1      49.335  22.389  35.693  1.00  0.00    -0.237 OA
ATOM     97  O   UNL A   1      47.393  23.358  36.837  1.00  0.00    -0.744 OA
ENDBRANCH  91  94
ENDBRANCH  64  87
ENDBRANCH  38  39
ENDBRANCH  30  33
ENDBRANCH  28  29
ENDBRANCH  27  28
ENDBRANCH  26  27
ENDBRANCH   1  26
TORSDOF 19
ENDMDL
