MODEL 1
REMARK VINA RESULT:     -11.3      0.000      0.000
REMARK SMILES [NH3+][C@@H]1C=C[C@H](C(=O)N(CC(=O)NCCCCCCNC(=O)c2ccc(-c3c4nc(c(-c5cccc(S(=O)(=O)[O-])c5F)c5ccc([nH]5)c(-c5cccc(S(=O)(=O)[O-])c5F)c5nc(c(-c6cccc(S(=O)(=O)[O-])c6F)c6ccc3[nH]6)C=C5)C=C4)cc2)c2ccccc2)C1
REMARK SMILES IDX 15 1 14 2 13 3 12 4 10 5 11 6 9 8 8 9 6 10 7 11 5 12 2 13
REMARK SMILES IDX 3 14 91 15 4 16 1 17 85 21 86 22 90 23 87 24 89 25 88 26
REMARK SMILES IDX 16 27 17 28 18 29 19 30 20 31 21 33 22 34 23 35 84 36 24 37
REMARK SMILES IDX 83 38 25 39 26 40 27 41 77 42 28 43 82 44 76 45 78 46 29 47
REMARK SMILES IDX 81 48 75 49 74 50 30 52 62 53 42 54 61 55 43 56 46 57 60 58
REMARK SMILES IDX 79 59 44 60 45 61 59 63 80 64 47 65 31 66 32 67 40 68 33 69
REMARK SMILES IDX 35 70 41 71 34 72 36 73 37 74 38 75 39 76 63 77 64 78 72 79
REMARK SMILES IDX 65 80 67 81 73 82 66 83 68 84 69 85 70 86 71 87 48 88 49 89
REMARK SMILES IDX 57 90 50 91 52 92 58 93 51 94 53 95 54 96 55 97 56 98
REMARK H PARENT 12 7 1 18 1 19 1 20 19 32 78 51 46 62
REMARK Flexibility Score: inf
ROOT
ATOM      1  C   UNL A   1      32.553  26.734  26.431  1.00  0.00     0.002 C 
ENDROOT
BRANCH   1   2
ATOM      2  C   UNL A   1      33.600  26.117  25.498  1.00  0.00     0.021 C 
BRANCH   2   3
ATOM      3  C   UNL A   1      34.269  24.875  26.075  1.00  0.00     0.116 C 
BRANCH   3   4
ATOM      4  N   UNL A   1      35.478  24.513  25.382  1.00  0.00    -0.355 N 
ATOM      5  C   UNL A   1      35.973  23.267  25.143  1.00  0.00     0.240 C 
ATOM      6  O   UNL A   1      36.918  23.179  24.351  1.00  0.00    -0.273 OA
ATOM      7  H   UNL A   1      36.016  25.261  25.037  1.00  0.00     0.163 HD
BRANCH   5   8
ATOM      8  C   UNL A   1      35.315  21.995  25.716  1.00  0.00     0.225 C 
BRANCH   8   9
ATOM      9  N   UNL A   1      34.289  21.259  24.936  1.00  0.00    -0.303 N 
BRANCH   9  10
ATOM     10  C   UNL A   1      34.292  19.870  24.684  1.00  0.00     0.234 C 
ATOM     11  O   UNL A   1      35.340  19.211  24.670  1.00  0.00    -0.274 OA
BRANCH  10  12
ATOM     12  C   UNL A   1      32.955  19.102  24.499  1.00  0.00     0.108 C 
ATOM     13  C   UNL A   1      33.132  16.781  25.337  1.00  0.00     0.205 C 
ATOM     14  C   UNL A   1      33.099  16.841  23.847  1.00  0.00     0.033 C 
ATOM     15  C   UNL A   1      32.675  18.193  25.719  1.00  0.00     0.087 C 
ATOM     16  C   UNL A   1      33.020  18.097  23.385  1.00  0.00    -0.012 C 
BRANCH  13  17
ATOM     17  N   UNL A   1      34.485  16.491  25.778  1.00  0.00    -0.352 N 
ATOM     18  H   UNL A   1      34.820  17.251  26.371  1.00  0.00     0.345 HD
ATOM     19  H   UNL A   1      35.096  16.400  24.966  1.00  0.00     0.345 HD
ATOM     20  H   UNL A   1      34.491  15.618  26.307  1.00  0.00     0.345 HD
ENDBRANCH  13  17
ENDBRANCH  10  12
ENDBRANCH   9  10
BRANCH   9  21
ATOM     21  C   UNL A   1      33.144  22.052  24.520  1.00  0.00     0.044 A 
ATOM     22  C   UNL A   1      33.036  22.573  23.221  1.00  0.00     0.026 A 
ATOM     23  C   UNL A   1      32.118  22.368  25.424  1.00  0.00     0.026 A 
ATOM     24  C   UNL A   1      31.943  23.360  22.836  1.00  0.00     0.002 A 
ATOM     25  C   UNL A   1      31.032  23.168  25.046  1.00  0.00     0.002 A 
ATOM     26  C   UNL A   1      30.943  23.662  23.750  1.00  0.00     0.000 A 
ENDBRANCH   9  21
ENDBRANCH   8   9
ENDBRANCH   5   8
ENDBRANCH   3   4
ENDBRANCH   2   3
ENDBRANCH   1   2
BRANCH   1  27
ATOM     27  C   UNL A   1      31.416  27.477  25.721  1.00  0.00     0.002 C 
BRANCH  27  28
ATOM     28  C   UNL A   1      31.863  28.461  24.635  1.00  0.00     0.021 C 
BRANCH  28  29
ATOM     29  C   UNL A   1      32.927  29.456  25.085  1.00  0.00     0.116 C 
BRANCH  29  30
ATOM     30  N   UNL A   1      32.335  30.647  25.678  1.00  0.00    -0.352 N 
ATOM     31  C   UNL A   1      32.708  31.332  26.805  1.00  0.00     0.251 C 
ATOM     32  H   UNL A   1      31.555  31.011  25.201  1.00  0.00     0.163 HD
ATOM     33  O   UNL A   1      31.954  32.181  27.282  1.00  0.00    -0.269 OA
BRANCH  31  34
ATOM     34  C   UNL A   1      34.005  31.045  27.447  1.00  0.00     0.039 A 
ATOM     35  C   UNL A   1      34.896  32.096  27.679  1.00  0.00     0.014 A 
ATOM     36  C   UNL A   1      34.346  29.741  27.813  1.00  0.00     0.014 A 
ATOM     37  C   UNL A   1      36.107  31.845  28.328  1.00  0.00     0.010 A 
ATOM     38  C   UNL A   1      35.516  29.505  28.529  1.00  0.00     0.010 A 
ATOM     39  C   UNL A   1      36.414  30.552  28.785  1.00  0.00    -0.014 A 
BRANCH  39  40
ATOM     40  C   UNL A   1      37.662  30.275  29.540  1.00  0.00     0.031 A 
ATOM     41  C   UNL A   1      38.706  29.355  28.965  1.00  0.00     0.074 A 
ATOM     42  C   UNL A   1      37.818  30.782  30.778  1.00  0.00     0.049 A 
ATOM     43  N   UNL A   1      39.825  28.942  29.500  1.00  0.00    -0.248 NA
ATOM     44  C   UNL A   1      38.445  28.803  27.624  1.00  0.00     0.031 C 
ATOM     45  C   UNL A   1      36.845  31.630  31.474  1.00  0.00     0.029 A 
ATOM     46  N   UNL A   1      38.837  30.635  31.686  1.00  0.00    -0.354 N 
ATOM     47  C   UNL A   1      40.382  28.058  28.584  1.00  0.00     0.074 A 
ATOM     48  C   UNL A   1      39.461  27.968  27.472  1.00  0.00     0.031 C 
ATOM     49  C   UNL A   1      37.318  31.930  32.695  1.00  0.00     0.029 A 
ATOM     50  C   UNL A   1      38.604  31.268  32.885  1.00  0.00     0.049 A 
ATOM     51  H   UNL A   1      39.658  30.125  31.496  1.00  0.00     0.167 HD
ATOM     52  C   UNL A   1      41.564  27.400  28.649  1.00  0.00     0.034 A 
ATOM     53  C   UNL A   1      39.337  31.303  34.015  1.00  0.00     0.034 A 
ATOM     54  C   UNL A   1      42.492  27.520  29.741  1.00  0.00     0.049 A 
ATOM     55  C   UNL A   1      40.658  30.582  34.051  1.00  0.00     0.074 A 
ATOM     56  C   UNL A   1      43.752  26.964  29.861  1.00  0.00     0.029 A 
ATOM     57  N   UNL A   1      42.255  28.232  30.906  1.00  0.00    -0.354 N 
ATOM     58  N   UNL A   1      41.240  29.876  33.112  1.00  0.00    -0.248 NA
ATOM     59  C   UNL A   1      41.441  30.689  35.291  1.00  0.00     0.031 C 
ATOM     60  C   UNL A   1      44.264  27.312  31.115  1.00  0.00     0.029 A 
ATOM     61  C   UNL A   1      43.340  28.119  31.758  1.00  0.00     0.049 A 
ATOM     62  H   UNL A   1      41.436  28.743  31.098  1.00  0.00     0.167 HD
ATOM     63  C   UNL A   1      42.471  29.491  33.629  1.00  0.00     0.074 A 
ATOM     64  C   UNL A   1      42.559  30.058  34.960  1.00  0.00     0.031 C 
ATOM     65  C   UNL A   1      43.437  28.730  33.059  1.00  0.00     0.034 A 
BRANCH  52  66
ATOM     66  C   UNL A   1      41.943  26.519  27.485  1.00  0.00     0.023 A 
ATOM     67  C   UNL A   1      42.621  27.073  26.380  1.00  0.00     0.012 A 
ATOM     68  C   UNL A   1      41.683  25.135  27.511  1.00  0.00     0.148 A 
ATOM     69  C   UNL A   1      42.999  26.273  25.303  1.00  0.00     0.002 A 
ATOM     70  C   UNL A   1      42.107  24.335  26.457  1.00  0.00     0.091 A 
ATOM     71  F   UNL A   1      41.022  24.627  28.562  1.00  0.00    -0.205 F 
ATOM     72  C   UNL A   1      42.753  24.904  25.347  1.00  0.00     0.022 A 
BRANCH  70  73
ATOM     73  S   UNL A   1      41.915  22.549  26.455  1.00  0.00     0.127 S 
ATOM     74  O   UNL A   1      40.459  22.409  26.428  1.00  0.00    -0.237 OA
ATOM     75  O   UNL A   1      42.585  22.170  25.211  1.00  0.00    -0.237 OA
ATOM     76  O   UNL A   1      42.566  22.072  27.666  1.00  0.00    -0.744 OA
ENDBRANCH  70  73
ENDBRANCH  52  66
BRANCH  53  77
ATOM     77  C   UNL A   1      38.865  32.092  35.188  1.00  0.00     0.023 A 
ATOM     78  C   UNL A   1      38.924  33.499  35.145  1.00  0.00     0.012 A 
ATOM     79  C   UNL A   1      38.342  31.463  36.333  1.00  0.00     0.148 A 
ATOM     80  C   UNL A   1      38.507  34.264  36.235  1.00  0.00     0.002 A 
ATOM     81  C   UNL A   1      37.873  32.231  37.393  1.00  0.00     0.091 A 
ATOM     82  F   UNL A   1      38.301  30.124  36.359  1.00  0.00    -0.205 F 
ATOM     83  C   UNL A   1      37.973  33.630  37.354  1.00  0.00     0.022 A 
BRANCH  81  84
ATOM     84  S   UNL A   1      37.049  31.511  38.816  1.00  0.00     0.127 S 
ATOM     85  O   UNL A   1      38.027  31.742  39.878  1.00  0.00    -0.237 OA
ATOM     86  O   UNL A   1      35.837  32.325  38.906  1.00  0.00    -0.237 OA
ATOM     87  O   UNL A   1      36.810  30.116  38.471  1.00  0.00    -0.744 OA
ENDBRANCH  81  84
ENDBRANCH  53  77
BRANCH  65  88
ATOM     88  C   UNL A   1      44.703  28.500  33.842  1.00  0.00     0.023 A 
ATOM     89  C   UNL A   1      45.770  29.415  33.747  1.00  0.00     0.012 A 
ATOM     90  C   UNL A   1      44.801  27.415  34.736  1.00  0.00     0.148 A 
ATOM     91  C   UNL A   1      46.928  29.234  34.504  1.00  0.00     0.002 A 
ATOM     92  C   UNL A   1      45.934  27.272  35.526  1.00  0.00     0.091 A 
ATOM     93  F   UNL A   1      43.781  26.546  34.799  1.00  0.00    -0.205 F 
ATOM     94  C   UNL A   1      47.004  28.171  35.401  1.00  0.00     0.022 A 
BRANCH  92  95
ATOM     95  S   UNL A   1      46.080  25.994  36.781  1.00  0.00     0.127 S 
ATOM     96  O   UNL A   1      44.917  26.271  37.624  1.00  0.00    -0.237 OA
ATOM     97  O   UNL A   1      45.980  24.769  35.988  1.00  0.00    -0.237 OA
ATOM     98  O   UNL A   1      47.374  26.200  37.418  1.00  0.00    -0.744 OA
ENDBRANCH  92  95
ENDBRANCH  65  88
ENDBRANCH  39  40
ENDBRANCH  31  34
ENDBRANCH  29  30
ENDBRANCH  28  29
ENDBRANCH  27  28
ENDBRANCH   1  27
TORSDOF 21
ENDMDL
MODEL 2
REMARK VINA RESULT:     -11.2      5.269      8.434
REMARK SMILES [NH3+][C@@H]1C=C[C@H](C(=O)N(CC(=O)NCCCCCCNC(=O)c2ccc(-c3c4nc(c(-c5cccc(S(=O)(=O)[O-])c5F)c5ccc([nH]5)c(-c5cccc(S(=O)(=O)[O-])c5F)c5nc(c(-c6cccc(S(=O)(=O)[O-])c6F)c6ccc3[nH]6)C=C5)C=C4)cc2)c2ccccc2)C1
REMARK SMILES IDX 15 1 14 2 13 3 12 4 10 5 11 6 9 8 8 9 6 10 7 11 5 12 2 13
REMARK SMILES IDX 3 14 91 15 4 16 1 17 85 21 86 22 90 23 87 24 89 25 88 26
REMARK SMILES IDX 16 27 17 28 18 29 19 30 20 31 21 33 22 34 23 35 84 36 24 37
REMARK SMILES IDX 83 38 25 39 26 40 27 41 77 42 28 43 82 44 76 45 78 46 29 47
REMARK SMILES IDX 81 48 75 49 74 50 30 52 62 53 42 54 61 55 43 56 46 57 60 58
REMARK SMILES IDX 79 59 44 60 45 61 59 63 80 64 47 65 31 66 32 67 40 68 33 69
REMARK SMILES IDX 35 70 41 71 34 72 36 73 37 74 38 75 39 76 63 77 64 78 72 79
REMARK SMILES IDX 65 80 67 81 73 82 66 83 68 84 69 85 70 86 71 87 48 88 49 89
REMARK SMILES IDX 57 90 50 91 52 92 58 93 51 94 53 95 54 96 55 97 56 98
REMARK H PARENT 12 7 1 18 1 19 1 20 19 32 78 51 46 62
REMARK Flexibility Score: inf
ROOT
ATOM      1  C   UNL A   1      33.918  22.181  24.645  1.00  0.00     0.002 C 
ENDROOT
BRANCH   1   2
ATOM      2  C   UNL A   1      32.864  22.599  23.616  1.00  0.00     0.021 C 
BRANCH   2   3
ATOM      3  C   UNL A   1      32.533  24.086  23.657  1.00  0.00     0.116 C 
BRANCH   3   4
ATOM      4  N   UNL A   1      33.244  24.850  22.665  1.00  0.00    -0.355 N 
ATOM      5  C   UNL A   1      32.850  25.992  22.036  1.00  0.00     0.240 C 
ATOM      6  O   UNL A   1      33.703  26.593  21.374  1.00  0.00    -0.273 OA
ATOM      7  H   UNL A   1      34.128  24.503  22.410  1.00  0.00     0.163 HD
BRANCH   5   8
ATOM      8  C   UNL A   1      31.447  26.600  22.237  1.00  0.00     0.225 C 
BRANCH   8   9
ATOM      9  N   UNL A   1      31.279  27.894  22.945  1.00  0.00    -0.303 N 
BRANCH   9  10
ATOM     10  C   UNL A   1      30.520  28.990  22.480  1.00  0.00     0.234 C 
ATOM     11  O   UNL A   1      30.843  29.624  21.466  1.00  0.00    -0.274 OA
BRANCH  10  12
ATOM     12  C   UNL A   1      29.195  29.384  23.186  1.00  0.00     0.108 C 
ATOM     13  C   UNL A   1      28.040  31.204  21.972  1.00  0.00     0.205 C 
ATOM     14  C   UNL A   1      28.654  31.678  23.246  1.00  0.00     0.033 C 
ATOM     15  C   UNL A   1      28.090  29.683  22.145  1.00  0.00     0.087 C 
ATOM     16  C   UNL A   1      29.295  30.701  23.901  1.00  0.00    -0.012 C 
BRANCH  13  17
ATOM     17  N   UNL A   1      28.839  31.667  20.850  1.00  0.00    -0.352 N 
ATOM     18  H   UNL A   1      29.727  32.033  21.193  1.00  0.00     0.345 HD
ATOM     19  H   UNL A   1      28.336  32.404  20.356  1.00  0.00     0.345 HD
ATOM     20  H   UNL A   1      29.013  30.890  20.213  1.00  0.00     0.345 HD
ENDBRANCH  13  17
ENDBRANCH  10  12
ENDBRANCH   9  10
BRANCH   9  21
ATOM     21  C   UNL A   1      31.859  27.948  24.276  1.00  0.00     0.044 A 
ATOM     22  C   UNL A   1      31.271  27.289  25.368  1.00  0.00     0.026 A 
ATOM     23  C   UNL A   1      33.013  28.705  24.531  1.00  0.00     0.026 A 
ATOM     24  C   UNL A   1      31.821  27.368  26.654  1.00  0.00     0.002 A 
ATOM     25  C   UNL A   1      33.556  28.798  25.819  1.00  0.00     0.002 A 
ATOM     26  C   UNL A   1      32.961  28.127  26.881  1.00  0.00     0.000 A 
ENDBRANCH   9  21
ENDBRANCH   8   9
ENDBRANCH   5   8
ENDBRANCH   3   4
ENDBRANCH   2   3
ENDBRANCH   1   2
BRANCH   1  27
ATOM     27  C   UNL A   1      35.354  22.125  24.112  1.00  0.00     0.002 C 
BRANCH  27  28
ATOM     28  C   UNL A   1      36.227  23.332  24.471  1.00  0.00     0.021 C 
BRANCH  28  29
ATOM     29  C   UNL A   1      36.726  23.342  25.912  1.00  0.00     0.116 C 
BRANCH  29  30
ATOM     30  N   UNL A   1      37.867  22.457  26.092  1.00  0.00    -0.352 N 
ATOM     31  C   UNL A   1      39.160  22.765  26.426  1.00  0.00     0.251 C 
ATOM     32  H   UNL A   1      37.684  21.500  25.955  1.00  0.00     0.163 HD
ATOM     33  O   UNL A   1      40.042  21.913  26.311  1.00  0.00    -0.269 OA
BRANCH  31  34
ATOM     34  C   UNL A   1      39.494  24.118  26.912  1.00  0.00     0.039 A 
ATOM     35  C   UNL A   1      39.200  24.456  28.236  1.00  0.00     0.014 A 
ATOM     36  C   UNL A   1      40.090  25.054  26.063  1.00  0.00     0.014 A 
ATOM     37  C   UNL A   1      39.553  25.718  28.721  1.00  0.00     0.010 A 
ATOM     38  C   UNL A   1      40.511  26.280  26.569  1.00  0.00     0.010 A 
ATOM     39  C   UNL A   1      40.239  26.629  27.900  1.00  0.00    -0.014 A 
BRANCH  39  40
ATOM     40  C   UNL A   1      40.687  27.947  28.416  1.00  0.00     0.031 A 
ATOM     41  C   UNL A   1      42.155  28.234  28.586  1.00  0.00     0.074 A 
ATOM     42  C   UNL A   1      39.772  28.854  28.811  1.00  0.00     0.049 A 
ATOM     43  N   UNL A   1      42.735  29.296  29.081  1.00  0.00    -0.248 NA
ATOM     44  C   UNL A   1      43.094  27.177  28.173  1.00  0.00     0.031 C 
ATOM     45  C   UNL A   1      38.319  28.665  28.763  1.00  0.00     0.029 A 
ATOM     46  N   UNL A   1      39.925  30.102  29.360  1.00  0.00    -0.354 N 
ATOM     47  C   UNL A   1      44.098  29.025  29.073  1.00  0.00     0.074 A 
ATOM     48  C   UNL A   1      44.257  27.684  28.556  1.00  0.00     0.031 C 
ATOM     49  C   UNL A   1      37.717  29.760  29.257  1.00  0.00     0.029 A 
ATOM     50  C   UNL A   1      38.736  30.709  29.692  1.00  0.00     0.049 A 
ATOM     51  H   UNL A   1      40.804  30.524  29.503  1.00  0.00     0.167 HD
ATOM     52  C   UNL A   1      45.126  29.827  29.440  1.00  0.00     0.034 A 
ATOM     53  C   UNL A   1      38.493  31.893  30.289  1.00  0.00     0.034 A 
ATOM     54  C   UNL A   1      44.964  31.172  29.920  1.00  0.00     0.049 A 
ATOM     55  C   UNL A   1      39.653  32.774  30.664  1.00  0.00     0.074 A 
ATOM     56  C   UNL A   1      45.944  32.096  30.234  1.00  0.00     0.029 A 
ATOM     57  N   UNL A   1      43.745  31.782  30.171  1.00  0.00    -0.354 N 
ATOM     58  N   UNL A   1      40.937  32.561  30.505  1.00  0.00    -0.248 NA
ATOM     59  C   UNL A   1      39.333  34.075  31.270  1.00  0.00     0.031 C 
ATOM     60  C   UNL A   1      45.318  33.253  30.708  1.00  0.00     0.029 A 
ATOM     61  C   UNL A   1      43.947  33.065  30.650  1.00  0.00     0.049 A 
ATOM     62  H   UNL A   1      42.865  31.364  30.029  1.00  0.00     0.167 HD
ATOM     63  C   UNL A   1      41.575  33.714  30.950  1.00  0.00     0.074 A 
ATOM     64  C   UNL A   1      40.533  34.629  31.370  1.00  0.00     0.031 C 
ATOM     65  C   UNL A   1      42.901  33.985  31.015  1.00  0.00     0.034 A 
BRANCH  52  66
ATOM     66  C   UNL A   1      46.525  29.285  29.296  1.00  0.00     0.023 A 
ATOM     67  C   UNL A   1      47.140  28.636  30.387  1.00  0.00     0.012 A 
ATOM     68  C   UNL A   1      47.209  29.362  28.067  1.00  0.00     0.148 A 
ATOM     69  C   UNL A   1      48.425  28.108  30.270  1.00  0.00     0.002 A 
ATOM     70  C   UNL A   1      48.469  28.791  27.943  1.00  0.00     0.091 A 
ATOM     71  F   UNL A   1      46.617  29.999  27.045  1.00  0.00    -0.205 F 
ATOM     72  C   UNL A   1      49.084  28.176  29.046  1.00  0.00     0.022 A 
BRANCH  70  73
ATOM     73  S   UNL A   1      49.368  28.749  26.387  1.00  0.00     0.127 S 
ATOM     74  O   UNL A   1      49.959  30.086  26.352  1.00  0.00    -0.237 OA
ATOM     75  O   UNL A   1      50.325  27.666  26.616  1.00  0.00    -0.237 OA
ATOM     76  O   UNL A   1      48.376  28.477  25.357  1.00  0.00    -0.744 OA
ENDBRANCH  70  73
ENDBRANCH  52  66
BRANCH  53  77
ATOM     77  C   UNL A   1      37.089  32.337  30.521  1.00  0.00     0.023 A 
ATOM     78  C   UNL A   1      36.516  32.187  31.799  1.00  0.00     0.012 A 
ATOM     79  C   UNL A   1      36.327  32.924  29.493  1.00  0.00     0.148 A 
ATOM     80  C   UNL A   1      35.199  32.577  32.040  1.00  0.00     0.002 A 
ATOM     81  C   UNL A   1      35.035  33.365  29.753  1.00  0.00     0.091 A 
ATOM     82  F   UNL A   1      36.886  33.052  28.282  1.00  0.00    -0.205 F 
ATOM     83  C   UNL A   1      34.462  33.174  31.021  1.00  0.00     0.022 A 
BRANCH  81  84
ATOM     84  S   UNL A   1      34.059  34.264  28.543  1.00  0.00     0.127 S 
ATOM     85  O   UNL A   1      34.856  35.474  28.355  1.00  0.00    -0.237 OA
ATOM     86  O   UNL A   1      34.062  33.340  27.408  1.00  0.00    -0.237 OA
ATOM     87  O   UNL A   1      32.751  34.457  29.156  1.00  0.00    -0.744 OA
ENDBRANCH  81  84
ENDBRANCH  53  77
BRANCH  65  88
ATOM     88  C   UNL A   1      43.315  35.347  31.511  1.00  0.00     0.023 A 
ATOM     89  C   UNL A   1      43.559  35.556  32.882  1.00  0.00     0.012 A 
ATOM     90  C   UNL A   1      43.539  36.399  30.600  1.00  0.00     0.148 A 
ATOM     91  C   UNL A   1      43.987  36.801  33.344  1.00  0.00     0.002 A 
ATOM     92  C   UNL A   1      44.017  37.619  31.060  1.00  0.00     0.091 A 
ATOM     93  F   UNL A   1      43.285  36.184  29.301  1.00  0.00    -0.205 F 
ATOM     94  C   UNL A   1      44.228  37.827  32.432  1.00  0.00     0.022 A 
BRANCH  92  95
ATOM     95  S   UNL A   1      44.453  38.964  29.952  1.00  0.00     0.127 S 
ATOM     96  O   UNL A   1      45.159  39.875  30.852  1.00  0.00    -0.237 OA
ATOM     97  O   UNL A   1      45.305  38.293  28.970  1.00  0.00    -0.237 OA
ATOM     98  O   UNL A   1      43.195  39.470  29.417  1.00  0.00    -0.744 OA
ENDBRANCH  92  95
ENDBRANCH  65  88
ENDBRANCH  39  40
ENDBRANCH  31  34
ENDBRANCH  29  30
ENDBRANCH  28  29
ENDBRANCH  27  28
ENDBRANCH   1  27
TORSDOF 21
ENDMDL
MODEL 3
REMARK VINA RESULT:     -11.1      4.957     10.473
REMARK SMILES [NH3+][C@@H]1C=C[C@H](C(=O)N(CC(=O)NCCCCCCNC(=O)c2ccc(-c3c4nc(c(-c5cccc(S(=O)(=O)[O-])c5F)c5ccc([nH]5)c(-c5cccc(S(=O)(=O)[O-])c5F)c5nc(c(-c6cccc(S(=O)(=O)[O-])c6F)c6ccc3[nH]6)C=C5)C=C4)cc2)c2ccccc2)C1
REMARK SMILES IDX 15 1 14 2 13 3 12 4 10 5 11 6 9 8 8 9 6 10 7 11 5 12 2 13
REMARK SMILES IDX 3 14 91 15 4 16 1 17 85 21 86 22 90 23 87 24 89 25 88 26
REMARK SMILES IDX 16 27 17 28 18 29 19 30 20 31 21 33 22 34 23 35 84 36 24 37
REMARK SMILES IDX 83 38 25 39 26 40 27 41 77 42 28 43 82 44 76 45 78 46 29 47
REMARK SMILES IDX 81 48 75 49 74 50 30 52 62 53 42 54 61 55 43 56 46 57 60 58
REMARK SMILES IDX 79 59 44 60 45 61 59 63 80 64 47 65 31 66 32 67 40 68 33 69
REMARK SMILES IDX 35 70 41 71 34 72 36 73 37 74 38 75 39 76 63 77 64 78 72 79
REMARK SMILES IDX 65 80 67 81 73 82 66 83 68 84 69 85 70 86 71 87 48 88 49 89
REMARK SMILES IDX 57 90 50 91 52 92 58 93 51 94 53 95 54 96 55 97 56 98
REMARK H PARENT 12 7 1 18 1 19 1 20 19 32 78 51 46 62
REMARK Flexibility Score: inf
ROOT
ATOM      1  C   UNL A   1      35.042  19.089  24.836  1.00  0.00     0.002 C 
ENDROOT
BRANCH   1   2
ATOM      2  C   UNL A   1      33.704  19.822  24.695  1.00  0.00     0.021 C 
BRANCH   2   3
ATOM      3  C   UNL A   1      33.341  20.662  25.913  1.00  0.00     0.116 C 
BRANCH   3   4
ATOM      4  N   UNL A   1      32.030  21.251  25.823  1.00  0.00    -0.355 N 
ATOM      5  C   UNL A   1      31.660  22.534  26.087  1.00  0.00     0.240 C 
ATOM      6  O   UNL A   1      30.522  22.874  25.744  1.00  0.00    -0.273 OA
ATOM      7  H   UNL A   1      31.309  20.647  25.533  1.00  0.00     0.163 HD
BRANCH   5   8
ATOM      8  C   UNL A   1      32.645  23.573  26.662  1.00  0.00     0.225 C 
BRANCH   8   9
ATOM      9  N   UNL A   1      33.283  24.579  25.777  1.00  0.00    -0.303 N 
BRANCH   9  10
ATOM     10  C   UNL A   1      32.929  25.943  25.698  1.00  0.00     0.234 C 
ATOM     11  O   UNL A   1      32.996  26.693  26.682  1.00  0.00    -0.274 OA
BRANCH  10  12
ATOM     12  C   UNL A   1      32.522  26.573  24.339  1.00  0.00     0.108 C 
ATOM     13  C   UNL A   1      33.113  28.974  24.250  1.00  0.00     0.205 C 
ATOM     14  C   UNL A   1      31.644  28.760  24.391  1.00  0.00     0.033 C 
ATOM     15  C   UNL A   1      33.599  27.575  23.858  1.00  0.00     0.087 C 
ATOM     16  C   UNL A   1      31.317  27.462  24.456  1.00  0.00    -0.012 C 
BRANCH  13  17
ATOM     17  N   UNL A   1      33.659  29.420  25.520  1.00  0.00    -0.352 N 
ATOM     18  H   UNL A   1      34.664  29.244  25.539  1.00  0.00     0.345 HD
ATOM     19  H   UNL A   1      33.210  28.911  26.282  1.00  0.00     0.345 HD
ATOM     20  H   UNL A   1      33.486  30.420  25.632  1.00  0.00     0.345 HD
ENDBRANCH  13  17
ENDBRANCH  10  12
ENDBRANCH   9  10
BRANCH   9  21
ATOM     21  C   UNL A   1      34.440  24.104  25.038  1.00  0.00     0.044 A 
ATOM     22  C   UNL A   1      34.333  23.619  23.724  1.00  0.00     0.026 A 
ATOM     23  C   UNL A   1      35.712  24.068  25.631  1.00  0.00     0.026 A 
ATOM     24  C   UNL A   1      35.449  23.137  23.028  1.00  0.00     0.002 A 
ATOM     25  C   UNL A   1      36.826  23.572  24.943  1.00  0.00     0.002 A 
ATOM     26  C   UNL A   1      36.695  23.108  23.639  1.00  0.00     0.000 A 
ENDBRANCH   9  21
ENDBRANCH   8   9
ENDBRANCH   5   8
ENDBRANCH   3   4
ENDBRANCH   2   3
ENDBRANCH   1   2
BRANCH   1  27
ATOM     27  C   UNL A   1      36.264  20.003  24.984  1.00  0.00     0.002 C 
BRANCH  27  28
ATOM     28  C   UNL A   1      37.619  19.289  24.933  1.00  0.00     0.021 C 
BRANCH  28  29
ATOM     29  C   UNL A   1      38.752  20.037  25.627  1.00  0.00     0.116 C 
BRANCH  29  30
ATOM     30  N   UNL A   1      39.885  19.164  25.901  1.00  0.00    -0.352 N 
ATOM     31  C   UNL A   1      41.187  19.492  26.174  1.00  0.00     0.251 C 
ATOM     32  H   UNL A   1      39.686  18.200  25.888  1.00  0.00     0.163 HD
ATOM     33  O   UNL A   1      42.055  18.620  26.154  1.00  0.00    -0.269 OA
BRANCH  31  34
ATOM     34  C   UNL A   1      41.546  20.891  26.481  1.00  0.00     0.039 A 
ATOM     35  C   UNL A   1      41.936  21.223  27.781  1.00  0.00     0.014 A 
ATOM     36  C   UNL A   1      41.491  21.874  25.490  1.00  0.00     0.014 A 
ATOM     37  C   UNL A   1      42.323  22.533  28.073  1.00  0.00     0.010 A 
ATOM     38  C   UNL A   1      41.951  23.159  25.763  1.00  0.00     0.010 A 
ATOM     39  C   UNL A   1      42.363  23.505  27.059  1.00  0.00    -0.014 A 
BRANCH  39  40
ATOM     40  C   UNL A   1      42.838  24.885  27.330  1.00  0.00     0.031 A 
ATOM     41  C   UNL A   1      41.930  25.881  27.999  1.00  0.00     0.074 A 
ATOM     42  C   UNL A   1      44.056  25.267  26.896  1.00  0.00     0.049 A 
ATOM     43  N   UNL A   1      42.141  27.145  28.259  1.00  0.00    -0.248 NA
ATOM     44  C   UNL A   1      40.597  25.402  28.405  1.00  0.00     0.031 C 
ATOM     45  C   UNL A   1      45.001  24.414  26.171  1.00  0.00     0.029 A 
ATOM     46  N   UNL A   1      44.696  26.479  26.974  1.00  0.00    -0.354 N 
ATOM     47  C   UNL A   1      40.963  27.621  28.822  1.00  0.00     0.074 A 
ATOM     48  C   UNL A   1      40.027  26.518  28.836  1.00  0.00     0.031 C 
ATOM     49  C   UNL A   1      46.100  25.128  25.875  1.00  0.00     0.029 A 
ATOM     50  C   UNL A   1      45.923  26.495  26.354  1.00  0.00     0.049 A 
ATOM     51  H   UNL A   1      44.312  27.263  27.430  1.00  0.00     0.167 HD
ATOM     52  C   UNL A   1      40.691  28.856  29.307  1.00  0.00     0.034 A 
ATOM     53  C   UNL A   1      46.804  27.501  26.178  1.00  0.00     0.034 A 
ATOM     54  C   UNL A   1      41.637  29.939  29.322  1.00  0.00     0.049 A 
ATOM     55  C   UNL A   1      46.487  28.857  26.748  1.00  0.00     0.074 A 
ATOM     56  C   UNL A   1      41.488  31.200  29.870  1.00  0.00     0.029 A 
ATOM     57  N   UNL A   1      42.900  29.896  28.753  1.00  0.00    -0.354 N 
ATOM     58  N   UNL A   1      45.427  29.245  27.416  1.00  0.00    -0.248 NA
ATOM     59  C   UNL A   1      47.500  29.907  26.571  1.00  0.00     0.031 C 
ATOM     60  C   UNL A   1      42.649  31.932  29.600  1.00  0.00     0.029 A 
ATOM     61  C   UNL A   1      43.537  31.113  28.923  1.00  0.00     0.049 A 
ATOM     62  H   UNL A   1      43.287  29.114  28.296  1.00  0.00     0.167 HD
ATOM     63  C   UNL A   1      45.664  30.567  27.775  1.00  0.00     0.074 A 
ATOM     64  C   UNL A   1      46.976  30.908  27.264  1.00  0.00     0.031 C 
ATOM     65  C   UNL A   1      44.864  31.423  28.456  1.00  0.00     0.034 A 
BRANCH  52  66
ATOM     66  C   UNL A   1      39.326  29.093  29.900  1.00  0.00     0.023 A 
ATOM     67  C   UNL A   1      39.047  28.654  31.211  1.00  0.00     0.012 A 
ATOM     68  C   UNL A   1      38.340  29.802  29.186  1.00  0.00     0.148 A 
ATOM     69  C   UNL A   1      37.798  28.882  31.787  1.00  0.00     0.002 A 
ATOM     70  C   UNL A   1      37.115  30.069  29.785  1.00  0.00     0.091 A 
ATOM     71  F   UNL A   1      38.616  30.197  27.934  1.00  0.00    -0.205 F 
ATOM     72  C   UNL A   1      36.837  29.599  31.079  1.00  0.00     0.022 A 
BRANCH  70  73
ATOM     73  S   UNL A   1      35.841  31.056  28.991  1.00  0.00     0.127 S 
ATOM     74  O   UNL A   1      35.106  31.572  30.145  1.00  0.00    -0.237 OA
ATOM     75  O   UNL A   1      36.632  32.059  28.276  1.00  0.00    -0.237 OA
ATOM     76  O   UNL A   1      35.098  30.143  28.135  1.00  0.00    -0.744 OA
ENDBRANCH  70  73
ENDBRANCH  52  66
BRANCH  53  77
ATOM     77  C   UNL A   1      48.095  27.249  25.478  1.00  0.00     0.023 A 
ATOM     78  C   UNL A   1      49.185  26.726  26.201  1.00  0.00     0.012 A 
ATOM     79  C   UNL A   1      48.245  27.504  24.102  1.00  0.00     0.148 A 
ATOM     80  C   UNL A   1      50.412  26.498  25.576  1.00  0.00     0.002 A 
ATOM     81  C   UNL A   1      49.451  27.219  23.471  1.00  0.00     0.091 A 
ATOM     82  F   UNL A   1      47.200  28.008  23.432  1.00  0.00    -0.205 F 
ATOM     83  C   UNL A   1      50.542  26.735  24.211  1.00  0.00     0.022 A 
BRANCH  81  84
ATOM     84  S   UNL A   1      49.670  27.367  21.695  1.00  0.00     0.127 S 
ATOM     85  O   UNL A   1      49.854  28.808  21.535  1.00  0.00    -0.237 OA
ATOM     86  O   UNL A   1      50.873  26.563  21.473  1.00  0.00    -0.237 OA
ATOM     87  O   UNL A   1      48.461  26.814  21.101  1.00  0.00    -0.744 OA
ENDBRANCH  81  84
ENDBRANCH  53  77
BRANCH  65  88
ATOM     88  C   UNL A   1      45.396  32.804  28.741  1.00  0.00     0.023 A 
ATOM     89  C   UNL A   1      45.139  33.860  27.845  1.00  0.00     0.012 A 
ATOM     90  C   UNL A   1      46.084  33.069  29.942  1.00  0.00     0.148 A 
ATOM     91  C   UNL A   1      45.588  35.151  28.124  1.00  0.00     0.002 A 
ATOM     92  C   UNL A   1      46.481  34.366  30.239  1.00  0.00     0.091 A 
ATOM     93  F   UNL A   1      46.333  32.046  30.773  1.00  0.00    -0.205 F 
ATOM     94  C   UNL A   1      46.247  35.405  29.325  1.00  0.00     0.022 A 
BRANCH  92  95
ATOM     95  S   UNL A   1      47.244  34.807  31.804  1.00  0.00     0.127 S 
ATOM     96  O   UNL A   1      48.237  33.745  31.960  1.00  0.00    -0.237 OA
ATOM     97  O   UNL A   1      47.803  36.128  31.514  1.00  0.00    -0.237 OA
ATOM     98  O   UNL A   1      46.172  34.806  32.791  1.00  0.00    -0.744 OA
ENDBRANCH  92  95
ENDBRANCH  65  88
ENDBRANCH  39  40
ENDBRANCH  31  34
ENDBRANCH  29  30
ENDBRANCH  28  29
ENDBRANCH  27  28
ENDBRANCH   1  27
TORSDOF 21
ENDMDL
