MODEL 1
REMARK VINA RESULT:     -12.3      0.000      0.000
REMARK SMILES Cc1c(Br)c(C)c2c(c1Br)O[C@H](C(F)(F)F)C(C(=O)NCCCCCCNC(=O)c1ccc(-c3c4nc(c(-c5cccc(S(=O)(=O)[O-])c5F)c5ccc([nH]5)c(-c5cccc(S(=O)(=O)[O-])c5F)c5nc(c(-c6cccc(S(=O)(=O)[O-])c6F)c6ccc3[nH]6)C=C5)C=C4)cc1)=C2
REMARK SMILES IDX 24 1 23 2 22 3 21 4 20 5 18 6 19 7 17 9 1 10 2 11 3 12 9 13
REMARK SMILES IDX 4 14 5 15 8 16 10 17 6 18 7 19 11 20 93 21 12 22 13 23 14 24
REMARK SMILES IDX 15 25 16 26 25 27 26 28 27 29 28 30 29 32 30 33 31 34 92 35
REMARK SMILES IDX 32 36 91 37 33 38 34 39 35 40 85 41 36 42 90 43 84 44 86 45
REMARK SMILES IDX 37 46 89 47 83 48 82 49 38 51 70 52 50 53 69 54 51 55 54 56
REMARK SMILES IDX 68 57 87 58 52 59 53 60 67 62 88 63 55 64 39 65 40 66 48 67
REMARK SMILES IDX 41 68 43 69 49 70 42 71 44 72 45 73 46 74 47 75 71 76 72 77
REMARK SMILES IDX 80 78 73 79 75 80 81 81 74 82 76 83 77 84 78 85 79 86 56 87
REMARK SMILES IDX 57 88 65 89 58 90 60 91 66 92 59 93 61 94 62 95 63 96 64 97
REMARK H PARENT 20 8 27 31 86 50 54 61
REMARK Flexibility Score: inf
ROOT
ATOM      1  C   UNL A   1      31.711  30.559  25.921  1.00  0.00     0.002 C 
ENDROOT
BRANCH   1   2
ATOM      2  C   UNL A   1      32.627  29.433  26.417  1.00  0.00     0.002 C 
BRANCH   2   3
ATOM      3  C   UNL A   1      33.617  28.904  25.378  1.00  0.00     0.021 C 
BRANCH   3   4
ATOM      4  C   UNL A   1      33.644  27.381  25.288  1.00  0.00     0.116 C 
BRANCH   4   5
ATOM      5  N   UNL A   1      32.488  26.785  25.938  1.00  0.00    -0.352 N 
ATOM      6  C   UNL A   1      32.042  25.538  26.215  1.00  0.00     0.251 C 
ATOM      7  O   UNL A   1      30.974  25.483  26.833  1.00  0.00    -0.270 OA
ATOM      8  H   UNL A   1      31.863  27.472  26.264  1.00  0.00     0.163 HD
BRANCH   6   9
ATOM      9  C   UNL A   1      32.737  24.272  25.832  1.00  0.00     0.067 C 
ATOM     10  C   UNL A   1      36.897  19.300  24.796  1.00  0.00     0.047 C 
ATOM     11  C   UNL A   1      36.190  20.599  25.103  1.00  0.00    -0.019 A 
ATOM     12  C   UNL A   1      36.904  21.745  25.540  1.00  0.00     0.025 A 
ATOM     13  C   UNL A   1      34.789  20.681  25.034  1.00  0.00     0.064 A 
ATOM     14  Br  UNL A   1      38.804  21.608  25.785  1.00  0.00    -0.050 Br
ATOM     15  C   UNL A   1      36.243  22.967  25.839  1.00  0.00    -0.026 A 
ATOM     16  C   UNL A   1      34.127  21.882  25.332  1.00  0.00     0.142 A 
ATOM     17  Br  UNL A   1      33.720  19.159  24.568  1.00  0.00    -0.046 Br
ATOM     18  C   UNL A   1      36.988  24.207  26.283  1.00  0.00     0.046 C 
ATOM     19  C   UNL A   1      34.833  23.021  25.737  1.00  0.00     0.022 A 
ATOM     20  O   UNL A   1      32.762  21.862  25.270  1.00  0.00    -0.474 OA
ATOM     21  C   UNL A   1      34.054  24.214  26.100  1.00  0.00     0.026 C 
ATOM     22  C   UNL A   1      32.064  23.119  25.158  1.00  0.00     0.314 C 
BRANCH  22  23
ATOM     23  C   UNL A   1      31.731  23.405  23.683  1.00  0.00     0.429 C 
ATOM     24  F   UNL A   1      30.409  23.653  23.529  1.00  0.00    -0.167 F 
ATOM     25  F   UNL A   1      32.385  24.492  23.208  1.00  0.00    -0.167 F 
ATOM     26  F   UNL A   1      32.055  22.370  22.875  1.00  0.00    -0.167 F 
ENDBRANCH  22  23
ENDBRANCH   6   9
ENDBRANCH   4   5
ENDBRANCH   3   4
ENDBRANCH   2   3
ENDBRANCH   1   2
BRANCH   1  27
ATOM     27  C   UNL A   1      31.561  31.749  26.875  1.00  0.00     0.021 C 
BRANCH  27  28
ATOM     28  C   UNL A   1      32.867  32.468  27.197  1.00  0.00     0.116 C 
BRANCH  28  29
ATOM     29  N   UNL A   1      32.633  33.853  27.575  1.00  0.00    -0.352 N 
ATOM     30  C   UNL A   1      33.168  34.567  28.613  1.00  0.00     0.251 C 
ATOM     31  H   UNL A   1      32.002  34.347  27.002  1.00  0.00     0.163 HD
ATOM     32  O   UNL A   1      32.680  35.654  28.927  1.00  0.00    -0.269 OA
BRANCH  30  33
ATOM     33  C   UNL A   1      34.325  34.030  29.354  1.00  0.00     0.039 A 
ATOM     34  C   UNL A   1      34.102  33.179  30.439  1.00  0.00     0.014 A 
ATOM     35  C   UNL A   1      35.627  34.384  28.988  1.00  0.00     0.014 A 
ATOM     36  C   UNL A   1      35.190  32.649  31.134  1.00  0.00     0.010 A 
ATOM     37  C   UNL A   1      36.710  33.803  29.639  1.00  0.00     0.010 A 
ATOM     38  C   UNL A   1      36.501  32.940  30.725  1.00  0.00    -0.014 A 
BRANCH  38  39
ATOM     39  C   UNL A   1      37.675  32.360  31.420  1.00  0.00     0.031 A 
ATOM     40  C   UNL A   1      38.414  31.204  30.806  1.00  0.00     0.074 A 
ATOM     41  C   UNL A   1      38.022  32.823  32.637  1.00  0.00     0.049 A 
ATOM     42  N   UNL A   1      39.403  30.505  31.297  1.00  0.00    -0.248 NA
ATOM     43  C   UNL A   1      37.970  30.761  29.473  1.00  0.00     0.031 C 
ATOM     44  C   UNL A   1      37.346  33.909  33.350  1.00  0.00     0.029 A 
ATOM     45  N   UNL A   1      39.010  32.423  33.499  1.00  0.00    -0.354 N 
ATOM     46  C   UNL A   1      39.684  29.527  30.351  1.00  0.00     0.074 A 
ATOM     47  C   UNL A   1      38.738  29.698  29.271  1.00  0.00     0.031 C 
ATOM     48  C   UNL A   1      37.943  34.092  34.538  1.00  0.00     0.029 A 
ATOM     49  C   UNL A   1      39.017  33.114  34.688  1.00  0.00     0.049 A 
ATOM     50  H   UNL A   1      39.655  31.710  33.287  1.00  0.00     0.167 HD
ATOM     51  C   UNL A   1      40.662  28.590  30.368  1.00  0.00     0.034 A 
ATOM     52  C   UNL A   1      39.794  32.970  35.779  1.00  0.00     0.034 A 
ATOM     53  C   UNL A   1      41.619  28.449  31.433  1.00  0.00     0.049 A 
ATOM     54  C   UNL A   1      40.878  31.926  35.766  1.00  0.00     0.074 A 
ATOM     55  C   UNL A   1      42.678  27.564  31.520  1.00  0.00     0.029 A 
ATOM     56  N   UNL A   1      41.635  29.209  32.593  1.00  0.00    -0.354 N 
ATOM     57  N   UNL A   1      41.202  31.084  34.815  1.00  0.00    -0.248 NA
ATOM     58  C   UNL A   1      41.729  31.837  36.962  1.00  0.00     0.031 C 
ATOM     59  C   UNL A   1      43.320  27.772  32.745  1.00  0.00     0.029 A 
ATOM     60  C   UNL A   1      42.684  28.813  33.404  1.00  0.00     0.049 A 
ATOM     61  H   UNL A   1      40.994  29.925  32.807  1.00  0.00     0.167 HD
ATOM     62  C   UNL A   1      42.314  30.391  35.279  1.00  0.00     0.074 A 
ATOM     63  C   UNL A   1      42.621  30.929  36.589  1.00  0.00     0.031 C 
ATOM     64  C   UNL A   1      43.009  29.391  34.682  1.00  0.00     0.034 A 
BRANCH  51  65
ATOM     65  C   UNL A   1      40.789  27.680  29.173  1.00  0.00     0.023 A 
ATOM     66  C   UNL A   1      39.951  26.551  29.071  1.00  0.00     0.012 A 
ATOM     67  C   UNL A   1      41.663  27.989  28.113  1.00  0.00     0.148 A 
ATOM     68  C   UNL A   1      39.996  25.730  27.945  1.00  0.00     0.002 A 
ATOM     69  C   UNL A   1      41.668  27.195  26.971  1.00  0.00     0.091 A 
ATOM     70  F   UNL A   1      42.468  29.055  28.238  1.00  0.00    -0.205 F 
ATOM     71  C   UNL A   1      40.844  26.060  26.891  1.00  0.00     0.022 A 
BRANCH  69  72
ATOM     72  S   UNL A   1      42.654  27.582  25.521  1.00  0.00     0.127 S 
ATOM     73  O   UNL A   1      44.001  27.643  26.087  1.00  0.00    -0.237 OA
ATOM     74  O   UNL A   1      42.406  26.422  24.664  1.00  0.00    -0.237 OA
ATOM     75  O   UNL A   1      42.140  28.844  25.007  1.00  0.00    -0.744 OA
ENDBRANCH  69  72
ENDBRANCH  51  65
BRANCH  52  76
ATOM     76  C   UNL A   1      39.622  33.892  36.938  1.00  0.00     0.023 A 
ATOM     77  C   UNL A   1      39.994  35.243  36.804  1.00  0.00     0.012 A 
ATOM     78  C   UNL A   1      39.043  33.457  38.147  1.00  0.00     0.148 A 
ATOM     79  C   UNL A   1      39.819  36.139  37.859  1.00  0.00     0.002 A 
ATOM     80  C   UNL A   1      38.815  34.367  39.173  1.00  0.00     0.091 A 
ATOM     81  F   UNL A   1      38.705  32.164  38.259  1.00  0.00    -0.205 F 
ATOM     82  C   UNL A   1      39.219  35.704  39.038  1.00  0.00     0.022 A 
BRANCH  80  83
ATOM     83  S   UNL A   1      37.918  33.935  40.667  1.00  0.00     0.127 S 
ATOM     84  O   UNL A   1      38.892  33.107  41.373  1.00  0.00    -0.237 OA
ATOM     85  O   UNL A   1      37.678  35.250  41.263  1.00  0.00    -0.237 OA
ATOM     86  O   UNL A   1      36.714  33.249  40.220  1.00  0.00    -0.744 OA
ENDBRANCH  80  83
ENDBRANCH  52  76
BRANCH  64  87
ATOM     87  C   UNL A   1      44.198  28.825  35.417  1.00  0.00     0.023 A 
ATOM     88  C   UNL A   1      45.478  29.379  35.218  1.00  0.00     0.012 A 
ATOM     89  C   UNL A   1      44.030  27.800  36.372  1.00  0.00     0.148 A 
ATOM     90  C   UNL A   1      46.576  28.901  35.930  1.00  0.00     0.002 A 
ATOM     91  C   UNL A   1      45.119  27.368  37.118  1.00  0.00     0.091 A 
ATOM     92  F   UNL A   1      42.808  27.271  36.536  1.00  0.00    -0.205 F 
ATOM     93  C   UNL A   1      46.395  27.906  36.889  1.00  0.00     0.022 A 
BRANCH  91  94
ATOM     94  S   UNL A   1      44.961  26.172  38.450  1.00  0.00     0.127 S 
ATOM     95  O   UNL A   1      44.707  24.936  37.710  1.00  0.00    -0.237 OA
ATOM     96  O   UNL A   1      46.275  26.242  39.089  1.00  0.00    -0.237 OA
ATOM     97  O   UNL A   1      43.860  26.642  39.281  1.00  0.00    -0.744 OA
ENDBRANCH  91  94
ENDBRANCH  64  87
ENDBRANCH  38  39
ENDBRANCH  30  33
ENDBRANCH  28  29
ENDBRANCH  27  28
ENDBRANCH   1  27
TORSDOF 17
ENDMDL
MODEL 2
REMARK VINA RESULT:     -12.0      1.145      1.591
REMARK SMILES Cc1c(Br)c(C)c2c(c1Br)O[C@H](C(F)(F)F)C(C(=O)NCCCCCCNC(=O)c1ccc(-c3c4nc(c(-c5cccc(S(=O)(=O)[O-])c5F)c5ccc([nH]5)c(-c5cccc(S(=O)(=O)[O-])c5F)c5nc(c(-c6cccc(S(=O)(=O)[O-])c6F)c6ccc3[nH]6)C=C5)C=C4)cc1)=C2
REMARK SMILES IDX 24 1 23 2 22 3 21 4 20 5 18 6 19 7 17 9 1 10 2 11 3 12 9 13
REMARK SMILES IDX 4 14 5 15 8 16 10 17 6 18 7 19 11 20 93 21 12 22 13 23 14 24
REMARK SMILES IDX 15 25 16 26 25 27 26 28 27 29 28 30 29 32 30 33 31 34 92 35
REMARK SMILES IDX 32 36 91 37 33 38 34 39 35 40 85 41 36 42 90 43 84 44 86 45
REMARK SMILES IDX 37 46 89 47 83 48 82 49 38 51 70 52 50 53 69 54 51 55 54 56
REMARK SMILES IDX 68 57 87 58 52 59 53 60 67 62 88 63 55 64 39 65 40 66 48 67
REMARK SMILES IDX 41 68 43 69 49 70 42 71 44 72 45 73 46 74 47 75 71 76 72 77
REMARK SMILES IDX 80 78 73 79 75 80 81 81 74 82 76 83 77 84 78 85 79 86 56 87
REMARK SMILES IDX 57 88 65 89 58 90 60 91 66 92 59 93 61 94 62 95 63 96 64 97
REMARK H PARENT 20 8 27 31 86 50 54 61
REMARK Flexibility Score: inf
ROOT
ATOM      1  C   UNL A   1      31.633  30.951  25.712  1.00  0.00     0.002 C 
ENDROOT
BRANCH   1   2
ATOM      2  C   UNL A   1      31.577  29.479  26.141  1.00  0.00     0.002 C 
BRANCH   2   3
ATOM      3  C   UNL A   1      32.628  29.070  27.174  1.00  0.00     0.021 C 
BRANCH   3   4
ATOM      4  C   UNL A   1      34.041  29.000  26.605  1.00  0.00     0.116 C 
BRANCH   4   5
ATOM      5  N   UNL A   1      34.032  28.930  25.153  1.00  0.00    -0.352 N 
ATOM      6  C   UNL A   1      33.759  28.002  24.208  1.00  0.00     0.251 C 
ATOM      7  O   UNL A   1      33.858  28.391  23.039  1.00  0.00    -0.270 OA
ATOM      8  H   UNL A   1      34.294  29.789  24.749  1.00  0.00     0.163 HD
BRANCH   6   9
ATOM      9  C   UNL A   1      33.361  26.588  24.481  1.00  0.00     0.067 C 
ATOM     10  C   UNL A   1      33.007  20.153  25.731  1.00  0.00     0.047 C 
ATOM     11  C   UNL A   1      33.378  21.574  25.379  1.00  0.00    -0.019 A 
ATOM     12  C   UNL A   1      34.703  21.924  25.011  1.00  0.00     0.025 A 
ATOM     13  C   UNL A   1      32.428  22.604  25.482  1.00  0.00     0.064 A 
ATOM     14  Br  UNL A   1      36.050  20.554  25.011  1.00  0.00    -0.050 Br
ATOM     15  C   UNL A   1      35.059  23.261  24.688  1.00  0.00    -0.026 A 
ATOM     16  C   UNL A   1      32.771  23.928  25.169  1.00  0.00     0.142 A 
ATOM     17  Br  UNL A   1      30.640  22.259  26.084  1.00  0.00    -0.046 Br
ATOM     18  C   UNL A   1      36.461  23.650  24.268  1.00  0.00     0.046 C 
ATOM     19  C   UNL A   1      34.072  24.270  24.779  1.00  0.00     0.022 A 
ATOM     20  O   UNL A   1      31.794  24.870  25.328  1.00  0.00    -0.474 OA
ATOM     21  C   UNL A   1      34.363  25.691  24.542  1.00  0.00     0.026 C 
ATOM     22  C   UNL A   1      31.946  26.134  24.652  1.00  0.00     0.314 C 
BRANCH  22  23
ATOM     23  C   UNL A   1      31.163  26.119  23.328  1.00  0.00     0.429 C 
ATOM     24  F   UNL A   1      30.555  27.310  23.115  1.00  0.00    -0.167 F 
ATOM     25  F   UNL A   1      31.964  25.899  22.257  1.00  0.00    -0.167 F 
ATOM     26  F   UNL A   1      30.210  25.159  23.306  1.00  0.00    -0.167 F 
ENDBRANCH  22  23
ENDBRANCH   6   9
ENDBRANCH   4   5
ENDBRANCH   3   4
ENDBRANCH   2   3
ENDBRANCH   1   2
BRANCH   1  27
ATOM     27  C   UNL A   1      31.461  31.969  26.844  1.00  0.00     0.021 C 
BRANCH  27  28
ATOM     28  C   UNL A   1      32.763  32.589  27.338  1.00  0.00     0.116 C 
BRANCH  28  29
ATOM     29  N   UNL A   1      32.592  33.995  27.670  1.00  0.00    -0.352 N 
ATOM     30  C   UNL A   1      33.176  34.724  28.671  1.00  0.00     0.251 C 
ATOM     31  H   UNL A   1      31.967  34.493  27.093  1.00  0.00     0.163 HD
ATOM     32  O   UNL A   1      32.738  35.839  28.955  1.00  0.00    -0.269 OA
BRANCH  30  33
ATOM     33  C   UNL A   1      34.329  34.169  29.406  1.00  0.00     0.039 A 
ATOM     34  C   UNL A   1      34.097  33.325  30.495  1.00  0.00     0.014 A 
ATOM     35  C   UNL A   1      35.635  34.499  29.030  1.00  0.00     0.014 A 
ATOM     36  C   UNL A   1      35.180  32.777  31.184  1.00  0.00     0.010 A 
ATOM     37  C   UNL A   1      36.711  33.900  29.676  1.00  0.00     0.010 A 
ATOM     38  C   UNL A   1      36.493  33.044  30.766  1.00  0.00    -0.014 A 
BRANCH  38  39
ATOM     39  C   UNL A   1      37.661  32.445  31.455  1.00  0.00     0.031 A 
ATOM     40  C   UNL A   1      38.395  31.294  30.826  1.00  0.00     0.074 A 
ATOM     41  C   UNL A   1      38.008  32.887  32.680  1.00  0.00     0.049 A 
ATOM     42  N   UNL A   1      39.377  30.581  31.309  1.00  0.00    -0.248 NA
ATOM     43  C   UNL A   1      37.952  30.875  29.485  1.00  0.00     0.031 C 
ATOM     44  C   UNL A   1      37.337  33.967  33.408  1.00  0.00     0.029 A 
ATOM     45  N   UNL A   1      38.991  32.467  33.539  1.00  0.00    -0.354 N 
ATOM     46  C   UNL A   1      39.654  29.615  30.348  1.00  0.00     0.074 A 
ATOM     47  C   UNL A   1      38.713  29.810  29.269  1.00  0.00     0.031 C 
ATOM     48  C   UNL A   1      37.932  34.127  34.600  1.00  0.00     0.029 A 
ATOM     49  C   UNL A   1      38.999  33.140  34.738  1.00  0.00     0.049 A 
ATOM     50  H   UNL A   1      39.631  31.753  33.318  1.00  0.00     0.167 HD
ATOM     51  C   UNL A   1      40.626  28.672  30.354  1.00  0.00     0.034 A 
ATOM     52  C   UNL A   1      39.772  32.974  35.829  1.00  0.00     0.034 A 
ATOM     53  C   UNL A   1      41.578  28.508  31.419  1.00  0.00     0.049 A 
ATOM     54  C   UNL A   1      40.849  31.922  35.804  1.00  0.00     0.074 A 
ATOM     55  C   UNL A   1      42.632  27.614  31.496  1.00  0.00     0.029 A 
ATOM     56  N   UNL A   1      41.596  29.250  32.590  1.00  0.00    -0.354 N 
ATOM     57  N   UNL A   1      41.169  31.093  34.840  1.00  0.00    -0.248 NA
ATOM     58  C   UNL A   1      41.695  31.809  37.000  1.00  0.00     0.031 C 
ATOM     59  C   UNL A   1      43.271  27.799  32.726  1.00  0.00     0.029 A 
ATOM     60  C   UNL A   1      42.641  28.833  33.398  1.00  0.00     0.049 A 
ATOM     61  H   UNL A   1      40.960  29.967  32.814  1.00  0.00     0.167 HD
ATOM     62  C   UNL A   1      42.276  30.385  35.297  1.00  0.00     0.074 A 
ATOM     63  C   UNL A   1      42.582  30.901  36.616  1.00  0.00     0.031 C 
ATOM     64  C   UNL A   1      42.966  29.390  34.686  1.00  0.00     0.034 A 
BRANCH  51  65
ATOM     65  C   UNL A   1      40.750  27.779  29.145  1.00  0.00     0.023 A 
ATOM     66  C   UNL A   1      39.886  26.674  29.009  1.00  0.00     0.012 A 
ATOM     67  C   UNL A   1      41.650  28.084  28.105  1.00  0.00     0.148 A 
ATOM     68  C   UNL A   1      39.929  25.873  27.869  1.00  0.00     0.002 A 
ATOM     69  C   UNL A   1      41.654  27.311  26.950  1.00  0.00     0.091 A 
ATOM     70  F   UNL A   1      42.479  29.127  28.263  1.00  0.00    -0.205 F 
ATOM     71  C   UNL A   1      40.803  26.199  26.836  1.00  0.00     0.022 A 
BRANCH  69  72
ATOM     72  S   UNL A   1      42.675  27.697  25.524  1.00  0.00     0.127 S 
ATOM     73  O   UNL A   1      43.988  27.884  26.141  1.00  0.00    -0.237 OA
ATOM     74  O   UNL A   1      42.549  26.481  24.720  1.00  0.00    -0.237 OA
ATOM     75  O   UNL A   1      42.096  28.890  24.923  1.00  0.00    -0.744 OA
ENDBRANCH  69  72
ENDBRANCH  51  65
BRANCH  52  76
ATOM     76  C   UNL A   1      39.602  33.878  37.002  1.00  0.00     0.023 A 
ATOM     77  C   UNL A   1      39.999  35.225  36.895  1.00  0.00     0.012 A 
ATOM     78  C   UNL A   1      39.003  33.433  38.197  1.00  0.00     0.148 A 
ATOM     79  C   UNL A   1      39.828  36.106  37.964  1.00  0.00     0.002 A 
ATOM     80  C   UNL A   1      38.779  34.329  39.236  1.00  0.00     0.091 A 
ATOM     81  F   UNL A   1      38.641  32.144  38.284  1.00  0.00    -0.205 F 
ATOM     82  C   UNL A   1      39.207  35.661  39.128  1.00  0.00     0.022 A 
BRANCH  80  83
ATOM     83  S   UNL A   1      37.858  33.887  40.713  1.00  0.00     0.127 S 
ATOM     84  O   UNL A   1      37.664  35.188  41.346  1.00  0.00    -0.237 OA
ATOM     85  O   UNL A   1      36.649  33.290  40.145  1.00  0.00    -0.237 OA
ATOM     86  O   UNL A   1      38.705  32.952  41.441  1.00  0.00    -0.744 OA
ENDBRANCH  80  83
ENDBRANCH  52  76
BRANCH  64  87
ATOM     87  C   UNL A   1      44.148  28.804  35.416  1.00  0.00     0.023 A 
ATOM     88  C   UNL A   1      45.435  29.340  35.213  1.00  0.00     0.012 A 
ATOM     89  C   UNL A   1      43.968  27.780  36.369  1.00  0.00     0.148 A 
ATOM     90  C   UNL A   1      46.529  28.843  35.921  1.00  0.00     0.002 A 
ATOM     91  C   UNL A   1      45.054  27.330  37.111  1.00  0.00     0.091 A 
ATOM     92  F   UNL A   1      42.739  27.269  36.536  1.00  0.00    -0.205 F 
ATOM     93  C   UNL A   1      46.337  27.849  36.878  1.00  0.00     0.022 A 
BRANCH  91  94
ATOM     94  S   UNL A   1      44.882  26.134  38.440  1.00  0.00     0.127 S 
ATOM     95  O   UNL A   1      44.535  24.919  37.704  1.00  0.00    -0.237 OA
ATOM     96  O   UNL A   1      46.221  26.129  39.029  1.00  0.00    -0.237 OA
ATOM     97  O   UNL A   1      43.839  26.654  39.315  1.00  0.00    -0.744 OA
ENDBRANCH  91  94
ENDBRANCH  64  87
ENDBRANCH  38  39
ENDBRANCH  30  33
ENDBRANCH  28  29
ENDBRANCH  27  28
ENDBRANCH   1  27
TORSDOF 17
ENDMDL
MODEL 3
REMARK VINA RESULT:     -11.9      6.248      9.884
REMARK SMILES Cc1c(Br)c(C)c2c(c1Br)O[C@H](C(F)(F)F)C(C(=O)NCCCCCCNC(=O)c1ccc(-c3c4nc(c(-c5cccc(S(=O)(=O)[O-])c5F)c5ccc([nH]5)c(-c5cccc(S(=O)(=O)[O-])c5F)c5nc(c(-c6cccc(S(=O)(=O)[O-])c6F)c6ccc3[nH]6)C=C5)C=C4)cc1)=C2
REMARK SMILES IDX 24 1 23 2 22 3 21 4 20 5 18 6 19 7 17 9 1 10 2 11 3 12 9 13
REMARK SMILES IDX 4 14 5 15 8 16 10 17 6 18 7 19 11 20 93 21 12 22 13 23 14 24
REMARK SMILES IDX 15 25 16 26 25 27 26 28 27 29 28 30 29 32 30 33 31 34 92 35
REMARK SMILES IDX 32 36 91 37 33 38 34 39 35 40 85 41 36 42 90 43 84 44 86 45
REMARK SMILES IDX 37 46 89 47 83 48 82 49 38 51 70 52 50 53 69 54 51 55 54 56
REMARK SMILES IDX 68 57 87 58 52 59 53 60 67 62 88 63 55 64 39 65 40 66 48 67
REMARK SMILES IDX 41 68 43 69 49 70 42 71 44 72 45 73 46 74 47 75 71 76 72 77
REMARK SMILES IDX 80 78 73 79 75 80 81 81 74 82 76 83 77 84 78 85 79 86 56 87
REMARK SMILES IDX 57 88 65 89 58 90 60 91 66 92 59 93 61 94 62 95 63 96 64 97
REMARK H PARENT 20 8 27 31 86 50 54 61
REMARK Flexibility Score: inf
ROOT
ATOM      1  C   UNL A   1      37.058  19.695  25.001  1.00  0.00     0.002 C 
ENDROOT
BRANCH   1   2
ATOM      2  C   UNL A   1      36.360  21.046  24.798  1.00  0.00     0.002 C 
BRANCH   2   3
ATOM      3  C   UNL A   1      37.300  22.250  24.720  1.00  0.00     0.021 C 
BRANCH   3   4
ATOM      4  C   UNL A   1      37.062  23.276  25.823  1.00  0.00     0.116 C 
BRANCH   4   5
ATOM      5  N   UNL A   1      35.932  22.910  26.661  1.00  0.00    -0.352 N 
ATOM      6  C   UNL A   1      34.602  23.155  26.693  1.00  0.00     0.251 C 
ATOM      7  O   UNL A   1      33.982  22.599  27.607  1.00  0.00    -0.270 OA
ATOM      8  H   UNL A   1      36.209  22.327  27.405  1.00  0.00     0.163 HD
BRANCH   6   9
ATOM      9  C   UNL A   1      33.865  24.024  25.727  1.00  0.00     0.067 C 
ATOM     10  C   UNL A   1      30.887  28.858  22.431  1.00  0.00     0.047 C 
ATOM     11  C   UNL A   1      31.563  27.940  23.421  1.00  0.00    -0.019 A 
ATOM     12  C   UNL A   1      31.833  28.354  24.752  1.00  0.00     0.025 A 
ATOM     13  C   UNL A   1      32.010  26.668  23.024  1.00  0.00     0.064 A 
ATOM     14  Br  UNL A   1      31.364  30.144  25.270  1.00  0.00    -0.050 Br
ATOM     15  C   UNL A   1      32.476  27.497  25.684  1.00  0.00    -0.026 A 
ATOM     16  C   UNL A   1      32.650  25.816  23.936  1.00  0.00     0.142 A 
ATOM     17  Br  UNL A   1      31.801  26.055  21.219  1.00  0.00    -0.046 Br
ATOM     18  C   UNL A   1      32.750  27.912  27.114  1.00  0.00     0.046 C 
ATOM     19  C   UNL A   1      32.892  26.215  25.256  1.00  0.00     0.022 A 
ATOM     20  O   UNL A   1      33.080  24.612  23.454  1.00  0.00    -0.474 OA
ATOM     21  C   UNL A   1      33.634  25.289  26.124  1.00  0.00     0.026 C 
ATOM     22  C   UNL A   1      33.359  23.558  24.398  1.00  0.00     0.314 C 
BRANCH  22  23
ATOM     23  C   UNL A   1      32.141  22.626  24.519  1.00  0.00     0.429 C 
ATOM     24  F   UNL A   1      32.533  21.351  24.751  1.00  0.00    -0.167 F 
ATOM     25  F   UNL A   1      31.327  22.971  25.546  1.00  0.00    -0.167 F 
ATOM     26  F   UNL A   1      31.381  22.628  23.401  1.00  0.00    -0.167 F 
ENDBRANCH  22  23
ENDBRANCH   6   9
ENDBRANCH   4   5
ENDBRANCH   3   4
ENDBRANCH   2   3
ENDBRANCH   1   2
BRANCH   1  27
ATOM     27  C   UNL A   1      38.581  19.713  24.828  1.00  0.00     0.021 C 
BRANCH  27  28
ATOM     28  C   UNL A   1      39.362  19.833  26.131  1.00  0.00     0.116 C 
BRANCH  28  29
ATOM     29  N   UNL A   1      40.550  18.992  26.120  1.00  0.00    -0.352 N 
ATOM     30  C   UNL A   1      41.868  19.359  26.093  1.00  0.00     0.251 C 
ATOM     31  H   UNL A   1      40.380  18.022  26.136  1.00  0.00     0.163 HD
ATOM     32  O   UNL A   1      42.735  18.519  25.847  1.00  0.00    -0.269 OA
BRANCH  30  33
ATOM     33  C   UNL A   1      42.245  20.761  26.356  1.00  0.00     0.039 A 
ATOM     34  C   UNL A   1      42.332  21.654  25.286  1.00  0.00     0.014 A 
ATOM     35  C   UNL A   1      42.532  21.185  27.657  1.00  0.00     0.014 A 
ATOM     36  C   UNL A   1      42.667  22.987  25.526  1.00  0.00     0.010 A 
ATOM     37  C   UNL A   1      42.801  22.527  27.903  1.00  0.00     0.010 A 
ATOM     38  C   UNL A   1      42.883  23.437  26.838  1.00  0.00    -0.014 A 
BRANCH  38  39
ATOM     39  C   UNL A   1      43.202  24.856  27.126  1.00  0.00     0.031 A 
ATOM     40  C   UNL A   1      44.568  25.397  26.808  1.00  0.00     0.074 A 
ATOM     41  C   UNL A   1      42.289  25.629  27.746  1.00  0.00     0.049 A 
ATOM     42  N   UNL A   1      45.067  26.577  27.065  1.00  0.00    -0.248 NA
ATOM     43  C   UNL A   1      45.504  24.484  26.129  1.00  0.00     0.031 C 
ATOM     44  C   UNL A   1      40.949  25.196  28.146  1.00  0.00     0.029 A 
ATOM     45  N   UNL A   1      42.360  26.931  28.172  1.00  0.00    -0.354 N 
ATOM     46  C   UNL A   1      46.378  26.543  26.605  1.00  0.00     0.074 A 
ATOM     47  C   UNL A   1      46.611  25.215  26.085  1.00  0.00     0.031 C 
ATOM     48  C   UNL A   1      40.322  26.215  28.754  1.00  0.00     0.029 A 
ATOM     49  C   UNL A   1      41.226  27.361  28.821  1.00  0.00     0.049 A 
ATOM     50  H   UNL A   1      43.146  27.505  28.026  1.00  0.00     0.167 HD
ATOM     51  C   UNL A   1      47.294  27.540  26.592  1.00  0.00     0.034 A 
ATOM     52  C   UNL A   1      40.949  28.540  29.411  1.00  0.00     0.034 A 
ATOM     53  C   UNL A   1      47.042  28.869  27.082  1.00  0.00     0.049 A 
ATOM     54  C   UNL A   1      41.984  29.632  29.373  1.00  0.00     0.074 A 
ATOM     55  C   UNL A   1      47.889  29.963  27.067  1.00  0.00     0.029 A 
ATOM     56  N   UNL A   1      45.860  29.286  27.674  1.00  0.00    -0.354 N 
ATOM     57  N   UNL A   1      43.179  29.618  28.834  1.00  0.00    -0.248 NA
ATOM     58  C   UNL A   1      41.619  30.914  29.992  1.00  0.00     0.031 C 
ATOM     59  C   UNL A   1      47.227  31.035  27.673  1.00  0.00     0.029 A 
ATOM     60  C   UNL A   1      45.954  30.620  28.031  1.00  0.00     0.049 A 
ATOM     61  H   UNL A   1      45.070  28.716  27.819  1.00  0.00     0.167 HD
ATOM     62  C   UNL A   1      43.694  30.897  29.013  1.00  0.00     0.074 A 
ATOM     63  C   UNL A   1      42.671  31.665  29.693  1.00  0.00     0.031 C 
ATOM     64  C   UNL A   1      44.909  31.386  28.661  1.00  0.00     0.034 A 
BRANCH  51  65
ATOM     65  C   UNL A   1      48.639  27.255  25.973  1.00  0.00     0.023 A 
ATOM     66  C   UNL A   1      49.648  26.657  26.754  1.00  0.00     0.012 A 
ATOM     67  C   UNL A   1      48.874  27.488  24.603  1.00  0.00     0.148 A 
ATOM     68  C   UNL A   1      50.877  26.316  26.191  1.00  0.00     0.002 A 
ATOM     69  C   UNL A   1      50.084  27.101  24.037  1.00  0.00     0.091 A 
ATOM     70  F   UNL A   1      47.910  28.078  23.881  1.00  0.00    -0.205 F 
ATOM     71  C   UNL A   1      51.089  26.526  24.832  1.00  0.00     0.022 A 
BRANCH  69  72
ATOM     72  S   UNL A   1      50.425  27.243  22.279  1.00  0.00     0.127 S 
ATOM     73  O   UNL A   1      50.329  28.689  22.076  1.00  0.00    -0.237 OA
ATOM     74  O   UNL A   1      51.782  26.704  22.187  1.00  0.00    -0.237 OA
ATOM     75  O   UNL A   1      49.405  26.453  21.604  1.00  0.00    -0.744 OA
ENDBRANCH  69  72
ENDBRANCH  51  65
BRANCH  52  76
ATOM     76  C   UNL A   1      39.606  28.767  30.017  1.00  0.00     0.023 A 
ATOM     77  C   UNL A   1      39.357  28.319  31.328  1.00  0.00     0.012 A 
ATOM     78  C   UNL A   1      38.596  29.470  29.329  1.00  0.00     0.148 A 
ATOM     79  C   UNL A   1      38.121  28.542  31.935  1.00  0.00     0.002 A 
ATOM     80  C   UNL A   1      37.388  29.741  29.960  1.00  0.00     0.091 A 
ATOM     81  F   UNL A   1      38.848  29.879  28.077  1.00  0.00    -0.205 F 
ATOM     82  C   UNL A   1      37.142  29.263  31.257  1.00  0.00     0.022 A 
BRANCH  80  83
ATOM     83  S   UNL A   1      36.126  30.785  29.225  1.00  0.00     0.127 S 
ATOM     84  O   UNL A   1      35.416  29.839  28.369  1.00  0.00    -0.237 OA
ATOM     85  O   UNL A   1      35.381  31.230  30.404  1.00  0.00    -0.237 OA
ATOM     86  O   UNL A   1      36.845  31.846  28.532  1.00  0.00    -0.744 OA
ENDBRANCH  80  83
ENDBRANCH  52  76
BRANCH  64  87
ATOM     87  C   UNL A   1      45.201  32.833  28.969  1.00  0.00     0.023 A 
ATOM     88  C   UNL A   1      45.796  33.184  30.197  1.00  0.00     0.012 A 
ATOM     89  C   UNL A   1      44.966  33.834  28.004  1.00  0.00     0.148 A 
ATOM     90  C   UNL A   1      46.121  34.511  30.473  1.00  0.00     0.002 A 
ATOM     91  C   UNL A   1      45.344  35.146  28.265  1.00  0.00     0.091 A 
ATOM     92  F   UNL A   1      44.382  33.486  26.848  1.00  0.00    -0.205 F 
ATOM     93  C   UNL A   1      45.908  35.489  29.504  1.00  0.00     0.022 A 
BRANCH  91  94
ATOM     94  S   UNL A   1      45.210  36.449  27.035  1.00  0.00     0.127 S 
ATOM     95  O   UNL A   1      45.701  37.609  27.778  1.00  0.00    -0.237 OA
ATOM     96  O   UNL A   1      46.107  35.974  25.981  1.00  0.00    -0.237 OA
ATOM     97  O   UNL A   1      43.805  36.498  26.655  1.00  0.00    -0.744 OA
ENDBRANCH  91  94
ENDBRANCH  64  87
ENDBRANCH  38  39
ENDBRANCH  30  33
ENDBRANCH  28  29
ENDBRANCH  27  28
ENDBRANCH   1  27
TORSDOF 17
ENDMDL
