MODEL 1
REMARK VINA RESULT:     -12.6      0.000      0.000
REMARK SMILES Cc1cc2cc(-c3ccc([C@@H](C)C(=O)NCCCCCCNC(=O)c4ccc(-c5c6nc(c(-c7cccc(S(=O)(=O)[O-])c7F)c7ccc([nH]7)c(-c7cccc(S(=O)(=O)[O-])c7F)c7nc(c(-c8cccc(S(=O)(=O)[O-])c8F)c8ccc5[nH]8)C=C7)C=C6)cc4)cc3)ccc2[nH]1
REMARK SMILES IDX 19 1 18 2 17 3 16 4 15 5 13 6 14 7 11 9 12 10 10 11 7 12
REMARK SMILES IDX 8 13 89 14 9 15 88 16 6 17 1 18 2 19 3 20 93 21 4 22 92 23
REMARK SMILES IDX 5 25 91 26 90 27 20 28 21 29 22 30 23 31 24 33 25 34 26 35
REMARK SMILES IDX 87 36 27 37 86 38 28 39 29 40 30 41 80 42 31 43 85 44 79 45
REMARK SMILES IDX 81 46 32 47 84 48 78 49 77 50 33 52 65 53 45 54 64 55 46 56
REMARK SMILES IDX 49 57 63 58 82 59 47 60 48 61 62 63 83 64 50 65 34 66 35 67
REMARK SMILES IDX 43 68 36 69 38 70 44 71 37 72 39 73 40 74 41 75 42 76 66 77
REMARK SMILES IDX 67 78 75 79 68 80 70 81 76 82 69 83 71 84 72 85 73 86 74 87
REMARK SMILES IDX 51 88 52 89 60 90 53 91 55 92 61 93 54 94 56 95 57 96 58 97
REMARK SMILES IDX 59 98
REMARK H PARENT 15 8 93 24 22 32 81 51 49 62
REMARK Flexibility Score: inf
ROOT
ATOM      1  C   UNL A   1      32.827  27.174  26.445  1.00  0.00     0.002 C 
ENDROOT
BRANCH   1   2
ATOM      2  C   UNL A   1      34.070  26.329  26.135  1.00  0.00     0.002 C 
BRANCH   2   3
ATOM      3  C   UNL A   1      33.955  25.440  24.892  1.00  0.00     0.021 C 
BRANCH   3   4
ATOM      4  C   UNL A   1      34.541  24.039  25.078  1.00  0.00     0.116 C 
BRANCH   4   5
ATOM      5  N   UNL A   1      34.200  23.481  26.371  1.00  0.00    -0.356 N 
ATOM      6  C   UNL A   1      33.108  22.790  26.800  1.00  0.00     0.227 C 
ATOM      7  O   UNL A   1      33.073  22.515  28.006  1.00  0.00    -0.274 OA
ATOM      8  H   UNL A   1      34.881  23.629  27.066  1.00  0.00     0.163 HD
BRANCH   6   9
ATOM      9  C   UNL A   1      31.966  22.333  25.879  1.00  0.00     0.105 C 
ATOM     10  C   UNL A   1      32.373  21.247  24.880  1.00  0.00     0.023 C 
BRANCH   9  11
ATOM     11  C   UNL A   1      31.146  23.479  25.311  1.00  0.00    -0.036 A 
ATOM     12  C   UNL A   1      29.704  25.729  24.301  1.00  0.00    -0.018 A 
ATOM     13  C   UNL A   1      30.341  24.814  23.450  1.00  0.00     0.009 A 
ATOM     14  C   UNL A   1      29.793  25.485  25.678  1.00  0.00     0.009 A 
ATOM     15  C   UNL A   1      31.008  23.691  23.940  1.00  0.00     0.005 A 
ATOM     16  C   UNL A   1      30.518  24.390  26.176  1.00  0.00     0.005 A 
BRANCH  12  17
ATOM     17  C   UNL A   1      28.968  26.876  23.729  1.00  0.00    -0.018 A 
ATOM     18  C   UNL A   1      28.291  32.301  20.956  1.00  0.00     0.064 C 
ATOM     19  C   UNL A   1      28.382  30.978  21.618  1.00  0.00     0.013 A 
ATOM     20  C   UNL A   1      29.465  30.145  21.796  1.00  0.00     0.031 A 
ATOM     21  N   UNL A   1      27.296  30.367  22.200  1.00  0.00    -0.359 N 
ATOM     22  C   UNL A   1      29.021  29.002  22.507  1.00  0.00     0.000 A 
ATOM     23  C   UNL A   1      27.662  29.160  22.754  1.00  0.00     0.046 A 
ATOM     24  H   UNL A   1      26.385  30.740  22.218  1.00  0.00     0.166 HD
ATOM     25  C   UNL A   1      29.665  27.846  22.978  1.00  0.00     0.019 A 
ATOM     26  C   UNL A   1      26.916  28.207  23.457  1.00  0.00     0.027 A 
ATOM     27  C   UNL A   1      27.594  27.075  23.942  1.00  0.00     0.011 A 
ENDBRANCH  12  17
ENDBRANCH   9  11
ENDBRANCH   6   9
ENDBRANCH   4   5
ENDBRANCH   3   4
ENDBRANCH   2   3
ENDBRANCH   1   2
BRANCH   1  28
ATOM     28  C   UNL A   1      32.365  28.102  25.316  1.00  0.00     0.021 C 
BRANCH  28  29
ATOM     29  C   UNL A   1      33.251  29.324  25.093  1.00  0.00     0.116 C 
BRANCH  29  30
ATOM     30  N   UNL A   1      32.657  30.529  25.657  1.00  0.00    -0.352 N 
ATOM     31  C   UNL A   1      32.980  31.204  26.808  1.00  0.00     0.251 C 
ATOM     32  H   UNL A   1      31.917  30.915  25.137  1.00  0.00     0.163 HD
ATOM     33  O   UNL A   1      32.216  32.056  27.250  1.00  0.00    -0.269 OA
BRANCH  31  34
ATOM     34  C   UNL A   1      34.244  30.904  27.513  1.00  0.00     0.039 A 
ATOM     35  C   UNL A   1      35.213  31.904  27.631  1.00  0.00     0.014 A 
ATOM     36  C   UNL A   1      34.486  29.628  28.031  1.00  0.00     0.014 A 
ATOM     37  C   UNL A   1      36.403  31.639  28.312  1.00  0.00     0.010 A 
ATOM     38  C   UNL A   1      35.640  29.387  28.771  1.00  0.00     0.010 A 
ATOM     39  C   UNL A   1      36.616  30.386  28.910  1.00  0.00    -0.014 A 
BRANCH  39  40
ATOM     40  C   UNL A   1      37.850  30.098  29.684  1.00  0.00     0.031 A 
ATOM     41  C   UNL A   1      38.890  29.161  29.131  1.00  0.00     0.074 A 
ATOM     42  C   UNL A   1      37.996  30.616  30.920  1.00  0.00     0.049 A 
ATOM     43  N   UNL A   1      39.998  28.740  29.684  1.00  0.00    -0.248 NA
ATOM     44  C   UNL A   1      38.638  28.600  27.793  1.00  0.00     0.031 C 
ATOM     45  C   UNL A   1      37.024  31.479  31.595  1.00  0.00     0.029 A 
ATOM     46  N   UNL A   1      39.004  30.470  31.839  1.00  0.00    -0.354 N 
ATOM     47  C   UNL A   1      40.559  27.846  28.779  1.00  0.00     0.074 A 
ATOM     48  C   UNL A   1      39.650  27.754  27.657  1.00  0.00     0.031 C 
ATOM     49  C   UNL A   1      37.485  31.789  32.817  1.00  0.00     0.029 A 
ATOM     50  C   UNL A   1      38.768  31.124  33.026  1.00  0.00     0.049 A 
ATOM     51  H   UNL A   1      39.820  29.947  31.665  1.00  0.00     0.167 HD
ATOM     52  C   UNL A   1      41.738  27.184  28.858  1.00  0.00     0.034 A 
ATOM     53  C   UNL A   1      39.499  31.177  34.157  1.00  0.00     0.034 A 
ATOM     54  C   UNL A   1      42.658  27.308  29.957  1.00  0.00     0.049 A 
ATOM     55  C   UNL A   1      40.820  30.457  34.206  1.00  0.00     0.074 A 
ATOM     56  C   UNL A   1      43.912  26.742  30.098  1.00  0.00     0.029 A 
ATOM     57  N   UNL A   1      42.422  28.048  31.106  1.00  0.00    -0.354 N 
ATOM     58  N   UNL A   1      41.403  29.737  33.278  1.00  0.00    -0.248 NA
ATOM     59  C   UNL A   1      41.601  30.588  35.444  1.00  0.00     0.031 C 
ATOM     60  C   UNL A   1      44.427  27.122  31.342  1.00  0.00     0.029 A 
ATOM     61  C   UNL A   1      43.504  27.949  31.963  1.00  0.00     0.049 A 
ATOM     62  H   UNL A   1      41.606  28.568  31.284  1.00  0.00     0.167 HD
ATOM     63  C   UNL A   1      42.634  29.364  33.804  1.00  0.00     0.074 A 
ATOM     64  C   UNL A   1      42.721  29.953  35.124  1.00  0.00     0.031 C 
ATOM     65  C   UNL A   1      43.600  28.589  33.250  1.00  0.00     0.034 A 
BRANCH  52  66
ATOM     66  C   UNL A   1      42.129  26.307  27.696  1.00  0.00     0.023 A 
ATOM     67  C   UNL A   1      42.897  26.852  26.646  1.00  0.00     0.012 A 
ATOM     68  C   UNL A   1      41.790  24.940  27.665  1.00  0.00     0.148 A 
ATOM     69  C   UNL A   1      43.290  26.061  25.567  1.00  0.00     0.002 A 
ATOM     70  C   UNL A   1      42.225  24.147  26.609  1.00  0.00     0.091 A 
ATOM     71  F   UNL A   1      41.045  24.443  28.662  1.00  0.00    -0.205 F 
ATOM     72  C   UNL A   1      42.964  24.708  25.554  1.00  0.00     0.022 A 
BRANCH  70  73
ATOM     73  S   UNL A   1      41.924  22.377  26.536  1.00  0.00     0.127 S 
ATOM     74  O   UNL A   1      40.466  22.330  26.429  1.00  0.00    -0.237 OA
ATOM     75  O   UNL A   1      42.637  21.994  25.318  1.00  0.00    -0.237 OA
ATOM     76  O   UNL A   1      42.478  21.824  27.763  1.00  0.00    -0.744 OA
ENDBRANCH  70  73
ENDBRANCH  52  66
BRANCH  53  77
ATOM     77  C   UNL A   1      39.032  31.997  35.311  1.00  0.00     0.023 A 
ATOM     78  C   UNL A   1      39.204  33.395  35.279  1.00  0.00     0.012 A 
ATOM     79  C   UNL A   1      38.403  31.409  36.426  1.00  0.00     0.148 A 
ATOM     80  C   UNL A   1      38.794  34.188  36.350  1.00  0.00     0.002 A 
ATOM     81  C   UNL A   1      37.945  32.211  37.465  1.00  0.00     0.091 A 
ATOM     82  F   UNL A   1      38.257  30.077  36.443  1.00  0.00    -0.205 F 
ATOM     83  C   UNL A   1      38.156  33.598  37.438  1.00  0.00     0.022 A 
BRANCH  81  84
ATOM     84  S   UNL A   1      36.999  31.552  38.841  1.00  0.00     0.127 S 
ATOM     85  O   UNL A   1      37.918  31.750  39.959  1.00  0.00    -0.237 OA
ATOM     86  O   UNL A   1      35.825  32.426  38.847  1.00  0.00    -0.237 OA
ATOM     87  O   UNL A   1      36.712  30.167  38.494  1.00  0.00    -0.744 OA
ENDBRANCH  81  84
ENDBRANCH  53  77
BRANCH  65  88
ATOM     88  C   UNL A   1      44.859  28.365  34.047  1.00  0.00     0.023 A 
ATOM     89  C   UNL A   1      45.929  29.274  33.943  1.00  0.00     0.012 A 
ATOM     90  C   UNL A   1      44.949  27.290  34.954  1.00  0.00     0.148 A 
ATOM     91  C   UNL A   1      47.084  29.100  34.705  1.00  0.00     0.002 A 
ATOM     92  C   UNL A   1      46.082  27.151  35.747  1.00  0.00     0.091 A 
ATOM     93  F   UNL A   1      43.928  26.424  35.025  1.00  0.00    -0.205 F 
ATOM     94  C   UNL A   1      47.155  28.048  35.615  1.00  0.00     0.022 A 
BRANCH  92  95
ATOM     95  S   UNL A   1      46.222  25.886  37.015  1.00  0.00     0.127 S 
ATOM     96  O   UNL A   1      45.849  24.681  36.274  1.00  0.00    -0.237 OA
ATOM     97  O   UNL A   1      47.637  25.965  37.378  1.00  0.00    -0.237 OA
ATOM     98  O   UNL A   1      45.304  26.277  38.075  1.00  0.00    -0.744 OA
ENDBRANCH  92  95
ENDBRANCH  65  88
ENDBRANCH  39  40
ENDBRANCH  31  34
ENDBRANCH  29  30
ENDBRANCH  28  29
ENDBRANCH   1  28
TORSDOF 18
ENDMDL
MODEL 2
REMARK VINA RESULT:     -12.3      5.179     10.359
REMARK SMILES Cc1cc2cc(-c3ccc([C@@H](C)C(=O)NCCCCCCNC(=O)c4ccc(-c5c6nc(c(-c7cccc(S(=O)(=O)[O-])c7F)c7ccc([nH]7)c(-c7cccc(S(=O)(=O)[O-])c7F)c7nc(c(-c8cccc(S(=O)(=O)[O-])c8F)c8ccc5[nH]8)C=C7)C=C6)cc4)cc3)ccc2[nH]1
REMARK SMILES IDX 19 1 18 2 17 3 16 4 15 5 13 6 14 7 11 9 12 10 10 11 7 12
REMARK SMILES IDX 8 13 89 14 9 15 88 16 6 17 1 18 2 19 3 20 93 21 4 22 92 23
REMARK SMILES IDX 5 25 91 26 90 27 20 28 21 29 22 30 23 31 24 33 25 34 26 35
REMARK SMILES IDX 87 36 27 37 86 38 28 39 29 40 30 41 80 42 31 43 85 44 79 45
REMARK SMILES IDX 81 46 32 47 84 48 78 49 77 50 33 52 65 53 45 54 64 55 46 56
REMARK SMILES IDX 49 57 63 58 82 59 47 60 48 61 62 63 83 64 50 65 34 66 35 67
REMARK SMILES IDX 43 68 36 69 38 70 44 71 37 72 39 73 40 74 41 75 42 76 66 77
REMARK SMILES IDX 67 78 75 79 68 80 70 81 76 82 69 83 71 84 72 85 73 86 74 87
REMARK SMILES IDX 51 88 52 89 60 90 53 91 55 92 61 93 54 94 56 95 57 96 58 97
REMARK SMILES IDX 59 98
REMARK H PARENT 15 8 93 24 22 32 81 51 49 62
REMARK Flexibility Score: inf
ROOT
ATOM      1  C   UNL A   1      34.150  23.339  26.954  1.00  0.00     0.002 C 
ENDROOT
BRANCH   1   2
ATOM      2  C   UNL A   1      33.570  24.209  25.832  1.00  0.00     0.002 C 
BRANCH   2   3
ATOM      3  C   UNL A   1      34.279  25.551  25.620  1.00  0.00     0.021 C 
BRANCH   3   4
ATOM      4  C   UNL A   1      33.332  26.706  25.290  1.00  0.00     0.116 C 
BRANCH   4   5
ATOM      5  N   UNL A   1      33.803  27.482  24.161  1.00  0.00    -0.356 N 
ATOM      6  C   UNL A   1      33.387  27.544  22.866  1.00  0.00     0.227 C 
ATOM      7  O   UNL A   1      34.058  28.255  22.108  1.00  0.00    -0.274 OA
ATOM      8  H   UNL A   1      34.564  28.072  24.367  1.00  0.00     0.163 HD
BRANCH   6   9
ATOM      9  C   UNL A   1      32.148  26.810  22.328  1.00  0.00     0.105 C 
ATOM     10  C   UNL A   1      30.823  27.491  22.680  1.00  0.00     0.023 C 
BRANCH   9  11
ATOM     11  C   UNL A   1      32.194  25.306  22.537  1.00  0.00    -0.036 A 
ATOM     12  C   UNL A   1      32.167  22.465  22.834  1.00  0.00    -0.018 A 
ATOM     13  C   UNL A   1      33.241  23.137  22.232  1.00  0.00     0.009 A 
ATOM     14  C   UNL A   1      31.105  23.251  23.301  1.00  0.00     0.009 A 
ATOM     15  C   UNL A   1      33.275  24.527  22.125  1.00  0.00     0.005 A 
ATOM     16  C   UNL A   1      31.110  24.646  23.138  1.00  0.00     0.005 A 
BRANCH  12  17
ATOM     17  C   UNL A   1      32.202  20.992  22.966  1.00  0.00    -0.018 A 
ATOM     18  C   UNL A   1      33.191  15.621  25.749  1.00  0.00     0.064 C 
ATOM     19  C   UNL A   1      32.916  16.884  25.022  1.00  0.00     0.013 A 
ATOM     20  C   UNL A   1      32.885  18.183  25.477  1.00  0.00     0.031 A 
ATOM     21  N   UNL A   1      32.642  16.916  23.675  1.00  0.00    -0.359 N 
ATOM     22  C   UNL A   1      32.588  19.023  24.375  1.00  0.00     0.000 A 
ATOM     23  C   UNL A   1      32.443  18.212  23.255  1.00  0.00     0.046 A 
ATOM     24  H   UNL A   1      32.597  16.122  23.092  1.00  0.00     0.166 HD
ATOM     25  C   UNL A   1      32.444  20.412  24.229  1.00  0.00     0.019 A 
ATOM     26  C   UNL A   1      32.160  18.735  21.987  1.00  0.00     0.027 A 
ATOM     27  C   UNL A   1      32.051  20.131  21.866  1.00  0.00     0.011 A 
ENDBRANCH  12  17
ENDBRANCH   9  11
ENDBRANCH   6   9
ENDBRANCH   4   5
ENDBRANCH   3   4
ENDBRANCH   2   3
ENDBRANCH   1   2
BRANCH   1  28
ATOM     28  C   UNL A   1      34.797  22.026  26.501  1.00  0.00     0.021 C 
BRANCH  28  29
ATOM     29  C   UNL A   1      35.911  22.187  25.471  1.00  0.00     0.116 C 
BRANCH  29  30
ATOM     30  N   UNL A   1      36.825  21.054  25.485  1.00  0.00    -0.352 N 
ATOM     31  C   UNL A   1      38.190  21.036  25.635  1.00  0.00     0.251 C 
ATOM     32  H   UNL A   1      36.404  20.173  25.372  1.00  0.00     0.163 HD
ATOM     33  O   UNL A   1      38.818  20.014  25.377  1.00  0.00    -0.269 OA
BRANCH  31  34
ATOM     34  C   UNL A   1      38.900  22.245  26.102  1.00  0.00     0.039 A 
ATOM     35  C   UNL A   1      40.023  22.101  26.921  1.00  0.00     0.014 A 
ATOM     36  C   UNL A   1      38.442  23.519  25.757  1.00  0.00     0.014 A 
ATOM     37  C   UNL A   1      40.715  23.235  27.353  1.00  0.00     0.010 A 
ATOM     38  C   UNL A   1      39.172  24.644  26.128  1.00  0.00     0.010 A 
ATOM     39  C   UNL A   1      40.310  24.515  26.940  1.00  0.00    -0.014 A 
BRANCH  39  40
ATOM     40  C   UNL A   1      41.061  25.731  27.343  1.00  0.00     0.031 A 
ATOM     41  C   UNL A   1      40.374  26.823  28.118  1.00  0.00     0.074 A 
ATOM     42  C   UNL A   1      42.338  25.889  26.941  1.00  0.00     0.049 A 
ATOM     43  N   UNL A   1      40.844  27.982  28.505  1.00  0.00    -0.248 NA
ATOM     44  C   UNL A   1      38.965  26.598  28.483  1.00  0.00     0.031 C 
ATOM     45  C   UNL A   1      43.091  24.935  26.123  1.00  0.00     0.029 A 
ATOM     46  N   UNL A   1      43.219  26.922  27.140  1.00  0.00    -0.354 N 
ATOM     47  C   UNL A   1      39.785  28.633  29.128  1.00  0.00     0.074 A 
ATOM     48  C   UNL A   1      38.637  27.757  29.035  1.00  0.00     0.031 C 
ATOM     49  C   UNL A   1      44.320  25.424  25.896  1.00  0.00     0.029 A 
ATOM     50  C   UNL A   1      44.435  26.737  26.522  1.00  0.00     0.049 A 
ATOM     51  H   UNL A   1      43.002  27.719  27.675  1.00  0.00     0.167 HD
ATOM     52  C   UNL A   1      39.776  29.836  29.750  1.00  0.00     0.034 A 
ATOM     53  C   UNL A   1      45.516  27.539  26.462  1.00  0.00     0.034 A 
ATOM     54  C   UNL A   1      40.929  30.686  29.875  1.00  0.00     0.049 A 
ATOM     55  C   UNL A   1      45.488  28.857  27.188  1.00  0.00     0.074 A 
ATOM     56  C   UNL A   1      41.045  31.887  30.551  1.00  0.00     0.029 A 
ATOM     57  N   UNL A   1      42.169  30.426  29.308  1.00  0.00    -0.354 N 
ATOM     58  N   UNL A   1      44.524  29.387  27.901  1.00  0.00    -0.248 NA
ATOM     59  C   UNL A   1      46.712  29.671  27.133  1.00  0.00     0.031 C 
ATOM     60  C   UNL A   1      42.348  32.365  30.377  1.00  0.00     0.029 A 
ATOM     61  C   UNL A   1      43.052  31.447  29.614  1.00  0.00     0.049 A 
ATOM     62  H   UNL A   1      42.386  29.633  28.769  1.00  0.00     0.167 HD
ATOM     63  C   UNL A   1      45.037  30.574  28.412  1.00  0.00     0.074 A 
ATOM     64  C   UNL A   1      46.403  30.675  27.941  1.00  0.00     0.031 C 
ATOM     65  C   UNL A   1      44.427  31.505  29.187  1.00  0.00     0.034 A 
BRANCH  52  66
ATOM     66  C   UNL A   1      38.488  30.281  30.395  1.00  0.00     0.023 A 
ATOM     67  C   UNL A   1      38.210  29.896  31.723  1.00  0.00     0.012 A 
ATOM     68  C   UNL A   1      37.583  31.121  29.717  1.00  0.00     0.148 A 
ATOM     69  C   UNL A   1      37.037  30.308  32.353  1.00  0.00     0.002 A 
ATOM     70  C   UNL A   1      36.438  31.566  30.368  1.00  0.00     0.091 A 
ATOM     71  F   UNL A   1      37.854  31.463  28.449  1.00  0.00    -0.205 F 
ATOM     72  C   UNL A   1      36.157  31.150  31.680  1.00  0.00     0.022 A 
BRANCH  70  73
ATOM     73  S   UNL A   1      35.279  32.715  29.616  1.00  0.00     0.127 S 
ATOM     74  O   UNL A   1      34.842  31.966  28.438  1.00  0.00    -0.237 OA
ATOM     75  O   UNL A   1      34.264  32.855  30.660  1.00  0.00    -0.237 OA
ATOM     76  O   UNL A   1      36.037  33.927  29.338  1.00  0.00    -0.744 OA
ENDBRANCH  70  73
ENDBRANCH  52  66
BRANCH  53  77
ATOM     77  C   UNL A   1      46.742  27.087  25.745  1.00  0.00     0.023 A 
ATOM     78  C   UNL A   1      47.607  26.166  26.369  1.00  0.00     0.012 A 
ATOM     79  C   UNL A   1      47.047  27.543  24.448  1.00  0.00     0.148 A 
ATOM     80  C   UNL A   1      48.771  25.737  25.731  1.00  0.00     0.002 A 
ATOM     81  C   UNL A   1      48.178  27.068  23.795  1.00  0.00     0.091 A 
ATOM     82  F   UNL A   1      46.218  28.426  23.874  1.00  0.00    -0.205 F 
ATOM     83  C   UNL A   1      49.052  26.180  24.441  1.00  0.00     0.022 A 
BRANCH  81  84
ATOM     84  S   UNL A   1      48.548  27.482  22.087  1.00  0.00     0.127 S 
ATOM     85  O   UNL A   1      48.654  26.160  21.474  1.00  0.00    -0.237 OA
ATOM     86  O   UNL A   1      47.363  28.248  21.699  1.00  0.00    -0.237 OA
ATOM     87  O   UNL A   1      49.777  28.262  22.129  1.00  0.00    -0.744 OA
ENDBRANCH  81  84
ENDBRANCH  53  77
BRANCH  65  88
ATOM     88  C   UNL A   1      45.239  32.698  29.617  1.00  0.00     0.023 A 
ATOM     89  C   UNL A   1      46.012  32.636  30.793  1.00  0.00     0.012 A 
ATOM     90  C   UNL A   1      45.292  33.855  28.815  1.00  0.00     0.148 A 
ATOM     91  C   UNL A   1      46.800  33.719  31.182  1.00  0.00     0.002 A 
ATOM     92  C   UNL A   1      46.118  34.911  29.182  1.00  0.00     0.091 A 
ATOM     93  F   UNL A   1      44.534  33.903  27.710  1.00  0.00    -0.205 F 
ATOM     94  C   UNL A   1      46.863  34.849  30.371  1.00  0.00     0.022 A 
BRANCH  92  95
ATOM     95  S   UNL A   1      46.338  36.365  28.150  1.00  0.00     0.127 S 
ATOM     96  O   UNL A   1      47.509  36.990  28.763  1.00  0.00    -0.237 OA
ATOM     97  O   UNL A   1      46.580  35.777  26.832  1.00  0.00    -0.237 OA
ATOM     98  O   UNL A   1      45.098  37.122  28.254  1.00  0.00    -0.744 OA
ENDBRANCH  92  95
ENDBRANCH  65  88
ENDBRANCH  39  40
ENDBRANCH  31  34
ENDBRANCH  29  30
ENDBRANCH  28  29
ENDBRANCH   1  28
TORSDOF 18
ENDMDL
MODEL 3
REMARK VINA RESULT:     -12.1      5.245      8.078
REMARK SMILES Cc1cc2cc(-c3ccc([C@@H](C)C(=O)NCCCCCCNC(=O)c4ccc(-c5c6nc(c(-c7cccc(S(=O)(=O)[O-])c7F)c7ccc([nH]7)c(-c7cccc(S(=O)(=O)[O-])c7F)c7nc(c(-c8cccc(S(=O)(=O)[O-])c8F)c8ccc5[nH]8)C=C7)C=C6)cc4)cc3)ccc2[nH]1
REMARK SMILES IDX 19 1 18 2 17 3 16 4 15 5 13 6 14 7 11 9 12 10 10 11 7 12
REMARK SMILES IDX 8 13 89 14 9 15 88 16 6 17 1 18 2 19 3 20 93 21 4 22 92 23
REMARK SMILES IDX 5 25 91 26 90 27 20 28 21 29 22 30 23 31 24 33 25 34 26 35
REMARK SMILES IDX 87 36 27 37 86 38 28 39 29 40 30 41 80 42 31 43 85 44 79 45
REMARK SMILES IDX 81 46 32 47 84 48 78 49 77 50 33 52 65 53 45 54 64 55 46 56
REMARK SMILES IDX 49 57 63 58 82 59 47 60 48 61 62 63 83 64 50 65 34 66 35 67
REMARK SMILES IDX 43 68 36 69 38 70 44 71 37 72 39 73 40 74 41 75 42 76 66 77
REMARK SMILES IDX 67 78 75 79 68 80 70 81 76 82 69 83 71 84 72 85 73 86 74 87
REMARK SMILES IDX 51 88 52 89 60 90 53 91 55 92 61 93 54 94 56 95 57 96 58 97
REMARK SMILES IDX 59 98
REMARK H PARENT 15 8 93 24 22 32 81 51 49 62
REMARK Flexibility Score: inf
ROOT
ATOM      1  C   UNL A   1      34.056  22.694  26.889  1.00  0.00     0.002 C 
ENDROOT
BRANCH   1   2
ATOM      2  C   UNL A   1      33.194  23.895  26.477  1.00  0.00     0.002 C 
BRANCH   2   3
ATOM      3  C   UNL A   1      33.943  25.007  25.736  1.00  0.00     0.021 C 
BRANCH   3   4
ATOM      4  C   UNL A   1      33.189  26.338  25.694  1.00  0.00     0.116 C 
BRANCH   4   5
ATOM      5  N   UNL A   1      33.625  27.167  24.588  1.00  0.00    -0.356 N 
ATOM      6  C   UNL A   1      33.144  27.316  23.323  1.00  0.00     0.227 C 
ATOM      7  O   UNL A   1      33.796  28.053  22.572  1.00  0.00    -0.274 OA
ATOM      8  H   UNL A   1      34.412  27.723  24.787  1.00  0.00     0.163 HD
BRANCH   6   9
ATOM      9  C   UNL A   1      31.859  26.648  22.810  1.00  0.00     0.105 C 
ATOM     10  C   UNL A   1      30.574  27.279  23.353  1.00  0.00     0.023 C 
BRANCH   9  11
ATOM     11  C   UNL A   1      31.911  25.129  22.834  1.00  0.00    -0.036 A 
ATOM     12  C   UNL A   1      32.131  22.284  22.962  1.00  0.00    -0.018 A 
ATOM     13  C   UNL A   1      31.074  22.974  23.574  1.00  0.00     0.009 A 
ATOM     14  C   UNL A   1      33.075  23.052  22.267  1.00  0.00     0.009 A 
ATOM     15  C   UNL A   1      30.942  24.359  23.476  1.00  0.00     0.005 A 
ATOM     16  C   UNL A   1      32.977  24.453  22.220  1.00  0.00     0.005 A 
BRANCH  12  17
ATOM     17  C   UNL A   1      32.199  20.810  23.055  1.00  0.00    -0.018 A 
ATOM     18  C   UNL A   1      33.145  15.386  25.750  1.00  0.00     0.064 C 
ATOM     19  C   UNL A   1      32.885  16.662  25.042  1.00  0.00     0.013 A 
ATOM     20  C   UNL A   1      32.785  17.947  25.530  1.00  0.00     0.031 A 
ATOM     21  N   UNL A   1      32.705  16.727  23.680  1.00  0.00    -0.359 N 
ATOM     22  C   UNL A   1      32.542  18.810  24.433  1.00  0.00     0.000 A 
ATOM     23  C   UNL A   1      32.498  18.030  23.283  1.00  0.00     0.046 A 
ATOM     24  H   UNL A   1      32.722  15.951  23.074  1.00  0.00     0.166 HD
ATOM     25  C   UNL A   1      32.369  20.199  24.315  1.00  0.00     0.019 A 
ATOM     26  C   UNL A   1      32.290  18.582  22.014  1.00  0.00     0.027 A 
ATOM     27  C   UNL A   1      32.150  19.978  21.924  1.00  0.00     0.011 A 
ENDBRANCH  12  17
ENDBRANCH   9  11
ENDBRANCH   6   9
ENDBRANCH   4   5
ENDBRANCH   3   4
ENDBRANCH   2   3
ENDBRANCH   1   2
BRANCH   1  28
ATOM     28  C   UNL A   1      34.734  21.945  25.736  1.00  0.00     0.021 C 
BRANCH  28  29
ATOM     29  C   UNL A   1      36.161  22.396  25.436  1.00  0.00     0.116 C 
BRANCH  29  30
ATOM     30  N   UNL A   1      37.119  21.317  25.630  1.00  0.00    -0.352 N 
ATOM     31  C   UNL A   1      38.463  21.381  25.899  1.00  0.00     0.251 C 
ATOM     32  H   UNL A   1      36.748  20.408  25.558  1.00  0.00     0.163 HD
ATOM     33  O   UNL A   1      39.157  20.374  25.788  1.00  0.00    -0.269 OA
BRANCH  31  34
ATOM     34  C   UNL A   1      39.074  22.660  26.319  1.00  0.00     0.039 A 
ATOM     35  C   UNL A   1      40.120  22.643  27.246  1.00  0.00     0.014 A 
ATOM     36  C   UNL A   1      38.597  23.875  25.821  1.00  0.00     0.014 A 
ATOM     37  C   UNL A   1      40.719  23.843  27.636  1.00  0.00     0.010 A 
ATOM     38  C   UNL A   1      39.241  25.063  26.155  1.00  0.00     0.010 A 
ATOM     39  C   UNL A   1      40.301  25.062  27.075  1.00  0.00    -0.014 A 
BRANCH  39  40
ATOM     40  C   UNL A   1      40.959  26.344  27.434  1.00  0.00     0.031 A 
ATOM     41  C   UNL A   1      42.395  26.590  27.054  1.00  0.00     0.074 A 
ATOM     42  C   UNL A   1      40.289  27.251  28.171  1.00  0.00     0.049 A 
ATOM     43  N   UNL A   1      43.156  27.617  27.332  1.00  0.00    -0.248 NA
ATOM     44  C   UNL A   1      43.073  25.532  26.287  1.00  0.00     0.031 C 
ATOM     45  C   UNL A   1      38.918  27.096  28.663  1.00  0.00     0.029 A 
ATOM     46  N   UNL A   1      40.681  28.472  28.661  1.00  0.00    -0.354 N 
ATOM     47  C   UNL A   1      44.407  27.317  26.803  1.00  0.00     0.074 A 
ATOM     48  C   UNL A   1      44.313  25.996  26.221  1.00  0.00     0.031 C 
ATOM     49  C   UNL A   1      38.582  28.181  29.378  1.00  0.00     0.029 A 
ATOM     50  C   UNL A   1      39.719  29.094  29.424  1.00  0.00     0.049 A 
ATOM     51  H   UNL A   1      41.565  28.865  28.482  1.00  0.00     0.167 HD
ATOM     52  C   UNL A   1      45.523  28.083  26.775  1.00  0.00     0.034 A 
ATOM     53  C   UNL A   1      39.754  30.264  30.091  1.00  0.00     0.034 A 
ATOM     54  C   UNL A   1      45.601  29.412  27.320  1.00  0.00     0.049 A 
ATOM     55  C   UNL A   1      40.997  31.110  30.017  1.00  0.00     0.074 A 
ATOM     56  C   UNL A   1      46.660  30.301  27.275  1.00  0.00     0.029 A 
ATOM     57  N   UNL A   1      44.578  30.044  28.013  1.00  0.00    -0.354 N 
ATOM     58  N   UNL A   1      42.120  30.874  29.382  1.00  0.00    -0.248 NA
ATOM     59  C   UNL A   1      40.965  32.401  30.720  1.00  0.00     0.031 C 
ATOM     60  C   UNL A   1      46.286  31.463  27.958  1.00  0.00     0.029 A 
ATOM     61  C   UNL A   1      44.983  31.308  28.405  1.00  0.00     0.049 A 
ATOM     62  H   UNL A   1      43.695  29.651  28.196  1.00  0.00     0.167 HD
ATOM     63  C   UNL A   1      42.911  32.001  29.575  1.00  0.00     0.074 A 
ATOM     64  C   UNL A   1      42.130  32.927  30.370  1.00  0.00     0.031 C 
ATOM     65  C   UNL A   1      44.174  32.242  29.146  1.00  0.00     0.034 A 
BRANCH  52  66
ATOM     66  C   UNL A   1      46.740  27.525  26.081  1.00  0.00     0.023 A 
ATOM     67  C   UNL A   1      46.910  27.744  24.699  1.00  0.00     0.012 A 
ATOM     68  C   UNL A   1      47.737  26.835  26.798  1.00  0.00     0.148 A 
ATOM     69  C   UNL A   1      48.034  27.257  24.034  1.00  0.00     0.002 A 
ATOM     70  C   UNL A   1      48.877  26.392  26.137  1.00  0.00     0.091 A 
ATOM     71  F   UNL A   1      47.551  26.619  28.108  1.00  0.00    -0.205 F 
ATOM     72  C   UNL A   1      49.021  26.591  24.754  1.00  0.00     0.022 A 
BRANCH  70  73
ATOM     73  S   UNL A   1      50.243  25.591  26.987  1.00  0.00     0.127 S 
ATOM     74  O   UNL A   1      50.640  26.623  27.944  1.00  0.00    -0.237 OA
ATOM     75  O   UNL A   1      49.592  24.425  27.584  1.00  0.00    -0.237 OA
ATOM     76  O   UNL A   1      51.227  25.279  25.961  1.00  0.00    -0.744 OA
ENDBRANCH  70  73
ENDBRANCH  52  66
BRANCH  53  77
ATOM     77  C   UNL A   1      38.549  30.740  30.828  1.00  0.00     0.023 A 
ATOM     78  C   UNL A   1      38.465  30.531  32.220  1.00  0.00     0.012 A 
ATOM     79  C   UNL A   1      37.501  31.413  30.171  1.00  0.00     0.148 A 
ATOM     80  C   UNL A   1      37.343  30.949  32.936  1.00  0.00     0.002 A 
ATOM     81  C   UNL A   1      36.412  31.877  30.900  1.00  0.00     0.091 A 
ATOM     82  F   UNL A   1      37.594  31.593  28.846  1.00  0.00    -0.205 F 
ATOM     83  C   UNL A   1      36.322  31.630  32.278  1.00  0.00     0.022 A 
BRANCH  81  84
ATOM     84  S   UNL A   1      35.116  32.876  30.160  1.00  0.00     0.127 S 
ATOM     85  O   UNL A   1      34.599  31.979  29.129  1.00  0.00    -0.237 OA
ATOM     86  O   UNL A   1      34.217  33.095  31.293  1.00  0.00    -0.237 OA
ATOM     87  O   UNL A   1      35.776  34.082  29.679  1.00  0.00    -0.744 OA
ENDBRANCH  81  84
ENDBRANCH  53  77
BRANCH  65  88
ATOM     88  C   UNL A   1      44.786  33.575  29.487  1.00  0.00     0.023 A 
ATOM     89  C   UNL A   1      45.545  33.720  30.665  1.00  0.00     0.012 A 
ATOM     90  C   UNL A   1      44.669  34.665  28.601  1.00  0.00     0.148 A 
ATOM     91  C   UNL A   1      46.150  34.938  30.973  1.00  0.00     0.002 A 
ATOM     92  C   UNL A   1      45.317  35.860  28.889  1.00  0.00     0.091 A 
ATOM     93  F   UNL A   1      43.927  34.513  27.495  1.00  0.00    -0.205 F 
ATOM     94  C   UNL A   1      46.047  36.002  30.080  1.00  0.00     0.022 A 
BRANCH  92  95
ATOM     95  S   UNL A   1      45.321  37.251  27.753  1.00  0.00     0.127 S 
ATOM     96  O   UNL A   1      43.912  37.639  27.752  1.00  0.00    -0.237 OA
ATOM     97  O   UNL A   1      46.214  38.197  28.423  1.00  0.00    -0.237 OA
ATOM     98  O   UNL A   1      45.829  36.735  26.489  1.00  0.00    -0.744 OA
ENDBRANCH  92  95
ENDBRANCH  65  88
ENDBRANCH  39  40
ENDBRANCH  31  34
ENDBRANCH  29  30
ENDBRANCH  28  29
ENDBRANCH   1  28
TORSDOF 18
ENDMDL
