MODEL 1
REMARK VINA RESULT:     -10.7      0.000      0.000
REMARK SMILES Cc1cc(Br)cnc1SCC1(CC(=O)NCCCCCCNC(=O)c2ccc(-c3c4nc(c(-c5cccc(S(=O)(=O)[O-])c5F)c5ccc([nH]5)c(-c5cccc(S(=O)(=O)[O-])c5F)c5nc(c(-c6cccc(S(=O)(=O)[O-])c6F)c6ccc3[nH]6)C=C5)C=C4)cc2)CC1
REMARK SMILES IDX 18 1 17 2 16 3 15 4 13 5 14 6 12 8 11 9 88 10 89 11 10 12
REMARK SMILES IDX 9 13 8 14 1 15 2 16 3 17 4 18 7 19 5 20 6 21 19 22 20 23
REMARK SMILES IDX 21 24 22 25 23 26 24 28 25 29 26 30 87 31 27 32 86 33 28 34
REMARK SMILES IDX 29 35 30 36 80 37 31 38 85 39 79 40 81 41 32 42 84 43 78 44
REMARK SMILES IDX 77 45 33 47 65 48 45 49 64 50 46 51 49 52 63 53 82 54 47 55
REMARK SMILES IDX 48 56 62 58 83 59 50 60 34 61 35 62 43 63 36 64 38 65 44 66
REMARK SMILES IDX 37 67 39 68 40 69 41 70 42 71 66 72 67 73 75 74 68 75 70 76
REMARK SMILES IDX 76 77 69 78 71 79 72 80 73 81 74 82 51 83 52 84 60 85 53 86
REMARK SMILES IDX 55 87 61 88 54 89 56 90 57 91 58 92 59 93
REMARK H PARENT 15 7 22 27 81 46 49 57
REMARK Flexibility Score: inf
ROOT
ATOM      1  C   UNL A   1      32.852  27.894  26.035  1.00  0.00     0.002 C 
ENDROOT
BRANCH   1   2
ATOM      2  C   UNL A   1      31.548  27.557  26.769  1.00  0.00     0.021 C 
BRANCH   2   3
ATOM      3  C   UNL A   1      30.815  26.343  26.195  1.00  0.00     0.116 C 
BRANCH   3   4
ATOM      4  N   UNL A   1      31.148  25.144  26.932  1.00  0.00    -0.356 N 
ATOM      5  C   UNL A   1      31.200  23.854  26.492  1.00  0.00     0.220 C 
ATOM      6  O   UNL A   1      31.424  22.970  27.319  1.00  0.00    -0.275 OA
ATOM      7  H   UNL A   1      31.368  25.277  27.883  1.00  0.00     0.163 HD
BRANCH   5   8
ATOM      8  C   UNL A   1      31.005  23.540  25.017  1.00  0.00     0.107 C 
BRANCH   8   9
ATOM      9  C   UNL A   1      32.275  23.307  24.201  1.00  0.00    -0.011 C 
ATOM     10  C   UNL A   1      32.173  22.231  23.128  1.00  0.00     0.009 C 
ATOM     11  C   UNL A   1      33.008  21.971  24.334  1.00  0.00     0.009 C 
BRANCH   9  12
ATOM     12  C   UNL A   1      33.168  24.512  24.005  1.00  0.00     0.084 C 
BRANCH  12  13
ATOM     13  S   UNL A   1      33.245  25.319  22.395  1.00  0.00    -0.106 SA
BRANCH  13  14
ATOM     14  C   UNL A   1      32.292  26.815  22.495  1.00  0.00     0.099 A 
ATOM     15  C   UNL A   1      34.204  28.557  22.601  1.00  0.00     0.047 C 
ATOM     16  C   UNL A   1      32.765  28.131  22.587  1.00  0.00    -0.018 A 
ATOM     17  C   UNL A   1      31.818  29.162  22.771  1.00  0.00     0.023 A 
ATOM     18  C   UNL A   1      30.471  28.866  22.911  1.00  0.00     0.036 A 
ATOM     19  N   UNL A   1      30.966  26.533  22.629  1.00  0.00    -0.248 NA
ATOM     20  Br  UNL A   1      29.208  30.228  23.224  1.00  0.00    -0.049 Br
ATOM     21  C   UNL A   1      30.095  27.545  22.844  1.00  0.00     0.128 A 
ENDBRANCH  13  14
ENDBRANCH  12  13
ENDBRANCH   9  12
ENDBRANCH   8   9
ENDBRANCH   5   8
ENDBRANCH   3   4
ENDBRANCH   2   3
ENDBRANCH   1   2
BRANCH   1  22
ATOM     22  C   UNL A   1      33.809  28.806  26.810  1.00  0.00     0.002 C 
BRANCH  22  23
ATOM     23  C   UNL A   1      33.683  30.299  26.493  1.00  0.00     0.021 C 
BRANCH  23  24
ATOM     24  C   UNL A   1      32.622  31.030  27.311  1.00  0.00     0.116 C 
BRANCH  24  25
ATOM     25  N   UNL A   1      32.816  32.471  27.268  1.00  0.00    -0.352 N 
ATOM     26  C   UNL A   1      33.741  33.240  27.920  1.00  0.00     0.251 C 
ATOM     27  H   UNL A   1      32.192  32.963  26.685  1.00  0.00     0.163 HD
ATOM     28  O   UNL A   1      33.596  34.462  27.965  1.00  0.00    -0.269 OA
BRANCH  26  29
ATOM     29  C   UNL A   1      34.913  32.610  28.563  1.00  0.00     0.039 A 
ATOM     30  C   UNL A   1      36.178  32.791  27.998  1.00  0.00     0.014 A 
ATOM     31  C   UNL A   1      34.757  31.800  29.693  1.00  0.00     0.014 A 
ATOM     32  C   UNL A   1      37.291  32.182  28.582  1.00  0.00     0.010 A 
ATOM     33  C   UNL A   1      35.876  31.251  30.313  1.00  0.00     0.010 A 
ATOM     34  C   UNL A   1      37.150  31.415  29.751  1.00  0.00    -0.014 A 
BRANCH  34  35
ATOM     35  C   UNL A   1      38.316  30.742  30.377  1.00  0.00     0.031 A 
ATOM     36  C   UNL A   1      38.760  31.146  31.759  1.00  0.00     0.074 A 
ATOM     37  C   UNL A   1      39.017  29.828  29.681  1.00  0.00     0.049 A 
ATOM     38  N   UNL A   1      39.791  30.733  32.448  1.00  0.00    -0.248 NA
ATOM     39  C   UNL A   1      37.954  32.171  32.446  1.00  0.00     0.031 C 
ATOM     40  C   UNL A   1      38.731  29.408  28.307  1.00  0.00     0.029 A 
ATOM     41  N   UNL A   1      40.134  29.107  30.023  1.00  0.00    -0.354 N 
ATOM     42  C   UNL A   1      39.781  31.468  33.627  1.00  0.00     0.074 A 
ATOM     43  C   UNL A   1      38.663  32.381  33.547  1.00  0.00     0.031 C 
ATOM     44  C   UNL A   1      39.651  28.508  27.922  1.00  0.00     0.029 A 
ATOM     45  C   UNL A   1      40.604  28.304  29.009  1.00  0.00     0.049 A 
ATOM     46  H   UNL A   1      40.559  29.160  30.909  1.00  0.00     0.167 HD
ATOM     47  C   UNL A   1      40.604  31.369  34.698  1.00  0.00     0.034 A 
ATOM     48  C   UNL A   1      41.684  27.498  28.962  1.00  0.00     0.034 A 
ATOM     49  C   UNL A   1      41.682  30.423  34.797  1.00  0.00     0.049 A 
ATOM     50  C   UNL A   1      42.548  27.364  30.187  1.00  0.00     0.074 A 
ATOM     51  C   UNL A   1      42.530  30.194  35.865  1.00  0.00     0.029 A 
ATOM     52  N   UNL A   1      42.056  29.545  33.792  1.00  0.00    -0.354 N 
ATOM     53  N   UNL A   1      42.434  27.966  31.346  1.00  0.00    -0.248 NA
ATOM     54  C   UNL A   1      43.660  26.406  30.115  1.00  0.00     0.031 C 
ATOM     55  C   UNL A   1      43.425  29.182  35.503  1.00  0.00     0.029 A 
ATOM     56  C   UNL A   1      43.119  28.766  34.216  1.00  0.00     0.049 A 
ATOM     57  H   UNL A   1      41.629  29.483  32.908  1.00  0.00     0.167 HD
ATOM     58  C   UNL A   1      43.433  27.431  32.153  1.00  0.00     0.074 A 
ATOM     59  C   UNL A   1      44.128  26.442  31.355  1.00  0.00     0.031 C 
ATOM     60  C   UNL A   1      43.755  27.740  33.432  1.00  0.00     0.034 A 
BRANCH  47  61
ATOM     61  C   UNL A   1      40.331  32.264  35.879  1.00  0.00     0.023 A 
ATOM     62  C   UNL A   1      41.126  33.412  36.074  1.00  0.00     0.012 A 
ATOM     63  C   UNL A   1      39.258  32.009  36.755  1.00  0.00     0.148 A 
ATOM     64  C   UNL A   1      40.880  34.274  37.142  1.00  0.00     0.002 A 
ATOM     65  C   UNL A   1      38.991  32.898  37.791  1.00  0.00     0.091 A 
ATOM     66  F   UNL A   1      38.525  30.903  36.565  1.00  0.00    -0.205 F 
ATOM     67  C   UNL A   1      39.807  34.024  37.993  1.00  0.00     0.022 A 
BRANCH  65  68
ATOM     68  S   UNL A   1      37.586  32.708  38.895  1.00  0.00     0.127 S 
ATOM     69  O   UNL A   1      37.792  31.350  39.400  1.00  0.00    -0.237 OA
ATOM     70  O   UNL A   1      37.823  33.766  39.879  1.00  0.00    -0.237 OA
ATOM     71  O   UNL A   1      36.400  32.894  38.075  1.00  0.00    -0.744 OA
ENDBRANCH  65  68
ENDBRANCH  47  61
BRANCH  48  72
ATOM     72  C   UNL A   1      41.969  26.706  27.733  1.00  0.00     0.023 A 
ATOM     73  C   UNL A   1      42.573  27.336  26.627  1.00  0.00     0.012 A 
ATOM     74  C   UNL A   1      41.667  25.333  27.659  1.00  0.00     0.148 A 
ATOM     75  C   UNL A   1      42.833  26.623  25.456  1.00  0.00     0.002 A 
ATOM     76  C   UNL A   1      41.981  24.615  26.510  1.00  0.00     0.091 A 
ATOM     77  F   UNL A   1      41.082  24.752  28.717  1.00  0.00    -0.205 F 
ATOM     78  C   UNL A   1      42.546  25.262  25.400  1.00  0.00     0.022 A 
BRANCH  76  79
ATOM     79  S   UNL A   1      41.767  22.835  26.407  1.00  0.00     0.127 S 
ATOM     80  O   UNL A   1      42.451  22.380  27.615  1.00  0.00    -0.237 OA
ATOM     81  O   UNL A   1      40.309  22.701  26.438  1.00  0.00    -0.237 OA
ATOM     82  O   UNL A   1      42.374  22.442  25.144  1.00  0.00    -0.744 OA
ENDBRANCH  76  79
ENDBRANCH  48  72
BRANCH  60  83
ATOM     83  C   UNL A   1      44.876  26.970  34.077  1.00  0.00     0.023 A 
ATOM     84  C   UNL A   1      46.212  27.366  33.870  1.00  0.00     0.012 A 
ATOM     85  C   UNL A   1      44.599  25.901  34.952  1.00  0.00     0.148 A 
ATOM     86  C   UNL A   1      47.257  26.689  34.497  1.00  0.00     0.002 A 
ATOM     87  C   UNL A   1      45.643  25.261  35.611  1.00  0.00     0.091 A 
ATOM     88  F   UNL A   1      43.323  25.525  35.120  1.00  0.00    -0.205 F 
ATOM     89  C   UNL A   1      46.971  25.646  35.376  1.00  0.00     0.022 A 
BRANCH  87  90
ATOM     90  S   UNL A   1      45.359  23.975  36.833  1.00  0.00     0.127 S 
ATOM     91  O   UNL A   1      44.845  22.887  36.005  1.00  0.00    -0.237 OA
ATOM     92  O   UNL A   1      46.703  23.753  37.367  1.00  0.00    -0.237 OA
ATOM     93  O   UNL A   1      44.416  24.535  37.791  1.00  0.00    -0.744 OA
ENDBRANCH  87  90
ENDBRANCH  60  83
ENDBRANCH  34  35
ENDBRANCH  26  29
ENDBRANCH  24  25
ENDBRANCH  23  24
ENDBRANCH  22  23
ENDBRANCH   1  22
TORSDOF 20
ENDMDL
MODEL 2
REMARK VINA RESULT:     -10.6      2.802      4.142
REMARK SMILES Cc1cc(Br)cnc1SCC1(CC(=O)NCCCCCCNC(=O)c2ccc(-c3c4nc(c(-c5cccc(S(=O)(=O)[O-])c5F)c5ccc([nH]5)c(-c5cccc(S(=O)(=O)[O-])c5F)c5nc(c(-c6cccc(S(=O)(=O)[O-])c6F)c6ccc3[nH]6)C=C5)C=C4)cc2)CC1
REMARK SMILES IDX 18 1 17 2 16 3 15 4 13 5 14 6 12 8 11 9 88 10 89 11 10 12
REMARK SMILES IDX 9 13 8 14 1 15 2 16 3 17 4 18 7 19 5 20 6 21 19 22 20 23
REMARK SMILES IDX 21 24 22 25 23 26 24 28 25 29 26 30 87 31 27 32 86 33 28 34
REMARK SMILES IDX 29 35 30 36 80 37 31 38 85 39 79 40 81 41 32 42 84 43 78 44
REMARK SMILES IDX 77 45 33 47 65 48 45 49 64 50 46 51 49 52 63 53 82 54 47 55
REMARK SMILES IDX 48 56 62 58 83 59 50 60 34 61 35 62 43 63 36 64 38 65 44 66
REMARK SMILES IDX 37 67 39 68 40 69 41 70 42 71 66 72 67 73 75 74 68 75 70 76
REMARK SMILES IDX 76 77 69 78 71 79 72 80 73 81 74 82 51 83 52 84 60 85 53 86
REMARK SMILES IDX 55 87 61 88 54 89 56 90 57 91 58 92 59 93
REMARK H PARENT 15 7 22 27 81 46 49 57
REMARK Flexibility Score: inf
ROOT
ATOM      1  C   UNL A   1      30.925  29.218  24.236  1.00  0.00     0.002 C 
ENDROOT
BRANCH   1   2
ATOM      2  C   UNL A   1      30.781  28.368  22.969  1.00  0.00     0.021 C 
BRANCH   2   3
ATOM      3  C   UNL A   1      29.881  27.144  23.147  1.00  0.00     0.116 C 
BRANCH   3   4
ATOM      4  N   UNL A   1      29.914  26.674  24.515  1.00  0.00    -0.356 N 
ATOM      5  C   UNL A   1      30.285  25.452  24.993  1.00  0.00     0.220 C 
ATOM      6  O   UNL A   1      30.153  25.238  26.198  1.00  0.00    -0.275 OA
ATOM      7  H   UNL A   1      29.629  27.327  25.194  1.00  0.00     0.163 HD
BRANCH   5   8
ATOM      8  C   UNL A   1      30.865  24.406  24.053  1.00  0.00     0.107 C 
BRANCH   8   9
ATOM      9  C   UNL A   1      32.389  24.350  23.958  1.00  0.00    -0.011 C 
ATOM     10  C   UNL A   1      33.018  25.347  22.993  1.00  0.00     0.009 C 
ATOM     11  C   UNL A   1      33.034  23.897  22.648  1.00  0.00     0.009 C 
BRANCH   9  12
ATOM     12  C   UNL A   1      33.116  23.924  25.214  1.00  0.00     0.084 C 
BRANCH  12  13
ATOM     13  S   UNL A   1      32.452  22.589  26.225  1.00  0.00    -0.106 SA
BRANCH  13  14
ATOM     14  C   UNL A   1      33.067  21.057  25.570  1.00  0.00     0.099 A 
ATOM     15  C   UNL A   1      35.612  21.448  25.832  1.00  0.00     0.047 C 
ATOM     16  C   UNL A   1      34.403  20.656  25.430  1.00  0.00    -0.018 A 
ATOM     17  C   UNL A   1      34.660  19.433  24.773  1.00  0.00     0.023 A 
ATOM     18  C   UNL A   1      33.621  18.687  24.238  1.00  0.00     0.036 A 
ATOM     19  N   UNL A   1      32.051  20.316  25.045  1.00  0.00    -0.248 NA
ATOM     20  Br  UNL A   1      33.960  17.089  23.302  1.00  0.00    -0.049 Br
ATOM     21  C   UNL A   1      32.342  19.170  24.388  1.00  0.00     0.128 A 
ENDBRANCH  13  14
ENDBRANCH  12  13
ENDBRANCH   9  12
ENDBRANCH   8   9
ENDBRANCH   5   8
ENDBRANCH   3   4
ENDBRANCH   2   3
ENDBRANCH   1   2
BRANCH   1  22
ATOM     22  C   UNL A   1      32.356  29.341  24.770  1.00  0.00     0.002 C 
BRANCH  22  23
ATOM     23  C   UNL A   1      32.825  28.176  25.646  1.00  0.00     0.021 C 
BRANCH  23  24
ATOM     24  C   UNL A   1      33.824  28.565  26.732  1.00  0.00     0.116 C 
BRANCH  24  25
ATOM     25  N   UNL A   1      33.824  30.001  26.964  1.00  0.00    -0.352 N 
ATOM     26  C   UNL A   1      34.677  30.756  27.722  1.00  0.00     0.251 C 
ATOM     27  H   UNL A   1      33.107  30.502  26.509  1.00  0.00     0.163 HD
ATOM     28  O   UNL A   1      34.376  31.915  28.009  1.00  0.00    -0.269 OA
BRANCH  26  29
ATOM     29  C   UNL A   1      35.958  30.186  28.192  1.00  0.00     0.039 A 
ATOM     30  C   UNL A   1      36.014  29.591  29.454  1.00  0.00     0.014 A 
ATOM     31  C   UNL A   1      37.112  30.285  27.409  1.00  0.00     0.014 A 
ATOM     32  C   UNL A   1      37.222  29.069  29.921  1.00  0.00     0.010 A 
ATOM     33  C   UNL A   1      38.298  29.703  27.846  1.00  0.00     0.010 A 
ATOM     34  C   UNL A   1      38.372  29.111  29.116  1.00  0.00    -0.014 A 
BRANCH  34  35
ATOM     35  C   UNL A   1      39.673  28.581  29.598  1.00  0.00     0.031 A 
ATOM     36  C   UNL A   1      40.422  29.308  30.684  1.00  0.00     0.074 A 
ATOM     37  C   UNL A   1      40.213  27.495  29.014  1.00  0.00     0.049 A 
ATOM     38  N   UNL A   1      41.599  29.050  31.190  1.00  0.00    -0.248 NA
ATOM     39  C   UNL A   1      39.774  30.502  31.257  1.00  0.00     0.031 C 
ATOM     40  C   UNL A   1      39.620  26.748  27.902  1.00  0.00     0.029 A 
ATOM     41  N   UNL A   1      41.400  26.848  29.253  1.00  0.00    -0.354 N 
ATOM     42  C   UNL A   1      41.849  30.062  32.109  1.00  0.00     0.074 A 
ATOM     43  C   UNL A   1      40.718  30.962  32.065  1.00  0.00     0.031 C 
ATOM     44  C   UNL A   1      40.446  25.748  27.553  1.00  0.00     0.029 A 
ATOM     45  C   UNL A   1      41.636  25.796  28.398  1.00  0.00     0.049 A 
ATOM     46  H   UNL A   1      42.021  27.111  29.969  1.00  0.00     0.167 HD
ATOM     47  C   UNL A   1      42.906  30.212  32.942  1.00  0.00     0.034 A 
ATOM     48  C   UNL A   1      42.696  24.969  28.303  1.00  0.00     0.034 A 
ATOM     49  C   UNL A   1      44.003  29.286  33.021  1.00  0.00     0.049 A 
ATOM     50  C   UNL A   1      43.831  25.122  29.280  1.00  0.00     0.074 A 
ATOM     51  C   UNL A   1      45.088  29.308  33.879  1.00  0.00     0.029 A 
ATOM     52  N   UNL A   1      44.152  28.168  32.216  1.00  0.00    -0.354 N 
ATOM     53  N   UNL A   1      43.980  26.004  30.239  1.00  0.00    -0.248 NA
ATOM     54  C   UNL A   1      44.921  24.140  29.194  1.00  0.00     0.031 C 
ATOM     55  C   UNL A   1      45.899  28.207  33.586  1.00  0.00     0.029 A 
ATOM     56  C   UNL A   1      45.306  27.487  32.560  1.00  0.00     0.049 A 
ATOM     57  H   UNL A   1      43.528  27.897  31.505  1.00  0.00     0.167 HD
ATOM     58  C   UNL A   1      45.157  25.658  30.895  1.00  0.00     0.074 A 
ATOM     59  C   UNL A   1      45.670  24.475  30.235  1.00  0.00     0.031 C 
ATOM     60  C   UNL A   1      45.766  26.273  31.937  1.00  0.00     0.034 A 
BRANCH  47  61
ATOM     61  C   UNL A   1      42.897  31.388  33.884  1.00  0.00     0.023 A 
ATOM     62  C   UNL A   1      43.459  32.612  33.466  1.00  0.00     0.012 A 
ATOM     63  C   UNL A   1      42.284  31.305  35.149  1.00  0.00     0.148 A 
ATOM     64  C   UNL A   1      43.442  33.725  34.305  1.00  0.00     0.002 A 
ATOM     65  C   UNL A   1      42.230  32.433  35.962  1.00  0.00     0.091 A 
ATOM     66  F   UNL A   1      41.773  30.128  35.537  1.00  0.00    -0.205 F 
ATOM     67  C   UNL A   1      42.818  33.639  35.546  1.00  0.00     0.022 A 
BRANCH  65  68
ATOM     68  S   UNL A   1      41.383  32.447  37.546  1.00  0.00     0.127 S 
ATOM     69  O   UNL A   1      40.073  31.903  37.184  1.00  0.00    -0.237 OA
ATOM     70  O   UNL A   1      42.215  31.548  38.348  1.00  0.00    -0.237 OA
ATOM     71  O   UNL A   1      41.380  33.832  37.990  1.00  0.00    -0.744 OA
ENDBRANCH  65  68
ENDBRANCH  47  61
BRANCH  48  72
ATOM     72  C   UNL A   1      42.703  23.879  27.287  1.00  0.00     0.023 A 
ATOM     73  C   UNL A   1      43.356  24.083  26.056  1.00  0.00     0.012 A 
ATOM     74  C   UNL A   1      42.086  22.638  27.539  1.00  0.00     0.148 A 
ATOM     75  C   UNL A   1      43.361  23.088  25.079  1.00  0.00     0.002 A 
ATOM     76  C   UNL A   1      42.143  21.630  26.582  1.00  0.00     0.091 A 
ATOM     77  F   UNL A   1      41.459  22.465  28.711  1.00  0.00    -0.205 F 
ATOM     78  C   UNL A   1      42.763  21.859  25.344  1.00  0.00     0.022 A 
BRANCH  76  79
ATOM     79  S   UNL A   1      41.516  19.977  26.897  1.00  0.00     0.127 S 
ATOM     80  O   UNL A   1      42.751  19.216  27.071  1.00  0.00    -0.237 OA
ATOM     81  O   UNL A   1      40.738  20.175  28.122  1.00  0.00    -0.237 OA
ATOM     82  O   UNL A   1      40.716  19.635  25.732  1.00  0.00    -0.744 OA
ENDBRANCH  76  79
ENDBRANCH  48  72
BRANCH  60  83
ATOM     83  C   UNL A   1      47.030  25.655  32.473  1.00  0.00     0.023 A 
ATOM     84  C   UNL A   1      48.275  25.997  31.908  1.00  0.00     0.012 A 
ATOM     85  C   UNL A   1      46.990  24.794  33.587  1.00  0.00     0.148 A 
ATOM     86  C   UNL A   1      49.456  25.466  32.423  1.00  0.00     0.002 A 
ATOM     87  C   UNL A   1      48.175  24.307  34.126  1.00  0.00     0.091 A 
ATOM     88  F   UNL A   1      45.794  24.464  34.099  1.00  0.00    -0.205 F 
ATOM     89  C   UNL A   1      49.407  24.632  33.538  1.00  0.00     0.022 A 
BRANCH  87  90
ATOM     90  S   UNL A   1      48.210  23.308  35.619  1.00  0.00     0.127 S 
ATOM     91  O   UNL A   1      47.565  24.194  36.585  1.00  0.00    -0.237 OA
ATOM     92  O   UNL A   1      47.412  22.143  35.232  1.00  0.00    -0.237 OA
ATOM     93  O   UNL A   1      49.614  23.018  35.872  1.00  0.00    -0.744 OA
ENDBRANCH  87  90
ENDBRANCH  60  83
ENDBRANCH  34  35
ENDBRANCH  26  29
ENDBRANCH  24  25
ENDBRANCH  23  24
ENDBRANCH  22  23
ENDBRANCH   1  22
TORSDOF 20
ENDMDL
MODEL 3
REMARK VINA RESULT:     -10.6      2.649      8.463
REMARK SMILES Cc1cc(Br)cnc1SCC1(CC(=O)NCCCCCCNC(=O)c2ccc(-c3c4nc(c(-c5cccc(S(=O)(=O)[O-])c5F)c5ccc([nH]5)c(-c5cccc(S(=O)(=O)[O-])c5F)c5nc(c(-c6cccc(S(=O)(=O)[O-])c6F)c6ccc3[nH]6)C=C5)C=C4)cc2)CC1
REMARK SMILES IDX 18 1 17 2 16 3 15 4 13 5 14 6 12 8 11 9 88 10 89 11 10 12
REMARK SMILES IDX 9 13 8 14 1 15 2 16 3 17 4 18 7 19 5 20 6 21 19 22 20 23
REMARK SMILES IDX 21 24 22 25 23 26 24 28 25 29 26 30 87 31 27 32 86 33 28 34
REMARK SMILES IDX 29 35 30 36 80 37 31 38 85 39 79 40 81 41 32 42 84 43 78 44
REMARK SMILES IDX 77 45 33 47 65 48 45 49 64 50 46 51 49 52 63 53 82 54 47 55
REMARK SMILES IDX 48 56 62 58 83 59 50 60 34 61 35 62 43 63 36 64 38 65 44 66
REMARK SMILES IDX 37 67 39 68 40 69 41 70 42 71 66 72 67 73 75 74 68 75 70 76
REMARK SMILES IDX 76 77 69 78 71 79 72 80 73 81 74 82 51 83 52 84 60 85 53 86
REMARK SMILES IDX 55 87 61 88 54 89 56 90 57 91 58 92 59 93
REMARK H PARENT 15 7 22 27 81 46 49 57
REMARK Flexibility Score: inf
ROOT
ATOM      1  C   UNL A   1      32.683  30.272  26.887  1.00  0.00     0.002 C 
ENDROOT
BRANCH   1   2
ATOM      2  C   UNL A   1      32.550  28.751  27.020  1.00  0.00     0.021 C 
BRANCH   2   3
ATOM      3  C   UNL A   1      33.650  27.971  26.298  1.00  0.00     0.116 C 
BRANCH   3   4
ATOM      4  N   UNL A   1      34.046  28.645  25.080  1.00  0.00    -0.356 N 
ATOM      5  C   UNL A   1      33.496  28.560  23.836  1.00  0.00     0.220 C 
ATOM      6  O   UNL A   1      34.052  29.160  22.916  1.00  0.00    -0.275 OA
ATOM      7  H   UNL A   1      34.820  29.248  25.163  1.00  0.00     0.163 HD
BRANCH   5   8
ATOM      8  C   UNL A   1      32.220  27.761  23.615  1.00  0.00     0.107 C 
BRANCH   8   9
ATOM      9  C   UNL A   1      32.396  26.273  23.318  1.00  0.00    -0.011 C 
ATOM     10  C   UNL A   1      33.367  25.943  22.192  1.00  0.00     0.009 C 
ATOM     11  C   UNL A   1      31.910  25.722  21.978  1.00  0.00     0.009 C 
BRANCH   9  12
ATOM     12  C   UNL A   1      32.230  25.338  24.496  1.00  0.00     0.084 C 
BRANCH  12  13
ATOM     13  S   UNL A   1      33.640  24.389  25.093  1.00  0.00    -0.106 SA
BRANCH  13  14
ATOM     14  C   UNL A   1      33.260  22.666  24.884  1.00  0.00     0.099 A 
ATOM     15  C   UNL A   1      34.215  21.725  27.098  1.00  0.00     0.047 C 
ATOM     16  C   UNL A   1      33.541  21.611  25.763  1.00  0.00    -0.018 A 
ATOM     17  C   UNL A   1      33.246  20.299  25.334  1.00  0.00     0.023 A 
ATOM     18  C   UNL A   1      32.747  20.067  24.061  1.00  0.00     0.036 A 
ATOM     19  N   UNL A   1      32.766  22.431  23.636  1.00  0.00    -0.248 NA
ATOM     20  Br  UNL A   1      32.415  18.315  23.456  1.00  0.00    -0.049 Br
ATOM     21  C   UNL A   1      32.535  21.156  23.248  1.00  0.00     0.128 A 
ENDBRANCH  13  14
ENDBRANCH  12  13
ENDBRANCH   9  12
ENDBRANCH   8   9
ENDBRANCH   5   8
ENDBRANCH   3   4
ENDBRANCH   2   3
ENDBRANCH   1   2
BRANCH   1  22
ATOM     22  C   UNL A   1      31.403  30.994  26.451  1.00  0.00     0.002 C 
BRANCH  22  23
ATOM     23  C   UNL A   1      31.426  32.516  26.623  1.00  0.00     0.021 C 
BRANCH  23  24
ATOM     24  C   UNL A   1      32.726  33.066  27.203  1.00  0.00     0.116 C 
BRANCH  24  25
ATOM     25  N   UNL A   1      32.548  34.413  27.722  1.00  0.00    -0.352 N 
ATOM     26  C   UNL A   1      33.104  34.996  28.829  1.00  0.00     0.251 C 
ATOM     27  H   UNL A   1      31.942  34.989  27.201  1.00  0.00     0.163 HD
ATOM     28  O   UNL A   1      32.645  36.055  29.257  1.00  0.00    -0.269 OA
BRANCH  26  29
ATOM     29  C   UNL A   1      34.255  34.360  29.505  1.00  0.00     0.039 A 
ATOM     30  C   UNL A   1      34.026  33.570  30.634  1.00  0.00     0.014 A 
ATOM     31  C   UNL A   1      35.560  34.585  29.057  1.00  0.00     0.014 A 
ATOM     32  C   UNL A   1      35.106  32.982  31.298  1.00  0.00     0.010 A 
ATOM     33  C   UNL A   1      36.627  33.942  29.678  1.00  0.00     0.010 A 
ATOM     34  C   UNL A   1      36.414  33.155  30.819  1.00  0.00    -0.014 A 
BRANCH  34  35
ATOM     35  C   UNL A   1      37.578  32.556  31.519  1.00  0.00     0.031 A 
ATOM     36  C   UNL A   1      38.321  31.406  30.890  1.00  0.00     0.074 A 
ATOM     37  C   UNL A   1      37.920  32.993  32.746  1.00  0.00     0.049 A 
ATOM     38  N   UNL A   1      39.312  30.703  31.370  1.00  0.00    -0.248 NA
ATOM     39  C   UNL A   1      37.871  30.972  29.556  1.00  0.00     0.031 C 
ATOM     40  C   UNL A   1      37.232  34.048  33.492  1.00  0.00     0.029 A 
ATOM     41  N   UNL A   1      38.916  32.581  33.597  1.00  0.00    -0.354 N 
ATOM     42  C   UNL A   1      39.580  29.724  30.420  1.00  0.00     0.074 A 
ATOM     43  C   UNL A   1      38.623  29.899  29.351  1.00  0.00     0.031 C 
ATOM     44  C   UNL A   1      37.822  34.198  34.690  1.00  0.00     0.029 A 
ATOM     45  C   UNL A   1      38.914  33.236  34.807  1.00  0.00     0.049 A 
ATOM     46  H   UNL A   1      39.570  31.884  33.362  1.00  0.00     0.167 HD
ATOM     47  C   UNL A   1      40.556  28.786  30.417  1.00  0.00     0.034 A 
ATOM     48  C   UNL A   1      39.701  33.074  35.889  1.00  0.00     0.034 A 
ATOM     49  C   UNL A   1      41.540  28.649  31.457  1.00  0.00     0.049 A 
ATOM     50  C   UNL A   1      40.815  32.064  35.836  1.00  0.00     0.074 A 
ATOM     51  C   UNL A   1      42.613  27.778  31.517  1.00  0.00     0.029 A 
ATOM     52  N   UNL A   1      41.574  29.408  32.616  1.00  0.00    -0.354 N 
ATOM     53  N   UNL A   1      41.140  31.244  34.866  1.00  0.00    -0.248 NA
ATOM     54  C   UNL A   1      41.701  31.987  37.007  1.00  0.00     0.031 C 
ATOM     55  C   UNL A   1      43.292  28.004  32.719  1.00  0.00     0.029 A 
ATOM     56  C   UNL A   1      42.654  29.031  33.396  1.00  0.00     0.049 A 
ATOM     57  H   UNL A   1      40.927  30.112  32.850  1.00  0.00     0.167 HD
ATOM     58  C   UNL A   1      42.289  30.585  35.291  1.00  0.00     0.074 A 
ATOM     59  C   UNL A   1      42.614  31.117  36.599  1.00  0.00     0.031 C 
ATOM     60  C   UNL A   1      43.001  29.618  34.664  1.00  0.00     0.034 A 
BRANCH  47  61
ATOM     61  C   UNL A   1      40.652  27.874  29.222  1.00  0.00     0.023 A 
ATOM     62  C   UNL A   1      39.790  26.762  29.131  1.00  0.00     0.012 A 
ATOM     63  C   UNL A   1      41.542  28.147  28.165  1.00  0.00     0.148 A 
ATOM     64  C   UNL A   1      39.835  25.915  28.024  1.00  0.00     0.002 A 
ATOM     65  C   UNL A   1      41.550  27.324  27.043  1.00  0.00     0.091 A 
ATOM     66  F   UNL A   1      42.367  29.197  28.278  1.00  0.00    -0.205 F 
ATOM     67  C   UNL A   1      40.706  26.203  26.977  1.00  0.00     0.022 A 
BRANCH  65  68
ATOM     68  S   UNL A   1      42.578  27.651  25.607  1.00  0.00     0.127 S 
ATOM     69  O   UNL A   1      41.997  28.897  25.107  1.00  0.00    -0.237 OA
ATOM     70  O   UNL A   1      43.906  27.796  26.207  1.00  0.00    -0.237 OA
ATOM     71  O   UNL A   1      42.429  26.499  24.732  1.00  0.00    -0.744 OA
ENDBRANCH  65  68
ENDBRANCH  47  61
BRANCH  48  72
ATOM     72  C   UNL A   1      39.504  33.935  37.089  1.00  0.00     0.023 A 
ATOM     73  C   UNL A   1      39.951  35.271  37.064  1.00  0.00     0.012 A 
ATOM     74  C   UNL A   1      38.862  33.448  38.244  1.00  0.00     0.148 A 
ATOM     75  C   UNL A   1      39.798  36.093  38.180  1.00  0.00     0.002 A 
ATOM     76  C   UNL A   1      38.663  34.290  39.332  1.00  0.00     0.091 A 
ATOM     77  F   UNL A   1      38.455  32.171  38.254  1.00  0.00    -0.205 F 
ATOM     78  C   UNL A   1      39.147  35.607  39.310  1.00  0.00     0.022 A 
BRANCH  76  79
ATOM     79  S   UNL A   1      37.716  33.783  40.772  1.00  0.00     0.127 S 
ATOM     80  O   UNL A   1      36.518  33.215  40.158  1.00  0.00    -0.237 OA
ATOM     81  O   UNL A   1      38.612  32.806  41.396  1.00  0.00    -0.237 OA
ATOM     82  O   UNL A   1      37.519  34.994  41.555  1.00  0.00    -0.744 OA
ENDBRANCH  76  79
ENDBRANCH  48  72
BRANCH  60  83
ATOM     83  C   UNL A   1      44.236  29.101  35.353  1.00  0.00     0.023 A 
ATOM     84  C   UNL A   1      45.461  29.781  35.204  1.00  0.00     0.012 A 
ATOM     85  C   UNL A   1      44.164  27.985  36.210  1.00  0.00     0.148 A 
ATOM     86  C   UNL A   1      46.602  29.339  35.872  1.00  0.00     0.002 A 
ATOM     87  C   UNL A   1      45.293  27.579  36.910  1.00  0.00     0.091 A 
ATOM     88  F   UNL A   1      42.994  27.338  36.322  1.00  0.00    -0.205 F 
ATOM     89  C   UNL A   1      46.515  28.246  36.733  1.00  0.00     0.022 A 
BRANCH  87  90
ATOM     90  S   UNL A   1      45.248  26.245  38.113  1.00  0.00     0.127 S 
ATOM     91  O   UNL A   1      46.593  26.310  38.680  1.00  0.00    -0.237 OA
ATOM     92  O   UNL A   1      44.182  26.679  39.017  1.00  0.00    -0.237 OA
ATOM     93  O   UNL A   1      44.942  25.038  37.358  1.00  0.00    -0.744 OA
ENDBRANCH  87  90
ENDBRANCH  60  83
ENDBRANCH  34  35
ENDBRANCH  26  29
ENDBRANCH  24  25
ENDBRANCH  23  24
ENDBRANCH  22  23
ENDBRANCH   1  22
TORSDOF 20
ENDMDL
