MODEL 1
REMARK VINA RESULT:     -12.2      0.000      0.000
REMARK SMILES O=C(NCCCCCCNC(=O)[C@@H]1[C@H](C(=O)Nc2ccccc2OC(F)F)[C@@H]2C=C[C@H]1C2)c1ccc(-c2c3nc(c(-c4cccc(S(=O)(=O)[O-])c4F)c4ccc([nH]4)c(-c4cccc(S(=O)(=O)[O-])c4F)c4nc(c(-c5cccc(S(=O)(=O)[O-])c5F)c5ccc2[nH]5)C=C4)C=C3)cc1
REMARK SMILES IDX 7 1 6 2 5 3 4 4 3 5 1 6 2 7 33 9 34 10 95 11 35 12 94 13
REMARK SMILES IDX 36 14 37 15 38 16 88 17 39 18 93 19 87 20 89 21 40 22 92 23
REMARK SMILES IDX 86 24 85 25 41 27 73 28 53 29 72 30 54 31 57 32 71 33 90 34
REMARK SMILES IDX 55 35 56 36 70 38 91 39 58 40 42 41 43 42 51 43 44 44 46 45
REMARK SMILES IDX 52 46 45 47 47 48 48 49 49 50 50 51 74 52 75 53 83 54 76 55
REMARK SMILES IDX 78 56 84 57 77 58 79 59 80 60 81 61 82 62 59 63 60 64 68 65
REMARK SMILES IDX 61 66 63 67 69 68 62 69 64 70 65 71 66 72 67 73 8 74 9 75
REMARK SMILES IDX 10 76 11 77 12 79 13 80 14 81 31 82 28 83 30 84 32 85 29 86
REMARK SMILES IDX 15 87 16 88 17 89 18 91 19 92 23 93 20 94 22 95 21 96 24 97
REMARK SMILES IDX 25 98 26 99 27 100
REMARK H PARENT 3 8 89 26 57 37 10 78 17 90
REMARK Flexibility Score: inf
ROOT
ATOM      1  C   UNL A   1      32.349  28.988  26.818  1.00  0.00     0.002 C 
ENDROOT
BRANCH   1   2
ATOM      2  C   UNL A   1      31.726  30.017  25.879  1.00  0.00     0.002 C 
BRANCH   2   3
ATOM      3  C   UNL A   1      31.629  31.467  26.375  1.00  0.00     0.021 C 
BRANCH   3   4
ATOM      4  C   UNL A   1      32.826  32.020  27.155  1.00  0.00     0.116 C 
BRANCH   4   5
ATOM      5  N   UNL A   1      32.698  33.438  27.457  1.00  0.00    -0.352 N 
ATOM      6  O   UNL A   1      32.875  35.320  28.679  1.00  0.00    -0.269 OA
ATOM      7  C   UNL A   1      33.300  34.201  28.433  1.00  0.00     0.251 C 
ATOM      8  H   UNL A   1      32.081  33.932  26.868  1.00  0.00     0.163 HD
BRANCH   7   9
ATOM      9  C   UNL A   1      34.462  33.663  29.176  1.00  0.00     0.039 A 
ATOM     10  C   UNL A   1      34.283  32.658  30.128  1.00  0.00     0.014 A 
ATOM     11  C   UNL A   1      35.748  34.127  28.880  1.00  0.00     0.014 A 
ATOM     12  C   UNL A   1      35.367  32.208  30.872  1.00  0.00     0.010 A 
ATOM     13  C   UNL A   1      36.850  33.614  29.574  1.00  0.00     0.010 A 
ATOM     14  C   UNL A   1      36.665  32.663  30.589  1.00  0.00    -0.014 A 
BRANCH  14  15
ATOM     15  C   UNL A   1      37.818  32.051  31.298  1.00  0.00     0.031 A 
ATOM     16  C   UNL A   1      38.645  30.968  30.665  1.00  0.00     0.074 A 
ATOM     17  C   UNL A   1      38.108  32.488  32.540  1.00  0.00     0.049 A 
ATOM     18  N   UNL A   1      39.685  30.340  31.150  1.00  0.00    -0.248 NA
ATOM     19  C   UNL A   1      38.256  30.527  29.316  1.00  0.00     0.031 C 
ATOM     20  C   UNL A   1      37.349  33.507  33.269  1.00  0.00     0.029 A 
ATOM     21  N   UNL A   1      39.107  32.136  33.410  1.00  0.00    -0.354 N 
ATOM     22  C   UNL A   1      40.052  29.404  30.190  1.00  0.00     0.074 A 
ATOM     23  C   UNL A   1      39.119  29.544  29.092  1.00  0.00     0.031 C 
ATOM     24  C   UNL A   1      37.921  33.717  34.462  1.00  0.00     0.029 A 
ATOM     25  C   UNL A   1      39.046  32.804  34.612  1.00  0.00     0.049 A 
ATOM     26  H   UNL A   1      39.801  31.471  33.197  1.00  0.00     0.167 HD
ATOM     27  C   UNL A   1      41.080  28.521  30.219  1.00  0.00     0.034 A 
ATOM     28  C   UNL A   1      39.794  32.678  35.724  1.00  0.00     0.034 A 
ATOM     29  C   UNL A   1      42.012  28.406  31.310  1.00  0.00     0.049 A 
ATOM     30  C   UNL A   1      40.922  31.689  35.725  1.00  0.00     0.074 A 
ATOM     31  C   UNL A   1      43.121  27.583  31.412  1.00  0.00     0.029 A 
ATOM     32  N   UNL A   1      41.939  29.121  32.497  1.00  0.00    -0.354 N 
ATOM     33  N   UNL A   1      41.327  30.898  34.761  1.00  0.00    -0.248 NA
ATOM     34  C   UNL A   1      41.716  31.592  36.957  1.00  0.00     0.031 C 
ATOM     35  C   UNL A   1      43.694  27.773  32.673  1.00  0.00     0.029 A 
ATOM     36  C   UNL A   1      42.970  28.746  33.343  1.00  0.00     0.049 A 
ATOM     37  H   UNL A   1      41.253  29.795  32.708  1.00  0.00     0.167 HD
ATOM     38  C   UNL A   1      42.440  30.233  35.257  1.00  0.00     0.074 A 
ATOM     39  C   UNL A   1      42.660  30.733  36.599  1.00  0.00     0.031 C 
ATOM     40  C   UNL A   1      43.202  29.284  34.660  1.00  0.00     0.034 A 
BRANCH  27  41
ATOM     41  C   UNL A   1      41.267  27.614  29.028  1.00  0.00     0.023 A 
ATOM     42  C   UNL A   1      40.458  26.468  28.883  1.00  0.00     0.012 A 
ATOM     43  C   UNL A   1      42.192  27.935  28.014  1.00  0.00     0.148 A 
ATOM     44  C   UNL A   1      40.592  25.638  27.770  1.00  0.00     0.002 A 
ATOM     45  C   UNL A   1      42.287  27.129  26.884  1.00  0.00     0.091 A 
ATOM     46  F   UNL A   1      42.964  29.020  28.173  1.00  0.00    -0.205 F 
ATOM     47  C   UNL A   1      41.497  25.975  26.767  1.00  0.00     0.022 A 
BRANCH  45  48
ATOM     48  S   UNL A   1      43.364  27.518  25.500  1.00  0.00     0.127 S 
ATOM     49  O   UNL A   1      44.082  26.257  25.321  1.00  0.00    -0.237 OA
ATOM     50  O   UNL A   1      42.402  27.825  24.440  1.00  0.00    -0.237 OA
ATOM     51  O   UNL A   1      44.179  28.646  25.927  1.00  0.00    -0.744 OA
ENDBRANCH  45  48
ENDBRANCH  27  41
BRANCH  28  52
ATOM     52  C   UNL A   1      39.509  33.530  36.911  1.00  0.00     0.023 A 
ATOM     53  C   UNL A   1      39.867  34.892  36.894  1.00  0.00     0.012 A 
ATOM     54  C   UNL A   1      38.851  33.006  38.042  1.00  0.00     0.148 A 
ATOM     55  C   UNL A   1      39.606  35.709  37.994  1.00  0.00     0.002 A 
ATOM     56  C   UNL A   1      38.538  33.839  39.109  1.00  0.00     0.091 A 
ATOM     57  F   UNL A   1      38.526  31.706  38.041  1.00  0.00    -0.205 F 
ATOM     58  C   UNL A   1      38.933  35.186  39.096  1.00  0.00     0.022 A 
BRANCH  56  59
ATOM     59  S   UNL A   1      37.554  33.287  40.506  1.00  0.00     0.127 S 
ATOM     60  O   UNL A   1      37.544  34.477  41.353  1.00  0.00    -0.237 OA
ATOM     61  O   UNL A   1      36.276  32.973  39.866  1.00  0.00    -0.237 OA
ATOM     62  O   UNL A   1      38.253  32.130  41.048  1.00  0.00    -0.744 OA
ENDBRANCH  56  59
ENDBRANCH  28  52
BRANCH  40  63
ATOM     63  C   UNL A   1      44.378  28.752  35.437  1.00  0.00     0.023 A 
ATOM     64  C   UNL A   1      45.655  29.321  35.263  1.00  0.00     0.012 A 
ATOM     65  C   UNL A   1      44.201  27.723  36.382  1.00  0.00     0.148 A 
ATOM     66  C   UNL A   1      46.746  28.846  35.990  1.00  0.00     0.002 A 
ATOM     67  C   UNL A   1      45.281  27.293  37.142  1.00  0.00     0.091 A 
ATOM     68  F   UNL A   1      42.982  27.181  36.518  1.00  0.00    -0.205 F 
ATOM     69  C   UNL A   1      46.557  27.843  36.937  1.00  0.00     0.022 A 
BRANCH  67  70
ATOM     70  S   UNL A   1      45.114  26.076  38.452  1.00  0.00     0.127 S 
ATOM     71  O   UNL A   1      46.483  25.994  38.959  1.00  0.00    -0.237 OA
ATOM     72  O   UNL A   1      44.167  26.726  39.358  1.00  0.00    -0.237 OA
ATOM     73  O   UNL A   1      44.610  24.866  37.818  1.00  0.00    -0.744 OA
ENDBRANCH  67  70
ENDBRANCH  40  63
ENDBRANCH  14  15
ENDBRANCH   7   9
ENDBRANCH   4   5
ENDBRANCH   3   4
ENDBRANCH   2   3
ENDBRANCH   1   2
BRANCH   1  74
ATOM     74  C   UNL A   1      32.523  27.555  26.291  1.00  0.00     0.021 C 
BRANCH  74  75
ATOM     75  C   UNL A   1      33.862  27.077  25.595  1.00  0.00     0.116 C 
BRANCH  75  76
ATOM     76  N   UNL A   1      33.958  26.096  24.308  1.00  0.00    -0.356 N 
ATOM     77  C   UNL A   1      34.322  24.918  23.662  1.00  0.00     0.224 C 
ATOM     78  H   UNL A   1      33.523  26.617  23.595  1.00  0.00     0.163 HD
ATOM     79  O   UNL A   1      33.933  24.998  22.468  1.00  0.00    -0.275 OA
BRANCH  77  80
ATOM     80  C   UNL A   1      35.092  23.401  23.983  1.00  0.00     0.098 C 
ATOM     81  C   UNL A   1      35.031  21.918  24.766  1.00  0.00     0.099 C 
ATOM     82  C   UNL A   1      36.675  23.594  24.058  1.00  0.00     0.025 C 
ATOM     83  C   UNL A   1      36.523  21.559  25.011  1.00  0.00     0.025 C 
ATOM     84  C   UNL A   1      37.167  23.694  25.492  1.00  0.00    -0.027 C 
ATOM     85  C   UNL A   1      37.189  22.164  23.783  1.00  0.00     0.017 C 
ATOM     86  C   UNL A   1      37.088  22.478  26.051  1.00  0.00    -0.027 C 
BRANCH  81  87
ATOM     87  C   UNL A   1      34.247  21.219  25.958  1.00  0.00     0.229 C 
ATOM     88  O   UNL A   1      34.227  21.785  27.059  1.00  0.00    -0.274 OA
ATOM     89  N   UNL A   1      33.527  20.067  25.844  1.00  0.00    -0.323 N 
ATOM     90  H   UNL A   1      32.873  19.860  26.550  1.00  0.00     0.170 HD
BRANCH  89  91
ATOM     91  C   UNL A   1      33.661  19.175  24.802  1.00  0.00     0.084 A 
ATOM     92  C   UNL A   1      34.475  18.037  24.917  1.00  0.00     0.030 A 
ATOM     93  C   UNL A   1      32.866  19.353  23.711  1.00  0.00     0.149 A 
ATOM     94  C   UNL A   1      34.300  16.949  24.049  1.00  0.00     0.002 A 
ATOM     95  C   UNL A   1      32.668  18.215  22.881  1.00  0.00     0.049 A 
ATOM     96  C   UNL A   1      33.341  17.014  23.059  1.00  0.00     0.004 A 
BRANCH  93  97
ATOM     97  O   UNL A   1      32.241  20.521  23.389  1.00  0.00    -0.433 OA
BRANCH  97  98
ATOM     98  C   UNL A   1      31.582  21.237  22.321  1.00  0.00     0.542 C 
ATOM     99  F   UNL A   1      32.054  22.488  22.206  1.00  0.00    -0.167 F 
ATOM    100  F   UNL A   1      31.868  20.596  21.151  1.00  0.00    -0.167 F 
ENDBRANCH  97  98
ENDBRANCH  93  97
ENDBRANCH  89  91
ENDBRANCH  81  87
ENDBRANCH  77  80
ENDBRANCH  75  76
ENDBRANCH  74  75
ENDBRANCH   1  74
TORSDOF 20
ENDMDL
MODEL 2
REMARK VINA RESULT:     -12.1      5.900     10.240
REMARK SMILES O=C(NCCCCCCNC(=O)[C@@H]1[C@H](C(=O)Nc2ccccc2OC(F)F)[C@@H]2C=C[C@H]1C2)c1ccc(-c2c3nc(c(-c4cccc(S(=O)(=O)[O-])c4F)c4ccc([nH]4)c(-c4cccc(S(=O)(=O)[O-])c4F)c4nc(c(-c5cccc(S(=O)(=O)[O-])c5F)c5ccc2[nH]5)C=C4)C=C3)cc1
REMARK SMILES IDX 7 1 6 2 5 3 4 4 3 5 1 6 2 7 33 9 34 10 95 11 35 12 94 13
REMARK SMILES IDX 36 14 37 15 38 16 88 17 39 18 93 19 87 20 89 21 40 22 92 23
REMARK SMILES IDX 86 24 85 25 41 27 73 28 53 29 72 30 54 31 57 32 71 33 90 34
REMARK SMILES IDX 55 35 56 36 70 38 91 39 58 40 42 41 43 42 51 43 44 44 46 45
REMARK SMILES IDX 52 46 45 47 47 48 48 49 49 50 50 51 74 52 75 53 83 54 76 55
REMARK SMILES IDX 78 56 84 57 77 58 79 59 80 60 81 61 82 62 59 63 60 64 68 65
REMARK SMILES IDX 61 66 63 67 69 68 62 69 64 70 65 71 66 72 67 73 8 74 9 75
REMARK SMILES IDX 10 76 11 77 12 79 13 80 14 81 31 82 28 83 30 84 32 85 29 86
REMARK SMILES IDX 15 87 16 88 17 89 18 91 19 92 23 93 20 94 22 95 21 96 24 97
REMARK SMILES IDX 25 98 26 99 27 100
REMARK H PARENT 3 8 89 26 57 37 10 78 17 90
REMARK Flexibility Score: inf
ROOT
ATOM      1  C   UNL A   1      40.384  22.584  26.784  1.00  0.00     0.002 C 
ENDROOT
BRANCH   1   2
ATOM      2  C   UNL A   1      40.962  21.664  27.856  1.00  0.00     0.002 C 
BRANCH   2   3
ATOM      3  C   UNL A   1      41.381  20.249  27.430  1.00  0.00     0.021 C 
BRANCH   3   4
ATOM      4  C   UNL A   1      41.398  19.949  25.928  1.00  0.00     0.116 C 
BRANCH   4   5
ATOM      5  N   UNL A   1      42.678  19.430  25.470  1.00  0.00    -0.352 N 
ATOM      6  O   UNL A   1      44.735  19.502  24.559  1.00  0.00    -0.269 OA
ATOM      7  C   UNL A   1      43.849  20.087  25.163  1.00  0.00     0.251 C 
ATOM      8  H   UNL A   1      42.713  18.452  25.361  1.00  0.00     0.163 HD
BRANCH   7   9
ATOM      9  C   UNL A   1      44.030  21.500  25.570  1.00  0.00     0.039 A 
ATOM     10  C   UNL A   1      44.572  21.806  26.819  1.00  0.00     0.014 A 
ATOM     11  C   UNL A   1      43.709  22.525  24.674  1.00  0.00     0.014 A 
ATOM     12  C   UNL A   1      44.673  23.132  27.224  1.00  0.00     0.010 A 
ATOM     13  C   UNL A   1      43.888  23.860  25.052  1.00  0.00     0.010 A 
ATOM     14  C   UNL A   1      44.355  24.175  26.338  1.00  0.00    -0.014 A 
BRANCH  14  15
ATOM     15  C   UNL A   1      44.618  25.578  26.747  1.00  0.00     0.031 A 
ATOM     16  C   UNL A   1      45.983  26.193  26.613  1.00  0.00     0.074 A 
ATOM     17  C   UNL A   1      43.596  26.298  27.251  1.00  0.00     0.049 A 
ATOM     18  N   UNL A   1      46.370  27.404  26.918  1.00  0.00    -0.248 NA
ATOM     19  C   UNL A   1      47.054  25.340  26.075  1.00  0.00     0.031 C 
ATOM     20  C   UNL A   1      42.237  25.791  27.463  1.00  0.00     0.029 A 
ATOM     21  N   UNL A   1      43.533  27.598  27.681  1.00  0.00    -0.354 N 
ATOM     22  C   UNL A   1      47.733  27.452  26.648  1.00  0.00     0.074 A 
ATOM     23  C   UNL A   1      48.108  26.142  26.158  1.00  0.00     0.031 C 
ATOM     24  C   UNL A   1      41.470  26.772  27.956  1.00  0.00     0.029 A 
ATOM     25  C   UNL A   1      42.294  27.957  28.159  1.00  0.00     0.049 A 
ATOM     26  H   UNL A   1      44.299  28.215  27.650  1.00  0.00     0.167 HD
ATOM     27  C   UNL A   1      48.587  28.495  26.786  1.00  0.00     0.034 A 
ATOM     28  C   UNL A   1      41.870  29.102  28.725  1.00  0.00     0.034 A 
ATOM     29  C   UNL A   1      48.196  29.799  27.258  1.00  0.00     0.049 A 
ATOM     30  C   UNL A   1      42.841  30.238  28.866  1.00  0.00     0.074 A 
ATOM     31  C   UNL A   1      48.973  30.938  27.380  1.00  0.00     0.029 A 
ATOM     32  N   UNL A   1      46.925  30.135  27.703  1.00  0.00    -0.354 N 
ATOM     33  N   UNL A   1      44.096  30.301  28.493  1.00  0.00    -0.248 NA
ATOM     34  C   UNL A   1      42.332  31.471  29.480  1.00  0.00     0.031 C 
ATOM     35  C   UNL A   1      48.182  31.951  27.933  1.00  0.00     0.029 A 
ATOM     36  C   UNL A   1      46.901  31.457  28.116  1.00  0.00     0.049 A 
ATOM     37  H   UNL A   1      46.155  29.523  27.723  1.00  0.00     0.167 HD
ATOM     38  C   UNL A   1      44.519  31.588  28.798  1.00  0.00     0.074 A 
ATOM     39  C   UNL A   1      43.377  32.278  29.364  1.00  0.00     0.031 C 
ATOM     40  C   UNL A   1      45.745  32.143  28.637  1.00  0.00     0.034 A 
BRANCH  27  41
ATOM     41  C   UNL A   1      50.031  28.283  26.406  1.00  0.00     0.023 A 
ATOM     42  C   UNL A   1      50.439  28.459  25.068  1.00  0.00     0.012 A 
ATOM     43  C   UNL A   1      50.998  27.980  27.385  1.00  0.00     0.148 A 
ATOM     44  C   UNL A   1      51.776  28.303  24.704  1.00  0.00     0.002 A 
ATOM     45  C   UNL A   1      52.337  27.872  27.024  1.00  0.00     0.091 A 
ATOM     46  F   UNL A   1      50.593  27.801  28.650  1.00  0.00    -0.205 F 
ATOM     47  C   UNL A   1      52.726  28.020  25.683  1.00  0.00     0.022 A 
BRANCH  45  48
ATOM     48  S   UNL A   1      53.647  27.590  28.221  1.00  0.00     0.127 S 
ATOM     49  O   UNL A   1      54.824  27.504  27.356  1.00  0.00    -0.237 OA
ATOM     50  O   UNL A   1      53.582  28.802  29.039  1.00  0.00    -0.237 OA
ATOM     51  O   UNL A   1      53.297  26.363  28.922  1.00  0.00    -0.744 OA
ENDBRANCH  45  48
ENDBRANCH  27  41
BRANCH  28  52
ATOM     52  C   UNL A   1      40.456  29.231  29.172  1.00  0.00     0.023 A 
ATOM     53  C   UNL A   1      39.452  29.531  28.231  1.00  0.00     0.012 A 
ATOM     54  C   UNL A   1      40.096  29.022  30.518  1.00  0.00     0.148 A 
ATOM     55  C   UNL A   1      38.120  29.653  28.629  1.00  0.00     0.002 A 
ATOM     56  C   UNL A   1      38.761  29.083  30.896  1.00  0.00     0.091 A 
ATOM     57  F   UNL A   1      41.068  28.745  31.399  1.00  0.00    -0.205 F 
ATOM     58  C   UNL A   1      37.773  29.418  29.957  1.00  0.00     0.022 A 
BRANCH  56  59
ATOM     59  S   UNL A   1      38.208  28.661  32.552  1.00  0.00     0.127 S 
ATOM     60  O   UNL A   1      36.810  29.083  32.516  1.00  0.00    -0.237 OA
ATOM     61  O   UNL A   1      38.415  27.212  32.577  1.00  0.00    -0.237 OA
ATOM     62  O   UNL A   1      39.071  29.406  33.457  1.00  0.00    -0.744 OA
ENDBRANCH  56  59
ENDBRANCH  28  52
BRANCH  40  63
ATOM     63  C   UNL A   1      45.908  33.586  29.038  1.00  0.00     0.023 A 
ATOM     64  C   UNL A   1      46.369  33.912  30.329  1.00  0.00     0.012 A 
ATOM     65  C   UNL A   1      45.656  34.617  28.112  1.00  0.00     0.148 A 
ATOM     66  C   UNL A   1      46.539  35.245  30.704  1.00  0.00     0.002 A 
ATOM     67  C   UNL A   1      45.880  35.939  28.474  1.00  0.00     0.091 A 
ATOM     68  F   UNL A   1      45.199  34.286  26.896  1.00  0.00    -0.205 F 
ATOM     69  C   UNL A   1      46.307  36.256  29.774  1.00  0.00     0.022 A 
BRANCH  67  70
ATOM     70  S   UNL A   1      45.703  37.299  27.315  1.00  0.00     0.127 S 
ATOM     71  O   UNL A   1      44.280  37.224  26.985  1.00  0.00    -0.237 OA
ATOM     72  O   UNL A   1      46.080  38.452  28.132  1.00  0.00    -0.237 OA
ATOM     73  O   UNL A   1      46.614  37.013  26.215  1.00  0.00    -0.744 OA
ENDBRANCH  67  70
ENDBRANCH  40  63
ENDBRANCH  14  15
ENDBRANCH   7   9
ENDBRANCH   4   5
ENDBRANCH   3   4
ENDBRANCH   2   3
ENDBRANCH   1   2
BRANCH   1  74
ATOM     74  C   UNL A   1      39.495  23.749  27.249  1.00  0.00     0.021 C 
BRANCH  74  75
ATOM     75  C   UNL A   1      38.149  24.122  26.505  1.00  0.00     0.116 C 
BRANCH  75  76
ATOM     76  N   UNL A   1      36.797  23.227  26.497  1.00  0.00    -0.356 N 
ATOM     77  C   UNL A   1      35.475  22.967  26.145  1.00  0.00     0.224 C 
ATOM     78  H   UNL A   1      37.045  22.440  27.033  1.00  0.00     0.163 HD
ATOM     79  O   UNL A   1      35.162  21.849  26.629  1.00  0.00    -0.275 OA
BRANCH  77  80
ATOM     80  C   UNL A   1      34.170  23.664  25.247  1.00  0.00     0.098 C 
ATOM     81  C   UNL A   1      32.685  24.445  25.278  1.00  0.00     0.099 C 
ATOM     82  C   UNL A   1      33.923  22.833  23.906  1.00  0.00     0.025 C 
ATOM     83  C   UNL A   1      31.993  23.993  23.962  1.00  0.00     0.025 C 
ATOM     84  C   UNL A   1      32.773  21.851  24.050  1.00  0.00    -0.027 C 
ATOM     85  C   UNL A   1      33.182  23.859  23.021  1.00  0.00     0.017 C 
ATOM     86  C   UNL A   1      31.626  22.544  24.069  1.00  0.00    -0.027 C 
BRANCH  81  87
ATOM     87  C   UNL A   1      31.491  24.716  26.290  1.00  0.00     0.229 C 
ATOM     88  O   UNL A   1      31.277  23.885  27.182  1.00  0.00    -0.274 OA
ATOM     89  N   UNL A   1      30.717  25.838  26.295  1.00  0.00    -0.323 N 
ATOM     90  H   UNL A   1      30.192  26.033  27.105  1.00  0.00     0.170 HD
BRANCH  89  91
ATOM     91  C   UNL A   1      30.624  26.715  25.236  1.00  0.00     0.084 A 
ATOM     92  C   UNL A   1      29.699  26.514  24.201  1.00  0.00     0.030 A 
ATOM     93  C   UNL A   1      31.358  27.862  25.299  1.00  0.00     0.149 A 
ATOM     94  C   UNL A   1      29.325  27.576  23.366  1.00  0.00     0.002 A 
ATOM     95  C   UNL A   1      30.919  28.937  24.478  1.00  0.00     0.049 A 
ATOM     96  C   UNL A   1      29.895  28.820  23.547  1.00  0.00     0.004 A 
BRANCH  93  97
ATOM     97  O   UNL A   1      32.444  28.045  26.102  1.00  0.00    -0.433 OA
BRANCH  97  98
ATOM     98  C   UNL A   1      33.873  28.251  26.103  1.00  0.00     0.542 C 
ATOM     99  F   UNL A   1      34.272  28.920  27.197  1.00  0.00    -0.167 F 
ATOM    100  F   UNL A   1      34.472  27.026  26.147  1.00  0.00    -0.167 F 
ENDBRANCH  97  98
ENDBRANCH  93  97
ENDBRANCH  89  91
ENDBRANCH  81  87
ENDBRANCH  77  80
ENDBRANCH  75  76
ENDBRANCH  74  75
ENDBRANCH   1  74
TORSDOF 20
ENDMDL
MODEL 3
REMARK VINA RESULT:     -12.0      1.910      3.390
REMARK SMILES O=C(NCCCCCCNC(=O)[C@@H]1[C@H](C(=O)Nc2ccccc2OC(F)F)[C@@H]2C=C[C@H]1C2)c1ccc(-c2c3nc(c(-c4cccc(S(=O)(=O)[O-])c4F)c4ccc([nH]4)c(-c4cccc(S(=O)(=O)[O-])c4F)c4nc(c(-c5cccc(S(=O)(=O)[O-])c5F)c5ccc2[nH]5)C=C4)C=C3)cc1
REMARK SMILES IDX 7 1 6 2 5 3 4 4 3 5 1 6 2 7 33 9 34 10 95 11 35 12 94 13
REMARK SMILES IDX 36 14 37 15 38 16 88 17 39 18 93 19 87 20 89 21 40 22 92 23
REMARK SMILES IDX 86 24 85 25 41 27 73 28 53 29 72 30 54 31 57 32 71 33 90 34
REMARK SMILES IDX 55 35 56 36 70 38 91 39 58 40 42 41 43 42 51 43 44 44 46 45
REMARK SMILES IDX 52 46 45 47 47 48 48 49 49 50 50 51 74 52 75 53 83 54 76 55
REMARK SMILES IDX 78 56 84 57 77 58 79 59 80 60 81 61 82 62 59 63 60 64 68 65
REMARK SMILES IDX 61 66 63 67 69 68 62 69 64 70 65 71 66 72 67 73 8 74 9 75
REMARK SMILES IDX 10 76 11 77 12 79 13 80 14 81 31 82 28 83 30 84 32 85 29 86
REMARK SMILES IDX 15 87 16 88 17 89 18 91 19 92 23 93 20 94 22 95 21 96 24 97
REMARK SMILES IDX 25 98 26 99 27 100
REMARK H PARENT 3 8 89 26 57 37 10 78 17 90
REMARK Flexibility Score: inf
ROOT
ATOM      1  C   UNL A   1      34.534  32.515  29.073  1.00  0.00     0.002 C 
ENDROOT
BRANCH   1   2
ATOM      2  C   UNL A   1      34.591  33.988  28.678  1.00  0.00     0.002 C 
BRANCH   2   3
ATOM      3  C   UNL A   1      33.297  34.807  28.797  1.00  0.00     0.021 C 
BRANCH   3   4
ATOM      4  C   UNL A   1      33.403  36.187  29.452  1.00  0.00     0.116 C 
BRANCH   4   5
ATOM      5  N   UNL A   1      32.550  36.324  30.623  1.00  0.00    -0.352 N 
ATOM      6  O   UNL A   1      31.655  35.762  32.611  1.00  0.00    -0.269 OA
ATOM      7  C   UNL A   1      32.607  35.695  31.847  1.00  0.00     0.251 C 
ATOM      8  H   UNL A   1      31.813  36.971  30.525  1.00  0.00     0.163 HD
BRANCH   7   9
ATOM      9  C   UNL A   1      33.823  34.943  32.234  1.00  0.00     0.039 A 
ATOM     10  C   UNL A   1      35.078  35.549  32.153  1.00  0.00     0.014 A 
ATOM     11  C   UNL A   1      33.703  33.642  32.734  1.00  0.00     0.014 A 
ATOM     12  C   UNL A   1      36.221  34.816  32.449  1.00  0.00     0.010 A 
ATOM     13  C   UNL A   1      34.849  32.933  33.109  1.00  0.00     0.010 A 
ATOM     14  C   UNL A   1      36.120  33.508  32.952  1.00  0.00    -0.014 A 
BRANCH  14  15
ATOM     15  C   UNL A   1      37.350  32.808  33.402  1.00  0.00     0.031 A 
ATOM     16  C   UNL A   1      37.951  31.685  32.604  1.00  0.00     0.074 A 
ATOM     17  C   UNL A   1      37.922  33.201  34.558  1.00  0.00     0.049 A 
ATOM     18  N   UNL A   1      39.023  30.980  32.858  1.00  0.00    -0.248 NA
ATOM     19  C   UNL A   1      37.260  31.297  31.365  1.00  0.00     0.031 C 
ATOM     20  C   UNL A   1      37.402  34.254  35.435  1.00  0.00     0.029 A 
ATOM     21  N   UNL A   1      39.053  32.767  35.198  1.00  0.00    -0.354 N 
ATOM     22  C   UNL A   1      39.117  30.041  31.838  1.00  0.00     0.074 A 
ATOM     23  C   UNL A   1      37.987  30.263  30.960  1.00  0.00     0.031 C 
ATOM     24  C   UNL A   1      38.224  34.403  36.483  1.00  0.00     0.029 A 
ATOM     25  C   UNL A   1      39.290  33.414  36.390  1.00  0.00     0.049 A 
ATOM     26  H   UNL A   1      39.640  32.062  34.841  1.00  0.00     0.167 HD
ATOM     27  C   UNL A   1      40.065  29.091  31.647  1.00  0.00     0.034 A 
ATOM     28  C   UNL A   1      40.242  33.217  37.320  1.00  0.00     0.034 A 
ATOM     29  C   UNL A   1      41.194  28.894  32.519  1.00  0.00     0.049 A 
ATOM     30  C   UNL A   1      41.275  32.156  37.080  1.00  0.00     0.074 A 
ATOM     31  C   UNL A   1      42.240  27.997  32.382  1.00  0.00     0.029 A 
ATOM     32  N   UNL A   1      41.418  29.589  33.699  1.00  0.00    -0.354 N 
ATOM     33  N   UNL A   1      41.415  31.359  36.049  1.00  0.00    -0.248 NA
ATOM     34  C   UNL A   1      42.299  31.983  38.118  1.00  0.00     0.031 C 
ATOM     35  C   UNL A   1      43.075  28.125  33.497  1.00  0.00     0.029 A 
ATOM     36  C   UNL A   1      42.575  29.131  34.308  1.00  0.00     0.049 A 
ATOM     37  H   UNL A   1      40.840  30.303  34.051  1.00  0.00     0.167 HD
ATOM     38  C   UNL A   1      42.558  30.612  36.298  1.00  0.00     0.074 A 
ATOM     39  C   UNL A   1      43.087  31.070  37.567  1.00  0.00     0.031 C 
ATOM     40  C   UNL A   1      43.113  29.626  35.550  1.00  0.00     0.034 A 
BRANCH  27  41
ATOM     41  C   UNL A   1      39.937  28.198  30.438  1.00  0.00     0.023 A 
ATOM     42  C   UNL A   1      39.035  27.114  30.459  1.00  0.00     0.012 A 
ATOM     43  C   UNL A   1      40.655  28.473  29.257  1.00  0.00     0.148 A 
ATOM     44  C   UNL A   1      38.876  26.299  29.338  1.00  0.00     0.002 A 
ATOM     45  C   UNL A   1      40.457  27.685  28.128  1.00  0.00     0.091 A 
ATOM     46  F   UNL A   1      41.519  29.497  29.258  1.00  0.00    -0.205 F 
ATOM     47  C   UNL A   1      39.578  26.590  28.171  1.00  0.00     0.022 A 
BRANCH  45  48
ATOM     48  S   UNL A   1      41.251  28.025  26.553  1.00  0.00     0.127 S 
ATOM     49  O   UNL A   1      40.530  29.217  26.110  1.00  0.00    -0.237 OA
ATOM     50  O   UNL A   1      42.638  28.267  26.956  1.00  0.00    -0.237 OA
ATOM     51  O   UNL A   1      41.054  26.836  25.736  1.00  0.00    -0.744 OA
ENDBRANCH  45  48
ENDBRANCH  27  41
BRANCH  28  52
ATOM     52  C   UNL A   1      40.270  34.064  38.545  1.00  0.00     0.023 A 
ATOM     53  C   UNL A   1      41.093  35.205  38.585  1.00  0.00     0.012 A 
ATOM     54  C   UNL A   1      39.456  33.763  39.656  1.00  0.00     0.148 A 
ATOM     55  C   UNL A   1      41.132  36.013  39.721  1.00  0.00     0.002 A 
ATOM     56  C   UNL A   1      39.452  34.607  40.759  1.00  0.00     0.091 A 
ATOM     57  F   UNL A   1      38.686  32.668  39.600  1.00  0.00    -0.205 F 
ATOM     58  C   UNL A   1      40.304  35.721  40.803  1.00  0.00     0.022 A 
BRANCH  56  59
ATOM     59  S   UNL A   1      38.321  34.385  42.136  1.00  0.00     0.127 S 
ATOM     60  O   UNL A   1      38.999  33.353  42.917  1.00  0.00    -0.237 OA
ATOM     61  O   UNL A   1      38.322  35.717  42.742  1.00  0.00    -0.237 OA
ATOM     62  O   UNL A   1      37.049  33.996  41.543  1.00  0.00    -0.744 OA
ENDBRANCH  56  59
ENDBRANCH  28  52
BRANCH  40  63
ATOM     63  C   UNL A   1      44.385  29.003  36.062  1.00  0.00     0.023 A 
ATOM     64  C   UNL A   1      45.632  29.556  35.712  1.00  0.00     0.012 A 
ATOM     65  C   UNL A   1      44.338  27.900  36.936  1.00  0.00     0.148 A 
ATOM     66  C   UNL A   1      46.815  28.996  36.194  1.00  0.00     0.002 A 
ATOM     67  C   UNL A   1      45.516  27.382  37.456  1.00  0.00     0.091 A 
ATOM     68  F   UNL A   1      43.141  27.376  37.240  1.00  0.00    -0.205 F 
ATOM     69  C   UNL A   1      46.757  27.919  37.075  1.00  0.00     0.022 A 
BRANCH  67  70
ATOM     70  S   UNL A   1      45.534  26.060  38.671  1.00  0.00     0.127 S 
ATOM     71  O   UNL A   1      46.921  26.100  39.134  1.00  0.00    -0.237 OA
ATOM     72  O   UNL A   1      44.552  26.527  39.650  1.00  0.00    -0.237 OA
ATOM     73  O   UNL A   1      45.150  24.850  37.958  1.00  0.00    -0.744 OA
ENDBRANCH  67  70
ENDBRANCH  40  63
ENDBRANCH  14  15
ENDBRANCH   7   9
ENDBRANCH   4   5
ENDBRANCH   3   4
ENDBRANCH   2   3
ENDBRANCH   1   2
BRANCH   1  74
ATOM     74  C   UNL A   1      34.665  31.470  27.953  1.00  0.00     0.021 C 
BRANCH  74  75
ATOM     75  C   UNL A   1      33.400  30.775  27.305  1.00  0.00     0.116 C 
BRANCH  75  76
ATOM     76  N   UNL A   1      33.359  30.055  25.853  1.00  0.00    -0.356 N 
ATOM     77  C   UNL A   1      33.151  28.972  25.003  1.00  0.00     0.224 C 
ATOM     78  H   UNL A   1      33.627  30.775  25.238  1.00  0.00     0.163 HD
ATOM     79  O   UNL A   1      33.367  29.361  23.826  1.00  0.00    -0.275 OA
BRANCH  77  80
ATOM     80  C   UNL A   1      32.670  27.310  25.050  1.00  0.00     0.098 C 
ATOM     81  C   UNL A   1      32.984  25.729  24.582  1.00  0.00     0.099 C 
ATOM     82  C   UNL A   1      31.077  27.200  25.044  1.00  0.00     0.025 C 
ATOM     83  C   UNL A   1      31.579  25.069  24.516  1.00  0.00     0.025 C 
ATOM     84  C   UNL A   1      30.533  26.905  23.656  1.00  0.00    -0.027 C 
ATOM     85  C   UNL A   1      30.847  25.793  25.638  1.00  0.00     0.017 C 
ATOM     86  C   UNL A   1      30.822  25.632  23.352  1.00  0.00    -0.027 C 
BRANCH  81  87
ATOM     87  C   UNL A   1      33.850  24.944  23.506  1.00  0.00     0.229 C 
ATOM     88  O   UNL A   1      33.917  25.402  22.358  1.00  0.00    -0.274 OA
ATOM     89  N   UNL A   1      34.590  23.830  23.769  1.00  0.00    -0.323 N 
ATOM     90  H   UNL A   1      35.287  23.576  23.122  1.00  0.00     0.170 HD
BRANCH  89  91
ATOM     91  C   UNL A   1      34.421  23.037  24.884  1.00  0.00     0.084 A 
ATOM     92  C   UNL A   1      34.992  23.383  26.118  1.00  0.00     0.030 A 
ATOM     93  C   UNL A   1      33.561  21.985  24.787  1.00  0.00     0.149 A 
ATOM     94  C   UNL A   1      34.503  22.826  27.308  1.00  0.00     0.002 A 
ATOM     95  C   UNL A   1      33.043  21.478  26.011  1.00  0.00     0.049 A 
ATOM     96  C   UNL A   1      33.472  21.909  27.258  1.00  0.00     0.004 A 
BRANCH  93  97
ATOM     97  O   UNL A   1      33.157  21.420  23.614  1.00  0.00    -0.433 OA
BRANCH  97  98
ATOM     98  C   UNL A   1      32.238  21.557  22.508  1.00  0.00     0.542 C 
ATOM     99  F   UNL A   1      31.724  20.370  22.147  1.00  0.00    -0.167 F 
ATOM    100  F   UNL A   1      31.195  22.331  22.925  1.00  0.00    -0.167 F 
ENDBRANCH  97  98
ENDBRANCH  93  97
ENDBRANCH  89  91
ENDBRANCH  81  87
ENDBRANCH  77  80
ENDBRANCH  75  76
ENDBRANCH  74  75
ENDBRANCH   1  74
TORSDOF 20
ENDMDL
