MODEL 1
REMARK VINA RESULT:     -10.7      0.000      0.000
REMARK SMILES CC[NH2+]C(C)(C)C(=O)N[C@@](C)(C(=O)NCCCCCCNC(=O)c1ccc(-c2c3nc(c(-c4cccc(S(=O)(=O)[O-])c4F)c4ccc([nH]4)c(-c4cccc(S(=O)(=O)[O-])c4F)c4nc(c(-c5cccc(S(=O)(=O)[O-])c5F)c5ccc2[nH]5)C=C4)C=C3)cc1)C(F)(F)F
REMARK SMILES IDX 17 1 16 2 15 3 14 4 12 5 13 6 10 8 11 9 9 10 7 11 8 12 4 14
REMARK SMILES IDX 5 15 6 16 3 17 2 20 1 21 87 22 88 23 89 24 90 25 18 26 19 27
REMARK SMILES IDX 20 28 21 29 22 30 23 32 24 33 25 34 86 35 26 36 85 37 27 38
REMARK SMILES IDX 28 39 29 40 79 41 30 42 84 43 78 44 80 45 31 46 83 47 77 48
REMARK SMILES IDX 76 49 32 51 64 52 44 53 63 54 45 55 48 56 62 57 81 58 46 59
REMARK SMILES IDX 47 60 61 62 82 63 49 64 33 65 34 66 42 67 35 68 37 69 43 70
REMARK SMILES IDX 36 71 38 72 39 73 40 74 41 75 65 76 66 77 74 78 67 79 69 80
REMARK SMILES IDX 75 81 68 82 70 83 71 84 72 85 73 86 50 87 51 88 59 89 52 90
REMARK SMILES IDX 54 91 60 92 53 93 55 94 56 95 57 96 58 97
REMARK H PARENT 14 7 9 13 3 18 3 19 21 31 80 50 48 61
REMARK Flexibility Score: inf
ROOT
ATOM      1  C   UNL A   1      32.779  30.078  26.845  1.00  0.00     0.002 C 
ENDROOT
BRANCH   1   2
ATOM      2  C   UNL A   1      33.447  29.486  25.600  1.00  0.00     0.021 C 
BRANCH   2   3
ATOM      3  C   UNL A   1      32.496  29.161  24.450  1.00  0.00     0.116 C 
BRANCH   3   4
ATOM      4  N   UNL A   1      33.217  28.703  23.274  1.00  0.00    -0.354 N 
ATOM      5  C   UNL A   1      33.413  27.487  22.690  1.00  0.00     0.254 C 
ATOM      6  O   UNL A   1      34.110  27.513  21.671  1.00  0.00    -0.272 OA
ATOM      7  H   UNL A   1      33.664  29.436  22.790  1.00  0.00     0.163 HD
BRANCH   5   8
ATOM      8  C   UNL A   1      32.836  26.167  23.257  1.00  0.00     0.212 C 
ATOM      9  C   UNL A   1      32.401  26.334  24.732  1.00  0.00     0.056 C 
BRANCH   8  10
ATOM     10  N   UNL A   1      33.975  25.161  23.238  1.00  0.00    -0.329 N 
ATOM     11  C   UNL A   1      34.253  23.831  23.268  1.00  0.00     0.281 C 
ATOM     12  O   UNL A   1      35.404  23.578  22.887  1.00  0.00    -0.268 OA
ATOM     13  H   UNL A   1      34.824  25.654  23.183  1.00  0.00     0.165 HD
BRANCH  11  14
ATOM     14  C   UNL A   1      33.279  22.725  23.760  1.00  0.00     0.169 C 
ATOM     15  C   UNL A   1      32.170  22.504  22.723  1.00  0.00     0.090 C 
ATOM     16  C   UNL A   1      32.754  23.168  25.145  1.00  0.00     0.090 C 
BRANCH  14  17
ATOM     17  N   UNL A   1      33.944  21.428  24.088  1.00  0.00    -0.334 N 
ATOM     18  H   UNL A   1      33.246  20.694  23.965  1.00  0.00     0.347 HD
ATOM     19  H   UNL A   1      34.748  21.398  23.461  1.00  0.00     0.347 HD
BRANCH  17  20
ATOM     20  C   UNL A   1      34.526  21.249  25.414  1.00  0.00     0.257 C 
ATOM     21  C   UNL A   1      35.965  20.767  25.248  1.00  0.00     0.071 C 
ENDBRANCH  17  20
ENDBRANCH  14  17
ENDBRANCH  11  14
ENDBRANCH   8  10
BRANCH   8  22
ATOM     22  C   UNL A   1      31.496  25.955  22.491  1.00  0.00     0.420 C 
ATOM     23  F   UNL A   1      30.625  25.115  23.074  1.00  0.00    -0.168 F 
ATOM     24  F   UNL A   1      30.836  27.125  22.299  1.00  0.00    -0.168 F 
ATOM     25  F   UNL A   1      31.720  25.477  21.236  1.00  0.00    -0.168 F 
ENDBRANCH   8  22
ENDBRANCH   5   8
ENDBRANCH   3   4
ENDBRANCH   2   3
ENDBRANCH   1   2
BRANCH   1  26
ATOM     26  C   UNL A   1      31.427  30.759  26.605  1.00  0.00     0.002 C 
BRANCH  26  27
ATOM     27  C   UNL A   1      31.443  32.288  26.650  1.00  0.00     0.021 C 
BRANCH  27  28
ATOM     28  C   UNL A   1      32.690  32.911  27.273  1.00  0.00     0.116 C 
BRANCH  28  29
ATOM     29  N   UNL A   1      32.472  34.286  27.687  1.00  0.00    -0.352 N 
ATOM     30  C   UNL A   1      33.068  35.001  28.696  1.00  0.00     0.251 C 
ATOM     31  H   UNL A   1      31.797  34.780  27.167  1.00  0.00     0.163 HD
ATOM     32  O   UNL A   1      32.626  36.107  28.997  1.00  0.00    -0.269 OA
BRANCH  30  33
ATOM     33  C   UNL A   1      34.221  34.440  29.437  1.00  0.00     0.039 A 
ATOM     34  C   UNL A   1      33.992  33.849  30.682  1.00  0.00     0.014 A 
ATOM     35  C   UNL A   1      35.521  34.512  28.927  1.00  0.00     0.014 A 
ATOM     36  C   UNL A   1      35.055  33.285  31.390  1.00  0.00     0.010 A 
ATOM     37  C   UNL A   1      36.571  33.891  29.605  1.00  0.00     0.010 A 
ATOM     38  C   UNL A   1      36.350  33.274  30.845  1.00  0.00    -0.014 A 
BRANCH  38  39
ATOM     39  C   UNL A   1      37.467  32.596  31.554  1.00  0.00     0.031 A 
ATOM     40  C   UNL A   1      38.187  31.433  30.924  1.00  0.00     0.074 A 
ATOM     41  C   UNL A   1      37.798  32.997  32.797  1.00  0.00     0.049 A 
ATOM     42  N   UNL A   1      39.182  30.728  31.397  1.00  0.00    -0.248 NA
ATOM     43  C   UNL A   1      37.717  30.989  29.601  1.00  0.00     0.031 C 
ATOM     44  C   UNL A   1      37.122  34.055  33.553  1.00  0.00     0.029 A 
ATOM     45  N   UNL A   1      38.773  32.552  33.656  1.00  0.00    -0.354 N 
ATOM     46  C   UNL A   1      39.446  29.751  30.446  1.00  0.00     0.074 A 
ATOM     47  C   UNL A   1      38.481  29.927  29.383  1.00  0.00     0.031 C 
ATOM     48  C   UNL A   1      37.707  34.182  34.755  1.00  0.00     0.029 A 
ATOM     49  C   UNL A   1      38.783  33.204  34.867  1.00  0.00     0.049 A 
ATOM     50  H   UNL A   1      39.406  31.833  33.425  1.00  0.00     0.167 HD
ATOM     51  C   UNL A   1      40.424  28.813  30.439  1.00  0.00     0.034 A 
ATOM     52  C   UNL A   1      39.573  33.034  35.946  1.00  0.00     0.034 A 
ATOM     53  C   UNL A   1      41.407  28.661  31.478  1.00  0.00     0.049 A 
ATOM     54  C   UNL A   1      40.678  32.014  35.890  1.00  0.00     0.074 A 
ATOM     55  C   UNL A   1      42.480  27.787  31.528  1.00  0.00     0.029 A 
ATOM     56  N   UNL A   1      41.441  29.400  32.651  1.00  0.00    -0.354 N 
ATOM     57  N   UNL A   1      41.012  31.212  34.909  1.00  0.00    -0.248 NA
ATOM     58  C   UNL A   1      41.542  31.905  37.075  1.00  0.00     0.031 C 
ATOM     59  C   UNL A   1      43.155  27.989  32.737  1.00  0.00     0.029 A 
ATOM     60  C   UNL A   1      42.513  29.001  33.431  1.00  0.00     0.049 A 
ATOM     61  H   UNL A   1      40.797  30.104  32.893  1.00  0.00     0.167 HD
ATOM     62  C   UNL A   1      42.142  30.529  35.344  1.00  0.00     0.074 A 
ATOM     63  C   UNL A   1      42.454  31.035  36.665  1.00  0.00     0.031 C 
ATOM     64  C   UNL A   1      42.846  29.553  34.719  1.00  0.00     0.034 A 
BRANCH  51  65
ATOM     65  C   UNL A   1      40.532  27.917  29.231  1.00  0.00     0.023 A 
ATOM     66  C   UNL A   1      39.646  26.828  29.104  1.00  0.00     0.012 A 
ATOM     67  C   UNL A   1      41.437  28.198  28.188  1.00  0.00     0.148 A 
ATOM     68  C   UNL A   1      39.673  26.017  27.970  1.00  0.00     0.002 A 
ATOM     69  C   UNL A   1      41.431  27.408  27.044  1.00  0.00     0.091 A 
ATOM     70  F   UNL A   1      42.282  29.228  28.335  1.00  0.00    -0.205 F 
ATOM     71  C   UNL A   1      40.557  26.315  26.937  1.00  0.00     0.022 A 
BRANCH  69  72
ATOM     72  S   UNL A   1      42.476  27.752  25.622  1.00  0.00     0.127 S 
ATOM     73  O   UNL A   1      42.223  26.577  24.784  1.00  0.00    -0.237 OA
ATOM     74  O   UNL A   1      41.897  28.996  25.111  1.00  0.00    -0.237 OA
ATOM     75  O   UNL A   1      43.829  27.871  26.132  1.00  0.00    -0.744 OA
ENDBRANCH  69  72
ENDBRANCH  51  65
BRANCH  52  76
ATOM     76  C   UNL A   1      39.394  33.896  37.150  1.00  0.00     0.023 A 
ATOM     77  C   UNL A   1      39.850  35.228  37.120  1.00  0.00     0.012 A 
ATOM     78  C   UNL A   1      38.776  33.409  38.317  1.00  0.00     0.148 A 
ATOM     79  C   UNL A   1      39.732  36.047  38.244  1.00  0.00     0.002 A 
ATOM     80  C   UNL A   1      38.609  34.248  39.414  1.00  0.00     0.091 A 
ATOM     81  F   UNL A   1      38.363  32.134  38.337  1.00  0.00    -0.205 F 
ATOM     82  C   UNL A   1      39.105  35.560  39.387  1.00  0.00     0.022 A 
BRANCH  80  83
ATOM     83  S   UNL A   1      37.687  33.736  40.868  1.00  0.00     0.127 S 
ATOM     84  O   UNL A   1      37.597  34.982  41.622  1.00  0.00    -0.237 OA
ATOM     85  O   UNL A   1      36.426  33.273  40.287  1.00  0.00    -0.237 OA
ATOM     86  O   UNL A   1      38.485  32.676  41.473  1.00  0.00    -0.744 OA
ENDBRANCH  80  83
ENDBRANCH  52  76
BRANCH  64  87
ATOM     87  C   UNL A   1      44.039  28.986  35.443  1.00  0.00     0.023 A 
ATOM     88  C   UNL A   1      45.315  29.541  35.221  1.00  0.00     0.012 A 
ATOM     89  C   UNL A   1      43.891  27.943  36.376  1.00  0.00     0.148 A 
ATOM     90  C   UNL A   1      46.433  29.038  35.888  1.00  0.00     0.002 A 
ATOM     91  C   UNL A   1      45.002  27.480  37.073  1.00  0.00     0.091 A 
ATOM     92  F   UNL A   1      42.673  27.415  36.560  1.00  0.00    -0.205 F 
ATOM     93  C   UNL A   1      46.274  28.016  36.819  1.00  0.00     0.022 A 
BRANCH  91  94
ATOM     94  S   UNL A   1      44.874  26.229  38.356  1.00  0.00     0.127 S 
ATOM     95  O   UNL A   1      44.489  25.048  37.585  1.00  0.00    -0.237 OA
ATOM     96  O   UNL A   1      46.236  26.190  38.891  1.00  0.00    -0.237 OA
ATOM     97  O   UNL A   1      43.875  26.723  39.294  1.00  0.00    -0.744 OA
ENDBRANCH  91  94
ENDBRANCH  64  87
ENDBRANCH  38  39
ENDBRANCH  30  33
ENDBRANCH  28  29
ENDBRANCH  27  28
ENDBRANCH  26  27
ENDBRANCH   1  26
TORSDOF 21
ENDMDL
MODEL 2
REMARK VINA RESULT:     -10.3      1.972      2.547
REMARK SMILES CC[NH2+]C(C)(C)C(=O)N[C@@](C)(C(=O)NCCCCCCNC(=O)c1ccc(-c2c3nc(c(-c4cccc(S(=O)(=O)[O-])c4F)c4ccc([nH]4)c(-c4cccc(S(=O)(=O)[O-])c4F)c4nc(c(-c5cccc(S(=O)(=O)[O-])c5F)c5ccc2[nH]5)C=C4)C=C3)cc1)C(F)(F)F
REMARK SMILES IDX 17 1 16 2 15 3 14 4 12 5 13 6 10 8 11 9 9 10 7 11 8 12 4 14
REMARK SMILES IDX 5 15 6 16 3 17 2 20 1 21 87 22 88 23 89 24 90 25 18 26 19 27
REMARK SMILES IDX 20 28 21 29 22 30 23 32 24 33 25 34 86 35 26 36 85 37 27 38
REMARK SMILES IDX 28 39 29 40 79 41 30 42 84 43 78 44 80 45 31 46 83 47 77 48
REMARK SMILES IDX 76 49 32 51 64 52 44 53 63 54 45 55 48 56 62 57 81 58 46 59
REMARK SMILES IDX 47 60 61 62 82 63 49 64 33 65 34 66 42 67 35 68 37 69 43 70
REMARK SMILES IDX 36 71 38 72 39 73 40 74 41 75 65 76 66 77 74 78 67 79 69 80
REMARK SMILES IDX 75 81 68 82 70 83 71 84 72 85 73 86 50 87 51 88 59 89 52 90
REMARK SMILES IDX 54 91 60 92 53 93 55 94 56 95 57 96 58 97
REMARK H PARENT 14 7 9 13 3 18 3 19 21 31 80 50 48 61
REMARK Flexibility Score: inf
ROOT
ATOM      1  C   UNL A   1      34.598  29.284  26.910  1.00  0.00     0.002 C 
ENDROOT
BRANCH   1   2
ATOM      2  C   UNL A   1      34.164  28.719  25.554  1.00  0.00     0.021 C 
BRANCH   2   3
ATOM      3  C   UNL A   1      33.977  27.204  25.517  1.00  0.00     0.116 C 
BRANCH   3   4
ATOM      4  N   UNL A   1      32.722  26.804  26.132  1.00  0.00    -0.354 N 
ATOM      5  C   UNL A   1      31.492  26.467  25.652  1.00  0.00     0.254 C 
ATOM      6  O   UNL A   1      30.662  26.182  26.521  1.00  0.00    -0.272 OA
ATOM      7  H   UNL A   1      32.772  26.768  27.115  1.00  0.00     0.163 HD
BRANCH   5   8
ATOM      8  C   UNL A   1      31.137  26.460  24.145  1.00  0.00     0.212 C 
ATOM      9  C   UNL A   1      29.851  25.644  23.877  1.00  0.00     0.056 C 
BRANCH   8  10
ATOM     10  N   UNL A   1      32.276  25.741  23.441  1.00  0.00    -0.329 N 
ATOM     11  C   UNL A   1      32.855  24.523  23.272  1.00  0.00     0.281 C 
ATOM     12  O   UNL A   1      33.603  24.487  22.285  1.00  0.00    -0.268 OA
ATOM     13  H   UNL A   1      32.781  26.400  22.913  1.00  0.00     0.165 HD
BRANCH  11  14
ATOM     14  C   UNL A   1      32.661  23.302  24.211  1.00  0.00     0.169 C 
ATOM     15  C   UNL A   1      33.576  23.433  25.437  1.00  0.00     0.090 C 
ATOM     16  C   UNL A   1      32.931  22.035  23.368  1.00  0.00     0.090 C 
BRANCH  14  17
ATOM     17  N   UNL A   1      31.248  23.084  24.646  1.00  0.00    -0.334 N 
ATOM     18  H   UNL A   1      30.869  23.995  24.903  1.00  0.00     0.347 HD
ATOM     19  H   UNL A   1      30.814  22.621  23.847  1.00  0.00     0.347 HD
BRANCH  17  20
ATOM     20  C   UNL A   1      30.985  22.180  25.761  1.00  0.00     0.257 C 
ATOM     21  C   UNL A   1      30.230  22.953  26.839  1.00  0.00     0.071 C 
ENDBRANCH  17  20
ENDBRANCH  14  17
ENDBRANCH  11  14
ENDBRANCH   8  10
BRANCH   8  22
ATOM     22  C   UNL A   1      30.726  27.928  23.824  1.00  0.00     0.420 C 
ATOM     23  F   UNL A   1      29.437  28.105  23.489  1.00  0.00    -0.168 F 
ATOM     24  F   UNL A   1      30.973  28.759  24.867  1.00  0.00    -0.168 F 
ATOM     25  F   UNL A   1      31.469  28.431  22.800  1.00  0.00    -0.168 F 
ENDBRANCH   8  22
ENDBRANCH   5   8
ENDBRANCH   3   4
ENDBRANCH   2   3
ENDBRANCH   1   2
BRANCH   1  26
ATOM     26  C   UNL A   1      33.601  30.239  27.575  1.00  0.00     0.002 C 
BRANCH  26  27
ATOM     27  C   UNL A   1      33.066  31.360  26.681  1.00  0.00     0.021 C 
BRANCH  27  28
ATOM     28  C   UNL A   1      31.914  32.170  27.269  1.00  0.00     0.116 C 
BRANCH  28  29
ATOM     29  N   UNL A   1      32.216  33.590  27.339  1.00  0.00    -0.352 N 
ATOM     30  C   UNL A   1      33.218  34.239  28.015  1.00  0.00     0.251 C 
ATOM     31  H   UNL A   1      31.613  34.173  26.824  1.00  0.00     0.163 HD
ATOM     32  O   UNL A   1      33.207  35.465  28.084  1.00  0.00    -0.269 OA
BRANCH  30  33
ATOM     33  C   UNL A   1      34.298  33.471  28.679  1.00  0.00     0.039 A 
ATOM     34  C   UNL A   1      35.554  33.425  28.069  1.00  0.00     0.014 A 
ATOM     35  C   UNL A   1      34.076  32.784  29.876  1.00  0.00     0.014 A 
ATOM     36  C   UNL A   1      36.600  32.734  28.686  1.00  0.00     0.010 A 
ATOM     37  C   UNL A   1      35.137  32.150  30.523  1.00  0.00     0.010 A 
ATOM     38  C   UNL A   1      36.410  32.115  29.933  1.00  0.00    -0.014 A 
BRANCH  38  39
ATOM     39  C   UNL A   1      37.543  31.457  30.635  1.00  0.00     0.031 A 
ATOM     40  C   UNL A   1      38.356  30.387  29.953  1.00  0.00     0.074 A 
ATOM     41  C   UNL A   1      37.806  31.787  31.915  1.00  0.00     0.049 A 
ATOM     42  N   UNL A   1      39.377  29.712  30.414  1.00  0.00    -0.248 NA
ATOM     43  C   UNL A   1      37.960  30.012  28.585  1.00  0.00     0.031 C 
ATOM     44  C   UNL A   1      37.040  32.745  32.715  1.00  0.00     0.029 A 
ATOM     45  N   UNL A   1      38.778  31.341  32.776  1.00  0.00    -0.354 N 
ATOM     46  C   UNL A   1      39.734  28.824  29.407  1.00  0.00     0.074 A 
ATOM     47  C   UNL A   1      38.796  29.017  28.323  1.00  0.00     0.031 C 
ATOM     48  C   UNL A   1      37.574  32.820  33.945  1.00  0.00     0.029 A 
ATOM     49  C   UNL A   1      38.706  31.904  34.029  1.00  0.00     0.049 A 
ATOM     50  H   UNL A   1      39.462  30.681  32.520  1.00  0.00     0.167 HD
ATOM     51  C   UNL A   1      40.769  27.950  29.372  1.00  0.00     0.034 A 
ATOM     52  C   UNL A   1      39.468  31.705  35.124  1.00  0.00     0.034 A 
ATOM     53  C   UNL A   1      41.725  27.784  30.435  1.00  0.00     0.049 A 
ATOM     54  C   UNL A   1      40.637  30.761  35.039  1.00  0.00     0.074 A 
ATOM     55  C   UNL A   1      42.848  26.976  30.464  1.00  0.00     0.029 A 
ATOM     56  N   UNL A   1      41.672  28.437  31.656  1.00  0.00    -0.354 N 
ATOM     57  N   UNL A   1      41.054  30.053  34.017  1.00  0.00    -0.248 NA
ATOM     58  C   UNL A   1      41.465  30.620  36.245  1.00  0.00     0.031 C 
ATOM     59  C   UNL A   1      43.468  27.131  31.709  1.00  0.00     0.029 A 
ATOM     60  C   UNL A   1      42.741  28.050  32.447  1.00  0.00     0.049 A 
ATOM     61  H   UNL A   1      40.977  29.081  31.922  1.00  0.00     0.167 HD
ATOM     62  C   UNL A   1      42.210  29.411  34.446  1.00  0.00     0.074 A 
ATOM     63  C   UNL A   1      42.444  29.839  35.810  1.00  0.00     0.031 C 
ATOM     64  C   UNL A   1      42.994  28.526  33.782  1.00  0.00     0.034 A 
BRANCH  51  65
ATOM     65  C   UNL A   1      40.975  27.152  28.110  1.00  0.00     0.023 A 
ATOM     66  C   UNL A   1      41.589  27.769  27.001  1.00  0.00     0.012 A 
ATOM     67  C   UNL A   1      40.649  25.783  28.046  1.00  0.00     0.148 A 
ATOM     68  C   UNL A   1      41.854  27.044  25.840  1.00  0.00     0.002 A 
ATOM     69  C   UNL A   1      40.952  25.057  26.899  1.00  0.00     0.091 A 
ATOM     70  F   UNL A   1      40.051  25.218  29.105  1.00  0.00    -0.205 F 
ATOM     71  C   UNL A   1      41.546  25.687  25.794  1.00  0.00     0.022 A 
BRANCH  69  72
ATOM     72  S   UNL A   1      40.668  23.288  26.766  1.00  0.00     0.127 S 
ATOM     73  O   UNL A   1      40.846  22.858  28.154  1.00  0.00    -0.237 OA
ATOM     74  O   UNL A   1      39.284  23.236  26.289  1.00  0.00    -0.237 OA
ATOM     75  O   UNL A   1      41.657  22.788  25.829  1.00  0.00    -0.744 OA
ENDBRANCH  69  72
ENDBRANCH  51  65
BRANCH  52  76
ATOM     76  C   UNL A   1      39.195  32.466  36.377  1.00  0.00     0.023 A 
ATOM     77  C   UNL A   1      39.842  33.698  36.592  1.00  0.00     0.012 A 
ATOM     78  C   UNL A   1      38.300  31.982  37.349  1.00  0.00     0.148 A 
ATOM     79  C   UNL A   1      39.636  34.413  37.773  1.00  0.00     0.002 A 
ATOM     80  C   UNL A   1      38.055  32.729  38.498  1.00  0.00     0.091 A 
ATOM     81  F   UNL A   1      37.705  30.800  37.138  1.00  0.00    -0.205 F 
ATOM     82  C   UNL A   1      38.737  33.934  38.721  1.00  0.00     0.022 A 
BRANCH  80  83
ATOM     83  S   UNL A   1      36.807  32.244  39.695  1.00  0.00     0.127 S 
ATOM     84  O   UNL A   1      36.901  33.318  40.679  1.00  0.00    -0.237 OA
ATOM     85  O   UNL A   1      35.585  32.250  38.888  1.00  0.00    -0.237 OA
ATOM     86  O   UNL A   1      37.209  30.919  40.152  1.00  0.00    -0.744 OA
ENDBRANCH  80  83
ENDBRANCH  52  76
BRANCH  64  87
ATOM     87  C   UNL A   1      44.196  27.983  34.509  1.00  0.00     0.023 A 
ATOM     88  C   UNL A   1      45.419  28.681  34.452  1.00  0.00     0.012 A 
ATOM     89  C   UNL A   1      44.103  26.814  35.288  1.00  0.00     0.148 A 
ATOM     90  C   UNL A   1      46.542  28.201  35.126  1.00  0.00     0.002 A 
ATOM     91  C   UNL A   1      45.214  26.368  35.996  1.00  0.00     0.091 A 
ATOM     92  F   UNL A   1      42.938  26.152  35.316  1.00  0.00    -0.205 F 
ATOM     93  C   UNL A   1      46.436  27.052  35.904  1.00  0.00     0.022 A 
BRANCH  91  94
ATOM     94  S   UNL A   1      45.142  24.949  37.095  1.00  0.00     0.127 S 
ATOM     95  O   UNL A   1      44.301  25.454  38.179  1.00  0.00    -0.237 OA
ATOM     96  O   UNL A   1      44.507  23.933  36.254  1.00  0.00    -0.237 OA
ATOM     97  O   UNL A   1      46.523  24.653  37.453  1.00  0.00    -0.744 OA
ENDBRANCH  91  94
ENDBRANCH  64  87
ENDBRANCH  38  39
ENDBRANCH  30  33
ENDBRANCH  28  29
ENDBRANCH  27  28
ENDBRANCH  26  27
ENDBRANCH   1  26
TORSDOF 21
ENDMDL
MODEL 3
REMARK VINA RESULT:     -10.2      2.644      8.164
REMARK SMILES CC[NH2+]C(C)(C)C(=O)N[C@@](C)(C(=O)NCCCCCCNC(=O)c1ccc(-c2c3nc(c(-c4cccc(S(=O)(=O)[O-])c4F)c4ccc([nH]4)c(-c4cccc(S(=O)(=O)[O-])c4F)c4nc(c(-c5cccc(S(=O)(=O)[O-])c5F)c5ccc2[nH]5)C=C4)C=C3)cc1)C(F)(F)F
REMARK SMILES IDX 17 1 16 2 15 3 14 4 12 5 13 6 10 8 11 9 9 10 7 11 8 12 4 14
REMARK SMILES IDX 5 15 6 16 3 17 2 20 1 21 87 22 88 23 89 24 90 25 18 26 19 27
REMARK SMILES IDX 20 28 21 29 22 30 23 32 24 33 25 34 86 35 26 36 85 37 27 38
REMARK SMILES IDX 28 39 29 40 79 41 30 42 84 43 78 44 80 45 31 46 83 47 77 48
REMARK SMILES IDX 76 49 32 51 64 52 44 53 63 54 45 55 48 56 62 57 81 58 46 59
REMARK SMILES IDX 47 60 61 62 82 63 49 64 33 65 34 66 42 67 35 68 37 69 43 70
REMARK SMILES IDX 36 71 38 72 39 73 40 74 41 75 65 76 66 77 74 78 67 79 69 80
REMARK SMILES IDX 75 81 68 82 70 83 71 84 72 85 73 86 50 87 51 88 59 89 52 90
REMARK SMILES IDX 54 91 60 92 53 93 55 94 56 95 57 96 58 97
REMARK H PARENT 14 7 9 13 3 18 3 19 21 31 80 50 48 61
REMARK Flexibility Score: inf
ROOT
ATOM      1  C   UNL A   1      30.677  27.489  25.178  1.00  0.00     0.002 C 
ENDROOT
BRANCH   1   2
ATOM      2  C   UNL A   1      31.258  26.088  24.967  1.00  0.00     0.021 C 
BRANCH   2   3
ATOM      3  C   UNL A   1      31.505  25.292  26.247  1.00  0.00     0.116 C 
BRANCH   3   4
ATOM      4  N   UNL A   1      30.856  23.992  26.202  1.00  0.00    -0.354 N 
ATOM      5  C   UNL A   1      31.197  22.776  25.691  1.00  0.00     0.254 C 
ATOM      6  O   UNL A   1      30.350  21.892  25.858  1.00  0.00    -0.272 OA
ATOM      7  H   UNL A   1      29.974  23.989  26.640  1.00  0.00     0.163 HD
BRANCH   5   8
ATOM      8  C   UNL A   1      32.522  22.509  24.937  1.00  0.00     0.212 C 
ATOM      9  C   UNL A   1      32.967  21.035  25.091  1.00  0.00     0.056 C 
BRANCH   8  10
ATOM     10  N   UNL A   1      33.579  23.367  25.612  1.00  0.00    -0.329 N 
ATOM     11  C   UNL A   1      34.908  23.646  25.627  1.00  0.00     0.281 C 
ATOM     12  O   UNL A   1      35.162  24.715  26.197  1.00  0.00    -0.268 OA
ATOM     13  H   UNL A   1      33.136  23.929  26.288  1.00  0.00     0.165 HD
BRANCH  11  14
ATOM     14  C   UNL A   1      36.020  22.731  25.044  1.00  0.00     0.169 C 
ATOM     15  C   UNL A   1      37.402  23.324  25.352  1.00  0.00     0.090 C 
ATOM     16  C   UNL A   1      35.734  22.578  23.533  1.00  0.00     0.090 C 
BRANCH  14  17
ATOM     17  N   UNL A   1      35.953  21.313  25.511  1.00  0.00    -0.334 N 
ATOM     18  H   UNL A   1      36.495  21.256  26.374  1.00  0.00     0.347 HD
ATOM     19  H   UNL A   1      34.953  21.128  25.591  1.00  0.00     0.347 HD
BRANCH  17  20
ATOM     20  C   UNL A   1      36.438  20.256  24.629  1.00  0.00     0.257 C 
ATOM     21  C   UNL A   1      37.887  19.948  24.999  1.00  0.00     0.071 C 
ENDBRANCH  17  20
ENDBRANCH  14  17
ENDBRANCH  11  14
ENDBRANCH   8  10
BRANCH   8  22
ATOM     22  C   UNL A   1      32.156  22.635  23.427  1.00  0.00     0.420 C 
ATOM     23  F   UNL A   1      30.874  22.941  23.169  1.00  0.00    -0.168 F 
ATOM     24  F   UNL A   1      32.911  23.573  22.804  1.00  0.00    -0.168 F 
ATOM     25  F   UNL A   1      32.424  21.478  22.761  1.00  0.00    -0.168 F 
ENDBRANCH   8  22
ENDBRANCH   5   8
ENDBRANCH   3   4
ENDBRANCH   2   3
ENDBRANCH   1   2
BRANCH   1  26
ATOM     26  C   UNL A   1      31.017  28.513  24.090  1.00  0.00     0.002 C 
BRANCH  26  27
ATOM     27  C   UNL A   1      32.442  29.068  24.130  1.00  0.00     0.021 C 
BRANCH  27  28
ATOM     28  C   UNL A   1      32.985  29.373  25.524  1.00  0.00     0.116 C 
BRANCH  28  29
ATOM     29  N   UNL A   1      32.637  30.710  25.972  1.00  0.00    -0.352 N 
ATOM     30  C   UNL A   1      33.205  31.478  26.958  1.00  0.00     0.251 C 
ATOM     31  H   UNL A   1      31.883  31.129  25.499  1.00  0.00     0.163 HD
ATOM     32  O   UNL A   1      32.659  32.524  27.301  1.00  0.00    -0.269 OA
BRANCH  30  33
ATOM     33  C   UNL A   1      34.456  31.045  27.623  1.00  0.00     0.039 A 
ATOM     34  C   UNL A   1      35.408  32.014  27.949  1.00  0.00     0.014 A 
ATOM     35  C   UNL A   1      34.705  29.698  27.905  1.00  0.00     0.014 A 
ATOM     36  C   UNL A   1      36.584  31.640  28.604  1.00  0.00     0.010 A 
ATOM     37  C   UNL A   1      35.849  29.335  28.616  1.00  0.00     0.010 A 
ATOM     38  C   UNL A   1      36.803  30.301  28.970  1.00  0.00    -0.014 A 
BRANCH  38  39
ATOM     39  C   UNL A   1      38.010  29.913  29.745  1.00  0.00     0.031 A 
ATOM     40  C   UNL A   1      38.256  30.474  31.121  1.00  0.00     0.074 A 
ATOM     41  C   UNL A   1      38.919  29.091  29.182  1.00  0.00     0.049 A 
ATOM     42  N   UNL A   1      39.251  30.242  31.938  1.00  0.00    -0.248 NA
ATOM     43  C   UNL A   1      37.268  31.434  31.641  1.00  0.00     0.031 C 
ATOM     44  C   UNL A   1      38.841  28.548  27.824  1.00  0.00     0.029 A 
ATOM     45  N   UNL A   1      40.097  28.584  29.673  1.00  0.00    -0.354 N 
ATOM     46  C   UNL A   1      39.024  31.037  33.054  1.00  0.00     0.074 A 
ATOM     47  C   UNL A   1      37.814  31.787  32.797  1.00  0.00     0.031 C 
ATOM     48  C   UNL A   1      39.917  27.779  27.594  1.00  0.00     0.029 A 
ATOM     49  C   UNL A   1      40.772  27.789  28.776  1.00  0.00     0.049 A 
ATOM     50  H   UNL A   1      40.426  28.771  30.581  1.00  0.00     0.167 HD
ATOM     51  C   UNL A   1      39.735  31.110  34.205  1.00  0.00     0.034 A 
ATOM     52  C   UNL A   1      41.948  27.140  28.893  1.00  0.00     0.034 A 
ATOM     53  C   UNL A   1      40.917  30.335  34.477  1.00  0.00     0.049 A 
ATOM     54  C   UNL A   1      42.691  27.206  30.199  1.00  0.00     0.074 A 
ATOM     55  C   UNL A   1      41.667  30.287  35.640  1.00  0.00     0.029 A 
ATOM     56  N   UNL A   1      41.522  29.472  33.577  1.00  0.00    -0.354 N 
ATOM     57  N   UNL A   1      42.368  27.835  31.303  1.00  0.00    -0.248 NA
ATOM     58  C   UNL A   1      43.942  26.438  30.291  1.00  0.00     0.031 C 
ATOM     59  C   UNL A   1      42.734  29.404  35.438  1.00  0.00     0.029 A 
ATOM     60  C   UNL A   1      42.636  28.889  34.156  1.00  0.00     0.049 A 
ATOM     61  H   UNL A   1      41.206  29.299  32.661  1.00  0.00     0.167 HD
ATOM     62  C   UNL A   1      43.355  27.512  32.228  1.00  0.00     0.074 A 
ATOM     63  C   UNL A   1      44.269  26.606  31.564  1.00  0.00     0.031 C 
ATOM     64  C   UNL A   1      43.506  27.945  33.504  1.00  0.00     0.034 A 
BRANCH  51  65
ATOM     65  C   UNL A   1      39.215  32.007  35.299  1.00  0.00     0.023 A 
ATOM     66  C   UNL A   1      38.231  31.514  36.180  1.00  0.00     0.012 A 
ATOM     67  C   UNL A   1      39.754  33.291  35.512  1.00  0.00     0.148 A 
ATOM     68  C   UNL A   1      37.774  32.292  37.243  1.00  0.00     0.002 A 
ATOM     69  C   UNL A   1      39.321  34.046  36.597  1.00  0.00     0.091 A 
ATOM     70  F   UNL A   1      40.677  33.748  34.653  1.00  0.00    -0.205 F 
ATOM     71  C   UNL A   1      38.327  33.552  37.458  1.00  0.00     0.022 A 
BRANCH  69  72
ATOM     72  S   UNL A   1      40.023  35.649  37.008  1.00  0.00     0.127 S 
ATOM     73  O   UNL A   1      39.656  36.439  35.831  1.00  0.00    -0.237 OA
ATOM     74  O   UNL A   1      39.290  36.000  38.226  1.00  0.00    -0.237 OA
ATOM     75  O   UNL A   1      41.447  35.433  37.191  1.00  0.00    -0.744 OA
ENDBRANCH  69  72
ENDBRANCH  51  65
BRANCH  52  76
ATOM     76  C   UNL A   1      42.463  26.311  27.765  1.00  0.00     0.023 A 
ATOM     77  C   UNL A   1      43.415  26.858  26.884  1.00  0.00     0.012 A 
ATOM     78  C   UNL A   1      42.020  24.991  27.562  1.00  0.00     0.148 A 
ATOM     79  C   UNL A   1      43.885  26.121  25.796  1.00  0.00     0.002 A 
ATOM     80  C   UNL A   1      42.536  24.240  26.511  1.00  0.00     0.091 A 
ATOM     81  F   UNL A   1      41.100  24.490  28.399  1.00  0.00    -0.205 F 
ATOM     82  C   UNL A   1      43.453  24.810  25.615  1.00  0.00     0.022 A 
BRANCH  80  83
ATOM     83  S   UNL A   1      42.133  22.503  26.298  1.00  0.00     0.127 S 
ATOM     84  O   UNL A   1      40.674  22.531  26.300  1.00  0.00    -0.237 OA
ATOM     85  O   UNL A   1      42.743  22.201  25.002  1.00  0.00    -0.237 OA
ATOM     86  O   UNL A   1      42.763  21.823  27.423  1.00  0.00    -0.744 OA
ENDBRANCH  80  83
ENDBRANCH  52  76
BRANCH  64  87
ATOM     87  C   UNL A   1      44.689  27.423  34.277  1.00  0.00     0.023 A 
ATOM     88  C   UNL A   1      45.903  28.137  34.259  1.00  0.00     0.012 A 
ATOM     89  C   UNL A   1      44.584  26.257  35.060  1.00  0.00     0.148 A 
ATOM     90  C   UNL A   1      47.008  27.676  34.975  1.00  0.00     0.002 A 
ATOM     91  C   UNL A   1      45.675  25.831  35.810  1.00  0.00     0.091 A 
ATOM     92  F   UNL A   1      43.427  25.579  35.051  1.00  0.00    -0.205 F 
ATOM     93  C   UNL A   1      46.890  26.531  35.757  1.00  0.00     0.022 A 
BRANCH  91  94
ATOM     94  S   UNL A   1      45.583  24.418  36.915  1.00  0.00     0.127 S 
ATOM     95  O   UNL A   1      44.527  24.829  37.838  1.00  0.00    -0.237 OA
ATOM     96  O   UNL A   1      45.209  23.333  36.006  1.00  0.00    -0.237 OA
ATOM     97  O   UNL A   1      46.911  24.282  37.497  1.00  0.00    -0.744 OA
ENDBRANCH  91  94
ENDBRANCH  64  87
ENDBRANCH  38  39
ENDBRANCH  30  33
ENDBRANCH  28  29
ENDBRANCH  27  28
ENDBRANCH  26  27
ENDBRANCH   1  26
TORSDOF 21
ENDMDL
