MODEL 1
REMARK VINA RESULT:     -12.0      0.000      0.000
REMARK SMILES CCc1ccc2c(c1)C=C(C(=O)NCCCCCCNC(=O)c1ccc(-c3c4nc(c(-c5cccc(S(=O)(=O)[O-])c5F)c5ccc([nH]5)c(-c5cccc(S(=O)(=O)[O-])c5F)c5nc(c(-c6cccc(S(=O)(=O)[O-])c6F)c6ccc3[nH]6)C=C5)C=C4)cc1)[C@H](C(F)(F)F)O2
REMARK SMILES IDX 17 1 16 2 15 3 14 4 13 5 11 6 12 7 10 9 3 10 4 11 8 12 5 13
REMARK SMILES IDX 7 14 6 15 9 16 91 17 86 18 2 19 1 20 87 21 88 22 89 23 90 24
REMARK SMILES IDX 18 25 19 26 20 27 21 28 22 30 23 31 24 32 85 33 25 34 84 35
REMARK SMILES IDX 26 36 27 37 28 38 78 39 29 40 83 41 77 42 79 43 30 44 82 45
REMARK SMILES IDX 76 46 75 47 31 49 63 50 43 51 62 52 44 53 47 54 61 55 80 56
REMARK SMILES IDX 45 57 46 58 60 60 81 61 48 62 32 63 33 64 41 65 34 66 36 67
REMARK SMILES IDX 42 68 35 69 37 70 38 71 39 72 40 73 64 74 65 75 73 76 66 77
REMARK SMILES IDX 68 78 74 79 67 80 69 81 70 82 71 83 72 84 49 85 50 86 58 87
REMARK SMILES IDX 51 88 53 89 59 90 52 91 54 92 55 93 56 94 57 95
REMARK H PARENT 13 8 20 29 79 48 47 59
REMARK Flexibility Score: inf
ROOT
ATOM      1  C   UNL A   1      31.499  30.790  26.231  1.00  0.00     0.002 C 
ENDROOT
BRANCH   1   2
ATOM      2  C   UNL A   1      32.390  29.882  27.087  1.00  0.00     0.002 C 
BRANCH   2   3
ATOM      3  C   UNL A   1      31.748  28.541  27.475  1.00  0.00     0.021 C 
BRANCH   3   4
ATOM      4  C   UNL A   1      31.562  27.598  26.280  1.00  0.00     0.116 C 
BRANCH   4   5
ATOM      5  N   UNL A   1      31.061  26.318  26.754  1.00  0.00    -0.352 N 
ATOM      6  C   UNL A   1      31.321  25.034  26.395  1.00  0.00     0.251 C 
ATOM      7  O   UNL A   1      30.564  24.160  26.812  1.00  0.00    -0.270 OA
ATOM      8  H   UNL A   1      30.400  26.398  27.478  1.00  0.00     0.163 HD
BRANCH   6   9
ATOM      9  C   UNL A   1      32.521  24.641  25.610  1.00  0.00     0.067 C 
ATOM     10  C   UNL A   1      36.799  22.437  25.089  1.00  0.00    -0.047 A 
ATOM     11  C   UNL A   1      36.632  22.470  23.699  1.00  0.00     0.007 A 
ATOM     12  C   UNL A   1      35.825  23.040  25.898  1.00  0.00     0.015 A 
ATOM     13  C   UNL A   1      35.513  23.086  23.133  1.00  0.00     0.047 A 
ATOM     14  C   UNL A   1      34.701  23.656  25.332  1.00  0.00     0.017 A 
ATOM     15  C   UNL A   1      34.546  23.667  23.951  1.00  0.00     0.128 A 
ATOM     16  C   UNL A   1      33.635  24.163  26.182  1.00  0.00     0.025 C 
ATOM     17  O   UNL A   1      33.434  24.152  23.328  1.00  0.00    -0.475 OA
ATOM     18  C   UNL A   1      32.495  24.945  24.112  1.00  0.00     0.314 C 
BRANCH  10  19
ATOM     19  C   UNL A   1      37.946  21.689  25.727  1.00  0.00     0.032 C 
ATOM     20  C   UNL A   1      39.115  22.579  26.125  1.00  0.00     0.009 C 
ENDBRANCH  10  19
BRANCH  18  21
ATOM     21  C   UNL A   1      31.131  24.865  23.390  1.00  0.00     0.429 C 
ATOM     22  F   UNL A   1      30.552  23.647  23.490  1.00  0.00    -0.167 F 
ATOM     23  F   UNL A   1      30.235  25.725  23.955  1.00  0.00    -0.167 F 
ATOM     24  F   UNL A   1      31.209  25.195  22.082  1.00  0.00    -0.167 F 
ENDBRANCH  18  21
ENDBRANCH   6   9
ENDBRANCH   4   5
ENDBRANCH   3   4
ENDBRANCH   2   3
ENDBRANCH   1   2
BRANCH   1  25
ATOM     25  C   UNL A   1      31.397  32.236  26.725  1.00  0.00     0.021 C 
BRANCH  25  26
ATOM     26  C   UNL A   1      32.739  32.869  27.077  1.00  0.00     0.116 C 
BRANCH  26  27
ATOM     27  N   UNL A   1      32.569  34.205  27.627  1.00  0.00    -0.352 N 
ATOM     28  C   UNL A   1      33.142  34.759  28.745  1.00  0.00     0.251 C 
ATOM     29  H   UNL A   1      31.957  34.795  27.130  1.00  0.00     0.163 HD
ATOM     30  O   UNL A   1      32.702  35.804  29.210  1.00  0.00    -0.269 OA
BRANCH  28  31
ATOM     31  C   UNL A   1      34.291  34.083  29.386  1.00  0.00     0.039 A 
ATOM     32  C   UNL A   1      35.586  34.420  28.990  1.00  0.00     0.014 A 
ATOM     33  C   UNL A   1      34.082  33.111  30.370  1.00  0.00     0.014 A 
ATOM     34  C   UNL A   1      36.678  33.816  29.617  1.00  0.00     0.010 A 
ATOM     35  C   UNL A   1      35.170  32.568  31.045  1.00  0.00     0.010 A 
ATOM     36  C   UNL A   1      36.479  32.905  30.669  1.00  0.00    -0.014 A 
BRANCH  36  37
ATOM     37  C   UNL A   1      37.626  32.298  31.390  1.00  0.00     0.031 A 
ATOM     38  C   UNL A   1      38.383  31.150  30.779  1.00  0.00     0.074 A 
ATOM     39  C   UNL A   1      37.935  32.728  32.629  1.00  0.00     0.049 A 
ATOM     40  N   UNL A   1      39.373  30.457  31.278  1.00  0.00    -0.248 NA
ATOM     41  C   UNL A   1      37.954  30.702  29.442  1.00  0.00     0.031 C 
ATOM     42  C   UNL A   1      37.228  33.783  33.359  1.00  0.00     0.029 A 
ATOM     43  N   UNL A   1      38.907  32.314  33.505  1.00  0.00    -0.354 N 
ATOM     44  C   UNL A   1      39.664  29.476  30.337  1.00  0.00     0.074 A 
ATOM     45  C   UNL A   1      38.720  29.638  29.253  1.00  0.00     0.031 C 
ATOM     46  C   UNL A   1      37.792  33.936  34.568  1.00  0.00     0.029 A 
ATOM     47  C   UNL A   1      38.877  32.972  34.713  1.00  0.00     0.049 A 
ATOM     48  H   UNL A   1      39.563  31.612  33.289  1.00  0.00     0.167 HD
ATOM     49  C   UNL A   1      40.645  28.543  30.359  1.00  0.00     0.034 A 
ATOM     50  C   UNL A   1      39.633  32.809  35.817  1.00  0.00     0.034 A 
ATOM     51  C   UNL A   1      41.604  28.410  31.422  1.00  0.00     0.049 A 
ATOM     52  C   UNL A   1      40.735  31.784  35.803  1.00  0.00     0.074 A 
ATOM     53  C   UNL A   1      42.687  27.552  31.500  1.00  0.00     0.029 A 
ATOM     54  N   UNL A   1      41.593  29.148  32.596  1.00  0.00    -0.354 N 
ATOM     55  N   UNL A   1      41.091  30.968  34.840  1.00  0.00    -0.248 NA
ATOM     56  C   UNL A   1      41.564  31.682  37.012  1.00  0.00     0.031 C 
ATOM     57  C   UNL A   1      43.312  27.750  32.736  1.00  0.00     0.029 A 
ATOM     58  C   UNL A   1      42.641  28.757  33.411  1.00  0.00     0.049 A 
ATOM     59  H   UNL A   1      40.935  29.846  32.817  1.00  0.00     0.167 HD
ATOM     60  C   UNL A   1      42.206  30.285  35.311  1.00  0.00     0.074 A 
ATOM     61  C   UNL A   1      42.478  30.799  36.639  1.00  0.00     0.031 C 
ATOM     62  C   UNL A   1      42.932  29.313  34.707  1.00  0.00     0.034 A 
BRANCH  49  63
ATOM     63  C   UNL A   1      40.763  27.621  29.172  1.00  0.00     0.023 A 
ATOM     64  C   UNL A   1      39.977  26.451  29.117  1.00  0.00     0.012 A 
ATOM     65  C   UNL A   1      41.602  27.939  28.087  1.00  0.00     0.148 A 
ATOM     66  C   UNL A   1      40.050  25.596  28.019  1.00  0.00     0.002 A 
ATOM     67  C   UNL A   1      41.633  27.106  26.974  1.00  0.00     0.091 A 
ATOM     68  F   UNL A   1      42.356  29.044  28.164  1.00  0.00    -0.205 F 
ATOM     69  C   UNL A   1      40.868  25.928  26.944  1.00  0.00     0.022 A 
BRANCH  67  70
ATOM     70  S   UNL A   1      42.593  27.486  25.504  1.00  0.00     0.127 S 
ATOM     71  O   UNL A   1      41.913  28.682  25.009  1.00  0.00    -0.237 OA
ATOM     72  O   UNL A   1      43.924  27.728  26.060  1.00  0.00    -0.237 OA
ATOM     73  O   UNL A   1      42.495  26.314  24.645  1.00  0.00    -0.744 OA
ENDBRANCH  67  70
ENDBRANCH  49  63
BRANCH  50  74
ATOM     74  C   UNL A   1      39.412  33.676  37.009  1.00  0.00     0.023 A 
ATOM     75  C   UNL A   1      39.855  35.013  36.986  1.00  0.00     0.012 A 
ATOM     76  C   UNL A   1      38.751  33.192  38.153  1.00  0.00     0.148 A 
ATOM     77  C   UNL A   1      39.679  35.840  38.095  1.00  0.00     0.002 A 
ATOM     78  C   UNL A   1      38.527  34.038  39.233  1.00  0.00     0.091 A 
ATOM     79  F   UNL A   1      38.344  31.915  38.160  1.00  0.00    -0.205 F 
ATOM     80  C   UNL A   1      39.007  35.357  39.214  1.00  0.00     0.022 A 
BRANCH  78  81
ATOM     81  S   UNL A   1      37.557  33.540  40.660  1.00  0.00     0.127 S 
ATOM     82  O   UNL A   1      36.320  33.079  40.035  1.00  0.00    -0.237 OA
ATOM     83  O   UNL A   1      38.389  32.482  41.236  1.00  0.00    -0.237 OA
ATOM     84  O   UNL A   1      37.441  34.730  41.492  1.00  0.00    -0.744 OA
ENDBRANCH  78  81
ENDBRANCH  50  74
BRANCH  62  85
ATOM     85  C   UNL A   1      44.121  28.764  35.451  1.00  0.00     0.023 A 
ATOM     86  C   UNL A   1      45.391  29.348  35.280  1.00  0.00     0.012 A 
ATOM     87  C   UNL A   1      43.962  27.713  36.377  1.00  0.00     0.148 A 
ATOM     88  C   UNL A   1      46.491  28.872  35.993  1.00  0.00     0.002 A 
ATOM     89  C   UNL A   1      45.050  27.279  37.122  1.00  0.00     0.091 A 
ATOM     90  F   UNL A   1      42.747  27.160  36.512  1.00  0.00    -0.205 F 
ATOM     91  C   UNL A   1      46.319  27.847  36.921  1.00  0.00     0.022 A 
BRANCH  89  92
ATOM     92  S   UNL A   1      44.903  26.036  38.410  1.00  0.00     0.127 S 
ATOM     93  O   UNL A   1      44.167  24.978  37.720  1.00  0.00    -0.237 OA
ATOM     94  O   UNL A   1      46.303  25.720  38.695  1.00  0.00    -0.237 OA
ATOM     95  O   UNL A   1      44.192  26.676  39.508  1.00  0.00    -0.744 OA
ENDBRANCH  89  92
ENDBRANCH  62  85
ENDBRANCH  36  37
ENDBRANCH  28  31
ENDBRANCH  26  27
ENDBRANCH  25  26
ENDBRANCH   1  25
TORSDOF 18
ENDMDL
MODEL 2
REMARK VINA RESULT:     -11.8      6.371     11.380
REMARK SMILES CCc1ccc2c(c1)C=C(C(=O)NCCCCCCNC(=O)c1ccc(-c3c4nc(c(-c5cccc(S(=O)(=O)[O-])c5F)c5ccc([nH]5)c(-c5cccc(S(=O)(=O)[O-])c5F)c5nc(c(-c6cccc(S(=O)(=O)[O-])c6F)c6ccc3[nH]6)C=C5)C=C4)cc1)[C@H](C(F)(F)F)O2
REMARK SMILES IDX 17 1 16 2 15 3 14 4 13 5 11 6 12 7 10 9 3 10 4 11 8 12 5 13
REMARK SMILES IDX 7 14 6 15 9 16 91 17 86 18 2 19 1 20 87 21 88 22 89 23 90 24
REMARK SMILES IDX 18 25 19 26 20 27 21 28 22 30 23 31 24 32 85 33 25 34 84 35
REMARK SMILES IDX 26 36 27 37 28 38 78 39 29 40 83 41 77 42 79 43 30 44 82 45
REMARK SMILES IDX 76 46 75 47 31 49 63 50 43 51 62 52 44 53 47 54 61 55 80 56
REMARK SMILES IDX 45 57 46 58 60 60 81 61 48 62 32 63 33 64 41 65 34 66 36 67
REMARK SMILES IDX 42 68 35 69 37 70 38 71 39 72 40 73 64 74 65 75 73 76 66 77
REMARK SMILES IDX 68 78 74 79 67 80 69 81 70 82 71 83 72 84 49 85 50 86 58 87
REMARK SMILES IDX 51 88 53 89 59 90 52 91 54 92 55 93 56 94 57 95
REMARK H PARENT 13 8 20 29 79 48 47 59
REMARK Flexibility Score: inf
ROOT
ATOM      1  C   UNL A   1      37.088  21.265  24.560  1.00  0.00     0.002 C 
ENDROOT
BRANCH   1   2
ATOM      2  C   UNL A   1      37.025  22.222  25.757  1.00  0.00     0.002 C 
BRANCH   2   3
ATOM      3  C   UNL A   1      36.953  23.709  25.382  1.00  0.00     0.021 C 
BRANCH   3   4
ATOM      4  C   UNL A   1      35.532  24.172  25.037  1.00  0.00     0.116 C 
BRANCH   4   5
ATOM      5  N   UNL A   1      34.640  23.840  26.138  1.00  0.00    -0.352 N 
ATOM      6  C   UNL A   1      33.614  22.959  26.263  1.00  0.00     0.251 C 
ATOM      7  O   UNL A   1      32.885  23.067  27.245  1.00  0.00    -0.270 OA
ATOM      8  H   UNL A   1      34.815  24.358  26.956  1.00  0.00     0.163 HD
BRANCH   6   9
ATOM      9  C   UNL A   1      33.402  21.827  25.321  1.00  0.00     0.067 C 
ATOM     10  C   UNL A   1      33.394  17.127  24.164  1.00  0.00    -0.047 A 
ATOM     11  C   UNL A   1      32.547  17.408  23.085  1.00  0.00     0.007 A 
ATOM     12  C   UNL A   1      33.863  18.192  24.945  1.00  0.00     0.015 A 
ATOM     13  C   UNL A   1      32.172  18.724  22.800  1.00  0.00     0.047 A 
ATOM     14  C   UNL A   1      33.488  19.512  24.662  1.00  0.00     0.017 A 
ATOM     15  C   UNL A   1      32.635  19.770  23.595  1.00  0.00     0.128 A 
ATOM     16  C   UNL A   1      33.874  20.595  25.554  1.00  0.00     0.025 C 
ATOM     17  O   UNL A   1      32.140  21.010  23.317  1.00  0.00    -0.475 OA
ATOM     18  C   UNL A   1      32.742  22.158  23.983  1.00  0.00     0.314 C 
BRANCH  10  19
ATOM     19  C   UNL A   1      33.730  15.706  24.553  1.00  0.00     0.032 C 
ATOM     20  C   UNL A   1      32.661  15.031  25.399  1.00  0.00     0.009 C 
ENDBRANCH  10  19
BRANCH  18  21
ATOM     21  C   UNL A   1      31.688  23.288  23.966  1.00  0.00     0.429 C 
ATOM     22  F   UNL A   1      30.863  23.256  25.037  1.00  0.00    -0.167 F 
ATOM     23  F   UNL A   1      32.290  24.510  24.027  1.00  0.00    -0.167 F 
ATOM     24  F   UNL A   1      30.933  23.286  22.845  1.00  0.00    -0.167 F 
ENDBRANCH  18  21
ENDBRANCH   6   9
ENDBRANCH   4   5
ENDBRANCH   3   4
ENDBRANCH   2   3
ENDBRANCH   1   2
BRANCH   1  25
ATOM     25  C   UNL A   1      38.125  20.146  24.689  1.00  0.00     0.021 C 
BRANCH  25  26
ATOM     26  C   UNL A   1      38.702  19.992  26.092  1.00  0.00     0.116 C 
BRANCH  26  27
ATOM     27  N   UNL A   1      39.877  19.134  26.094  1.00  0.00    -0.352 N 
ATOM     28  C   UNL A   1      41.203  19.485  26.122  1.00  0.00     0.251 C 
ATOM     29  H   UNL A   1      39.696  18.166  26.069  1.00  0.00     0.163 HD
ATOM     30  O   UNL A   1      42.067  18.655  25.864  1.00  0.00    -0.269 OA
BRANCH  28  31
ATOM     31  C   UNL A   1      41.582  20.874  26.462  1.00  0.00     0.039 A 
ATOM     32  C   UNL A   1      42.178  21.134  27.698  1.00  0.00     0.014 A 
ATOM     33  C   UNL A   1      41.340  21.916  25.561  1.00  0.00     0.014 A 
ATOM     34  C   UNL A   1      42.576  22.435  28.011  1.00  0.00     0.010 A 
ATOM     35  C   UNL A   1      41.805  23.196  25.844  1.00  0.00     0.010 A 
ATOM     36  C   UNL A   1      42.417  23.471  27.076  1.00  0.00    -0.014 A 
BRANCH  36  37
ATOM     37  C   UNL A   1      42.887  24.849  27.366  1.00  0.00     0.031 A 
ATOM     38  C   UNL A   1      41.961  25.849  28.004  1.00  0.00     0.074 A 
ATOM     39  C   UNL A   1      44.124  25.224  26.982  1.00  0.00     0.049 A 
ATOM     40  N   UNL A   1      42.173  27.108  28.282  1.00  0.00    -0.248 NA
ATOM     41  C   UNL A   1      40.608  25.379  28.350  1.00  0.00     0.031 C 
ATOM     42  C   UNL A   1      45.089  24.369  26.287  1.00  0.00     0.029 A 
ATOM     43  N   UNL A   1      44.772  26.428  27.096  1.00  0.00    -0.354 N 
ATOM     44  C   UNL A   1      40.977  27.590  28.804  1.00  0.00     0.074 A 
ATOM     45  C   UNL A   1      40.031  26.496  28.767  1.00  0.00     0.031 C 
ATOM     46  C   UNL A   1      46.205  25.073  26.042  1.00  0.00     0.029 A 
ATOM     47  C   UNL A   1      46.027  26.435  26.532  1.00  0.00     0.049 A 
ATOM     48  H   UNL A   1      44.376  27.213  27.541  1.00  0.00     0.167 HD
ATOM     49  C   UNL A   1      40.700  28.820  29.295  1.00  0.00     0.034 A 
ATOM     50  C   UNL A   1      46.927  27.431  26.412  1.00  0.00     0.034 A 
ATOM     51  C   UNL A   1      41.656  29.893  29.363  1.00  0.00     0.049 A 
ATOM     52  C   UNL A   1      46.603  28.782  26.993  1.00  0.00     0.074 A 
ATOM     53  C   UNL A   1      41.498  31.151  29.918  1.00  0.00     0.029 A 
ATOM     54  N   UNL A   1      42.944  29.839  28.853  1.00  0.00    -0.354 N 
ATOM     55  N   UNL A   1      45.520  29.172  27.620  1.00  0.00    -0.248 NA
ATOM     56  C   UNL A   1      47.639  29.818  26.883  1.00  0.00     0.031 C 
ATOM     57  C   UNL A   1      42.681  31.868  29.716  1.00  0.00     0.029 A 
ATOM     58  C   UNL A   1      43.589  31.045  29.069  1.00  0.00     0.049 A 
ATOM     59  H   UNL A   1      43.341  29.059  28.404  1.00  0.00     0.167 HD
ATOM     60  C   UNL A   1      45.759  30.483  28.013  1.00  0.00     0.074 A 
ATOM     61  C   UNL A   1      47.098  30.814  27.570  1.00  0.00     0.031 C 
ATOM     62  C   UNL A   1      44.940  31.342  28.669  1.00  0.00     0.034 A 
BRANCH  49  63
ATOM     63  C   UNL A   1      39.317  29.062  29.845  1.00  0.00     0.023 A 
ATOM     64  C   UNL A   1      39.012  28.665  31.164  1.00  0.00     0.012 A 
ATOM     65  C   UNL A   1      38.341  29.733  29.083  1.00  0.00     0.148 A 
ATOM     66  C   UNL A   1      37.749  28.900  31.703  1.00  0.00     0.002 A 
ATOM     67  C   UNL A   1      37.098  30.007  29.644  1.00  0.00     0.091 A 
ATOM     68  F   UNL A   1      38.642  30.085  27.826  1.00  0.00    -0.205 F 
ATOM     69  C   UNL A   1      36.797  29.580  30.949  1.00  0.00     0.022 A 
BRANCH  67  70
ATOM     70  S   UNL A   1      35.831  30.946  28.786  1.00  0.00     0.127 S 
ATOM     71  O   UNL A   1      35.209  29.915  27.959  1.00  0.00    -0.237 OA
ATOM     72  O   UNL A   1      35.001  31.424  29.893  1.00  0.00    -0.237 OA
ATOM     73  O   UNL A   1      36.532  31.993  28.056  1.00  0.00    -0.744 OA
ENDBRANCH  67  70
ENDBRANCH  49  63
BRANCH  50  74
ATOM     74  C   UNL A   1      48.245  27.173  25.766  1.00  0.00     0.023 A 
ATOM     75  C   UNL A   1      49.304  26.652  26.535  1.00  0.00     0.012 A 
ATOM     76  C   UNL A   1      48.449  27.424  24.396  1.00  0.00     0.148 A 
ATOM     77  C   UNL A   1      50.554  26.421  25.960  1.00  0.00     0.002 A 
ATOM     78  C   UNL A   1      49.679  27.137  23.816  1.00  0.00     0.091 A 
ATOM     79  F   UNL A   1      47.432  27.928  23.684  1.00  0.00    -0.205 F 
ATOM     80  C   UNL A   1      50.739  26.654  24.599  1.00  0.00     0.022 A 
BRANCH  78  81
ATOM     81  S   UNL A   1      49.967  27.282  22.049  1.00  0.00     0.127 S 
ATOM     82  O   UNL A   1      48.907  26.437  21.503  1.00  0.00    -0.237 OA
ATOM     83  O   UNL A   1      49.786  28.718  21.831  1.00  0.00    -0.237 OA
ATOM     84  O   UNL A   1      51.327  26.809  21.832  1.00  0.00    -0.744 OA
ENDBRANCH  78  81
ENDBRANCH  50  74
BRANCH  62  85
ATOM     85  C   UNL A   1      45.478  32.712  28.993  1.00  0.00     0.023 A 
ATOM     86  C   UNL A   1      46.268  32.906  30.142  1.00  0.00     0.012 A 
ATOM     87  C   UNL A   1      45.259  33.791  28.113  1.00  0.00     0.148 A 
ATOM     88  C   UNL A   1      46.803  34.161  30.430  1.00  0.00     0.002 A 
ATOM     89  C   UNL A   1      45.838  35.025  28.378  1.00  0.00     0.091 A 
ATOM     90  F   UNL A   1      44.490  33.589  27.033  1.00  0.00    -0.205 F 
ATOM     91  C   UNL A   1      46.598  35.216  29.543  1.00  0.00     0.022 A 
BRANCH  89  92
ATOM     92  S   UNL A   1      45.713  36.413  27.244  1.00  0.00     0.127 S 
ATOM     93  O   UNL A   1      46.523  37.423  27.922  1.00  0.00    -0.237 OA
ATOM     94  O   UNL A   1      46.310  35.869  26.024  1.00  0.00    -0.237 OA
ATOM     95  O   UNL A   1      44.293  36.719  27.138  1.00  0.00    -0.744 OA
ENDBRANCH  89  92
ENDBRANCH  62  85
ENDBRANCH  36  37
ENDBRANCH  28  31
ENDBRANCH  26  27
ENDBRANCH  25  26
ENDBRANCH   1  25
TORSDOF 18
ENDMDL
MODEL 3
REMARK VINA RESULT:     -11.8      5.743     11.936
REMARK SMILES CCc1ccc2c(c1)C=C(C(=O)NCCCCCCNC(=O)c1ccc(-c3c4nc(c(-c5cccc(S(=O)(=O)[O-])c5F)c5ccc([nH]5)c(-c5cccc(S(=O)(=O)[O-])c5F)c5nc(c(-c6cccc(S(=O)(=O)[O-])c6F)c6ccc3[nH]6)C=C5)C=C4)cc1)[C@H](C(F)(F)F)O2
REMARK SMILES IDX 17 1 16 2 15 3 14 4 13 5 11 6 12 7 10 9 3 10 4 11 8 12 5 13
REMARK SMILES IDX 7 14 6 15 9 16 91 17 86 18 2 19 1 20 87 21 88 22 89 23 90 24
REMARK SMILES IDX 18 25 19 26 20 27 21 28 22 30 23 31 24 32 85 33 25 34 84 35
REMARK SMILES IDX 26 36 27 37 28 38 78 39 29 40 83 41 77 42 79 43 30 44 82 45
REMARK SMILES IDX 76 46 75 47 31 49 63 50 43 51 62 52 44 53 47 54 61 55 80 56
REMARK SMILES IDX 45 57 46 58 60 60 81 61 48 62 32 63 33 64 41 65 34 66 36 67
REMARK SMILES IDX 42 68 35 69 37 70 38 71 39 72 40 73 64 74 65 75 73 76 66 77
REMARK SMILES IDX 68 78 74 79 67 80 69 81 70 82 71 83 72 84 49 85 50 86 58 87
REMARK SMILES IDX 51 88 53 89 59 90 52 91 54 92 55 93 56 94 57 95
REMARK H PARENT 13 8 20 29 79 48 47 59
REMARK Flexibility Score: inf
ROOT
ATOM      1  C   UNL A   1      37.576  20.821  24.670  1.00  0.00     0.002 C 
ENDROOT
BRANCH   1   2
ATOM      2  C   UNL A   1      37.806  22.135  25.426  1.00  0.00     0.002 C 
BRANCH   2   3
ATOM      3  C   UNL A   1      36.706  23.189  25.224  1.00  0.00     0.021 C 
BRANCH   3   4
ATOM      4  C   UNL A   1      35.387  22.588  24.723  1.00  0.00     0.116 C 
BRANCH   4   5
ATOM      5  N   UNL A   1      34.957  23.302  23.531  1.00  0.00    -0.352 N 
ATOM      6  C   UNL A   1      34.046  24.288  23.323  1.00  0.00     0.251 C 
ATOM      7  O   UNL A   1      33.724  24.533  22.163  1.00  0.00    -0.270 OA
ATOM      8  H   UNL A   1      35.418  23.013  22.711  1.00  0.00     0.163 HD
BRANCH   6   9
ATOM      9  C   UNL A   1      33.505  25.133  24.420  1.00  0.00     0.067 C 
ATOM     10  C   UNL A   1      33.076  29.306  26.836  1.00  0.00    -0.047 A 
ATOM     11  C   UNL A   1      31.893  28.833  27.417  1.00  0.00     0.007 A 
ATOM     12  C   UNL A   1      33.798  28.453  25.990  1.00  0.00     0.015 A 
ATOM     13  C   UNL A   1      31.440  27.538  27.151  1.00  0.00     0.047 A 
ATOM     14  C   UNL A   1      33.345  27.155  25.720  1.00  0.00     0.017 A 
ATOM     15  C   UNL A   1      32.161  26.707  26.296  1.00  0.00     0.128 A 
ATOM     16  C   UNL A   1      34.030  26.324  24.743  1.00  0.00     0.025 C 
ATOM     17  O   UNL A   1      31.598  25.500  26.004  1.00  0.00    -0.475 OA
ATOM     18  C   UNL A   1      32.402  24.521  25.283  1.00  0.00     0.314 C 
BRANCH  10  19
ATOM     19  C   UNL A   1      33.532  30.734  27.026  1.00  0.00     0.032 C 
ATOM     20  C   UNL A   1      34.703  30.884  27.985  1.00  0.00     0.009 C 
ENDBRANCH  10  19
BRANCH  18  21
ATOM     21  C   UNL A   1      31.414  23.550  24.596  1.00  0.00     0.429 C 
ATOM     22  F   UNL A   1      30.389  23.186  25.399  1.00  0.00    -0.167 F 
ATOM     23  F   UNL A   1      30.821  24.146  23.522  1.00  0.00    -0.167 F 
ATOM     24  F   UNL A   1      32.014  22.431  24.133  1.00  0.00    -0.167 F 
ENDBRANCH  18  21
ENDBRANCH   6   9
ENDBRANCH   4   5
ENDBRANCH   3   4
ENDBRANCH   2   3
ENDBRANCH   1   2
BRANCH   1  25
ATOM     25  C   UNL A   1      38.440  19.650  25.145  1.00  0.00     0.021 C 
BRANCH  25  26
ATOM     26  C   UNL A   1      39.596  20.057  26.052  1.00  0.00     0.116 C 
BRANCH  26  27
ATOM     27  N   UNL A   1      40.651  19.056  26.053  1.00  0.00    -0.352 N 
ATOM     28  C   UNL A   1      42.012  19.234  26.034  1.00  0.00     0.251 C 
ATOM     29  H   UNL A   1      40.347  18.119  26.068  1.00  0.00     0.163 HD
ATOM     30  O   UNL A   1      42.754  18.291  25.783  1.00  0.00    -0.269 OA
BRANCH  28  31
ATOM     31  C   UNL A   1      42.576  20.572  26.313  1.00  0.00     0.039 A 
ATOM     32  C   UNL A   1      43.077  21.334  25.256  1.00  0.00     0.014 A 
ATOM     33  C   UNL A   1      42.615  21.066  27.621  1.00  0.00     0.014 A 
ATOM     34  C   UNL A   1      43.574  22.615  25.504  1.00  0.00     0.010 A 
ATOM     35  C   UNL A   1      43.040  22.370  27.855  1.00  0.00     0.010 A 
ATOM     36  C   UNL A   1      43.535  23.153  26.802  1.00  0.00    -0.014 A 
BRANCH  36  37
ATOM     37  C   UNL A   1      44.003  24.535  27.077  1.00  0.00     0.031 A 
ATOM     38  C   UNL A   1      43.043  25.572  27.595  1.00  0.00     0.074 A 
ATOM     39  C   UNL A   1      45.273  24.877  26.784  1.00  0.00     0.049 A 
ATOM     40  N   UNL A   1      43.253  26.838  27.842  1.00  0.00    -0.248 NA
ATOM     41  C   UNL A   1      41.658  25.135  27.844  1.00  0.00     0.031 C 
ATOM     42  C   UNL A   1      46.279  23.982  26.206  1.00  0.00     0.029 A 
ATOM     43  N   UNL A   1      45.930  26.076  26.906  1.00  0.00    -0.354 N 
ATOM     44  C   UNL A   1      42.026  27.357  28.242  1.00  0.00     0.074 A 
ATOM     45  C   UNL A   1      41.068  26.276  28.168  1.00  0.00     0.031 C 
ATOM     46  C   UNL A   1      47.424  24.660  26.030  1.00  0.00     0.029 A 
ATOM     47  C   UNL A   1      47.228  26.043  26.450  1.00  0.00     0.049 A 
ATOM     48  H   UNL A   1      45.512  26.883  27.285  1.00  0.00     0.167 HD
ATOM     49  C   UNL A   1      41.730  28.610  28.659  1.00  0.00     0.034 A 
ATOM     50  C   UNL A   1      48.152  27.021  26.368  1.00  0.00     0.034 A 
ATOM     51  C   UNL A   1      42.695  29.671  28.766  1.00  0.00     0.049 A 
ATOM     52  C   UNL A   1      47.803  28.398  26.867  1.00  0.00     0.074 A 
ATOM     53  C   UNL A   1      42.512  30.952  29.257  1.00  0.00     0.029 A 
ATOM     54  N   UNL A   1      44.020  29.579  28.370  1.00  0.00    -0.354 N 
ATOM     55  N   UNL A   1      46.678  28.828  27.384  1.00  0.00    -0.248 NA
ATOM     56  C   UNL A   1      48.863  29.415  26.804  1.00  0.00     0.031 C 
ATOM     57  C   UNL A   1      43.721  31.645  29.128  1.00  0.00     0.029 A 
ATOM     58  C   UNL A   1      44.665  30.784  28.592  1.00  0.00     0.049 A 
ATOM     59  H   UNL A   1      44.440  28.776  27.985  1.00  0.00     0.167 HD
ATOM     60  C   UNL A   1      46.906  30.151  27.745  1.00  0.00     0.074 A 
ATOM     61  C   UNL A   1      48.283  30.445  27.404  1.00  0.00     0.031 C 
ATOM     62  C   UNL A   1      46.050  31.046  28.296  1.00  0.00     0.034 A 
BRANCH  49  63
ATOM     63  C   UNL A   1      40.310  28.892  29.081  1.00  0.00     0.023 A 
ATOM     64  C   UNL A   1      39.336  29.180  28.103  1.00  0.00     0.012 A 
ATOM     65  C   UNL A   1      39.926  28.811  30.434  1.00  0.00     0.148 A 
ATOM     66  C   UNL A   1      38.012  29.419  28.466  1.00  0.00     0.002 A 
ATOM     67  C   UNL A   1      38.594  29.003  30.784  1.00  0.00     0.091 A 
ATOM     68  F   UNL A   1      40.868  28.555  31.352  1.00  0.00    -0.205 F 
ATOM     69  C   UNL A   1      37.639  29.320  29.803  1.00  0.00     0.022 A 
BRANCH  67  70
ATOM     70  S   UNL A   1      37.996  28.818  32.467  1.00  0.00     0.127 S 
ATOM     71  O   UNL A   1      38.906  29.695  33.201  1.00  0.00    -0.237 OA
ATOM     72  O   UNL A   1      36.624  29.314  32.361  1.00  0.00    -0.237 OA
ATOM     73  O   UNL A   1      38.108  27.401  32.781  1.00  0.00    -0.744 OA
ENDBRANCH  67  70
ENDBRANCH  49  63
BRANCH  50  74
ATOM     74  C   UNL A   1      49.514  26.720  25.845  1.00  0.00     0.023 A 
ATOM     75  C   UNL A   1      50.434  26.031  26.661  1.00  0.00     0.012 A 
ATOM     76  C   UNL A   1      49.898  27.093  24.543  1.00  0.00     0.148 A 
ATOM     77  C   UNL A   1      51.722  25.755  26.205  1.00  0.00     0.002 A 
ATOM     78  C   UNL A   1      51.163  26.764  24.073  1.00  0.00     0.091 A 
ATOM     79  F   UNL A   1      49.013  27.756  23.786  1.00  0.00    -0.205 F 
ATOM     80  C   UNL A   1      52.084  26.112  24.908  1.00  0.00     0.022 A 
BRANCH  78  81
ATOM     81  S   UNL A   1      51.669  27.068  22.377  1.00  0.00     0.127 S 
ATOM     82  O   UNL A   1      50.466  26.695  21.635  1.00  0.00    -0.237 OA
ATOM     83  O   UNL A   1      51.960  28.502  22.401  1.00  0.00    -0.237 OA
ATOM     84  O   UNL A   1      52.834  26.223  22.156  1.00  0.00    -0.744 OA
ENDBRANCH  78  81
ENDBRANCH  50  74
BRANCH  62  85
ATOM     85  C   UNL A   1      46.582  32.420  28.611  1.00  0.00     0.023 A 
ATOM     86  C   UNL A   1      47.115  32.695  29.885  1.00  0.00     0.012 A 
ATOM     87  C   UNL A   1      46.620  33.416  27.615  1.00  0.00     0.148 A 
ATOM     88  C   UNL A   1      47.644  33.952  30.175  1.00  0.00     0.002 A 
ATOM     89  C   UNL A   1      47.197  34.648  27.893  1.00  0.00     0.091 A 
ATOM     90  F   UNL A   1      46.093  33.139  26.413  1.00  0.00    -0.205 F 
ATOM     91  C   UNL A   1      47.697  34.923  29.176  1.00  0.00     0.022 A 
BRANCH  89  92
ATOM     92  S   UNL A   1      47.400  35.923  26.643  1.00  0.00     0.127 S 
ATOM     93  O   UNL A   1      46.013  36.302  26.379  1.00  0.00    -0.237 OA
ATOM     94  O   UNL A   1      48.184  36.932  27.357  1.00  0.00    -0.237 OA
ATOM     95  O   UNL A   1      48.097  35.290  25.533  1.00  0.00    -0.744 OA
ENDBRANCH  89  92
ENDBRANCH  62  85
ENDBRANCH  36  37
ENDBRANCH  28  31
ENDBRANCH  26  27
ENDBRANCH  25  26
ENDBRANCH   1  25
TORSDOF 18
ENDMDL
