MODEL 1
REMARK VINA RESULT:     -11.8      0.000      0.000
REMARK SMILES COc1ccc(C(F)(F)F)cc1-c1cccnc1C(=O)NCCCCCCNC(=O)c1ccc(-c2c3nc(c(-c4cccc(S(=O)(=O)[O-])c4F)c4ccc([nH]4)c(-c4cccc(S(=O)(=O)[O-])c4F)c4nc(c(-c5cccc(S(=O)(=O)[O-])c5F)c5ccc2[nH]5)C=C4)C=C3)cc1
REMARK SMILES IDX 25 1 24 2 23 3 22 4 21 5 19 6 20 7 18 9 13 10 14 11 15 12
REMARK SMILES IDX 17 13 16 14 12 15 3 16 4 17 5 18 11 19 6 20 2 21 1 22 7 23
REMARK SMILES IDX 8 24 9 25 10 26 26 27 27 28 28 29 29 30 30 32 31 33 32 34
REMARK SMILES IDX 93 35 33 36 92 37 34 38 35 39 36 40 86 41 37 42 91 43 85 44
REMARK SMILES IDX 87 45 38 46 90 47 84 48 83 49 39 51 71 52 51 53 70 54 52 55
REMARK SMILES IDX 55 56 69 57 88 58 53 59 54 60 68 62 89 63 56 64 40 65 41 66
REMARK SMILES IDX 49 67 42 68 44 69 50 70 43 71 45 72 46 73 47 74 48 75 72 76
REMARK SMILES IDX 73 77 81 78 74 79 76 80 82 81 75 82 77 83 78 84 79 85 80 86
REMARK SMILES IDX 57 87 58 88 66 89 59 90 61 91 67 92 60 93 62 94 63 95 64 96
REMARK SMILES IDX 65 97
REMARK H PARENT 21 8 28 31 87 50 55 61
REMARK Flexibility Score: inf
ROOT
ATOM      1  C   UNL A   1      31.387  30.928  26.037  1.00  0.00     0.002 C 
ENDROOT
BRANCH   1   2
ATOM      2  C   UNL A   1      32.441  29.865  26.368  1.00  0.00     0.002 C 
BRANCH   2   3
ATOM      3  C   UNL A   1      32.053  28.733  27.324  1.00  0.00     0.021 C 
BRANCH   3   4
ATOM      4  C   UNL A   1      31.969  27.321  26.756  1.00  0.00     0.116 C 
BRANCH   4   5
ATOM      5  N   UNL A   1      30.731  26.609  26.903  1.00  0.00    -0.351 N 
ATOM      6  C   UNL A   1      30.248  25.517  26.200  1.00  0.00     0.270 C 
ATOM      7  O   UNL A   1      29.220  25.004  26.659  1.00  0.00    -0.267 OA
ATOM      8  H   UNL A   1      30.133  26.948  27.608  1.00  0.00     0.163 HD
BRANCH   6   9
ATOM      9  C   UNL A   1      30.820  24.949  24.905  1.00  0.00     0.136 A 
ATOM     10  C   UNL A   1      31.097  25.630  23.702  1.00  0.00     0.017 A 
ATOM     11  C   UNL A   1      31.755  24.894  22.688  1.00  0.00     0.013 A 
ATOM     12  C   UNL A   1      32.100  23.562  22.862  1.00  0.00     0.021 A 
ATOM     13  N   UNL A   1      31.158  23.628  25.068  1.00  0.00    -0.250 NA
ATOM     14  C   UNL A   1      31.781  22.977  24.065  1.00  0.00     0.112 A 
BRANCH  10  15
ATOM     15  C   UNL A   1      30.784  27.029  23.390  1.00  0.00     0.027 A 
ATOM     16  C   UNL A   1      31.796  27.985  23.131  1.00  0.00     0.126 A 
ATOM     17  C   UNL A   1      31.465  29.315  22.856  1.00  0.00     0.048 A 
ATOM     18  C   UNL A   1      30.127  29.710  22.814  1.00  0.00     0.017 A 
ATOM     19  C   UNL A   1      29.442  27.459  23.374  1.00  0.00     0.025 A 
ATOM     20  C   UNL A   1      29.101  28.788  23.068  1.00  0.00     0.056 A 
BRANCH  16  21
ATOM     21  O   UNL A   1      33.139  27.720  23.258  1.00  0.00    -0.496 OA
ATOM     22  C   UNL A   1      33.922  28.055  22.114  1.00  0.00     0.278 C 
ENDBRANCH  16  21
BRANCH  20  23
ATOM     23  C   UNL A   1      27.654  29.199  22.939  1.00  0.00     0.416 C 
ATOM     24  F   UNL A   1      26.783  28.246  23.365  1.00  0.00    -0.166 F 
ATOM     25  F   UNL A   1      27.379  30.317  23.667  1.00  0.00    -0.166 F 
ATOM     26  F   UNL A   1      27.290  29.498  21.660  1.00  0.00    -0.166 F 
ENDBRANCH  20  23
ENDBRANCH  10  15
ENDBRANCH   6   9
ENDBRANCH   4   5
ENDBRANCH   3   4
ENDBRANCH   2   3
ENDBRANCH   1   2
BRANCH   1  27
ATOM     27  C   UNL A   1      31.365  32.198  26.891  1.00  0.00     0.021 C 
BRANCH  27  28
ATOM     28  C   UNL A   1      32.703  32.757  27.357  1.00  0.00     0.116 C 
BRANCH  28  29
ATOM     29  N   UNL A   1      32.634  34.156  27.730  1.00  0.00    -0.352 N 
ATOM     30  C   UNL A   1      33.303  34.868  28.696  1.00  0.00     0.251 C 
ATOM     31  H   UNL A   1      31.997  34.688  27.201  1.00  0.00     0.163 HD
ATOM     32  O   UNL A   1      32.963  36.033  28.899  1.00  0.00    -0.269 OA
BRANCH  30  33
ATOM     33  C   UNL A   1      34.410  34.283  29.500  1.00  0.00     0.039 A 
ATOM     34  C   UNL A   1      35.716  34.391  29.002  1.00  0.00     0.014 A 
ATOM     35  C   UNL A   1      34.193  33.556  30.674  1.00  0.00     0.014 A 
ATOM     36  C   UNL A   1      36.787  33.791  29.676  1.00  0.00     0.010 A 
ATOM     37  C   UNL A   1      35.272  33.032  31.392  1.00  0.00     0.010 A 
ATOM     38  C   UNL A   1      36.577  33.108  30.883  1.00  0.00    -0.014 A 
BRANCH  38  39
ATOM     39  C   UNL A   1      37.695  32.411  31.579  1.00  0.00     0.031 A 
ATOM     40  C   UNL A   1      38.407  31.263  30.904  1.00  0.00     0.074 A 
ATOM     41  C   UNL A   1      38.050  32.772  32.828  1.00  0.00     0.049 A 
ATOM     42  N   UNL A   1      39.385  30.517  31.351  1.00  0.00    -0.248 NA
ATOM     43  C   UNL A   1      37.940  30.884  29.559  1.00  0.00     0.031 C 
ATOM     44  C   UNL A   1      37.406  33.820  33.622  1.00  0.00     0.029 A 
ATOM     45  N   UNL A   1      39.032  32.285  33.656  1.00  0.00    -0.354 N 
ATOM     46  C   UNL A   1      39.622  29.565  30.365  1.00  0.00     0.074 A 
ATOM     47  C   UNL A   1      38.657  29.798  29.315  1.00  0.00     0.031 C 
ATOM     48  C   UNL A   1      38.016  33.905  34.816  1.00  0.00     0.029 A 
ATOM     49  C   UNL A   1      39.079  32.906  34.884  1.00  0.00     0.049 A 
ATOM     50  H   UNL A   1      39.645  31.560  33.397  1.00  0.00     0.167 HD
ATOM     51  C   UNL A   1      40.578  28.605  30.315  1.00  0.00     0.034 A 
ATOM     52  C   UNL A   1      39.890  32.700  35.940  1.00  0.00     0.034 A 
ATOM     53  C   UNL A   1      41.575  28.408  31.332  1.00  0.00     0.049 A 
ATOM     54  C   UNL A   1      40.978  31.664  35.839  1.00  0.00     0.074 A 
ATOM     55  C   UNL A   1      42.630  27.513  31.342  1.00  0.00     0.029 A 
ATOM     56  N   UNL A   1      41.644  29.121  32.519  1.00  0.00    -0.354 N 
ATOM     57  N   UNL A   1      41.273  30.868  34.839  1.00  0.00    -0.248 NA
ATOM     58  C   UNL A   1      41.876  31.528  36.997  1.00  0.00     0.031 C 
ATOM     59  C   UNL A   1      43.330  27.676  32.543  1.00  0.00     0.029 A 
ATOM     60  C   UNL A   1      42.725  28.690  33.268  1.00  0.00     0.049 A 
ATOM     61  H   UNL A   1      41.017  29.830  32.789  1.00  0.00     0.167 HD
ATOM     62  C   UNL A   1      42.415  30.176  35.225  1.00  0.00     0.074 A 
ATOM     63  C   UNL A   1      42.768  30.655  36.546  1.00  0.00     0.031 C 
ATOM     64  C   UNL A   1      43.104  29.222  34.552  1.00  0.00     0.034 A 
BRANCH  51  65
ATOM     65  C   UNL A   1      40.626  27.731  29.087  1.00  0.00     0.023 A 
ATOM     66  C   UNL A   1      39.708  26.669  28.954  1.00  0.00     0.012 A 
ATOM     67  C   UNL A   1      41.542  27.983  28.047  1.00  0.00     0.148 A 
ATOM     68  C   UNL A   1      39.728  25.845  27.829  1.00  0.00     0.002 A 
ATOM     69  C   UNL A   1      41.525  27.186  26.906  1.00  0.00     0.091 A 
ATOM     70  F   UNL A   1      42.421  28.983  28.196  1.00  0.00    -0.205 F 
ATOM     71  C   UNL A   1      40.629  26.110  26.802  1.00  0.00     0.022 A 
BRANCH  69  72
ATOM     72  S   UNL A   1      42.593  27.497  25.495  1.00  0.00     0.127 S 
ATOM     73  O   UNL A   1      43.887  27.709  26.146  1.00  0.00    -0.237 OA
ATOM     74  O   UNL A   1      42.489  26.241  24.747  1.00  0.00    -0.237 OA
ATOM     75  O   UNL A   1      42.036  28.654  24.817  1.00  0.00    -0.744 OA
ENDBRANCH  69  72
ENDBRANCH  51  65
BRANCH  52  76
ATOM     76  C   UNL A   1      39.763  33.553  37.156  1.00  0.00     0.023 A 
ATOM     77  C   UNL A   1      40.401  34.809  37.187  1.00  0.00     0.012 A 
ATOM     78  C   UNL A   1      39.002  33.143  38.268  1.00  0.00     0.148 A 
ATOM     79  C   UNL A   1      40.314  35.625  38.316  1.00  0.00     0.002 A 
ATOM     80  C   UNL A   1      38.874  33.984  39.367  1.00  0.00     0.091 A 
ATOM     81  F   UNL A   1      38.412  31.940  38.223  1.00  0.00    -0.205 F 
ATOM     82  C   UNL A   1      39.544  35.218  39.401  1.00  0.00     0.022 A 
BRANCH  80  83
ATOM     83  S   UNL A   1      37.803  33.597  40.756  1.00  0.00     0.127 S 
ATOM     84  O   UNL A   1      37.695  34.893  41.422  1.00  0.00    -0.237 OA
ATOM     85  O   UNL A   1      36.585  33.147  40.082  1.00  0.00    -0.237 OA
ATOM     86  O   UNL A   1      38.493  32.556  41.505  1.00  0.00    -0.744 OA
ENDBRANCH  80  83
ENDBRANCH  52  76
BRANCH  64  87
ATOM     87  C   UNL A   1      44.347  28.666  35.196  1.00  0.00     0.023 A 
ATOM     88  C   UNL A   1      45.586  29.311  35.016  1.00  0.00     0.012 A 
ATOM     89  C   UNL A   1      44.270  27.541  36.043  1.00  0.00     0.148 A 
ATOM     90  C   UNL A   1      46.736  28.826  35.639  1.00  0.00     0.002 A 
ATOM     91  C   UNL A   1      45.410  27.092  36.699  1.00  0.00     0.091 A 
ATOM     92  F   UNL A   1      43.087  26.927  36.186  1.00  0.00    -0.205 F 
ATOM     93  C   UNL A   1      46.646  27.726  36.489  1.00  0.00     0.022 A 
BRANCH  91  94
ATOM     94  S   UNL A   1      45.363  25.747  37.889  1.00  0.00     0.127 S 
ATOM     95  O   UNL A   1      46.762  25.668  38.304  1.00  0.00    -0.237 OA
ATOM     96  O   UNL A   1      44.452  26.263  38.909  1.00  0.00    -0.237 OA
ATOM     97  O   UNL A   1      44.858  24.590  37.162  1.00  0.00    -0.744 OA
ENDBRANCH  91  94
ENDBRANCH  64  87
ENDBRANCH  38  39
ENDBRANCH  30  33
ENDBRANCH  28  29
ENDBRANCH  27  28
ENDBRANCH   1  27
TORSDOF 19
ENDMDL
MODEL 2
REMARK VINA RESULT:     -11.8      3.727      8.840
REMARK SMILES COc1ccc(C(F)(F)F)cc1-c1cccnc1C(=O)NCCCCCCNC(=O)c1ccc(-c2c3nc(c(-c4cccc(S(=O)(=O)[O-])c4F)c4ccc([nH]4)c(-c4cccc(S(=O)(=O)[O-])c4F)c4nc(c(-c5cccc(S(=O)(=O)[O-])c5F)c5ccc2[nH]5)C=C4)C=C3)cc1
REMARK SMILES IDX 25 1 24 2 23 3 22 4 21 5 19 6 20 7 18 9 13 10 14 11 15 12
REMARK SMILES IDX 17 13 16 14 12 15 3 16 4 17 5 18 11 19 6 20 2 21 1 22 7 23
REMARK SMILES IDX 8 24 9 25 10 26 26 27 27 28 28 29 29 30 30 32 31 33 32 34
REMARK SMILES IDX 93 35 33 36 92 37 34 38 35 39 36 40 86 41 37 42 91 43 85 44
REMARK SMILES IDX 87 45 38 46 90 47 84 48 83 49 39 51 71 52 51 53 70 54 52 55
REMARK SMILES IDX 55 56 69 57 88 58 53 59 54 60 68 62 89 63 56 64 40 65 41 66
REMARK SMILES IDX 49 67 42 68 44 69 50 70 43 71 45 72 46 73 47 74 48 75 72 76
REMARK SMILES IDX 73 77 81 78 74 79 76 80 82 81 75 82 77 83 78 84 79 85 80 86
REMARK SMILES IDX 57 87 58 88 66 89 59 90 61 91 67 92 60 93 62 94 63 95 64 96
REMARK SMILES IDX 65 97
REMARK H PARENT 21 8 28 31 87 50 55 61
REMARK Flexibility Score: inf
ROOT
ATOM      1  C   UNL A   1      32.006  27.459  24.103  1.00  0.00     0.002 C 
ENDROOT
BRANCH   1   2
ATOM      2  C   UNL A   1      33.327  26.749  24.420  1.00  0.00     0.002 C 
BRANCH   2   3
ATOM      3  C   UNL A   1      33.760  25.587  23.520  1.00  0.00     0.021 C 
BRANCH   3   4
ATOM      4  C   UNL A   1      32.839  25.198  22.370  1.00  0.00     0.116 C 
BRANCH   4   5
ATOM      5  N   UNL A   1      32.713  23.804  22.051  1.00  0.00    -0.351 N 
ATOM      6  C   UNL A   1      32.266  22.752  22.834  1.00  0.00     0.270 C 
ATOM      7  O   UNL A   1      32.103  21.680  22.238  1.00  0.00    -0.267 OA
ATOM      8  H   UNL A   1      32.986  23.558  21.137  1.00  0.00     0.163 HD
BRANCH   6   9
ATOM      9  C   UNL A   1      32.032  22.781  24.341  1.00  0.00     0.136 A 
ATOM     10  C   UNL A   1      32.770  22.133  25.351  1.00  0.00     0.017 A 
ATOM     11  C   UNL A   1      32.424  22.435  26.690  1.00  0.00     0.013 A 
ATOM     12  C   UNL A   1      31.399  23.317  26.995  1.00  0.00     0.021 A 
ATOM     13  N   UNL A   1      31.012  23.648  24.650  1.00  0.00    -0.250 NA
ATOM     14  C   UNL A   1      30.726  23.895  25.945  1.00  0.00     0.112 A 
BRANCH  10  15
ATOM     15  C   UNL A   1      33.871  21.180  25.164  1.00  0.00     0.027 A 
ATOM     16  C   UNL A   1      35.227  21.563  25.307  1.00  0.00     0.126 A 
ATOM     17  C   UNL A   1      36.253  20.636  25.103  1.00  0.00     0.048 A 
ATOM     18  C   UNL A   1      35.949  19.314  24.773  1.00  0.00     0.017 A 
ATOM     19  C   UNL A   1      33.589  19.850  24.798  1.00  0.00     0.025 A 
ATOM     20  C   UNL A   1      34.615  18.905  24.621  1.00  0.00     0.056 A 
BRANCH  16  21
ATOM     21  O   UNL A   1      35.630  22.860  25.520  1.00  0.00    -0.496 OA
ATOM     22  C   UNL A   1      37.043  23.037  25.610  1.00  0.00     0.278 C 
ENDBRANCH  16  21
BRANCH  20  23
ATOM     23  C   UNL A   1      34.287  17.457  24.346  1.00  0.00     0.416 C 
ATOM     24  F   UNL A   1      34.971  16.590  25.138  1.00  0.00    -0.166 F 
ATOM     25  F   UNL A   1      32.966  17.192  24.545  1.00  0.00    -0.166 F 
ATOM     26  F   UNL A   1      34.546  17.080  23.062  1.00  0.00    -0.166 F 
ENDBRANCH  20  23
ENDBRANCH  10  15
ENDBRANCH   6   9
ENDBRANCH   4   5
ENDBRANCH   3   4
ENDBRANCH   2   3
ENDBRANCH   1   2
BRANCH   1  27
ATOM     27  C   UNL A   1      31.768  28.833  24.733  1.00  0.00     0.021 C 
BRANCH  27  28
ATOM     28  C   UNL A   1      32.835  29.371  25.676  1.00  0.00     0.116 C 
BRANCH  28  29
ATOM     29  N   UNL A   1      32.554  30.712  26.147  1.00  0.00    -0.352 N 
ATOM     30  C   UNL A   1      33.207  31.506  27.058  1.00  0.00     0.251 C 
ATOM     31  H   UNL A   1      31.756  31.125  25.746  1.00  0.00     0.163 HD
ATOM     32  O   UNL A   1      32.682  32.571  27.383  1.00  0.00    -0.269 OA
BRANCH  30  33
ATOM     33  C   UNL A   1      34.512  31.123  27.664  1.00  0.00     0.039 A 
ATOM     34  C   UNL A   1      34.765  29.762  27.879  1.00  0.00     0.014 A 
ATOM     35  C   UNL A   1      35.447  32.063  28.108  1.00  0.00     0.014 A 
ATOM     36  C   UNL A   1      35.941  29.349  28.517  1.00  0.00     0.010 A 
ATOM     37  C   UNL A   1      36.659  31.646  28.667  1.00  0.00     0.010 A 
ATOM     38  C   UNL A   1      36.904  30.288  28.915  1.00  0.00    -0.014 A 
BRANCH  38  39
ATOM     39  C   UNL A   1      38.130  29.870  29.651  1.00  0.00     0.031 A 
ATOM     40  C   UNL A   1      38.372  30.363  31.058  1.00  0.00     0.074 A 
ATOM     41  C   UNL A   1      39.049  29.085  29.054  1.00  0.00     0.049 A 
ATOM     42  N   UNL A   1      39.384  30.132  31.854  1.00  0.00    -0.248 NA
ATOM     43  C   UNL A   1      37.355  31.258  31.637  1.00  0.00     0.031 C 
ATOM     44  C   UNL A   1      38.974  28.590  27.678  1.00  0.00     0.029 A 
ATOM     45  N   UNL A   1      40.237  28.580  29.525  1.00  0.00    -0.354 N 
ATOM     46  C   UNL A   1      39.145  30.877  33.005  1.00  0.00     0.074 A 
ATOM     47  C   UNL A   1      37.915  31.603  32.786  1.00  0.00     0.031 C 
ATOM     48  C   UNL A   1      40.060  27.842  27.420  1.00  0.00     0.029 A 
ATOM     49  C   UNL A   1      40.920  27.822  28.601  1.00  0.00     0.049 A 
ATOM     50  H   UNL A   1      40.568  28.743  30.437  1.00  0.00     0.167 HD
ATOM     51  C   UNL A   1      39.860  30.928  34.155  1.00  0.00     0.034 A 
ATOM     52  C   UNL A   1      42.100  27.178  28.696  1.00  0.00     0.034 A 
ATOM     53  C   UNL A   1      41.054  30.162  34.396  1.00  0.00     0.049 A 
ATOM     54  C   UNL A   1      42.849  27.206  30.002  1.00  0.00     0.074 A 
ATOM     55  C   UNL A   1      41.810  30.087  35.551  1.00  0.00     0.029 A 
ATOM     56  N   UNL A   1      41.662  29.335  33.465  1.00  0.00    -0.354 N 
ATOM     57  N   UNL A   1      42.532  27.805  31.124  1.00  0.00    -0.248 NA
ATOM     58  C   UNL A   1      44.098  26.431  30.069  1.00  0.00     0.031 C 
ATOM     59  C   UNL A   1      42.886  29.224  35.315  1.00  0.00     0.029 A 
ATOM     60  C   UNL A   1      42.782  28.742  34.020  1.00  0.00     0.049 A 
ATOM     61  H   UNL A   1      41.344  29.190  32.545  1.00  0.00     0.167 HD
ATOM     62  C   UNL A   1      43.511  27.441  32.042  1.00  0.00     0.074 A 
ATOM     63  C   UNL A   1      44.426  26.557  31.348  1.00  0.00     0.031 C 
ATOM     64  C   UNL A   1      43.647  27.812  33.339  1.00  0.00     0.034 A 
BRANCH  51  65
ATOM     65  C   UNL A   1      39.334  31.801  35.266  1.00  0.00     0.023 A 
ATOM     66  C   UNL A   1      38.382  31.280  36.167  1.00  0.00     0.012 A 
ATOM     67  C   UNL A   1      39.808  33.114  35.449  1.00  0.00     0.148 A 
ATOM     68  C   UNL A   1      37.879  32.064  37.205  1.00  0.00     0.002 A 
ATOM     69  C   UNL A   1      39.336  33.875  36.515  1.00  0.00     0.091 A 
ATOM     70  F   UNL A   1      40.697  33.602  34.574  1.00  0.00    -0.205 F 
ATOM     71  C   UNL A   1      38.363  33.356  37.384  1.00  0.00     0.022 A 
BRANCH  69  72
ATOM     72  S   UNL A   1      39.958  35.521  36.877  1.00  0.00     0.127 S 
ATOM     73  O   UNL A   1      41.401  35.281  36.944  1.00  0.00    -0.237 OA
ATOM     74  O   UNL A   1      39.524  36.280  35.701  1.00  0.00    -0.237 OA
ATOM     75  O   UNL A   1      39.331  35.923  38.123  1.00  0.00    -0.744 OA
ENDBRANCH  69  72
ENDBRANCH  51  65
BRANCH  52  76
ATOM     76  C   UNL A   1      42.607  26.375  27.545  1.00  0.00     0.023 A 
ATOM     77  C   UNL A   1      43.498  26.970  26.630  1.00  0.00     0.012 A 
ATOM     78  C   UNL A   1      42.234  25.030  27.364  1.00  0.00     0.148 A 
ATOM     79  C   UNL A   1      43.979  26.250  25.535  1.00  0.00     0.002 A 
ATOM     80  C   UNL A   1      42.760  24.303  26.303  1.00  0.00     0.091 A 
ATOM     81  F   UNL A   1      41.376  24.487  28.240  1.00  0.00    -0.205 F 
ATOM     82  C   UNL A   1      43.619  24.916  25.376  1.00  0.00     0.022 A 
BRANCH  80  83
ATOM     83  S   UNL A   1      42.449  22.547  26.091  1.00  0.00     0.127 S 
ATOM     84  O   UNL A   1      43.119  22.274  24.822  1.00  0.00    -0.237 OA
ATOM     85  O   UNL A   1      43.106  21.980  27.269  1.00  0.00    -0.237 OA
ATOM     86  O   UNL A   1      41.000  22.403  26.085  1.00  0.00    -0.744 OA
ENDBRANCH  80  83
ENDBRANCH  52  76
BRANCH  64  87
ATOM     87  C   UNL A   1      44.791  27.223  34.122  1.00  0.00     0.023 A 
ATOM     88  C   UNL A   1      46.041  27.873  34.145  1.00  0.00     0.012 A 
ATOM     89  C   UNL A   1      44.602  26.060  34.897  1.00  0.00     0.148 A 
ATOM     90  C   UNL A   1      47.096  27.357  34.896  1.00  0.00     0.002 A 
ATOM     91  C   UNL A   1      45.643  25.579  35.683  1.00  0.00     0.091 A 
ATOM     92  F   UNL A   1      43.413  25.443  34.847  1.00  0.00    -0.205 F 
ATOM     93  C   UNL A   1      46.894  26.219  35.674  1.00  0.00     0.022 A 
BRANCH  91  94
ATOM     94  S   UNL A   1      45.439  24.180  36.791  1.00  0.00     0.127 S 
ATOM     95  O   UNL A   1      44.383  24.656  37.681  1.00  0.00    -0.237 OA
ATOM     96  O   UNL A   1      45.031  23.114  35.876  1.00  0.00    -0.237 OA
ATOM     97  O   UNL A   1      46.739  23.972  37.414  1.00  0.00    -0.744 OA
ENDBRANCH  91  94
ENDBRANCH  64  87
ENDBRANCH  38  39
ENDBRANCH  30  33
ENDBRANCH  28  29
ENDBRANCH  27  28
ENDBRANCH   1  27
TORSDOF 19
ENDMDL
MODEL 3
REMARK VINA RESULT:     -11.6      4.492      9.097
REMARK SMILES COc1ccc(C(F)(F)F)cc1-c1cccnc1C(=O)NCCCCCCNC(=O)c1ccc(-c2c3nc(c(-c4cccc(S(=O)(=O)[O-])c4F)c4ccc([nH]4)c(-c4cccc(S(=O)(=O)[O-])c4F)c4nc(c(-c5cccc(S(=O)(=O)[O-])c5F)c5ccc2[nH]5)C=C4)C=C3)cc1
REMARK SMILES IDX 25 1 24 2 23 3 22 4 21 5 19 6 20 7 18 9 13 10 14 11 15 12
REMARK SMILES IDX 17 13 16 14 12 15 3 16 4 17 5 18 11 19 6 20 2 21 1 22 7 23
REMARK SMILES IDX 8 24 9 25 10 26 26 27 27 28 28 29 29 30 30 32 31 33 32 34
REMARK SMILES IDX 93 35 33 36 92 37 34 38 35 39 36 40 86 41 37 42 91 43 85 44
REMARK SMILES IDX 87 45 38 46 90 47 84 48 83 49 39 51 71 52 51 53 70 54 52 55
REMARK SMILES IDX 55 56 69 57 88 58 53 59 54 60 68 62 89 63 56 64 40 65 41 66
REMARK SMILES IDX 49 67 42 68 44 69 50 70 43 71 45 72 46 73 47 74 48 75 72 76
REMARK SMILES IDX 73 77 81 78 74 79 76 80 82 81 75 82 77 83 78 84 79 85 80 86
REMARK SMILES IDX 57 87 58 88 66 89 59 90 61 91 67 92 60 93 62 94 63 95 64 96
REMARK SMILES IDX 65 97
REMARK H PARENT 21 8 28 31 87 50 55 61
REMARK Flexibility Score: inf
ROOT
ATOM      1  C   UNL A   1      31.763  28.075  26.095  1.00  0.00     0.002 C 
ENDROOT
BRANCH   1   2
ATOM      2  C   UNL A   1      31.534  26.617  26.511  1.00  0.00     0.002 C 
BRANCH   2   3
ATOM      3  C   UNL A   1      32.427  25.538  25.890  1.00  0.00     0.021 C 
BRANCH   3   4
ATOM      4  C   UNL A   1      31.841  24.141  25.723  1.00  0.00     0.116 C 
BRANCH   4   5
ATOM      5  N   UNL A   1      32.177  23.148  26.703  1.00  0.00    -0.351 N 
ATOM      6  C   UNL A   1      33.387  22.519  26.949  1.00  0.00     0.270 C 
ATOM      7  O   UNL A   1      33.426  21.827  27.973  1.00  0.00    -0.267 OA
ATOM      8  H   UNL A   1      31.436  22.869  27.288  1.00  0.00     0.163 HD
BRANCH   6   9
ATOM      9  C   UNL A   1      34.622  22.549  26.053  1.00  0.00     0.136 A 
ATOM     10  C   UNL A   1      34.898  21.755  24.922  1.00  0.00     0.017 A 
ATOM     11  C   UNL A   1      36.061  22.077  24.183  1.00  0.00     0.013 A 
ATOM     12  C   UNL A   1      36.897  23.118  24.559  1.00  0.00     0.021 A 
ATOM     13  N   UNL A   1      35.458  23.574  26.424  1.00  0.00    -0.250 NA
ATOM     14  C   UNL A   1      36.554  23.833  25.682  1.00  0.00     0.112 A 
BRANCH  10  15
ATOM     15  C   UNL A   1      34.101  20.629  24.421  1.00  0.00     0.027 A 
ATOM     16  C   UNL A   1      32.906  20.823  23.686  1.00  0.00     0.126 A 
ATOM     17  C   UNL A   1      32.160  19.730  23.239  1.00  0.00     0.048 A 
ATOM     18  C   UNL A   1      32.597  18.429  23.498  1.00  0.00     0.017 A 
ATOM     19  C   UNL A   1      34.505  19.308  24.698  1.00  0.00     0.025 A 
ATOM     20  C   UNL A   1      33.775  18.204  24.225  1.00  0.00     0.056 A 
BRANCH  16  21
ATOM     21  O   UNL A   1      32.338  22.058  23.477  1.00  0.00    -0.496 OA
ATOM     22  C   UNL A   1      32.841  22.760  22.341  1.00  0.00     0.278 C 
ENDBRANCH  16  21
BRANCH  20  23
ATOM     23  C   UNL A   1      34.289  16.798  24.431  1.00  0.00     0.416 C 
ATOM     24  F   UNL A   1      35.506  16.753  25.033  1.00  0.00    -0.166 F 
ATOM     25  F   UNL A   1      33.450  16.063  25.213  1.00  0.00    -0.166 F 
ATOM     26  F   UNL A   1      34.415  16.096  23.270  1.00  0.00    -0.166 F 
ENDBRANCH  20  23
ENDBRANCH  10  15
ENDBRANCH   6   9
ENDBRANCH   4   5
ENDBRANCH   3   4
ENDBRANCH   2   3
ENDBRANCH   1   2
BRANCH   1  27
ATOM     27  C   UNL A   1      32.247  29.053  27.168  1.00  0.00     0.021 C 
BRANCH  27  28
ATOM     28  C   UNL A   1      33.661  29.601  27.035  1.00  0.00     0.116 C 
BRANCH  28  29
ATOM     29  N   UNL A   1      33.746  31.023  27.301  1.00  0.00    -0.352 N 
ATOM     30  C   UNL A   1      34.635  31.750  28.055  1.00  0.00     0.251 C 
ATOM     31  H   UNL A   1      33.044  31.561  26.869  1.00  0.00     0.163 HD
ATOM     32  O   UNL A   1      34.407  32.947  28.228  1.00  0.00    -0.269 OA
BRANCH  30  33
ATOM     33  C   UNL A   1      35.849  31.145  28.667  1.00  0.00     0.039 A 
ATOM     34  C   UNL A   1      37.090  31.740  28.400  1.00  0.00     0.014 A 
ATOM     35  C   UNL A   1      35.814  29.965  29.416  1.00  0.00     0.014 A 
ATOM     36  C   UNL A   1      38.273  31.169  28.884  1.00  0.00     0.010 A 
ATOM     37  C   UNL A   1      36.986  29.444  29.972  1.00  0.00     0.010 A 
ATOM     38  C   UNL A   1      38.234  30.015  29.681  1.00  0.00    -0.014 A 
BRANCH  38  39
ATOM     39  C   UNL A   1      39.486  29.360  30.150  1.00  0.00     0.031 A 
ATOM     40  C   UNL A   1      40.181  29.860  31.394  1.00  0.00     0.074 A 
ATOM     41  C   UNL A   1      40.029  28.345  29.447  1.00  0.00     0.049 A 
ATOM     42  N   UNL A   1      41.289  29.439  31.950  1.00  0.00    -0.248 NA
ATOM     43  C   UNL A   1      39.566  31.003  32.090  1.00  0.00     0.031 C 
ATOM     44  C   UNL A   1      39.498  27.804  28.195  1.00  0.00     0.029 A 
ATOM     45  N   UNL A   1      41.158  27.598  29.680  1.00  0.00    -0.354 N 
ATOM     46  C   UNL A   1      41.520  30.284  33.031  1.00  0.00     0.074 A 
ATOM     47  C   UNL A   1      40.463  31.269  33.027  1.00  0.00     0.031 C 
ATOM     48  C   UNL A   1      40.292  26.806  27.776  1.00  0.00     0.029 A 
ATOM     49  C   UNL A   1      41.400  26.647  28.714  1.00  0.00     0.049 A 
ATOM     50  H   UNL A   1      41.739  27.729  30.463  1.00  0.00     0.167 HD
ATOM     51  C   UNL A   1      42.499  30.228  33.967  1.00  0.00     0.034 A 
ATOM     52  C   UNL A   1      42.396  25.747  28.601  1.00  0.00     0.034 A 
ATOM     53  C   UNL A   1      43.519  29.215  34.006  1.00  0.00     0.049 A 
ATOM     54  C   UNL A   1      43.442  25.669  29.682  1.00  0.00     0.074 A 
ATOM     55  C   UNL A   1      44.511  29.027  34.951  1.00  0.00     0.029 A 
ATOM     56  N   UNL A   1      43.674  28.214  33.059  1.00  0.00    -0.354 N 
ATOM     57  N   UNL A   1      43.561  26.390  30.771  1.00  0.00    -0.248 NA
ATOM     58  C   UNL A   1      44.468  24.623  29.541  1.00  0.00     0.031 C 
ATOM     59  C   UNL A   1      45.276  27.919  34.568  1.00  0.00     0.029 A 
ATOM     60  C   UNL A   1      44.742  27.403  33.399  1.00  0.00     0.049 A 
ATOM     61  H   UNL A   1      43.106  28.097  32.263  1.00  0.00     0.167 HD
ATOM     62  C   UNL A   1      44.640  25.855  31.467  1.00  0.00     0.074 A 
ATOM     63  C   UNL A   1      45.132  24.740  30.684  1.00  0.00     0.031 C 
ATOM     64  C   UNL A   1      45.180  26.256  32.645  1.00  0.00     0.034 A 
BRANCH  51  65
ATOM     65  C   UNL A   1      42.477  31.264  35.063  1.00  0.00     0.023 A 
ATOM     66  C   UNL A   1      41.823  30.975  36.279  1.00  0.00     0.012 A 
ATOM     67  C   UNL A   1      43.137  32.499  34.913  1.00  0.00     0.148 A 
ATOM     68  C   UNL A   1      41.788  31.913  37.310  1.00  0.00     0.002 A 
ATOM     69  C   UNL A   1      43.138  33.411  35.964  1.00  0.00     0.091 A 
ATOM     70  F   UNL A   1      43.737  32.767  33.745  1.00  0.00    -0.205 F 
ATOM     71  C   UNL A   1      42.453  33.125  37.156  1.00  0.00     0.022 A 
BRANCH  69  72
ATOM     72  S   UNL A   1      44.035  34.966  35.892  1.00  0.00     0.127 S 
ATOM     73  O   UNL A   1      43.945  35.422  37.281  1.00  0.00    -0.237 OA
ATOM     74  O   UNL A   1      45.373  34.532  35.482  1.00  0.00    -0.237 OA
ATOM     75  O   UNL A   1      43.338  35.787  34.917  1.00  0.00    -0.744 OA
ENDBRANCH  69  72
ENDBRANCH  51  65
BRANCH  52  76
ATOM     76  C   UNL A   1      42.405  24.782  27.464  1.00  0.00     0.023 A 
ATOM     77  C   UNL A   1      43.194  25.060  26.330  1.00  0.00     0.012 A 
ATOM     78  C   UNL A   1      41.660  23.588  27.506  1.00  0.00     0.148 A 
ATOM     79  C   UNL A   1      43.213  24.185  25.243  1.00  0.00     0.002 A 
ATOM     80  C   UNL A   1      41.727  22.694  26.443  1.00  0.00     0.091 A 
ATOM     81  F   UNL A   1      40.908  23.347  28.588  1.00  0.00    -0.205 F 
ATOM     82  C   UNL A   1      42.488  22.999  25.303  1.00  0.00     0.022 A 
BRANCH  80  83
ATOM     83  S   UNL A   1      40.926  21.087  26.485  1.00  0.00     0.127 S 
ATOM     84  O   UNL A   1      39.613  21.390  25.923  1.00  0.00    -0.237 OA
ATOM     85  O   UNL A   1      41.799  20.292  25.620  1.00  0.00    -0.237 OA
ATOM     86  O   UNL A   1      40.938  20.680  27.883  1.00  0.00    -0.744 OA
ENDBRANCH  80  83
ENDBRANCH  52  76
BRANCH  64  87
ATOM     87  C   UNL A   1      46.331  25.457  33.198  1.00  0.00     0.023 A 
ATOM     88  C   UNL A   1      47.657  25.865  32.955  1.00  0.00     0.012 A 
ATOM     89  C   UNL A   1      46.091  24.339  34.023  1.00  0.00     0.148 A 
ATOM     90  C   UNL A   1      48.728  25.154  33.494  1.00  0.00     0.002 A 
ATOM     91  C   UNL A   1      47.162  23.664  34.597  1.00  0.00     0.091 A 
ATOM     92  F   UNL A   1      44.824  23.952  34.227  1.00  0.00    -0.205 F 
ATOM     93  C   UNL A   1      48.481  24.062  34.324  1.00  0.00     0.022 A 
BRANCH  91  94
ATOM     94  S   UNL A   1      46.932  22.313  35.758  1.00  0.00     0.127 S 
ATOM     95  O   UNL A   1      48.312  21.939  36.058  1.00  0.00    -0.237 OA
ATOM     96  O   UNL A   1      46.223  22.964  36.860  1.00  0.00    -0.237 OA
ATOM     97  O   UNL A   1      46.149  21.309  35.050  1.00  0.00    -0.744 OA
ENDBRANCH  91  94
ENDBRANCH  64  87
ENDBRANCH  38  39
ENDBRANCH  30  33
ENDBRANCH  28  29
ENDBRANCH  27  28
ENDBRANCH   1  27
TORSDOF 19
ENDMDL
