MODEL 1
REMARK VINA RESULT:     -11.5      0.000      0.000
REMARK SMILES CN(CC(=O)NCCCCCCNC(=O)c1ccc(-c2c3nc(c(-c4cccc(S(=O)(=O)[O-])c4F)c4ccc([nH]4)c(-c4cccc(S(=O)(=O)[O-])c4F)c4nc(c(-c5cccc(S(=O)(=O)[O-])c5F)c5ccc2[nH]5)C=C4)C=C3)cc1)C(=O)N[C@@H]1C[C@H]1c1ccccc1
REMARK SMILES IDX 9 1 8 2 7 3 6 4 4 5 5 6 3 8 2 9 1 10 79 11 80 12 81 13 82 15
REMARK SMILES IDX 83 16 84 17 85 18 86 19 90 20 87 21 89 22 88 23 10 24 11 25
REMARK SMILES IDX 12 26 13 27 14 28 15 30 16 31 17 32 78 33 18 34 77 35 19 36
REMARK SMILES IDX 20 37 21 38 71 39 22 40 76 41 70 42 72 43 23 44 75 45 69 46
REMARK SMILES IDX 68 47 24 49 56 50 36 51 55 52 37 53 40 54 54 55 73 56 38 57
REMARK SMILES IDX 39 58 53 60 74 61 41 62 25 63 26 64 34 65 27 66 29 67 35 68
REMARK SMILES IDX 28 69 30 70 31 71 32 72 33 73 57 74 58 75 66 76 59 77 61 78
REMARK SMILES IDX 67 79 60 80 62 81 63 82 64 83 65 84 42 85 43 86 51 87 44 88
REMARK SMILES IDX 46 89 52 90 45 91 47 92 48 93 49 94 50 95
REMARK H PARENT 6 7 81 14 13 29 72 48 40 59
REMARK Flexibility Score: inf
ROOT
ATOM      1  C   UNL A   1      32.385  29.811  27.028  1.00  0.00     0.002 C 
ENDROOT
BRANCH   1   2
ATOM      2  C   UNL A   1      31.834  28.384  27.150  1.00  0.00     0.021 C 
BRANCH   2   3
ATOM      3  C   UNL A   1      31.425  27.757  25.822  1.00  0.00     0.116 C 
BRANCH   3   4
ATOM      4  N   UNL A   1      32.558  27.480  24.973  1.00  0.00    -0.355 N 
ATOM      5  C   UNL A   1      32.855  26.331  24.306  1.00  0.00     0.239 C 
ATOM      6  O   UNL A   1      33.639  26.420  23.355  1.00  0.00    -0.273 OA
ATOM      7  H   UNL A   1      33.202  28.217  24.862  1.00  0.00     0.163 HD
BRANCH   5   8
ATOM      8  C   UNL A   1      32.116  25.021  24.609  1.00  0.00     0.220 C 
BRANCH   8   9
ATOM      9  N   UNL A   1      32.633  24.180  25.694  1.00  0.00    -0.319 N 
ATOM     10  C   UNL A   1      33.983  24.477  26.170  1.00  0.00     0.149 C 
BRANCH   9  11
ATOM     11  C   UNL A   1      31.938  23.281  26.462  1.00  0.00     0.317 C 
ATOM     12  O   UNL A   1      31.128  23.660  27.316  1.00  0.00    -0.249 OA
ATOM     13  N   UNL A   1      32.066  21.940  26.345  1.00  0.00    -0.335 N 
ATOM     14  H   UNL A   1      31.445  21.448  26.929  1.00  0.00     0.165 HD
BRANCH  13  15
ATOM     15  C   UNL A   1      32.892  21.079  25.573  1.00  0.00     0.092 C 
ATOM     16  C   UNL A   1      32.786  20.995  24.079  1.00  0.00     0.036 C 
ATOM     17  C   UNL A   1      32.282  19.849  24.907  1.00  0.00     0.044 C 
BRANCH  17  18
ATOM     18  C   UNL A   1      33.016  18.526  24.948  1.00  0.00    -0.043 A 
ATOM     19  C   UNL A   1      32.512  17.401  25.623  1.00  0.00     0.004 A 
ATOM     20  C   UNL A   1      34.273  18.394  24.336  1.00  0.00     0.004 A 
ATOM     21  C   UNL A   1      33.223  16.199  25.679  1.00  0.00     0.000 A 
ATOM     22  C   UNL A   1      34.995  17.198  24.397  1.00  0.00     0.000 A 
ATOM     23  C   UNL A   1      34.469  16.100  25.069  1.00  0.00     0.000 A 
ENDBRANCH  17  18
ENDBRANCH  13  15
ENDBRANCH   9  11
ENDBRANCH   8   9
ENDBRANCH   5   8
ENDBRANCH   3   4
ENDBRANCH   2   3
ENDBRANCH   1   2
BRANCH   1  24
ATOM     24  C   UNL A   1      31.543  30.768  26.177  1.00  0.00     0.002 C 
BRANCH  24  25
ATOM     25  C   UNL A   1      31.439  32.198  26.714  1.00  0.00     0.021 C 
BRANCH  25  26
ATOM     26  C   UNL A   1      32.763  32.809  27.147  1.00  0.00     0.116 C 
BRANCH  26  27
ATOM     27  N   UNL A   1      32.596  34.165  27.641  1.00  0.00    -0.352 N 
ATOM     28  C   UNL A   1      33.192  34.768  28.718  1.00  0.00     0.251 C 
ATOM     29  H   UNL A   1      31.970  34.728  27.131  1.00  0.00     0.163 HD
ATOM     30  O   UNL A   1      32.772  35.853  29.122  1.00  0.00    -0.269 OA
BRANCH  28  31
ATOM     31  C   UNL A   1      34.326  34.110  29.398  1.00  0.00     0.039 A 
ATOM     32  C   UNL A   1      35.628  34.424  29.000  1.00  0.00     0.014 A 
ATOM     33  C   UNL A   1      34.110  33.177  30.416  1.00  0.00     0.014 A 
ATOM     34  C   UNL A   1      36.711  33.827  29.647  1.00  0.00     0.010 A 
ATOM     35  C   UNL A   1      35.190  32.648  31.116  1.00  0.00     0.010 A 
ATOM     36  C   UNL A   1      36.503  32.949  30.726  1.00  0.00    -0.014 A 
BRANCH  36  37
ATOM     37  C   UNL A   1      37.649  32.335  31.443  1.00  0.00     0.031 A 
ATOM     38  C   UNL A   1      38.424  31.207  30.810  1.00  0.00     0.074 A 
ATOM     39  C   UNL A   1      37.953  32.746  32.691  1.00  0.00     0.049 A 
ATOM     40  N   UNL A   1      39.442  30.539  31.289  1.00  0.00    -0.248 NA
ATOM     41  C   UNL A   1      37.983  30.751  29.480  1.00  0.00     0.031 C 
ATOM     42  C   UNL A   1      37.224  33.767  33.447  1.00  0.00     0.029 A 
ATOM     43  N   UNL A   1      38.939  32.337  33.554  1.00  0.00    -0.354 N 
ATOM     44  C   UNL A   1      39.732  29.560  30.345  1.00  0.00     0.074 A 
ATOM     45  C   UNL A   1      38.770  29.704  29.276  1.00  0.00     0.031 C 
ATOM     46  C   UNL A   1      37.789  33.906  34.657  1.00  0.00     0.029 A 
ATOM     47  C   UNL A   1      38.899  32.967  34.776  1.00  0.00     0.049 A 
ATOM     48  H   UNL A   1      39.611  31.656  33.320  1.00  0.00     0.167 HD
ATOM     49  C   UNL A   1      40.724  28.640  30.358  1.00  0.00     0.034 A 
ATOM     50  C   UNL A   1      39.666  32.801  35.872  1.00  0.00     0.034 A 
ATOM     51  C   UNL A   1      41.712  28.535  31.397  1.00  0.00     0.049 A 
ATOM     52  C   UNL A   1      40.803  31.814  35.826  1.00  0.00     0.074 A 
ATOM     53  C   UNL A   1      42.825  27.713  31.444  1.00  0.00     0.029 A 
ATOM     54  N   UNL A   1      41.701  29.261  32.576  1.00  0.00    -0.354 N 
ATOM     55  N   UNL A   1      41.173  31.028  34.846  1.00  0.00    -0.248 NA
ATOM     56  C   UNL A   1      41.654  31.727  37.020  1.00  0.00     0.031 C 
ATOM     57  C   UNL A   1      43.465  27.914  32.669  1.00  0.00     0.029 A 
ATOM     58  C   UNL A   1      42.778  28.894  33.366  1.00  0.00     0.049 A 
ATOM     59  H   UNL A   1      41.028  29.938  32.817  1.00  0.00     0.167 HD
ATOM     60  C   UNL A   1      42.324  30.385  35.289  1.00  0.00     0.074 A 
ATOM     61  C   UNL A   1      42.602  30.893  36.616  1.00  0.00     0.031 C 
ATOM     62  C   UNL A   1      43.076  29.449  34.660  1.00  0.00     0.034 A 
BRANCH  49  63
ATOM     63  C   UNL A   1      40.825  27.686  29.196  1.00  0.00     0.023 A 
ATOM     64  C   UNL A   1      39.997  26.547  29.146  1.00  0.00     0.012 A 
ATOM     65  C   UNL A   1      41.672  27.974  28.107  1.00  0.00     0.148 A 
ATOM     66  C   UNL A   1      40.026  25.696  28.041  1.00  0.00     0.002 A 
ATOM     67  C   UNL A   1      41.660  27.150  26.989  1.00  0.00     0.091 A 
ATOM     68  F   UNL A   1      42.465  29.052  28.185  1.00  0.00    -0.205 F 
ATOM     69  C   UNL A   1      40.846  26.005  26.959  1.00  0.00     0.022 A 
BRANCH  67  70
ATOM     70  S   UNL A   1      42.611  27.509  25.509  1.00  0.00     0.127 S 
ATOM     71  O   UNL A   1      43.968  27.596  26.045  1.00  0.00    -0.237 OA
ATOM     72  O   UNL A   1      42.354  26.326  24.687  1.00  0.00    -0.237 OA
ATOM     73  O   UNL A   1      42.074  28.752  24.974  1.00  0.00    -0.744 OA
ENDBRANCH  67  70
ENDBRANCH  49  63
BRANCH  50  74
ATOM     74  C   UNL A   1      39.418  33.616  37.096  1.00  0.00     0.023 A 
ATOM     75  C   UNL A   1      39.910  34.934  37.169  1.00  0.00     0.012 A 
ATOM     76  C   UNL A   1      38.708  33.088  38.191  1.00  0.00     0.148 A 
ATOM     77  C   UNL A   1      39.746  35.693  38.329  1.00  0.00     0.002 A 
ATOM     78  C   UNL A   1      38.494  33.870  39.320  1.00  0.00     0.091 A 
ATOM     79  F   UNL A   1      38.255  31.830  38.109  1.00  0.00    -0.205 F 
ATOM     80  C   UNL A   1      39.031  35.164  39.401  1.00  0.00     0.022 A 
BRANCH  78  81
ATOM     81  S   UNL A   1      37.470  33.315  40.687  1.00  0.00     0.127 S 
ATOM     82  O   UNL A   1      37.385  34.522  41.506  1.00  0.00    -0.237 OA
ATOM     83  O   UNL A   1      36.229  32.943  40.006  1.00  0.00    -0.237 OA
ATOM     84  O   UNL A   1      38.184  32.193  41.279  1.00  0.00    -0.744 OA
ENDBRANCH  78  81
ENDBRANCH  50  74
BRANCH  62  85
ATOM     85  C   UNL A   1      44.310  28.952  35.367  1.00  0.00     0.023 A 
ATOM     86  C   UNL A   1      45.560  29.553  35.124  1.00  0.00     0.012 A 
ATOM     87  C   UNL A   1      44.215  27.918  36.321  1.00  0.00     0.148 A 
ATOM     88  C   UNL A   1      46.703  29.104  35.783  1.00  0.00     0.002 A 
ATOM     89  C   UNL A   1      45.348  27.513  37.015  1.00  0.00     0.091 A 
ATOM     90  F   UNL A   1      43.020  27.343  36.527  1.00  0.00    -0.205 F 
ATOM     91  C   UNL A   1      46.595  28.093  36.736  1.00  0.00     0.022 A 
BRANCH  89  92
ATOM     92  S   UNL A   1      45.281  26.292  38.331  1.00  0.00     0.127 S 
ATOM     93  O   UNL A   1      44.789  25.115  37.619  1.00  0.00    -0.237 OA
ATOM     94  O   UNL A   1      46.681  26.211  38.750  1.00  0.00    -0.237 OA
ATOM     95  O   UNL A   1      44.381  26.839  39.338  1.00  0.00    -0.744 OA
ENDBRANCH  89  92
ENDBRANCH  62  85
ENDBRANCH  36  37
ENDBRANCH  28  31
ENDBRANCH  26  27
ENDBRANCH  25  26
ENDBRANCH  24  25
ENDBRANCH   1  24
TORSDOF 20
ENDMDL
MODEL 2
REMARK VINA RESULT:     -11.4      5.689     11.515
REMARK SMILES CN(CC(=O)NCCCCCCNC(=O)c1ccc(-c2c3nc(c(-c4cccc(S(=O)(=O)[O-])c4F)c4ccc([nH]4)c(-c4cccc(S(=O)(=O)[O-])c4F)c4nc(c(-c5cccc(S(=O)(=O)[O-])c5F)c5ccc2[nH]5)C=C4)C=C3)cc1)C(=O)N[C@@H]1C[C@H]1c1ccccc1
REMARK SMILES IDX 9 1 8 2 7 3 6 4 4 5 5 6 3 8 2 9 1 10 79 11 80 12 81 13 82 15
REMARK SMILES IDX 83 16 84 17 85 18 86 19 90 20 87 21 89 22 88 23 10 24 11 25
REMARK SMILES IDX 12 26 13 27 14 28 15 30 16 31 17 32 78 33 18 34 77 35 19 36
REMARK SMILES IDX 20 37 21 38 71 39 22 40 76 41 70 42 72 43 23 44 75 45 69 46
REMARK SMILES IDX 68 47 24 49 56 50 36 51 55 52 37 53 40 54 54 55 73 56 38 57
REMARK SMILES IDX 39 58 53 60 74 61 41 62 25 63 26 64 34 65 27 66 29 67 35 68
REMARK SMILES IDX 28 69 30 70 31 71 32 72 33 73 57 74 58 75 66 76 59 77 61 78
REMARK SMILES IDX 67 79 60 80 62 81 63 82 64 83 65 84 42 85 43 86 51 87 44 88
REMARK SMILES IDX 46 89 52 90 45 91 47 92 48 93 49 94 50 95
REMARK H PARENT 6 7 81 14 13 29 72 48 40 59
REMARK Flexibility Score: inf
ROOT
ATOM      1  C   UNL A   1      37.491  22.200  24.788  1.00  0.00     0.002 C 
ENDROOT
BRANCH   1   2
ATOM      2  C   UNL A   1      36.793  23.073  23.738  1.00  0.00     0.021 C 
BRANCH   2   3
ATOM      3  C   UNL A   1      35.271  23.051  23.818  1.00  0.00     0.116 C 
BRANCH   3   4
ATOM      4  N   UNL A   1      34.684  24.323  23.470  1.00  0.00    -0.355 N 
ATOM      5  C   UNL A   1      33.916  25.139  24.242  1.00  0.00     0.239 C 
ATOM      6  O   UNL A   1      33.837  26.324  23.901  1.00  0.00    -0.273 OA
ATOM      7  H   UNL A   1      34.860  24.640  22.555  1.00  0.00     0.163 HD
BRANCH   5   8
ATOM      8  C   UNL A   1      33.321  24.652  25.569  1.00  0.00     0.220 C 
BRANCH   8   9
ATOM      9  N   UNL A   1      31.944  24.144  25.555  1.00  0.00    -0.319 N 
ATOM     10  C   UNL A   1      31.119  24.513  24.407  1.00  0.00     0.149 C 
BRANCH   9  11
ATOM     11  C   UNL A   1      31.391  23.198  26.380  1.00  0.00     0.317 C 
ATOM     12  O   UNL A   1      30.557  23.507  27.240  1.00  0.00    -0.249 OA
ATOM     13  N   UNL A   1      31.693  21.882  26.317  1.00  0.00    -0.335 N 
ATOM     14  H   UNL A   1      31.155  21.340  26.939  1.00  0.00     0.165 HD
BRANCH  13  15
ATOM     15  C   UNL A   1      32.607  21.101  25.560  1.00  0.00     0.092 C 
ATOM     16  C   UNL A   1      32.520  20.990  24.066  1.00  0.00     0.036 C 
ATOM     17  C   UNL A   1      32.131  19.808  24.906  1.00  0.00     0.044 C 
BRANCH  17  18
ATOM     18  C   UNL A   1      32.997  18.568  24.967  1.00  0.00    -0.043 A 
ATOM     19  C   UNL A   1      34.253  18.490  24.341  1.00  0.00     0.004 A 
ATOM     20  C   UNL A   1      32.540  17.416  25.628  1.00  0.00     0.004 A 
ATOM     21  C   UNL A   1      35.021  17.322  24.380  1.00  0.00     0.000 A 
ATOM     22  C   UNL A   1      33.297  16.241  25.662  1.00  0.00     0.000 A 
ATOM     23  C   UNL A   1      34.539  16.195  25.037  1.00  0.00     0.000 A 
ENDBRANCH  17  18
ENDBRANCH  13  15
ENDBRANCH   9  11
ENDBRANCH   8   9
ENDBRANCH   5   8
ENDBRANCH   3   4
ENDBRANCH   2   3
ENDBRANCH   1   2
BRANCH   1  24
ATOM     24  C   UNL A   1      37.059  20.730  24.811  1.00  0.00     0.002 C 
BRANCH  24  25
ATOM     25  C   UNL A   1      38.194  19.719  24.989  1.00  0.00     0.021 C 
BRANCH  25  26
ATOM     26  C   UNL A   1      39.245  20.121  26.014  1.00  0.00     0.116 C 
BRANCH  26  27
ATOM     27  N   UNL A   1      40.366  19.197  26.028  1.00  0.00    -0.352 N 
ATOM     28  C   UNL A   1      41.708  19.474  26.066  1.00  0.00     0.251 C 
ATOM     29  H   UNL A   1      40.130  18.242  26.009  1.00  0.00     0.163 HD
ATOM     30  O   UNL A   1      42.525  18.578  25.853  1.00  0.00    -0.269 OA
BRANCH  28  31
ATOM     31  C   UNL A   1      42.171  20.849  26.349  1.00  0.00     0.039 A 
ATOM     32  C   UNL A   1      42.464  21.205  27.668  1.00  0.00     0.014 A 
ATOM     33  C   UNL A   1      42.302  21.789  25.323  1.00  0.00     0.014 A 
ATOM     34  C   UNL A   1      42.923  22.493  27.949  1.00  0.00     0.010 A 
ATOM     35  C   UNL A   1      42.838  23.044  25.594  1.00  0.00     0.010 A 
ATOM     36  C   UNL A   1      43.135  23.418  26.912  1.00  0.00    -0.014 A 
BRANCH  36  37
ATOM     37  C   UNL A   1      43.653  24.780  27.197  1.00  0.00     0.031 A 
ATOM     38  C   UNL A   1      42.740  25.837  27.763  1.00  0.00     0.074 A 
ATOM     39  C   UNL A   1      44.929  25.086  26.886  1.00  0.00     0.049 A 
ATOM     40  N   UNL A   1      43.010  27.082  28.062  1.00  0.00    -0.248 NA
ATOM     41  C   UNL A   1      41.336  25.458  27.998  1.00  0.00     0.031 C 
ATOM     42  C   UNL A   1      45.888  24.177  26.253  1.00  0.00     0.029 A 
ATOM     43  N   UNL A   1      45.634  26.255  27.037  1.00  0.00    -0.354 N 
ATOM     44  C   UNL A   1      41.806  27.644  28.474  1.00  0.00     0.074 A 
ATOM     45  C   UNL A   1      40.799  26.613  28.366  1.00  0.00     0.031 C 
ATOM     46  C   UNL A   1      47.053  24.821  26.073  1.00  0.00     0.029 A 
ATOM     47  C   UNL A   1      46.918  26.193  26.549  1.00  0.00     0.049 A 
ATOM     48  H   UNL A   1      45.254  27.062  27.454  1.00  0.00     0.167 HD
ATOM     49  C   UNL A   1      41.568  28.898  28.923  1.00  0.00     0.034 A 
ATOM     50  C   UNL A   1      47.876  27.139  26.485  1.00  0.00     0.034 A 
ATOM     51  C   UNL A   1      42.582  29.904  29.081  1.00  0.00     0.049 A 
ATOM     52  C   UNL A   1      47.596  28.504  27.056  1.00  0.00     0.074 A 
ATOM     53  C   UNL A   1      42.461  31.165  29.637  1.00  0.00     0.029 A 
ATOM     54  N   UNL A   1      43.898  29.772  28.671  1.00  0.00    -0.354 N 
ATOM     55  N   UNL A   1      46.500  28.955  27.613  1.00  0.00    -0.248 NA
ATOM     56  C   UNL A   1      48.699  29.474  27.029  1.00  0.00     0.031 C 
ATOM     57  C   UNL A   1      43.695  31.812  29.527  1.00  0.00     0.029 A 
ATOM     58  C   UNL A   1      44.596  30.936  28.945  1.00  0.00     0.049 A 
ATOM     59  H   UNL A   1      44.281  28.970  28.246  1.00  0.00     0.167 HD
ATOM     60  C   UNL A   1      46.795  30.245  28.043  1.00  0.00     0.074 A 
ATOM     61  C   UNL A   1      48.181  30.492  27.701  1.00  0.00     0.031 C 
ATOM     62  C   UNL A   1      45.990  31.148  28.653  1.00  0.00     0.034 A 
BRANCH  49  63
ATOM     63  C   UNL A   1      40.159  29.256  29.317  1.00  0.00     0.023 A 
ATOM     64  C   UNL A   1      39.207  29.565  28.326  1.00  0.00     0.012 A 
ATOM     65  C   UNL A   1      39.755  29.188  30.666  1.00  0.00     0.148 A 
ATOM     66  C   UNL A   1      37.880  29.825  28.671  1.00  0.00     0.002 A 
ATOM     67  C   UNL A   1      38.423  29.400  30.998  1.00  0.00     0.091 A 
ATOM     68  F   UNL A   1      40.682  28.912  31.595  1.00  0.00    -0.205 F 
ATOM     69  C   UNL A   1      37.487  29.728  30.003  1.00  0.00     0.022 A 
BRANCH  67  70
ATOM     70  S   UNL A   1      37.797  29.212  32.671  1.00  0.00     0.127 S 
ATOM     71  O   UNL A   1      37.956  27.775  32.885  1.00  0.00    -0.237 OA
ATOM     72  O   UNL A   1      38.721  30.049  33.437  1.00  0.00    -0.237 OA
ATOM     73  O   UNL A   1      36.421  29.688  32.644  1.00  0.00    -0.744 OA
ENDBRANCH  67  70
ENDBRANCH  49  63
BRANCH  50  74
ATOM     74  C   UNL A   1      49.210  26.822  25.897  1.00  0.00     0.023 A 
ATOM     75  C   UNL A   1      50.144  26.080  26.646  1.00  0.00     0.012 A 
ATOM     76  C   UNL A   1      49.560  27.261  24.607  1.00  0.00     0.148 A 
ATOM     77  C   UNL A   1      51.421  25.827  26.142  1.00  0.00     0.002 A 
ATOM     78  C   UNL A   1      50.811  26.952  24.085  1.00  0.00     0.091 A 
ATOM     79  F   UNL A   1      48.663  27.973  23.911  1.00  0.00    -0.205 F 
ATOM     80  C   UNL A   1      51.752  26.256  24.859  1.00  0.00     0.022 A 
BRANCH  78  81
ATOM     81  S   UNL A   1      51.266  27.349  22.394  1.00  0.00     0.127 S 
ATOM     82  O   UNL A   1      51.226  28.809  22.407  1.00  0.00    -0.237 OA
ATOM     83  O   UNL A   1      52.607  26.770  22.297  1.00  0.00    -0.237 OA
ATOM     84  O   UNL A   1      50.271  26.692  21.558  1.00  0.00    -0.744 OA
ENDBRANCH  78  81
ENDBRANCH  50  74
BRANCH  62  85
ATOM     85  C   UNL A   1      46.595  32.469  29.049  1.00  0.00     0.023 A 
ATOM     86  C   UNL A   1      47.187  32.628  30.317  1.00  0.00     0.012 A 
ATOM     87  C   UNL A   1      46.624  33.542  28.134  1.00  0.00     0.148 A 
ATOM     88  C   UNL A   1      47.757  33.846  30.686  1.00  0.00     0.002 A 
ATOM     89  C   UNL A   1      47.244  34.733  28.488  1.00  0.00     0.091 A 
ATOM     90  F   UNL A   1      46.039  33.380  26.938  1.00  0.00    -0.205 F 
ATOM     91  C   UNL A   1      47.796  34.893  29.768  1.00  0.00     0.022 A 
BRANCH  89  92
ATOM     92  S   UNL A   1      47.431  36.096  27.332  1.00  0.00     0.127 S 
ATOM     93  O   UNL A   1      48.140  35.455  26.227  1.00  0.00    -0.237 OA
ATOM     94  O   UNL A   1      46.040  36.449  27.042  1.00  0.00    -0.237 OA
ATOM     95  O   UNL A   1      48.177  37.125  28.045  1.00  0.00    -0.744 OA
ENDBRANCH  89  92
ENDBRANCH  62  85
ENDBRANCH  36  37
ENDBRANCH  28  31
ENDBRANCH  26  27
ENDBRANCH  25  26
ENDBRANCH  24  25
ENDBRANCH   1  24
TORSDOF 20
ENDMDL
MODEL 3
REMARK VINA RESULT:     -11.4      2.417      4.623
REMARK SMILES CN(CC(=O)NCCCCCCNC(=O)c1ccc(-c2c3nc(c(-c4cccc(S(=O)(=O)[O-])c4F)c4ccc([nH]4)c(-c4cccc(S(=O)(=O)[O-])c4F)c4nc(c(-c5cccc(S(=O)(=O)[O-])c5F)c5ccc2[nH]5)C=C4)C=C3)cc1)C(=O)N[C@@H]1C[C@H]1c1ccccc1
REMARK SMILES IDX 9 1 8 2 7 3 6 4 4 5 5 6 3 8 2 9 1 10 79 11 80 12 81 13 82 15
REMARK SMILES IDX 83 16 84 17 85 18 86 19 90 20 87 21 89 22 88 23 10 24 11 25
REMARK SMILES IDX 12 26 13 27 14 28 15 30 16 31 17 32 78 33 18 34 77 35 19 36
REMARK SMILES IDX 20 37 21 38 71 39 22 40 76 41 70 42 72 43 23 44 75 45 69 46
REMARK SMILES IDX 68 47 24 49 56 50 36 51 55 52 37 53 40 54 54 55 73 56 38 57
REMARK SMILES IDX 39 58 53 60 74 61 41 62 25 63 26 64 34 65 27 66 29 67 35 68
REMARK SMILES IDX 28 69 30 70 31 71 32 72 33 73 57 74 58 75 66 76 59 77 61 78
REMARK SMILES IDX 67 79 60 80 62 81 63 82 64 83 65 84 42 85 43 86 51 87 44 88
REMARK SMILES IDX 46 89 52 90 45 91 47 92 48 93 49 94 50 95
REMARK H PARENT 6 7 81 14 13 29 72 48 40 59
REMARK Flexibility Score: inf
ROOT
ATOM      1  C   UNL A   1      32.421  29.759  27.200  1.00  0.00     0.002 C 
ENDROOT
BRANCH   1   2
ATOM      2  C   UNL A   1      32.117  28.273  26.968  1.00  0.00     0.021 C 
BRANCH   2   3
ATOM      3  C   UNL A   1      33.299  27.469  26.440  1.00  0.00     0.116 C 
BRANCH   3   4
ATOM      4  N   UNL A   1      32.981  26.071  26.271  1.00  0.00    -0.355 N 
ATOM      5  C   UNL A   1      33.116  25.301  25.158  1.00  0.00     0.239 C 
ATOM      6  O   UNL A   1      33.153  24.077  25.321  1.00  0.00    -0.273 OA
ATOM      7  H   UNL A   1      32.618  25.615  27.065  1.00  0.00     0.163 HD
BRANCH   5   8
ATOM      8  C   UNL A   1      33.388  25.929  23.784  1.00  0.00     0.220 C 
BRANCH   8   9
ATOM      9  N   UNL A   1      32.359  25.779  22.749  1.00  0.00    -0.319 N 
ATOM     10  C   UNL A   1      32.820  25.422  21.409  1.00  0.00     0.149 C 
BRANCH   9  11
ATOM     11  C   UNL A   1      31.000  25.730  22.920  1.00  0.00     0.317 C 
ATOM     12  O   UNL A   1      30.418  24.658  23.126  1.00  0.00    -0.249 OA
ATOM     13  N   UNL A   1      30.202  26.821  22.892  1.00  0.00    -0.335 N 
ATOM     14  H   UNL A   1      29.262  26.609  23.097  1.00  0.00     0.165 HD
BRANCH  13  15
ATOM     15  C   UNL A   1      30.407  28.203  22.635  1.00  0.00     0.092 C 
ATOM     16  C   UNL A   1      31.065  29.114  23.629  1.00  0.00     0.036 C 
ATOM     17  C   UNL A   1      29.588  29.241  23.396  1.00  0.00     0.044 C 
BRANCH  17  18
ATOM     18  C   UNL A   1      29.007  30.431  22.662  1.00  0.00    -0.043 A 
ATOM     19  C   UNL A   1      28.406  30.320  21.396  1.00  0.00     0.004 A 
ATOM     20  C   UNL A   1      29.094  31.718  23.218  1.00  0.00     0.004 A 
ATOM     21  C   UNL A   1      27.907  31.438  20.720  1.00  0.00     0.000 A 
ATOM     22  C   UNL A   1      28.608  32.842  22.543  1.00  0.00     0.000 A 
ATOM     23  C   UNL A   1      28.014  32.700  21.293  1.00  0.00     0.000 A 
ENDBRANCH  17  18
ENDBRANCH  13  15
ENDBRANCH   9  11
ENDBRANCH   8   9
ENDBRANCH   5   8
ENDBRANCH   3   4
ENDBRANCH   2   3
ENDBRANCH   1   2
BRANCH   1  24
ATOM     24  C   UNL A   1      31.605  30.736  26.347  1.00  0.00     0.002 C 
BRANCH  24  25
ATOM     25  C   UNL A   1      31.471  32.149  26.921  1.00  0.00     0.021 C 
BRANCH  25  26
ATOM     26  C   UNL A   1      32.790  32.800  27.310  1.00  0.00     0.116 C 
BRANCH  26  27
ATOM     27  N   UNL A   1      32.614  34.193  27.687  1.00  0.00    -0.352 N 
ATOM     28  C   UNL A   1      33.207  34.889  28.708  1.00  0.00     0.251 C 
ATOM     29  H   UNL A   1      31.982  34.706  27.134  1.00  0.00     0.163 HD
ATOM     30  O   UNL A   1      32.780  36.001  29.020  1.00  0.00    -0.269 OA
BRANCH  28  31
ATOM     31  C   UNL A   1      34.348  34.299  29.439  1.00  0.00     0.039 A 
ATOM     32  C   UNL A   1      34.101  33.572  30.606  1.00  0.00     0.014 A 
ATOM     33  C   UNL A   1      35.659  34.473  28.985  1.00  0.00     0.014 A 
ATOM     34  C   UNL A   1      35.166  32.991  31.295  1.00  0.00     0.010 A 
ATOM     35  C   UNL A   1      36.708  33.823  29.626  1.00  0.00     0.010 A 
ATOM     36  C   UNL A   1      36.478  33.092  30.801  1.00  0.00    -0.014 A 
BRANCH  36  37
ATOM     37  C   UNL A   1      37.613  32.449  31.510  1.00  0.00     0.031 A 
ATOM     38  C   UNL A   1      38.379  31.328  30.857  1.00  0.00     0.074 A 
ATOM     39  C   UNL A   1      37.913  32.829  32.769  1.00  0.00     0.049 A 
ATOM     40  N   UNL A   1      39.387  30.638  31.326  1.00  0.00    -0.248 NA
ATOM     41  C   UNL A   1      37.943  30.906  29.515  1.00  0.00     0.031 C 
ATOM     42  C   UNL A   1      37.191  33.841  33.543  1.00  0.00     0.029 A 
ATOM     43  N   UNL A   1      38.890  32.391  33.629  1.00  0.00    -0.354 N 
ATOM     44  C   UNL A   1      39.673  29.677  30.363  1.00  0.00     0.074 A 
ATOM     45  C   UNL A   1      38.720  29.856  29.292  1.00  0.00     0.031 C 
ATOM     46  C   UNL A   1      37.750  33.947  34.760  1.00  0.00     0.029 A 
ATOM     47  C   UNL A   1      38.849  32.994  34.864  1.00  0.00     0.049 A 
ATOM     48  H   UNL A   1      39.556  31.708  33.383  1.00  0.00     0.167 HD
ATOM     49  C   UNL A   1      40.656  28.747  30.361  1.00  0.00     0.034 A 
ATOM     50  C   UNL A   1      39.608  32.795  35.961  1.00  0.00     0.034 A 
ATOM     51  C   UNL A   1      41.636  28.608  31.403  1.00  0.00     0.049 A 
ATOM     52  C   UNL A   1      40.734  31.797  35.899  1.00  0.00     0.074 A 
ATOM     53  C   UNL A   1      42.740  27.774  31.438  1.00  0.00     0.029 A 
ATOM     54  N   UNL A   1      41.625  29.308  32.598  1.00  0.00    -0.354 N 
ATOM     55  N   UNL A   1      41.102  31.029  34.904  1.00  0.00    -0.248 NA
ATOM     56  C   UNL A   1      41.578  31.674  37.096  1.00  0.00     0.031 C 
ATOM     57  C   UNL A   1      43.374  27.940  32.671  1.00  0.00     0.029 A 
ATOM     58  C   UNL A   1      42.693  28.912  33.385  1.00  0.00     0.049 A 
ATOM     59  H   UNL A   1      40.958  29.986  32.850  1.00  0.00     0.167 HD
ATOM     60  C   UNL A   1      42.244  30.364  35.339  1.00  0.00     0.074 A 
ATOM     61  C   UNL A   1      42.519  30.840  36.679  1.00  0.00     0.031 C 
ATOM     62  C   UNL A   1      42.989  29.435  34.693  1.00  0.00     0.034 A 
BRANCH  49  63
ATOM     63  C   UNL A   1      40.753  27.818  29.179  1.00  0.00     0.023 A 
ATOM     64  C   UNL A   1      39.884  26.714  29.077  1.00  0.00     0.012 A 
ATOM     65  C   UNL A   1      41.641  28.100  28.121  1.00  0.00     0.148 A 
ATOM     66  C   UNL A   1      39.913  25.889  27.952  1.00  0.00     0.002 A 
ATOM     67  C   UNL A   1      41.631  27.304  26.983  1.00  0.00     0.091 A 
ATOM     68  F   UNL A   1      42.473  29.144  28.248  1.00  0.00    -0.205 F 
ATOM     69  C   UNL A   1      40.775  26.192  26.901  1.00  0.00     0.022 A 
BRANCH  67  70
ATOM     70  S   UNL A   1      42.637  27.661  25.539  1.00  0.00     0.127 S 
ATOM     71  O   UNL A   1      42.453  26.448  24.744  1.00  0.00    -0.237 OA
ATOM     72  O   UNL A   1      41.983  28.852  24.998  1.00  0.00    -0.237 OA
ATOM     73  O   UNL A   1      43.990  27.879  26.034  1.00  0.00    -0.744 OA
ENDBRANCH  67  70
ENDBRANCH  49  63
BRANCH  50  74
ATOM     74  C   UNL A   1      39.361  33.585  37.201  1.00  0.00     0.023 A 
ATOM     75  C   UNL A   1      39.913  34.874  37.329  1.00  0.00     0.012 A 
ATOM     76  C   UNL A   1      38.592  33.061  38.257  1.00  0.00     0.148 A 
ATOM     77  C   UNL A   1      39.750  35.606  38.507  1.00  0.00     0.002 A 
ATOM     78  C   UNL A   1      38.380  33.819  39.403  1.00  0.00     0.091 A 
ATOM     79  F   UNL A   1      38.081  31.829  38.123  1.00  0.00    -0.205 F 
ATOM     80  C   UNL A   1      38.976  35.082  39.540  1.00  0.00     0.022 A 
BRANCH  78  81
ATOM     81  S   UNL A   1      37.288  33.275  40.720  1.00  0.00     0.127 S 
ATOM     82  O   UNL A   1      38.019  32.134  41.264  1.00  0.00    -0.237 OA
ATOM     83  O   UNL A   1      37.250  34.454  41.588  1.00  0.00    -0.237 OA
ATOM     84  O   UNL A   1      36.019  32.969  40.075  1.00  0.00    -0.744 OA
ENDBRANCH  78  81
ENDBRANCH  50  74
BRANCH  62  85
ATOM     85  C   UNL A   1      44.213  28.909  35.397  1.00  0.00     0.023 A 
ATOM     86  C   UNL A   1      45.468  29.512  35.187  1.00  0.00     0.012 A 
ATOM     87  C   UNL A   1      44.104  27.844  36.315  1.00  0.00     0.148 A 
ATOM     88  C   UNL A   1      46.603  29.035  35.842  1.00  0.00     0.002 A 
ATOM     89  C   UNL A   1      45.228  27.412  37.007  1.00  0.00     0.091 A 
ATOM     90  F   UNL A   1      42.905  27.269  36.489  1.00  0.00    -0.205 F 
ATOM     91  C   UNL A   1      46.480  27.994  36.760  1.00  0.00     0.022 A 
BRANCH  89  92
ATOM     92  S   UNL A   1      45.142  26.148  38.281  1.00  0.00     0.127 S 
ATOM     93  O   UNL A   1      44.164  26.721  39.203  1.00  0.00    -0.237 OA
ATOM     94  O   UNL A   1      44.665  24.985  37.532  1.00  0.00    -0.237 OA
ATOM     95  O   UNL A   1      46.495  26.014  38.803  1.00  0.00    -0.744 OA
ENDBRANCH  89  92
ENDBRANCH  62  85
ENDBRANCH  36  37
ENDBRANCH  28  31
ENDBRANCH  26  27
ENDBRANCH  25  26
ENDBRANCH  24  25
ENDBRANCH   1  24
TORSDOF 20
ENDMDL
