MODEL 1
REMARK VINA RESULT:     -12.3      0.000      0.000
REMARK SMILES O=C(NCCCCCCNC(=O)c1cccnc1C(=O)Nc1ccc([N+](=O)[O-])cc1)c1ccc(-c2c3nc(c(-c4cccc(S(=O)(=O)[O-])c4F)c4ccc([nH]4)c(-c4cccc(S(=O)(=O)[O-])c4F)c4nc(c(-c5cccc(S(=O)(=O)[O-])c5F)c5ccc2[nH]5)C=C4)C=C3)cc1
REMARK SMILES IDX 6 1 5 2 4 3 3 4 1 5 2 6 31 8 32 9 93 10 33 11 92 12 34 13
REMARK SMILES IDX 35 14 36 15 86 16 37 17 91 18 85 19 87 20 38 21 90 22 84 23
REMARK SMILES IDX 83 24 39 26 71 27 51 28 70 29 52 30 55 31 69 32 88 33 53 34
REMARK SMILES IDX 54 35 68 37 89 38 56 39 40 40 41 41 49 42 42 43 44 44 50 45
REMARK SMILES IDX 43 46 45 47 46 48 47 49 48 50 72 51 73 52 81 53 74 54 76 55
REMARK SMILES IDX 82 56 75 57 77 58 78 59 79 60 80 61 57 62 58 63 66 64 59 65
REMARK SMILES IDX 61 66 67 67 60 68 62 69 63 70 64 71 65 72 7 73 8 74 9 75
REMARK SMILES IDX 10 76 11 77 12 79 13 80 14 81 18 82 15 83 17 84 16 85 19 86
REMARK SMILES IDX 20 87 21 88 22 90 23 91 30 92 24 93 29 94 25 95 26 96 27 97
REMARK SMILES IDX 28 98
REMARK H PARENT 3 7 87 25 55 36 10 78 21 89
REMARK Flexibility Score: inf
ROOT
ATOM      1  C   UNL A   1      36.930  22.233  24.095  1.00  0.00     0.002 C 
ENDROOT
BRANCH   1   2
ATOM      2  C   UNL A   1      37.392  20.992  24.854  1.00  0.00     0.021 C 
BRANCH   2   3
ATOM      3  C   UNL A   1      38.559  21.238  25.798  1.00  0.00     0.116 C 
BRANCH   3   4
ATOM      4  N   UNL A   1      39.464  20.102  25.890  1.00  0.00    -0.352 N 
ATOM      5  O   UNL A   1      41.479  19.101  26.108  1.00  0.00    -0.269 OA
ATOM      6  C   UNL A   1      40.807  20.116  26.192  1.00  0.00     0.251 C 
ATOM      7  H   UNL A   1      39.067  19.217  25.716  1.00  0.00     0.163 HD
BRANCH   6   8
ATOM      8  C   UNL A   1      41.412  21.405  26.582  1.00  0.00     0.039 A 
ATOM      9  C   UNL A   1      41.539  21.731  27.936  1.00  0.00     0.014 A 
ATOM     10  C   UNL A   1      41.764  22.319  25.589  1.00  0.00     0.014 A 
ATOM     11  C   UNL A   1      41.888  23.023  28.299  1.00  0.00     0.010 A 
ATOM     12  C   UNL A   1      42.198  23.591  25.960  1.00  0.00     0.010 A 
ATOM     13  C   UNL A   1      42.234  23.961  27.315  1.00  0.00    -0.014 A 
BRANCH  13  14
ATOM     14  C   UNL A   1      42.708  25.309  27.709  1.00  0.00     0.031 A 
ATOM     15  C   UNL A   1      41.782  26.292  28.364  1.00  0.00     0.074 A 
ATOM     16  C   UNL A   1      43.971  25.658  27.402  1.00  0.00     0.049 A 
ATOM     17  N   UNL A   1      41.993  27.547  28.663  1.00  0.00    -0.248 NA
ATOM     18  C   UNL A   1      40.439  25.807  28.723  1.00  0.00     0.031 C 
ATOM     19  C   UNL A   1      44.945  24.787  26.739  1.00  0.00     0.029 A 
ATOM     20  N   UNL A   1      44.642  26.841  27.570  1.00  0.00    -0.354 N 
ATOM     21  C   UNL A   1      40.798  28.019  29.191  1.00  0.00     0.074 A 
ATOM     22  C   UNL A   1      39.865  26.913  29.178  1.00  0.00     0.031 C 
ATOM     23  C   UNL A   1      46.082  25.466  26.541  1.00  0.00     0.029 A 
ATOM     24  C   UNL A   1      45.893  26.837  27.001  1.00  0.00     0.049 A 
ATOM     25  H   UNL A   1      44.267  27.614  28.049  1.00  0.00     0.167 HD
ATOM     26  C   UNL A   1      40.511  29.263  29.645  1.00  0.00     0.034 A 
ATOM     27  C   UNL A   1      46.777  27.836  26.820  1.00  0.00     0.034 A 
ATOM     28  C   UNL A   1      41.459  30.346  29.669  1.00  0.00     0.049 A 
ATOM     29  C   UNL A   1      46.438  29.203  27.333  1.00  0.00     0.074 A 
ATOM     30  C   UNL A   1      41.294  31.624  30.172  1.00  0.00     0.029 A 
ATOM     31  N   UNL A   1      42.744  30.285  29.149  1.00  0.00    -0.354 N 
ATOM     32  N   UNL A   1      45.345  29.606  27.933  1.00  0.00    -0.248 NA
ATOM     33  C   UNL A   1      47.459  30.245  27.173  1.00  0.00     0.031 C 
ATOM     34  C   UNL A   1      42.466  32.345  29.925  1.00  0.00     0.029 A 
ATOM     35  C   UNL A   1      43.379  31.505  29.306  1.00  0.00     0.049 A 
ATOM     36  H   UNL A   1      43.146  29.489  28.732  1.00  0.00     0.167 HD
ATOM     37  C   UNL A   1      45.558  30.938  28.258  1.00  0.00     0.074 A 
ATOM     38  C   UNL A   1      46.889  31.273  27.791  1.00  0.00     0.031 C 
ATOM     39  C   UNL A   1      44.724  31.805  28.882  1.00  0.00     0.034 A 
BRANCH  26  40
ATOM     40  C   UNL A   1      39.117  29.518  30.160  1.00  0.00     0.023 A 
ATOM     41  C   UNL A   1      38.769  29.135  31.472  1.00  0.00     0.012 A 
ATOM     42  C   UNL A   1      38.160  30.174  29.360  1.00  0.00     0.148 A 
ATOM     43  C   UNL A   1      37.482  29.357  31.962  1.00  0.00     0.002 A 
ATOM     44  C   UNL A   1      36.893  30.433  29.871  1.00  0.00     0.091 A 
ATOM     45  F   UNL A   1      38.497  30.515  28.108  1.00  0.00    -0.205 F 
ATOM     46  C   UNL A   1      36.548  30.014  31.165  1.00  0.00     0.022 A 
BRANCH  44  47
ATOM     47  S   UNL A   1      35.651  31.346  28.946  1.00  0.00     0.127 S 
ATOM     48  O   UNL A   1      34.961  30.269  28.238  1.00  0.00    -0.237 OA
ATOM     49  O   UNL A   1      34.868  31.972  30.013  1.00  0.00    -0.237 OA
ATOM     50  O   UNL A   1      36.387  32.282  28.110  1.00  0.00    -0.744 OA
ENDBRANCH  44  47
ENDBRANCH  26  40
BRANCH  27  51
ATOM     51  C   UNL A   1      48.068  27.542  26.140  1.00  0.00     0.023 A 
ATOM     52  C   UNL A   1      49.145  27.034  26.888  1.00  0.00     0.012 A 
ATOM     53  C   UNL A   1      48.193  27.665  24.742  1.00  0.00     0.148 A 
ATOM     54  C   UNL A   1      50.332  26.663  26.255  1.00  0.00     0.002 A 
ATOM     55  C   UNL A   1      49.355  27.241  24.112  1.00  0.00     0.091 A 
ATOM     56  F   UNL A   1      47.150  28.152  24.052  1.00  0.00    -0.205 F 
ATOM     57  C   UNL A   1      50.432  26.754  24.869  1.00  0.00     0.022 A 
BRANCH  55  58
ATOM     58  S   UNL A   1      49.521  27.180  22.324  1.00  0.00     0.127 S 
ATOM     59  O   UNL A   1      50.930  26.827  22.168  1.00  0.00    -0.237 OA
ATOM     60  O   UNL A   1      48.577  26.118  21.973  1.00  0.00    -0.237 OA
ATOM     61  O   UNL A   1      49.147  28.503  21.846  1.00  0.00    -0.744 OA
ENDBRANCH  55  58
ENDBRANCH  27  51
BRANCH  39  62
ATOM     62  C   UNL A   1      45.235  33.192  29.158  1.00  0.00     0.023 A 
ATOM     63  C   UNL A   1      45.943  33.462  30.345  1.00  0.00     0.012 A 
ATOM     64  C   UNL A   1      45.103  34.201  28.183  1.00  0.00     0.148 A 
ATOM     65  C   UNL A   1      46.499  34.723  30.563  1.00  0.00     0.002 A 
ATOM     66  C   UNL A   1      45.701  35.437  28.384  1.00  0.00     0.091 A 
ATOM     67  F   UNL A   1      44.405  33.925  27.071  1.00  0.00    -0.205 F 
ATOM     68  C   UNL A   1      46.392  35.703  29.578  1.00  0.00     0.022 A 
BRANCH  66  69
ATOM     69  S   UNL A   1      45.704  36.722  27.130  1.00  0.00     0.127 S 
ATOM     70  O   UNL A   1      46.385  36.055  26.022  1.00  0.00    -0.237 OA
ATOM     71  O   UNL A   1      44.274  36.948  26.919  1.00  0.00    -0.237 OA
ATOM     72  O   UNL A   1      46.418  37.851  27.709  1.00  0.00    -0.744 OA
ENDBRANCH  66  69
ENDBRANCH  39  62
ENDBRANCH  13  14
ENDBRANCH   6   8
ENDBRANCH   3   4
ENDBRANCH   2   3
ENDBRANCH   1   2
BRANCH   1  73
ATOM     73  C   UNL A   1      35.412  22.412  24.048  1.00  0.00     0.002 C 
BRANCH  73  74
ATOM     74  C   UNL A   1      34.840  23.280  22.920  1.00  0.00     0.021 C 
BRANCH  74  75
ATOM     75  C   UNL A   1      33.723  24.274  23.244  1.00  0.00     0.116 C 
BRANCH  75  76
ATOM     76  N   UNL A   1      33.720  25.513  22.473  1.00  0.00    -0.352 N 
ATOM     77  C   UNL A   1      33.320  26.786  22.827  1.00  0.00     0.253 C 
ATOM     78  H   UNL A   1      34.058  25.427  21.552  1.00  0.00     0.163 HD
ATOM     79  O   UNL A   1      33.588  27.758  22.129  1.00  0.00    -0.269 OA
BRANCH  77  80
ATOM     80  C   UNL A   1      32.698  27.001  24.128  1.00  0.00     0.071 A 
ATOM     81  C   UNL A   1      33.576  27.614  25.053  1.00  0.00     0.018 A 
ATOM     82  C   UNL A   1      31.387  26.733  24.507  1.00  0.00     0.141 A 
ATOM     83  C   UNL A   1      33.176  27.876  26.351  1.00  0.00     0.021 A 
ATOM     84  N   UNL A   1      31.022  26.974  25.817  1.00  0.00    -0.250 NA
ATOM     85  C   UNL A   1      31.895  27.523  26.689  1.00  0.00     0.112 A 
BRANCH  82  86
ATOM     86  C   UNL A   1      30.136  26.330  23.717  1.00  0.00     0.275 C 
ATOM     87  O   UNL A   1      29.993  25.129  23.437  1.00  0.00    -0.267 OA
ATOM     88  N   UNL A   1      29.015  27.084  23.459  1.00  0.00    -0.321 N 
ATOM     89  H   UNL A   1      28.181  26.565  23.530  1.00  0.00     0.170 HD
BRANCH  88  90
ATOM     90  C   UNL A   1      28.795  28.412  23.121  1.00  0.00     0.042 A 
ATOM     91  C   UNL A   1      29.834  29.089  22.467  1.00  0.00     0.033 A 
ATOM     92  C   UNL A   1      27.607  29.071  23.416  1.00  0.00     0.033 A 
ATOM     93  C   UNL A   1      29.595  30.326  21.870  1.00  0.00     0.088 A 
ATOM     94  C   UNL A   1      27.381  30.333  22.864  1.00  0.00     0.088 A 
ATOM     95  C   UNL A   1      28.334  30.898  22.015  1.00  0.00     0.269 A 
BRANCH  95  96
ATOM     96  N   UNL A   1      27.935  32.007  21.159  1.00  0.00     0.062 N 
ATOM     97  O   UNL A   1      28.039  33.152  21.615  1.00  0.00    -0.258 OA
ATOM     98  O   UNL A   1      27.540  31.719  20.017  1.00  0.00    -0.258 OA
ENDBRANCH  95  96
ENDBRANCH  88  90
ENDBRANCH  82  86
ENDBRANCH  77  80
ENDBRANCH  75  76
ENDBRANCH  74  75
ENDBRANCH  73  74
ENDBRANCH   1  73
TORSDOF 19
ENDMDL
MODEL 2
REMARK VINA RESULT:     -12.3      1.796      3.625
REMARK SMILES O=C(NCCCCCCNC(=O)c1cccnc1C(=O)Nc1ccc([N+](=O)[O-])cc1)c1ccc(-c2c3nc(c(-c4cccc(S(=O)(=O)[O-])c4F)c4ccc([nH]4)c(-c4cccc(S(=O)(=O)[O-])c4F)c4nc(c(-c5cccc(S(=O)(=O)[O-])c5F)c5ccc2[nH]5)C=C4)C=C3)cc1
REMARK SMILES IDX 6 1 5 2 4 3 3 4 1 5 2 6 31 8 32 9 93 10 33 11 92 12 34 13
REMARK SMILES IDX 35 14 36 15 86 16 37 17 91 18 85 19 87 20 38 21 90 22 84 23
REMARK SMILES IDX 83 24 39 26 71 27 51 28 70 29 52 30 55 31 69 32 88 33 53 34
REMARK SMILES IDX 54 35 68 37 89 38 56 39 40 40 41 41 49 42 42 43 44 44 50 45
REMARK SMILES IDX 43 46 45 47 46 48 47 49 48 50 72 51 73 52 81 53 74 54 76 55
REMARK SMILES IDX 82 56 75 57 77 58 78 59 79 60 80 61 57 62 58 63 66 64 59 65
REMARK SMILES IDX 61 66 67 67 60 68 62 69 63 70 64 71 65 72 7 73 8 74 9 75
REMARK SMILES IDX 10 76 11 77 12 79 13 80 14 81 18 82 15 83 17 84 16 85 19 86
REMARK SMILES IDX 20 87 21 88 22 90 23 91 30 92 24 93 29 94 25 95 26 96 27 97
REMARK SMILES IDX 28 98
REMARK H PARENT 3 7 87 25 55 36 10 78 21 89
REMARK Flexibility Score: inf
ROOT
ATOM      1  C   UNL A   1      36.736  22.224  23.888  1.00  0.00     0.002 C 
ENDROOT
BRANCH   1   2
ATOM      2  C   UNL A   1      37.288  20.992  24.601  1.00  0.00     0.021 C 
BRANCH   2   3
ATOM      3  C   UNL A   1      38.174  21.309  25.796  1.00  0.00     0.116 C 
BRANCH   3   4
ATOM      4  N   UNL A   1      39.217  20.317  26.008  1.00  0.00    -0.352 N 
ATOM      5  O   UNL A   1      41.320  19.620  26.460  1.00  0.00    -0.269 OA
ATOM      6  C   UNL A   1      40.504  20.527  26.450  1.00  0.00     0.251 C 
ATOM      7  H   UNL A   1      38.973  19.383  25.811  1.00  0.00     0.163 HD
BRANCH   6   8
ATOM      8  C   UNL A   1      40.871  21.892  26.876  1.00  0.00     0.039 A 
ATOM      9  C   UNL A   1      40.828  22.942  25.952  1.00  0.00     0.014 A 
ATOM     10  C   UNL A   1      41.345  22.097  28.171  1.00  0.00     0.014 A 
ATOM     11  C   UNL A   1      41.389  24.167  26.283  1.00  0.00     0.010 A 
ATOM     12  C   UNL A   1      41.829  23.354  28.527  1.00  0.00     0.010 A 
ATOM     13  C   UNL A   1      41.882  24.389  27.578  1.00  0.00    -0.014 A 
BRANCH  13  14
ATOM     14  C   UNL A   1      42.385  25.729  27.961  1.00  0.00     0.031 A 
ATOM     15  C   UNL A   1      41.480  26.739  28.605  1.00  0.00     0.074 A 
ATOM     16  C   UNL A   1      43.657  26.046  27.655  1.00  0.00     0.049 A 
ATOM     17  N   UNL A   1      41.719  27.991  28.894  1.00  0.00    -0.248 NA
ATOM     18  C   UNL A   1      40.125  26.288  28.963  1.00  0.00     0.031 C 
ATOM     19  C   UNL A   1      44.613  25.147  27.003  1.00  0.00     0.029 A 
ATOM     20  N   UNL A   1      44.355  27.215  27.816  1.00  0.00    -0.354 N 
ATOM     21  C   UNL A   1      40.533  28.495  29.413  1.00  0.00     0.074 A 
ATOM     22  C   UNL A   1      39.575  27.410  29.406  1.00  0.00     0.031 C 
ATOM     23  C   UNL A   1      45.765  25.799  26.804  1.00  0.00     0.029 A 
ATOM     24  C   UNL A   1      45.607  27.177  27.252  1.00  0.00     0.049 A 
ATOM     25  H   UNL A   1      43.995  28.001  28.287  1.00  0.00     0.167 HD
ATOM     26  C   UNL A   1      40.273  29.749  29.856  1.00  0.00     0.034 A 
ATOM     27  C   UNL A   1      46.515  28.154  27.065  1.00  0.00     0.034 A 
ATOM     28  C   UNL A   1      41.246  30.810  29.873  1.00  0.00     0.049 A 
ATOM     29  C   UNL A   1      46.205  29.533  27.565  1.00  0.00     0.074 A 
ATOM     30  C   UNL A   1      41.109  32.097  30.365  1.00  0.00     0.029 A 
ATOM     31  N   UNL A   1      42.531  30.715  29.359  1.00  0.00    -0.354 N 
ATOM     32  N   UNL A   1      45.120  29.966  28.158  1.00  0.00    -0.248 NA
ATOM     33  C   UNL A   1      47.250  30.550  27.400  1.00  0.00     0.031 C 
ATOM     34  C   UNL A   1      42.298  32.788  30.116  1.00  0.00     0.029 A 
ATOM     35  C   UNL A   1      43.193  31.921  29.507  1.00  0.00     0.049 A 
ATOM     36  H   UNL A   1      42.916  29.906  28.949  1.00  0.00     0.167 HD
ATOM     37  C   UNL A   1      45.362  31.296  28.472  1.00  0.00     0.074 A 
ATOM     38  C   UNL A   1      46.702  31.596  28.006  1.00  0.00     0.031 C 
ATOM     39  C   UNL A   1      44.547  32.187  29.086  1.00  0.00     0.034 A 
BRANCH  26  40
ATOM     40  C   UNL A   1      38.884  30.040  30.364  1.00  0.00     0.023 A 
ATOM     41  C   UNL A   1      38.535  29.710  31.689  1.00  0.00     0.012 A 
ATOM     42  C   UNL A   1      37.933  30.679  29.541  1.00  0.00     0.148 A 
ATOM     43  C   UNL A   1      37.252  29.967  32.173  1.00  0.00     0.002 A 
ATOM     44  C   UNL A   1      36.671  30.973  30.045  1.00  0.00     0.091 A 
ATOM     45  F   UNL A   1      38.272  30.969  28.277  1.00  0.00    -0.205 F 
ATOM     46  C   UNL A   1      36.324  30.606  31.354  1.00  0.00     0.022 A 
BRANCH  44  47
ATOM     47  S   UNL A   1      35.438  31.866  29.090  1.00  0.00     0.127 S 
ATOM     48  O   UNL A   1      34.515  32.302  30.136  1.00  0.00    -0.237 OA
ATOM     49  O   UNL A   1      36.230  32.941  28.489  1.00  0.00    -0.237 OA
ATOM     50  O   UNL A   1      34.904  30.906  28.135  1.00  0.00    -0.744 OA
ENDBRANCH  44  47
ENDBRANCH  26  40
BRANCH  27  51
ATOM     51  C   UNL A   1      47.800  27.825  26.392  1.00  0.00     0.023 A 
ATOM     52  C   UNL A   1      48.893  27.390  27.163  1.00  0.00     0.012 A 
ATOM     53  C   UNL A   1      47.905  27.840  24.987  1.00  0.00     0.148 A 
ATOM     54  C   UNL A   1      50.077  26.987  26.543  1.00  0.00     0.002 A 
ATOM     55  C   UNL A   1      49.066  27.383  24.376  1.00  0.00     0.091 A 
ATOM     56  F   UNL A   1      46.848  28.258  24.276  1.00  0.00    -0.205 F 
ATOM     57  C   UNL A   1      50.159  26.970  25.154  1.00  0.00     0.022 A 
BRANCH  55  58
ATOM     58  S   UNL A   1      49.210  27.185  22.596  1.00  0.00     0.127 S 
ATOM     59  O   UNL A   1      48.709  28.469  22.113  1.00  0.00    -0.237 OA
ATOM     60  O   UNL A   1      50.650  26.984  22.434  1.00  0.00    -0.237 OA
ATOM     61  O   UNL A   1      48.397  26.025  22.259  1.00  0.00    -0.744 OA
ENDBRANCH  55  58
ENDBRANCH  27  51
BRANCH  39  62
ATOM     62  C   UNL A   1      45.089  33.565  29.352  1.00  0.00     0.023 A 
ATOM     63  C   UNL A   1      45.785  33.832  30.545  1.00  0.00     0.012 A 
ATOM     64  C   UNL A   1      44.997  34.563  28.362  1.00  0.00     0.148 A 
ATOM     65  C   UNL A   1      46.369  35.081  30.756  1.00  0.00     0.002 A 
ATOM     66  C   UNL A   1      45.623  35.786  28.556  1.00  0.00     0.091 A 
ATOM     67  F   UNL A   1      44.310  34.290  27.243  1.00  0.00    -0.205 F 
ATOM     68  C   UNL A   1      46.302  36.051  29.757  1.00  0.00     0.022 A 
BRANCH  66  69
ATOM     69  S   UNL A   1      45.677  37.054  27.285  1.00  0.00     0.127 S 
ATOM     70  O   UNL A   1      46.297  36.334  26.174  1.00  0.00    -0.237 OA
ATOM     71  O   UNL A   1      44.260  37.362  27.098  1.00  0.00    -0.237 OA
ATOM     72  O   UNL A   1      46.468  38.145  27.836  1.00  0.00    -0.744 OA
ENDBRANCH  66  69
ENDBRANCH  39  62
ENDBRANCH  13  14
ENDBRANCH   6   8
ENDBRANCH   3   4
ENDBRANCH   2   3
ENDBRANCH   1   2
BRANCH   1  73
ATOM     73  C   UNL A   1      36.790  23.508  24.717  1.00  0.00     0.002 C 
BRANCH  73  74
ATOM     74  C   UNL A   1      35.570  23.836  25.586  1.00  0.00     0.021 C 
BRANCH  74  75
ATOM     75  C   UNL A   1      34.584  24.903  25.106  1.00  0.00     0.116 C 
BRANCH  75  76
ATOM     76  N   UNL A   1      34.290  24.909  23.676  1.00  0.00    -0.352 N 
ATOM     77  C   UNL A   1      33.508  25.767  22.927  1.00  0.00     0.253 C 
ATOM     78  H   UNL A   1      34.717  24.186  23.163  1.00  0.00     0.163 HD
ATOM     79  O   UNL A   1      33.542  25.759  21.702  1.00  0.00    -0.269 OA
BRANCH  77  80
ATOM     80  C   UNL A   1      32.739  26.804  23.605  1.00  0.00     0.071 A 
ATOM     81  C   UNL A   1      33.467  28.008  23.754  1.00  0.00     0.018 A 
ATOM     82  C   UNL A   1      31.419  26.747  24.040  1.00  0.00     0.141 A 
ATOM     83  C   UNL A   1      32.915  29.101  24.397  1.00  0.00     0.021 A 
ATOM     84  N   UNL A   1      30.902  27.840  24.707  1.00  0.00    -0.250 NA
ATOM     85  C   UNL A   1      31.635  28.963  24.869  1.00  0.00     0.112 A 
BRANCH  82  86
ATOM     86  C   UNL A   1      30.291  25.733  23.816  1.00  0.00     0.275 C 
ATOM     87  O   UNL A   1      29.130  26.166  23.749  1.00  0.00    -0.267 OA
ATOM     88  N   UNL A   1      30.399  24.411  23.450  1.00  0.00    -0.321 N 
ATOM     89  H   UNL A   1      29.713  24.138  22.799  1.00  0.00     0.170 HD
BRANCH  88  90
ATOM     90  C   UNL A   1      31.257  23.376  23.794  1.00  0.00     0.042 A 
ATOM     91  C   UNL A   1      31.433  23.113  25.159  1.00  0.00     0.033 A 
ATOM     92  C   UNL A   1      31.936  22.622  22.842  1.00  0.00     0.033 A 
ATOM     93  C   UNL A   1      32.063  21.938  25.569  1.00  0.00     0.088 A 
ATOM     94  C   UNL A   1      32.614  21.473  23.252  1.00  0.00     0.088 A 
ATOM     95  C   UNL A   1      32.581  21.090  24.593  1.00  0.00     0.269 A 
BRANCH  95  96
ATOM     96  N   UNL A   1      32.951  19.724  24.938  1.00  0.00     0.062 N 
ATOM     97  O   UNL A   1      32.043  18.946  25.258  1.00  0.00    -0.258 OA
ATOM     98  O   UNL A   1      34.155  19.433  24.861  1.00  0.00    -0.258 OA
ENDBRANCH  95  96
ENDBRANCH  88  90
ENDBRANCH  82  86
ENDBRANCH  77  80
ENDBRANCH  75  76
ENDBRANCH  74  75
ENDBRANCH  73  74
ENDBRANCH   1  73
TORSDOF 19
ENDMDL
MODEL 3
REMARK VINA RESULT:     -12.2      2.008      2.966
REMARK SMILES O=C(NCCCCCCNC(=O)c1cccnc1C(=O)Nc1ccc([N+](=O)[O-])cc1)c1ccc(-c2c3nc(c(-c4cccc(S(=O)(=O)[O-])c4F)c4ccc([nH]4)c(-c4cccc(S(=O)(=O)[O-])c4F)c4nc(c(-c5cccc(S(=O)(=O)[O-])c5F)c5ccc2[nH]5)C=C4)C=C3)cc1
REMARK SMILES IDX 6 1 5 2 4 3 3 4 1 5 2 6 31 8 32 9 93 10 33 11 92 12 34 13
REMARK SMILES IDX 35 14 36 15 86 16 37 17 91 18 85 19 87 20 38 21 90 22 84 23
REMARK SMILES IDX 83 24 39 26 71 27 51 28 70 29 52 30 55 31 69 32 88 33 53 34
REMARK SMILES IDX 54 35 68 37 89 38 56 39 40 40 41 41 49 42 42 43 44 44 50 45
REMARK SMILES IDX 43 46 45 47 46 48 47 49 48 50 72 51 73 52 81 53 74 54 76 55
REMARK SMILES IDX 82 56 75 57 77 58 78 59 79 60 80 61 57 62 58 63 66 64 59 65
REMARK SMILES IDX 61 66 67 67 60 68 62 69 63 70 64 71 65 72 7 73 8 74 9 75
REMARK SMILES IDX 10 76 11 77 12 79 13 80 14 81 18 82 15 83 17 84 16 85 19 86
REMARK SMILES IDX 20 87 21 88 22 90 23 91 30 92 24 93 29 94 25 95 26 96 27 97
REMARK SMILES IDX 28 98
REMARK H PARENT 3 7 87 25 55 36 10 78 21 89
REMARK Flexibility Score: inf
ROOT
ATOM      1  C   UNL A   1      36.072  23.338  23.671  1.00  0.00     0.002 C 
ENDROOT
BRANCH   1   2
ATOM      2  C   UNL A   1      36.962  22.144  24.006  1.00  0.00     0.021 C 
BRANCH   2   3
ATOM      3  C   UNL A   1      37.489  22.141  25.432  1.00  0.00     0.116 C 
BRANCH   3   4
ATOM      4  N   UNL A   1      38.377  21.021  25.707  1.00  0.00    -0.352 N 
ATOM      5  O   UNL A   1      40.318  20.054  26.348  1.00  0.00    -0.269 OA
ATOM      6  C   UNL A   1      39.622  21.055  26.293  1.00  0.00     0.251 C 
ATOM      7  H   UNL A   1      38.046  20.132  25.442  1.00  0.00     0.163 HD
BRANCH   6   8
ATOM      8  C   UNL A   1      40.101  22.350  26.818  1.00  0.00     0.039 A 
ATOM      9  C   UNL A   1      39.701  23.540  26.201  1.00  0.00     0.014 A 
ATOM     10  C   UNL A   1      41.020  22.360  27.867  1.00  0.00     0.014 A 
ATOM     11  C   UNL A   1      40.325  24.730  26.542  1.00  0.00     0.010 A 
ATOM     12  C   UNL A   1      41.582  23.572  28.266  1.00  0.00     0.010 A 
ATOM     13  C   UNL A   1      41.261  24.760  27.586  1.00  0.00    -0.014 A 
BRANCH  13  14
ATOM     14  C   UNL A   1      41.850  26.050  28.019  1.00  0.00     0.031 A 
ATOM     15  C   UNL A   1      41.020  27.078  28.730  1.00  0.00     0.074 A 
ATOM     16  C   UNL A   1      43.132  26.306  27.698  1.00  0.00     0.049 A 
ATOM     17  N   UNL A   1      41.338  28.299  29.070  1.00  0.00    -0.248 NA
ATOM     18  C   UNL A   1      39.649  26.690  29.099  1.00  0.00     0.031 C 
ATOM     19  C   UNL A   1      44.019  25.385  26.984  1.00  0.00     0.029 A 
ATOM     20  N   UNL A   1      43.900  27.424  27.896  1.00  0.00    -0.354 N 
ATOM     21  C   UNL A   1      40.195  28.846  29.640  1.00  0.00     0.074 A 
ATOM     22  C   UNL A   1      39.175  27.820  29.606  1.00  0.00     0.031 C 
ATOM     23  C   UNL A   1      45.204  25.978  26.788  1.00  0.00     0.029 A 
ATOM     24  C   UNL A   1      45.137  27.340  27.301  1.00  0.00     0.049 A 
ATOM     25  H   UNL A   1      43.598  28.206  28.411  1.00  0.00     0.167 HD
ATOM     26  C   UNL A   1      40.019  30.091  30.146  1.00  0.00     0.034 A 
ATOM     27  C   UNL A   1      46.096  28.271  27.139  1.00  0.00     0.034 A 
ATOM     28  C   UNL A   1      41.052  31.092  30.189  1.00  0.00     0.049 A 
ATOM     29  C   UNL A   1      45.879  29.640  27.709  1.00  0.00     0.074 A 
ATOM     30  C   UNL A   1      41.001  32.359  30.742  1.00  0.00     0.029 A 
ATOM     31  N   UNL A   1      42.319  30.947  29.641  1.00  0.00    -0.354 N 
ATOM     32  N   UNL A   1      44.833  30.107  28.346  1.00  0.00    -0.248 NA
ATOM     33  C   UNL A   1      46.978  30.602  27.566  1.00  0.00     0.031 C 
ATOM     34  C   UNL A   1      42.224  32.991  30.498  1.00  0.00     0.029 A 
ATOM     35  C   UNL A   1      43.054  32.104  29.829  1.00  0.00     0.049 A 
ATOM     36  H   UNL A   1      42.647  30.137  29.186  1.00  0.00     0.167 HD
ATOM     37  C   UNL A   1      45.160  31.404  28.715  1.00  0.00     0.074 A 
ATOM     38  C   UNL A   1      46.506  31.648  28.233  1.00  0.00     0.031 C 
ATOM     39  C   UNL A   1      44.411  32.311  29.388  1.00  0.00     0.034 A 
BRANCH  26  40
ATOM     40  C   UNL A   1      38.660  30.438  30.699  1.00  0.00     0.023 A 
ATOM     41  C   UNL A   1      38.308  30.039  32.005  1.00  0.00     0.012 A 
ATOM     42  C   UNL A   1      37.743  31.194  29.941  1.00  0.00     0.148 A 
ATOM     43  C   UNL A   1      37.053  30.346  32.530  1.00  0.00     0.002 A 
ATOM     44  C   UNL A   1      36.511  31.536  30.488  1.00  0.00     0.091 A 
ATOM     45  F   UNL A   1      38.082  31.549  28.694  1.00  0.00    -0.205 F 
ATOM     46  C   UNL A   1      36.158  31.101  31.775  1.00  0.00     0.022 A 
BRANCH  44  47
ATOM     47  S   UNL A   1      35.328  32.574  29.620  1.00  0.00     0.127 S 
ATOM     48  O   UNL A   1      35.046  31.770  28.433  1.00  0.00    -0.237 OA
ATOM     49  O   UNL A   1      34.224  32.654  30.578  1.00  0.00    -0.237 OA
ATOM     50  O   UNL A   1      36.010  33.837  29.381  1.00  0.00    -0.744 OA
ENDBRANCH  44  47
ENDBRANCH  26  40
BRANCH  27  51
ATOM     51  C   UNL A   1      47.345  27.900  26.421  1.00  0.00     0.023 A 
ATOM     52  C   UNL A   1      48.400  27.299  27.132  1.00  0.00     0.012 A 
ATOM     53  C   UNL A   1      47.447  28.045  25.023  1.00  0.00     0.148 A 
ATOM     54  C   UNL A   1      49.542  26.857  26.462  1.00  0.00     0.002 A 
ATOM     55  C   UNL A   1      48.561  27.552  24.357  1.00  0.00     0.091 A 
ATOM     56  F   UNL A   1      46.427  28.621  24.369  1.00  0.00    -0.205 F 
ATOM     57  C   UNL A   1      49.617  26.971  25.077  1.00  0.00     0.022 A 
BRANCH  55  58
ATOM     58  S   UNL A   1      48.681  27.519  22.564  1.00  0.00     0.127 S 
ATOM     59  O   UNL A   1      47.507  28.296  22.173  1.00  0.00    -0.237 OA
ATOM     60  O   UNL A   1      49.965  28.185  22.340  1.00  0.00    -0.237 OA
ATOM     61  O   UNL A   1      48.657  26.112  22.191  1.00  0.00    -0.744 OA
ENDBRANCH  55  58
ENDBRANCH  27  51
BRANCH  39  62
ATOM     62  C   UNL A   1      45.039  33.641  29.704  1.00  0.00     0.023 A 
ATOM     63  C   UNL A   1      45.849  33.787  30.847  1.00  0.00     0.012 A 
ATOM     64  C   UNL A   1      44.909  34.715  28.803  1.00  0.00     0.148 A 
ATOM     65  C   UNL A   1      46.507  34.991  31.095  1.00  0.00     0.002 A 
ATOM     66  C   UNL A   1      45.607  35.894  29.029  1.00  0.00     0.091 A 
ATOM     67  F   UNL A   1      44.115  34.558  27.733  1.00  0.00    -0.205 F 
ATOM     68  C   UNL A   1      46.400  36.037  30.180  1.00  0.00     0.022 A 
BRANCH  66  69
ATOM     69  S   UNL A   1      45.610  37.252  27.855  1.00  0.00     0.127 S 
ATOM     70  O   UNL A   1      46.108  36.599  26.645  1.00  0.00    -0.237 OA
ATOM     71  O   UNL A   1      44.196  37.623  27.809  1.00  0.00    -0.237 OA
ATOM     72  O   UNL A   1      46.487  38.270  28.416  1.00  0.00    -0.744 OA
ENDBRANCH  66  69
ENDBRANCH  39  62
ENDBRANCH  13  14
ENDBRANCH   6   8
ENDBRANCH   3   4
ENDBRANCH   2   3
ENDBRANCH   1   2
BRANCH   1  73
ATOM     73  C   UNL A   1      34.763  22.970  22.970  1.00  0.00     0.002 C 
BRANCH  73  74
ATOM     74  C   UNL A   1      33.576  23.924  23.152  1.00  0.00     0.021 C 
BRANCH  74  75
ATOM     75  C   UNL A   1      32.178  23.336  23.352  1.00  0.00     0.116 C 
BRANCH  75  76
ATOM     76  N   UNL A   1      32.099  21.881  23.443  1.00  0.00    -0.352 N 
ATOM     77  C   UNL A   1      32.210  21.047  24.538  1.00  0.00     0.253 C 
ATOM     78  H   UNL A   1      31.941  21.422  22.588  1.00  0.00     0.163 HD
ATOM     79  O   UNL A   1      31.901  19.862  24.473  1.00  0.00    -0.269 OA
BRANCH  77  80
ATOM     80  C   UNL A   1      32.559  21.615  25.835  1.00  0.00     0.071 A 
ATOM     81  C   UNL A   1      33.922  21.423  26.161  1.00  0.00     0.018 A 
ATOM     82  C   UNL A   1      31.745  22.337  26.702  1.00  0.00     0.141 A 
ATOM     83  C   UNL A   1      34.437  21.869  27.365  1.00  0.00     0.021 A 
ATOM     84  N   UNL A   1      32.275  22.743  27.910  1.00  0.00    -0.250 NA
ATOM     85  C   UNL A   1      33.570  22.510  28.212  1.00  0.00     0.112 A 
BRANCH  82  86
ATOM     86  C   UNL A   1      30.342  22.937  26.556  1.00  0.00     0.275 C 
ATOM     87  O   UNL A   1      29.371  22.186  26.736  1.00  0.00    -0.267 OA
ATOM     88  N   UNL A   1      29.991  24.265  26.469  1.00  0.00    -0.321 N 
ATOM     89  H   UNL A   1      29.178  24.479  26.980  1.00  0.00     0.170 HD
BRANCH  88  90
ATOM     90  C   UNL A   1      30.528  25.370  25.824  1.00  0.00     0.042 A 
ATOM     91  C   UNL A   1      31.725  25.893  26.332  1.00  0.00     0.033 A 
ATOM     92  C   UNL A   1      29.917  25.960  24.722  1.00  0.00     0.033 A 
ATOM     93  C   UNL A   1      32.451  26.824  25.590  1.00  0.00     0.088 A 
ATOM     94  C   UNL A   1      30.618  26.931  24.004  1.00  0.00     0.088 A 
ATOM     95  C   UNL A   1      31.915  27.274  24.386  1.00  0.00     0.269 A 
BRANCH  95  96
ATOM     96  N   UNL A   1      32.759  27.981  23.433  1.00  0.00     0.062 N 
ATOM     97  O   UNL A   1      33.017  27.415  22.363  1.00  0.00    -0.258 OA
ATOM     98  O   UNL A   1      33.141  29.117  23.757  1.00  0.00    -0.258 OA
ENDBRANCH  95  96
ENDBRANCH  88  90
ENDBRANCH  82  86
ENDBRANCH  77  80
ENDBRANCH  75  76
ENDBRANCH  74  75
ENDBRANCH  73  74
ENDBRANCH   1  73
TORSDOF 19
ENDMDL
