MODEL 1
REMARK VINA RESULT:     -13.0      0.000      0.000
REMARK SMILES O=C(NCCCCCCNC(=O)[C@H]1CCCN(c2cc(-c3ccccn3)nc(-c3ccccc3F)n2)C1)c1ccc(-c2c3nc(c(-c4cccc(S(=O)(=O)[O-])c4F)c4ccc([nH]4)c(-c4cccc(S(=O)(=O)[O-])c4F)c4nc(c(-c5cccc(S(=O)(=O)[O-])c5F)c5ccc2[nH]5)C=C4)C=C3)cc1
REMARK SMILES IDX 6 1 5 2 4 3 3 4 1 5 2 6 38 8 39 9 100 10 40 11 99 12 41 13
REMARK SMILES IDX 42 14 43 15 93 16 44 17 98 18 92 19 94 20 45 21 97 22 91 23
REMARK SMILES IDX 90 24 46 26 78 27 58 28 77 29 59 30 62 31 76 32 95 33 60 34
REMARK SMILES IDX 61 35 75 37 96 38 63 39 47 40 48 41 56 42 49 43 51 44 57 45
REMARK SMILES IDX 50 46 52 47 53 48 54 49 55 50 79 51 80 52 88 53 81 54 83 55
REMARK SMILES IDX 89 56 82 57 84 58 85 59 86 60 87 61 64 62 65 63 73 64 66 65
REMARK SMILES IDX 68 66 74 67 67 68 69 69 70 70 71 71 72 72 7 73 8 74 9 75
REMARK SMILES IDX 10 76 11 77 12 79 13 80 14 81 37 82 15 83 17 84 16 85 18 86
REMARK SMILES IDX 19 87 36 88 20 89 28 90 27 91 21 92 22 93 26 94 23 95 25 96
REMARK SMILES IDX 24 97 29 98 30 99 34 100 31 101 33 102 35 103 32 104
REMARK H PARENT 3 7 94 25 62 36 10 78
REMARK Flexibility Score: inf
ROOT
ATOM      1  C   UNL A   1      31.715  28.579  25.906  1.00  0.00     0.002 C 
ENDROOT
BRANCH   1   2
ATOM      2  C   UNL A   1      32.811  27.709  26.524  1.00  0.00     0.021 C 
BRANCH   2   3
ATOM      3  C   UNL A   1      34.108  28.454  26.808  1.00  0.00     0.116 C 
BRANCH   3   4
ATOM      4  N   UNL A   1      33.864  29.839  27.175  1.00  0.00    -0.352 N 
ATOM      5  O   UNL A   1      34.152  31.717  28.388  1.00  0.00    -0.269 OA
ATOM      6  C   UNL A   1      34.607  30.652  28.003  1.00  0.00     0.251 C 
ATOM      7  H   UNL A   1      33.062  30.250  26.780  1.00  0.00     0.163 HD
BRANCH   6   8
ATOM      8  C   UNL A   1      35.954  30.204  28.427  1.00  0.00     0.039 A 
ATOM      9  C   UNL A   1      37.060  30.437  27.609  1.00  0.00     0.014 A 
ATOM     10  C   UNL A   1      36.109  29.551  29.653  1.00  0.00     0.014 A 
ATOM     11  C   UNL A   1      38.295  29.902  27.950  1.00  0.00     0.010 A 
ATOM     12  C   UNL A   1      37.373  29.094  30.039  1.00  0.00     0.010 A 
ATOM     13  C   UNL A   1      38.471  29.246  29.180  1.00  0.00    -0.014 A 
BRANCH  13  14
ATOM     14  C   UNL A   1      39.843  28.843  29.579  1.00  0.00     0.031 A 
ATOM     15  C   UNL A   1      40.581  29.526  30.691  1.00  0.00     0.074 A 
ATOM     16  C   UNL A   1      40.409  27.808  28.924  1.00  0.00     0.049 A 
ATOM     17  N   UNL A   1      41.741  29.216  31.211  1.00  0.00    -0.248 NA
ATOM     18  C   UNL A   1      39.954  30.713  31.292  1.00  0.00     0.031 C 
ATOM     19  C   UNL A   1      39.800  27.112  27.788  1.00  0.00     0.029 A 
ATOM     20  N   UNL A   1      41.594  27.150  29.122  1.00  0.00    -0.354 N 
ATOM     21  C   UNL A   1      42.002  30.185  32.172  1.00  0.00     0.074 A 
ATOM     22  C   UNL A   1      40.881  31.100  32.159  1.00  0.00     0.031 C 
ATOM     23  C   UNL A   1      40.586  26.089  27.428  1.00  0.00     0.029 A 
ATOM     24  C   UNL A   1      41.779  26.089  28.267  1.00  0.00     0.049 A 
ATOM     25  H   UNL A   1      42.249  27.412  29.808  1.00  0.00     0.167 HD
ATOM     26  C   UNL A   1      43.073  30.288  32.995  1.00  0.00     0.034 A 
ATOM     27  C   UNL A   1      42.792  25.208  28.165  1.00  0.00     0.034 A 
ATOM     28  C   UNL A   1      44.158  29.342  33.024  1.00  0.00     0.049 A 
ATOM     29  C   UNL A   1      43.939  25.311  29.124  1.00  0.00     0.074 A 
ATOM     30  C   UNL A   1      45.249  29.317  33.877  1.00  0.00     0.029 A 
ATOM     31  N   UNL A   1      44.298  28.262  32.165  1.00  0.00    -0.354 N 
ATOM     32  N   UNL A   1      44.104  26.156  30.113  1.00  0.00    -0.248 NA
ATOM     33  C   UNL A   1      45.027  24.336  28.976  1.00  0.00     0.031 C 
ATOM     34  C   UNL A   1      46.058  28.234  33.519  1.00  0.00     0.029 A 
ATOM     35  C   UNL A   1      45.461  27.571  32.458  1.00  0.00     0.049 A 
ATOM     36  H   UNL A   1      43.662  28.023  31.452  1.00  0.00     0.167 HD
ATOM     37  C   UNL A   1      45.306  25.810  30.715  1.00  0.00     0.074 A 
ATOM     38  C   UNL A   1      45.816  24.660  29.993  1.00  0.00     0.031 C 
ATOM     39  C   UNL A   1      45.935  26.404  31.758  1.00  0.00     0.034 A 
BRANCH  26  40
ATOM     40  C   UNL A   1      43.112  31.434  33.971  1.00  0.00     0.023 A 
ATOM     41  C   UNL A   1      43.664  32.669  33.570  1.00  0.00     0.012 A 
ATOM     42  C   UNL A   1      42.521  31.324  35.245  1.00  0.00     0.148 A 
ATOM     43  C   UNL A   1      43.646  33.767  34.429  1.00  0.00     0.002 A 
ATOM     44  C   UNL A   1      42.472  32.435  36.081  1.00  0.00     0.091 A 
ATOM     45  F   UNL A   1      42.022  30.138  35.619  1.00  0.00    -0.205 F 
ATOM     46  C   UNL A   1      43.039  33.654  35.678  1.00  0.00     0.022 A 
BRANCH  44  47
ATOM     47  S   UNL A   1      41.639  32.405  37.674  1.00  0.00     0.127 S 
ATOM     48  O   UNL A   1      42.411  31.392  38.391  1.00  0.00    -0.237 OA
ATOM     49  O   UNL A   1      41.834  33.773  38.155  1.00  0.00    -0.237 OA
ATOM     50  O   UNL A   1      40.253  32.057  37.390  1.00  0.00    -0.744 OA
ENDBRANCH  44  47
ENDBRANCH  26  40
BRANCH  27  51
ATOM     51  C   UNL A   1      42.693  24.117  27.155  1.00  0.00     0.023 A 
ATOM     52  C   UNL A   1      43.314  24.279  25.902  1.00  0.00     0.012 A 
ATOM     53  C   UNL A   1      42.121  22.872  27.485  1.00  0.00     0.148 A 
ATOM     54  C   UNL A   1      43.371  23.218  24.998  1.00  0.00     0.002 A 
ATOM     55  C   UNL A   1      42.240  21.803  26.607  1.00  0.00     0.091 A 
ATOM     56  F   UNL A   1      41.525  22.746  28.680  1.00  0.00    -0.205 F 
ATOM     57  C   UNL A   1      42.853  21.976  25.357  1.00  0.00     0.022 A 
BRANCH  55  58
ATOM     58  S   UNL A   1      41.763  20.129  27.059  1.00  0.00     0.127 S 
ATOM     59  O   UNL A   1      42.904  19.703  27.866  1.00  0.00    -0.237 OA
ATOM     60  O   UNL A   1      40.529  20.363  27.810  1.00  0.00    -0.237 OA
ATOM     61  O   UNL A   1      41.577  19.418  25.803  1.00  0.00    -0.744 OA
ENDBRANCH  55  58
ENDBRANCH  27  51
BRANCH  39  62
ATOM     62  C   UNL A   1      47.255  25.831  32.200  1.00  0.00     0.023 A 
ATOM     63  C   UNL A   1      48.442  26.279  31.589  1.00  0.00     0.012 A 
ATOM     64  C   UNL A   1      47.326  24.955  33.301  1.00  0.00     0.148 A 
ATOM     65  C   UNL A   1      49.683  25.853  32.061  1.00  0.00     0.002 A 
ATOM     66  C   UNL A   1      48.567  24.569  33.792  1.00  0.00     0.091 A 
ATOM     67  F   UNL A   1      46.181  24.530  33.853  1.00  0.00    -0.205 F 
ATOM     68  C   UNL A   1      49.746  25.013  33.169  1.00  0.00     0.022 A 
BRANCH  66  69
ATOM     69  S   UNL A   1      48.750  23.566  35.271  1.00  0.00     0.127 S 
ATOM     70  O   UNL A   1      50.135  23.111  35.152  1.00  0.00    -0.237 OA
ATOM     71  O   UNL A   1      48.518  24.541  36.338  1.00  0.00    -0.237 OA
ATOM     72  O   UNL A   1      47.741  22.519  35.176  1.00  0.00    -0.744 OA
ENDBRANCH  66  69
ENDBRANCH  39  62
ENDBRANCH  13  14
ENDBRANCH   6   8
ENDBRANCH   3   4
ENDBRANCH   2   3
ENDBRANCH   1   2
BRANCH   1  73
ATOM     73  C   UNL A   1      31.416  28.288  24.430  1.00  0.00     0.002 C 
BRANCH  73  74
ATOM     74  C   UNL A   1      32.337  28.999  23.425  1.00  0.00     0.021 C 
BRANCH  74  75
ATOM     75  C   UNL A   1      33.557  28.167  23.014  1.00  0.00     0.116 C 
BRANCH  75  76
ATOM     76  N   UNL A   1      33.314  27.541  21.730  1.00  0.00    -0.356 N 
ATOM     77  C   UNL A   1      33.045  26.254  21.393  1.00  0.00     0.224 C 
ATOM     78  H   UNL A   1      33.350  28.160  20.965  1.00  0.00     0.163 HD
ATOM     79  O   UNL A   1      33.042  26.011  20.180  1.00  0.00    -0.275 OA
BRANCH  77  80
ATOM     80  C   UNL A   1      32.669  25.183  22.424  1.00  0.00     0.098 C 
ATOM     81  C   UNL A   1      31.194  25.412  22.843  1.00  0.00     0.017 C 
ATOM     82  C   UNL A   1      32.811  23.745  21.927  1.00  0.00     0.131 C 
ATOM     83  C   UNL A   1      30.686  24.366  23.835  1.00  0.00     0.022 C 
ATOM     84  N   UNL A   1      32.276  22.789  22.892  1.00  0.00    -0.356 N 
ATOM     85  C   UNL A   1      30.897  22.947  23.318  1.00  0.00     0.118 C 
BRANCH  84  86
ATOM     86  C   UNL A   1      33.144  22.020  23.648  1.00  0.00     0.133 A 
ATOM     87  C   UNL A   1      32.794  20.711  23.912  1.00  0.00     0.077 A 
ATOM     88  N   UNL A   1      34.331  22.521  24.035  1.00  0.00    -0.211 NA
ATOM     89  C   UNL A   1      33.726  19.910  24.542  1.00  0.00     0.095 A 
ATOM     90  C   UNL A   1      35.162  21.682  24.694  1.00  0.00     0.165 A 
ATOM     91  N   UNL A   1      34.911  20.391  24.957  1.00  0.00    -0.226 NA
BRANCH  89  92
ATOM     92  C   UNL A   1      33.502  18.467  24.687  1.00  0.00     0.089 A 
ATOM     93  C   UNL A   1      34.235  17.553  23.927  1.00  0.00     0.030 A 
ATOM     94  N   UNL A   1      32.539  18.076  25.561  1.00  0.00    -0.255 NA
ATOM     95  C   UNL A   1      33.985  16.192  24.074  1.00  0.00     0.004 A 
ATOM     96  C   UNL A   1      32.338  16.746  25.700  1.00  0.00     0.112 A 
ATOM     97  C   UNL A   1      33.022  15.777  24.983  1.00  0.00     0.020 A 
ENDBRANCH  89  92
BRANCH  90  98
ATOM     98  C   UNL A   1      36.417  22.217  25.219  1.00  0.00     0.055 A 
ATOM     99  C   UNL A   1      36.473  23.481  25.834  1.00  0.00     0.015 A 
ATOM    100  C   UNL A   1      37.594  21.461  25.183  1.00  0.00     0.134 A 
ATOM    101  C   UNL A   1      37.661  23.955  26.405  1.00  0.00     0.001 A 
ATOM    102  C   UNL A   1      38.784  21.929  25.745  1.00  0.00     0.040 A 
ATOM    103  F   UNL A   1      37.611  20.260  24.583  1.00  0.00    -0.206 F 
ATOM    104  C   UNL A   1      38.817  23.176  26.361  1.00  0.00     0.003 A 
ENDBRANCH  90  98
ENDBRANCH  84  86
ENDBRANCH  77  80
ENDBRANCH  75  76
ENDBRANCH  74  75
ENDBRANCH  73  74
ENDBRANCH   1  73
TORSDOF 19
ENDMDL
MODEL 2
REMARK VINA RESULT:     -12.8      4.982     10.229
REMARK SMILES O=C(NCCCCCCNC(=O)[C@H]1CCCN(c2cc(-c3ccccn3)nc(-c3ccccc3F)n2)C1)c1ccc(-c2c3nc(c(-c4cccc(S(=O)(=O)[O-])c4F)c4ccc([nH]4)c(-c4cccc(S(=O)(=O)[O-])c4F)c4nc(c(-c5cccc(S(=O)(=O)[O-])c5F)c5ccc2[nH]5)C=C4)C=C3)cc1
REMARK SMILES IDX 6 1 5 2 4 3 3 4 1 5 2 6 38 8 39 9 100 10 40 11 99 12 41 13
REMARK SMILES IDX 42 14 43 15 93 16 44 17 98 18 92 19 94 20 45 21 97 22 91 23
REMARK SMILES IDX 90 24 46 26 78 27 58 28 77 29 59 30 62 31 76 32 95 33 60 34
REMARK SMILES IDX 61 35 75 37 96 38 63 39 47 40 48 41 56 42 49 43 51 44 57 45
REMARK SMILES IDX 50 46 52 47 53 48 54 49 55 50 79 51 80 52 88 53 81 54 83 55
REMARK SMILES IDX 89 56 82 57 84 58 85 59 86 60 87 61 64 62 65 63 73 64 66 65
REMARK SMILES IDX 68 66 74 67 67 68 69 69 70 70 71 71 72 72 7 73 8 74 9 75
REMARK SMILES IDX 10 76 11 77 12 79 13 80 14 81 37 82 15 83 17 84 16 85 18 86
REMARK SMILES IDX 19 87 36 88 20 89 28 90 27 91 21 92 22 93 26 94 23 95 25 96
REMARK SMILES IDX 24 97 29 98 30 99 34 100 31 101 33 102 35 103 32 104
REMARK H PARENT 3 7 94 25 62 36 10 78
REMARK Flexibility Score: inf
ROOT
ATOM      1  C   UNL A   1      34.664  22.569  24.389  1.00  0.00     0.002 C 
ENDROOT
BRANCH   1   2
ATOM      2  C   UNL A   1      36.136  22.982  24.366  1.00  0.00     0.021 C 
BRANCH   2   3
ATOM      3  C   UNL A   1      36.808  22.962  25.732  1.00  0.00     0.116 C 
BRANCH   3   4
ATOM      4  N   UNL A   1      37.655  21.792  25.898  1.00  0.00    -0.352 N 
ATOM      5  O   UNL A   1      39.614  20.696  26.100  1.00  0.00    -0.269 OA
ATOM      6  C   UNL A   1      38.994  21.741  26.216  1.00  0.00     0.251 C 
ATOM      7  H   UNL A   1      37.214  20.923  25.767  1.00  0.00     0.163 HD
BRANCH   6   8
ATOM      8  C   UNL A   1      39.669  22.975  26.682  1.00  0.00     0.039 A 
ATOM      9  C   UNL A   1      39.380  24.202  26.082  1.00  0.00     0.014 A 
ATOM     10  C   UNL A   1      40.594  22.902  27.728  1.00  0.00     0.014 A 
ATOM     11  C   UNL A   1      40.109  25.330  26.434  1.00  0.00     0.010 A 
ATOM     12  C   UNL A   1      41.260  24.059  28.144  1.00  0.00     0.010 A 
ATOM     13  C   UNL A   1      41.040  25.277  27.485  1.00  0.00    -0.014 A 
BRANCH  13  14
ATOM     14  C   UNL A   1      41.668  26.543  27.940  1.00  0.00     0.031 A 
ATOM     15  C   UNL A   1      43.065  26.922  27.548  1.00  0.00     0.074 A 
ATOM     16  C   UNL A   1      40.928  27.372  28.703  1.00  0.00     0.049 A 
ATOM     17  N   UNL A   1      43.704  28.038  27.788  1.00  0.00    -0.248 NA
ATOM     18  C   UNL A   1      43.855  25.928  26.805  1.00  0.00     0.031 C 
ATOM     19  C   UNL A   1      39.579  27.072  29.189  1.00  0.00     0.029 A 
ATOM     20  N   UNL A   1      41.183  28.629  29.185  1.00  0.00    -0.354 N 
ATOM     21  C   UNL A   1      44.979  27.871  27.263  1.00  0.00     0.074 A 
ATOM     22  C   UNL A   1      45.027  26.541  26.695  1.00  0.00     0.031 C 
ATOM     23  C   UNL A   1      39.103  28.136  29.848  1.00  0.00     0.029 A 
ATOM     24  C   UNL A   1      40.129  29.172  29.881  1.00  0.00     0.049 A 
ATOM     25  H   UNL A   1      42.038  29.097  29.046  1.00  0.00     0.167 HD
ATOM     26  C   UNL A   1      46.005  28.754  27.246  1.00  0.00     0.034 A 
ATOM     27  C   UNL A   1      39.995  30.370  30.481  1.00  0.00     0.034 A 
ATOM     28  C   UNL A   1      45.926  30.090  27.776  1.00  0.00     0.049 A 
ATOM     29  C   UNL A   1      41.126  31.350  30.399  1.00  0.00     0.074 A 
ATOM     30  C   UNL A   1      46.886  31.087  27.735  1.00  0.00     0.029 A 
ATOM     31  N   UNL A   1      44.832  30.617  28.447  1.00  0.00    -0.354 N 
ATOM     32  N   UNL A   1      42.276  31.222  29.782  1.00  0.00    -0.248 NA
ATOM     33  C   UNL A   1      40.942  32.643  31.070  1.00  0.00     0.031 C 
ATOM     34  C   UNL A   1      46.381  32.208  28.401  1.00  0.00     0.029 A 
ATOM     35  C   UNL A   1      45.097  31.919  28.836  1.00  0.00     0.049 A 
ATOM     36  H   UNL A   1      43.991  30.135  28.621  1.00  0.00     0.167 HD
ATOM     37  C   UNL A   1      42.950  32.419  29.979  1.00  0.00     0.074 A 
ATOM     38  C   UNL A   1      42.068  33.271  30.753  1.00  0.00     0.031 C 
ATOM     39  C   UNL A   1      44.194  32.770  29.570  1.00  0.00     0.034 A 
BRANCH  26  40
ATOM     40  C   UNL A   1      47.296  28.332  26.593  1.00  0.00     0.023 A 
ATOM     41  C   UNL A   1      48.417  28.040  27.396  1.00  0.00     0.012 A 
ATOM     42  C   UNL A   1      47.374  28.133  25.200  1.00  0.00     0.148 A 
ATOM     43  C   UNL A   1      49.601  27.577  26.822  1.00  0.00     0.002 A 
ATOM     44  C   UNL A   1      48.545  27.635  24.640  1.00  0.00     0.091 A 
ATOM     45  F   UNL A   1      46.307  28.439  24.449  1.00  0.00    -0.205 F 
ATOM     46  C   UNL A   1      49.661  27.362  25.447  1.00  0.00     0.022 A 
BRANCH  44  47
ATOM     47  S   UNL A   1      48.686  27.250  22.889  1.00  0.00     0.127 S 
ATOM     48  O   UNL A   1      48.268  25.850  22.861  1.00  0.00    -0.237 OA
ATOM     49  O   UNL A   1      47.733  28.182  22.286  1.00  0.00    -0.237 OA
ATOM     50  O   UNL A   1      50.078  27.500  22.539  1.00  0.00    -0.744 OA
ENDBRANCH  44  47
ENDBRANCH  26  40
BRANCH  27  51
ATOM     51  C   UNL A   1      38.696  30.704  31.130  1.00  0.00     0.023 A 
ATOM     52  C   UNL A   1      38.445  30.255  32.440  1.00  0.00     0.012 A 
ATOM     53  C   UNL A   1      37.782  31.583  30.516  1.00  0.00     0.148 A 
ATOM     54  C   UNL A   1      37.309  30.680  33.130  1.00  0.00     0.002 A 
ATOM     55  C   UNL A   1      36.689  32.054  31.233  1.00  0.00     0.091 A 
ATOM     56  F   UNL A   1      38.037  31.989  29.263  1.00  0.00    -0.205 F 
ATOM     57  C   UNL A   1      36.443  31.594  32.535  1.00  0.00     0.022 A 
BRANCH  55  58
ATOM     58  S   UNL A   1      35.625  33.364  30.613  1.00  0.00     0.127 S 
ATOM     59  O   UNL A   1      36.209  33.626  29.300  1.00  0.00    -0.237 OA
ATOM     60  O   UNL A   1      34.320  32.701  30.587  1.00  0.00    -0.237 OA
ATOM     61  O   UNL A   1      35.730  34.448  31.579  1.00  0.00    -0.744 OA
ENDBRANCH  55  58
ENDBRANCH  27  51
BRANCH  39  62
ATOM     62  C   UNL A   1      44.695  34.139  29.942  1.00  0.00     0.023 A 
ATOM     63  C   UNL A   1      45.427  34.306  31.135  1.00  0.00     0.012 A 
ATOM     64  C   UNL A   1      44.556  35.222  29.053  1.00  0.00     0.148 A 
ATOM     65  C   UNL A   1      46.003  35.537  31.442  1.00  0.00     0.002 A 
ATOM     66  C   UNL A   1      45.169  36.434  29.347  1.00  0.00     0.091 A 
ATOM     67  F   UNL A   1      43.841  35.042  27.934  1.00  0.00    -0.205 F 
ATOM     68  C   UNL A   1      45.888  36.595  30.544  1.00  0.00     0.022 A 
BRANCH  66  69
ATOM     69  S   UNL A   1      45.156  37.823  28.207  1.00  0.00     0.127 S 
ATOM     70  O   UNL A   1      45.972  38.803  28.924  1.00  0.00    -0.237 OA
ATOM     71  O   UNL A   1      45.791  37.254  27.017  1.00  0.00    -0.237 OA
ATOM     72  O   UNL A   1      43.757  38.188  28.032  1.00  0.00    -0.744 OA
ENDBRANCH  66  69
ENDBRANCH  39  62
ENDBRANCH  13  14
ENDBRANCH   6   8
ENDBRANCH   3   4
ENDBRANCH   2   3
ENDBRANCH   1   2
BRANCH   1  73
ATOM     73  C   UNL A   1      34.412  21.096  24.737  1.00  0.00     0.002 C 
BRANCH  73  74
ATOM     74  C   UNL A   1      33.666  20.857  26.060  1.00  0.00     0.021 C 
BRANCH  74  75
ATOM     75  C   UNL A   1      33.480  22.126  26.900  1.00  0.00     0.116 C 
BRANCH  75  76
ATOM     76  N   UNL A   1      32.107  22.218  27.353  1.00  0.00    -0.356 N 
ATOM     77  C   UNL A   1      31.104  23.068  27.018  1.00  0.00     0.224 C 
ATOM     78  H   UNL A   1      31.858  21.543  28.025  1.00  0.00     0.163 HD
ATOM     79  O   UNL A   1      30.081  22.981  27.707  1.00  0.00    -0.275 OA
BRANCH  77  80
ATOM     80  C   UNL A   1      31.177  24.008  25.807  1.00  0.00     0.098 C 
ATOM     81  C   UNL A   1      31.167  23.141  24.522  1.00  0.00     0.017 C 
ATOM     82  C   UNL A   1      30.033  25.016  25.718  1.00  0.00     0.131 C 
ATOM     83  C   UNL A   1      31.182  23.975  23.241  1.00  0.00     0.022 C 
ATOM     84  N   UNL A   1      30.069  25.758  24.461  1.00  0.00    -0.356 N 
ATOM     85  C   UNL A   1      30.054  25.002  23.220  1.00  0.00     0.118 C 
BRANCH  84  86
ATOM     86  C   UNL A   1      30.488  27.078  24.455  1.00  0.00     0.133 A 
ATOM     87  C   UNL A   1      29.869  27.955  23.587  1.00  0.00     0.077 A 
ATOM     88  N   UNL A   1      31.413  27.498  25.336  1.00  0.00    -0.211 NA
ATOM     89  C   UNL A   1      30.190  29.293  23.687  1.00  0.00     0.095 A 
ATOM     90  C   UNL A   1      31.706  28.818  25.330  1.00  0.00     0.165 A 
ATOM     91  N   UNL A   1      31.125  29.737  24.545  1.00  0.00    -0.226 NA
BRANCH  89  92
ATOM     92  C   UNL A   1      29.441  30.305  22.932  1.00  0.00     0.089 A 
ATOM     93  C   UNL A   1      28.986  31.467  23.559  1.00  0.00     0.030 A 
ATOM     94  N   UNL A   1      29.191  30.040  21.624  1.00  0.00    -0.255 NA
ATOM     95  C   UNL A   1      28.261  32.398  22.820  1.00  0.00     0.004 A 
ATOM     96  C   UNL A   1      28.507  30.977  20.927  1.00  0.00     0.112 A 
ATOM     97  C   UNL A   1      28.021  32.153  21.476  1.00  0.00     0.020 A 
ENDBRANCH  89  92
BRANCH  90  98
ATOM     98  C   UNL A   1      32.778  29.296  26.202  1.00  0.00     0.055 A 
ATOM     99  C   UNL A   1      33.976  28.574  26.351  1.00  0.00     0.015 A 
ATOM    100  C   UNL A   1      32.672  30.522  26.869  1.00  0.00     0.134 A 
ATOM    101  C   UNL A   1      35.030  29.077  27.126  1.00  0.00     0.001 A 
ATOM    102  C   UNL A   1      33.716  31.027  27.648  1.00  0.00     0.040 A 
ATOM    103  F   UNL A   1      31.542  31.242  26.789  1.00  0.00    -0.206 F 
ATOM    104  C   UNL A   1      34.899  30.305  27.773  1.00  0.00     0.003 A 
ENDBRANCH  90  98
ENDBRANCH  84  86
ENDBRANCH  77  80
ENDBRANCH  75  76
ENDBRANCH  74  75
ENDBRANCH  73  74
ENDBRANCH   1  73
TORSDOF 19
ENDMDL
MODEL 3
REMARK VINA RESULT:     -12.7      4.779      8.777
REMARK SMILES O=C(NCCCCCCNC(=O)[C@H]1CCCN(c2cc(-c3ccccn3)nc(-c3ccccc3F)n2)C1)c1ccc(-c2c3nc(c(-c4cccc(S(=O)(=O)[O-])c4F)c4ccc([nH]4)c(-c4cccc(S(=O)(=O)[O-])c4F)c4nc(c(-c5cccc(S(=O)(=O)[O-])c5F)c5ccc2[nH]5)C=C4)C=C3)cc1
REMARK SMILES IDX 6 1 5 2 4 3 3 4 1 5 2 6 38 8 39 9 100 10 40 11 99 12 41 13
REMARK SMILES IDX 42 14 43 15 93 16 44 17 98 18 92 19 94 20 45 21 97 22 91 23
REMARK SMILES IDX 90 24 46 26 78 27 58 28 77 29 59 30 62 31 76 32 95 33 60 34
REMARK SMILES IDX 61 35 75 37 96 38 63 39 47 40 48 41 56 42 49 43 51 44 57 45
REMARK SMILES IDX 50 46 52 47 53 48 54 49 55 50 79 51 80 52 88 53 81 54 83 55
REMARK SMILES IDX 89 56 82 57 84 58 85 59 86 60 87 61 64 62 65 63 73 64 66 65
REMARK SMILES IDX 68 66 74 67 67 68 69 69 70 70 71 71 72 72 7 73 8 74 9 75
REMARK SMILES IDX 10 76 11 77 12 79 13 80 14 81 37 82 15 83 17 84 16 85 18 86
REMARK SMILES IDX 19 87 36 88 20 89 28 90 27 91 21 92 22 93 26 94 23 95 25 96
REMARK SMILES IDX 24 97 29 98 30 99 34 100 31 101 33 102 35 103 32 104
REMARK H PARENT 3 7 94 25 62 36 10 78
REMARK Flexibility Score: inf
ROOT
ATOM      1  C   UNL A   1      34.786  23.031  24.592  1.00  0.00     0.002 C 
ENDROOT
BRANCH   1   2
ATOM      2  C   UNL A   1      36.207  23.584  24.464  1.00  0.00     0.021 C 
BRANCH   2   3
ATOM      3  C   UNL A   1      36.904  23.817  25.798  1.00  0.00     0.116 C 
BRANCH   3   4
ATOM      4  N   UNL A   1      37.795  22.720  26.138  1.00  0.00    -0.352 N 
ATOM      5  O   UNL A   1      39.786  21.764  26.588  1.00  0.00    -0.269 OA
ATOM      6  C   UNL A   1      39.106  22.777  26.556  1.00  0.00     0.251 C 
ATOM      7  H   UNL A   1      37.411  21.818  26.060  1.00  0.00     0.163 HD
BRANCH   6   8
ATOM      8  C   UNL A   1      39.678  24.087  26.949  1.00  0.00     0.039 A 
ATOM      9  C   UNL A   1      39.769  24.435  28.298  1.00  0.00     0.014 A 
ATOM     10  C   UNL A   1      40.128  24.967  25.962  1.00  0.00     0.014 A 
ATOM     11  C   UNL A   1      40.183  25.712  28.654  1.00  0.00     0.010 A 
ATOM     12  C   UNL A   1      40.632  26.219  26.328  1.00  0.00     0.010 A 
ATOM     13  C   UNL A   1      40.643  26.610  27.675  1.00  0.00    -0.014 A 
BRANCH  13  14
ATOM     14  C   UNL A   1      41.236  27.897  28.116  1.00  0.00     0.031 A 
ATOM     15  C   UNL A   1      40.391  29.040  28.591  1.00  0.00     0.074 A 
ATOM     16  C   UNL A   1      42.580  28.004  28.107  1.00  0.00     0.049 A 
ATOM     17  N   UNL A   1      40.776  30.183  29.099  1.00  0.00    -0.248 NA
ATOM     18  C   UNL A   1      38.931  28.898  28.476  1.00  0.00     0.031 C 
ATOM     19  C   UNL A   1      43.493  26.972  27.608  1.00  0.00     0.029 A 
ATOM     20  N   UNL A   1      43.412  29.003  28.540  1.00  0.00    -0.354 N 
ATOM     21  C   UNL A   1      39.616  30.911  29.329  1.00  0.00     0.074 A 
ATOM     22  C   UNL A   1      38.509  30.084  28.899  1.00  0.00     0.031 C 
ATOM     23  C   UNL A   1      44.756  27.364  27.818  1.00  0.00     0.029 A 
ATOM     24  C   UNL A   1      44.747  28.696  28.412  1.00  0.00     0.049 A 
ATOM     25  H   UNL A   1      43.087  29.856  28.907  1.00  0.00     0.167 HD
ATOM     26  C   UNL A   1      39.491  32.150  29.863  1.00  0.00     0.034 A 
ATOM     27  C   UNL A   1      45.847  29.402  28.737  1.00  0.00     0.034 A 
ATOM     28  C   UNL A   1      40.600  32.941  30.326  1.00  0.00     0.049 A 
ATOM     29  C   UNL A   1      45.679  30.747  29.377  1.00  0.00     0.074 A 
ATOM     30  C   UNL A   1      40.570  34.175  30.955  1.00  0.00     0.029 A 
ATOM     31  N   UNL A   1      41.936  32.587  30.209  1.00  0.00    -0.354 N 
ATOM     32  N   UNL A   1      44.569  31.362  29.708  1.00  0.00    -0.248 NA
ATOM     33  C   UNL A   1      46.903  31.487  29.711  1.00  0.00     0.031 C 
ATOM     34  C   UNL A   1      41.887  34.575  31.197  1.00  0.00     0.029 A 
ATOM     35  C   UNL A   1      42.739  33.581  30.741  1.00  0.00     0.049 A 
ATOM     36  H   UNL A   1      42.265  31.750  29.806  1.00  0.00     0.167 HD
ATOM     37  C   UNL A   1      44.958  32.557  30.300  1.00  0.00     0.074 A 
ATOM     38  C   UNL A   1      46.407  32.567  30.304  1.00  0.00     0.031 C 
ATOM     39  C   UNL A   1      44.180  33.559  30.777  1.00  0.00     0.034 A 
BRANCH  26  40
ATOM     40  C   UNL A   1      38.105  32.718  30.024  1.00  0.00     0.023 A 
ATOM     41  C   UNL A   1      37.405  33.174  28.889  1.00  0.00     0.012 A 
ATOM     42  C   UNL A   1      37.461  32.714  31.277  1.00  0.00     0.148 A 
ATOM     43  C   UNL A   1      36.094  33.637  29.001  1.00  0.00     0.002 A 
ATOM     44  C   UNL A   1      36.140  33.140  31.374  1.00  0.00     0.091 A 
ATOM     45  F   UNL A   1      38.148  32.299  32.350  1.00  0.00    -0.205 F 
ATOM     46  C   UNL A   1      35.458  33.607  30.239  1.00  0.00     0.022 A 
BRANCH  44  47
ATOM     47  S   UNL A   1      35.214  33.061  32.913  1.00  0.00     0.127 S 
ATOM     48  O   UNL A   1      33.871  32.740  32.433  1.00  0.00    -0.237 OA
ATOM     49  O   UNL A   1      35.882  31.971  33.625  1.00  0.00    -0.237 OA
ATOM     50  O   UNL A   1      35.366  34.369  33.535  1.00  0.00    -0.744 OA
ENDBRANCH  44  47
ENDBRANCH  26  40
BRANCH  27  51
ATOM     51  C   UNL A   1      47.184  28.782  28.521  1.00  0.00     0.023 A 
ATOM     52  C   UNL A   1      47.763  28.016  29.550  1.00  0.00     0.012 A 
ATOM     53  C   UNL A   1      47.808  28.824  27.259  1.00  0.00     0.148 A 
ATOM     54  C   UNL A   1      48.937  27.298  29.324  1.00  0.00     0.002 A 
ATOM     55  C   UNL A   1      48.939  28.054  27.022  1.00  0.00     0.091 A 
ATOM     56  F   UNL A   1      47.244  29.570  26.297  1.00  0.00    -0.205 F 
ATOM     57  C   UNL A   1      49.514  27.300  28.056  1.00  0.00     0.022 A 
BRANCH  55  58
ATOM     58  S   UNL A   1      49.642  27.856  25.378  1.00  0.00     0.127 S 
ATOM     59  O   UNL A   1      50.622  28.939  25.342  1.00  0.00    -0.237 OA
ATOM     60  O   UNL A   1      50.212  26.510  25.457  1.00  0.00    -0.237 OA
ATOM     61  O   UNL A   1      48.525  27.983  24.454  1.00  0.00    -0.744 OA
ENDBRANCH  55  58
ENDBRANCH  27  51
BRANCH  39  62
ATOM     62  C   UNL A   1      44.868  34.767  31.354  1.00  0.00     0.023 A 
ATOM     63  C   UNL A   1      45.249  34.762  32.710  1.00  0.00     0.012 A 
ATOM     64  C   UNL A   1      45.250  35.841  30.527  1.00  0.00     0.148 A 
ATOM     65  C   UNL A   1      45.992  35.817  33.238  1.00  0.00     0.002 A 
ATOM     66  C   UNL A   1      46.027  36.868  31.050  1.00  0.00     0.091 A 
ATOM     67  F   UNL A   1      44.860  35.829  29.244  1.00  0.00    -0.205 F 
ATOM     68  C   UNL A   1      46.393  36.860  32.407  1.00  0.00     0.022 A 
BRANCH  66  69
ATOM     69  S   UNL A   1      46.670  38.203  30.035  1.00  0.00     0.127 S 
ATOM     70  O   UNL A   1      47.382  39.011  31.025  1.00  0.00    -0.237 OA
ATOM     71  O   UNL A   1      47.535  37.490  29.095  1.00  0.00    -0.237 OA
ATOM     72  O   UNL A   1      45.511  38.843  29.428  1.00  0.00    -0.744 OA
ENDBRANCH  66  69
ENDBRANCH  39  62
ENDBRANCH  13  14
ENDBRANCH   6   8
ENDBRANCH   3   4
ENDBRANCH   2   3
ENDBRANCH   1   2
BRANCH   1  73
ATOM     73  C   UNL A   1      34.703  21.533  24.908  1.00  0.00     0.002 C 
BRANCH  73  74
ATOM     74  C   UNL A   1      34.137  21.189  26.295  1.00  0.00     0.021 C 
BRANCH  74  75
ATOM     75  C   UNL A   1      33.748  22.419  27.123  1.00  0.00     0.116 C 
BRANCH  75  76
ATOM     76  N   UNL A   1      32.348  22.343  27.488  1.00  0.00    -0.356 N 
ATOM     77  C   UNL A   1      31.271  23.061  27.080  1.00  0.00     0.224 C 
ATOM     78  H   UNL A   1      32.141  21.646  28.151  1.00  0.00     0.163 HD
ATOM     79  O   UNL A   1      30.224  22.851  27.704  1.00  0.00    -0.275 OA
BRANCH  77  80
ATOM     80  C   UNL A   1      31.305  23.998  25.865  1.00  0.00     0.098 C 
ATOM     81  C   UNL A   1      31.277  23.126  24.583  1.00  0.00     0.017 C 
ATOM     82  C   UNL A   1      30.147  24.991  25.798  1.00  0.00     0.131 C 
ATOM     83  C   UNL A   1      31.253  23.956  23.299  1.00  0.00     0.022 C 
ATOM     84  N   UNL A   1      30.146  25.729  24.538  1.00  0.00    -0.356 N 
ATOM     85  C   UNL A   1      30.113  24.969  23.301  1.00  0.00     0.118 C 
BRANCH  84  86
ATOM     86  C   UNL A   1      30.548  27.054  24.519  1.00  0.00     0.133 A 
ATOM     87  C   UNL A   1      29.904  27.918  23.655  1.00  0.00     0.077 A 
ATOM     88  N   UNL A   1      31.481  27.491  25.383  1.00  0.00    -0.211 NA
ATOM     89  C   UNL A   1      30.210  29.261  23.743  1.00  0.00     0.095 A 
ATOM     90  C   UNL A   1      31.757  28.814  25.365  1.00  0.00     0.165 A 
ATOM     91  N   UNL A   1      31.153  29.722  24.584  1.00  0.00    -0.226 NA
BRANCH  89  92
ATOM     92  C   UNL A   1      29.437  30.259  22.995  1.00  0.00     0.089 A 
ATOM     93  C   UNL A   1      29.077  31.471  23.589  1.00  0.00     0.030 A 
ATOM     94  N   UNL A   1      29.068  29.934  21.729  1.00  0.00    -0.255 NA
ATOM     95  C   UNL A   1      28.326  32.388  22.859  1.00  0.00     0.004 A 
ATOM     96  C   UNL A   1      28.362  30.857  21.037  1.00  0.00     0.112 A 
ATOM     97  C   UNL A   1      27.966  32.079  21.555  1.00  0.00     0.020 A 
ENDBRANCH  89  92
BRANCH  90  98
ATOM     98  C   UNL A   1      32.837  29.310  26.217  1.00  0.00     0.055 A 
ATOM     99  C   UNL A   1      34.058  28.621  26.327  1.00  0.00     0.015 A 
ATOM    100  C   UNL A   1      32.713  30.523  26.905  1.00  0.00     0.134 A 
ATOM    101  C   UNL A   1      35.116  29.143  27.083  1.00  0.00     0.001 A 
ATOM    102  C   UNL A   1      33.760  31.047  27.665  1.00  0.00     0.040 A 
ATOM    103  F   UNL A   1      31.561  31.212  26.863  1.00  0.00    -0.206 F 
ATOM    104  C   UNL A   1      34.967  30.358  27.751  1.00  0.00     0.003 A 
ENDBRANCH  90  98
ENDBRANCH  84  86
ENDBRANCH  77  80
ENDBRANCH  75  76
ENDBRANCH  74  75
ENDBRANCH  73  74
ENDBRANCH   1  73
TORSDOF 19
ENDMDL
