MODEL 1
REMARK VINA RESULT:     -12.0      0.000      0.000
REMARK SMILES CC[C@H](C)[C@H](C(=O)NCCCCCCNC(=O)c1ccc(-c2c3nc(c(-c4cccc(S(=O)(=O)[O-])c4F)c4ccc([nH]4)c(-c4cccc(S(=O)(=O)[O-])c4F)c4nc(c(-c5cccc(S(=O)(=O)[O-])c5F)c5ccc2[nH]5)C=C4)C=C3)cc1)N1C(=O)/C(=C/c2ccc(C)o2)SC1=S
REMARK SMILES IDX 12 1 11 2 10 3 9 4 8 5 6 6 7 7 5 9 3 10 4 11 2 12 1 13 81 14
REMARK SMILES IDX 82 15 93 16 83 17 84 18 92 19 94 20 85 21 86 22 87 23 91 24
REMARK SMILES IDX 88 25 89 26 90 27 13 28 14 29 15 30 16 31 17 33 18 34 19 35
REMARK SMILES IDX 80 36 20 37 79 38 21 39 22 40 23 41 73 42 24 43 78 44 72 45
REMARK SMILES IDX 74 46 25 47 77 48 71 49 70 50 26 52 58 53 38 54 57 55 39 56
REMARK SMILES IDX 42 57 56 58 75 59 40 60 41 61 55 63 76 64 43 65 27 66 28 67
REMARK SMILES IDX 36 68 29 69 31 70 37 71 30 72 32 73 33 74 34 75 35 76 59 77
REMARK SMILES IDX 60 78 68 79 61 80 63 81 69 82 62 83 64 84 65 85 66 86 67 87
REMARK SMILES IDX 44 88 45 89 53 90 46 91 48 92 54 93 47 94 49 95 50 96 51 97
REMARK SMILES IDX 52 98
REMARK H PARENT 8 8 15 32 74 51 42 62
REMARK Flexibility Score: inf
ROOT
ATOM      1  C   UNL A   1      31.553  30.439  25.951  1.00  0.00     0.002 C 
ENDROOT
BRANCH   1   2
ATOM      2  C   UNL A   1      32.982  29.889  25.921  1.00  0.00     0.002 C 
BRANCH   2   3
ATOM      3  C   UNL A   1      33.278  28.956  24.749  1.00  0.00     0.021 C 
BRANCH   3   4
ATOM      4  C   UNL A   1      33.522  27.500  25.157  1.00  0.00     0.116 C 
BRANCH   4   5
ATOM      5  N   UNL A   1      33.687  26.682  23.972  1.00  0.00    -0.354 N 
ATOM      6  C   UNL A   1      33.370  25.393  23.684  1.00  0.00     0.243 C 
ATOM      7  O   UNL A   1      33.748  24.980  22.578  1.00  0.00    -0.273 OA
ATOM      8  H   UNL A   1      34.113  27.157  23.223  1.00  0.00     0.163 HD
BRANCH   6   9
ATOM      9  C   UNL A   1      32.688  24.404  24.672  1.00  0.00     0.184 C 
BRANCH   9  10
ATOM     10  C   UNL A   1      31.115  24.604  24.590  1.00  0.00     0.018 C 
ATOM     11  C   UNL A   1      30.530  24.956  25.970  1.00  0.00     0.010 C 
BRANCH  10  12
ATOM     12  C   UNL A   1      30.662  25.624  23.531  1.00  0.00     0.002 C 
ATOM     13  C   UNL A   1      29.971  26.867  24.078  1.00  0.00     0.004 C 
ENDBRANCH  10  12
ENDBRANCH   9  10
BRANCH   9  14
ATOM     14  N   UNL A   1      33.189  22.991  24.669  1.00  0.00    -0.280 N 
ATOM     15  C   UNL A   1      32.573  22.060  23.834  1.00  0.00     0.267 C 
ATOM     16  C   UNL A   1      33.812  22.376  25.747  1.00  0.00     0.149 C 
ATOM     17  O   UNL A   1      31.615  22.261  23.091  1.00  0.00    -0.268 OA
ATOM     18  C   UNL A   1      33.054  20.679  24.095  1.00  0.00     0.084 C 
ATOM     19  S   UNL A   1      34.218  20.714  25.344  1.00  0.00    -0.054 SA
ATOM     20  S   UNL A   1      34.152  22.931  27.286  1.00  0.00    -0.052 S 
ATOM     21  C   UNL A   1      32.538  19.613  23.468  1.00  0.00     0.068 C 
BRANCH  21  22
ATOM     22  C   UNL A   1      32.922  18.281  23.770  1.00  0.00     0.128 A 
ATOM     23  C   UNL A   1      33.868  17.459  23.163  1.00  0.00     0.050 A 
ATOM     24  O   UNL A   1      32.360  17.571  24.799  1.00  0.00    -0.462 OA
ATOM     25  C   UNL A   1      33.825  16.200  23.807  1.00  0.00     0.046 A 
ATOM     26  C   UNL A   1      32.875  16.315  24.793  1.00  0.00     0.101 A 
ATOM     27  C   UNL A   1      32.319  15.370  25.784  1.00  0.00     0.087 C 
ENDBRANCH  21  22
ENDBRANCH   9  14
ENDBRANCH   6   9
ENDBRANCH   4   5
ENDBRANCH   3   4
ENDBRANCH   2   3
ENDBRANCH   1   2
BRANCH   1  28
ATOM     28  C   UNL A   1      31.410  31.862  26.500  1.00  0.00     0.021 C 
BRANCH  28  29
ATOM     29  C   UNL A   1      32.648  32.409  27.208  1.00  0.00     0.116 C 
BRANCH  29  30
ATOM     30  N   UNL A   1      32.476  33.798  27.606  1.00  0.00    -0.352 N 
ATOM     31  C   UNL A   1      33.132  34.501  28.583  1.00  0.00     0.251 C 
ATOM     32  H   UNL A   1      31.796  34.303  27.105  1.00  0.00     0.163 HD
ATOM     33  O   UNL A   1      32.720  35.603  28.940  1.00  0.00    -0.269 OA
BRANCH  31  34
ATOM     34  C   UNL A   1      34.337  33.920  29.207  1.00  0.00     0.039 A 
ATOM     35  C   UNL A   1      35.600  34.330  28.775  1.00  0.00     0.014 A 
ATOM     36  C   UNL A   1      34.206  32.969  30.223  1.00  0.00     0.014 A 
ATOM     37  C   UNL A   1      36.741  33.820  29.399  1.00  0.00     0.010 A 
ATOM     38  C   UNL A   1      35.339  32.515  30.886  1.00  0.00     0.010 A 
ATOM     39  C   UNL A   1      36.617  32.924  30.473  1.00  0.00    -0.014 A 
BRANCH  39  40
ATOM     40  C   UNL A   1      37.802  32.370  31.173  1.00  0.00     0.031 A 
ATOM     41  C   UNL A   1      38.544  31.213  30.562  1.00  0.00     0.074 A 
ATOM     42  C   UNL A   1      38.131  32.822  32.399  1.00  0.00     0.049 A 
ATOM     43  N   UNL A   1      39.499  30.483  31.073  1.00  0.00    -0.248 NA
ATOM     44  C   UNL A   1      38.131  30.801  29.209  1.00  0.00     0.031 C 
ATOM     45  C   UNL A   1      37.447  33.897  33.119  1.00  0.00     0.029 A 
ATOM     46  N   UNL A   1      39.103  32.401  33.275  1.00  0.00    -0.354 N 
ATOM     47  C   UNL A   1      39.765  29.496  30.131  1.00  0.00     0.074 A 
ATOM     48  C   UNL A   1      38.854  29.706  29.028  1.00  0.00     0.031 C 
ATOM     49  C   UNL A   1      38.010  34.044  34.330  1.00  0.00     0.029 A 
ATOM     50  C   UNL A   1      39.071  33.053  34.486  1.00  0.00     0.049 A 
ATOM     51  H   UNL A   1      39.758  31.701  33.056  1.00  0.00     0.167 HD
ATOM     52  C   UNL A   1      40.700  28.519  30.170  1.00  0.00     0.034 A 
ATOM     53  C   UNL A   1      39.801  32.860  35.602  1.00  0.00     0.034 A 
ATOM     54  C   UNL A   1      41.640  28.354  31.244  1.00  0.00     0.049 A 
ATOM     55  C   UNL A   1      40.868  31.796  35.600  1.00  0.00     0.074 A 
ATOM     56  C   UNL A   1      42.686  27.453  31.339  1.00  0.00     0.029 A 
ATOM     57  N   UNL A   1      41.650  29.109  32.406  1.00  0.00    -0.354 N 
ATOM     58  N   UNL A   1      41.200  30.964  34.644  1.00  0.00    -0.248 NA
ATOM     59  C   UNL A   1      41.686  31.668  36.816  1.00  0.00     0.031 C 
ATOM     60  C   UNL A   1      43.319  27.653  32.571  1.00  0.00     0.029 A 
ATOM     61  C   UNL A   1      42.682  28.694  33.228  1.00  0.00     0.049 A 
ATOM     62  H   UNL A   1      41.016  29.832  32.616  1.00  0.00     0.167 HD
ATOM     63  C   UNL A   1      42.291  30.247  35.122  1.00  0.00     0.074 A 
ATOM     64  C   UNL A   1      42.569  30.747  36.451  1.00  0.00     0.031 C 
ATOM     65  C   UNL A   1      42.991  29.257  34.518  1.00  0.00     0.034 A 
BRANCH  52  66
ATOM     66  C   UNL A   1      40.788  27.582  28.993  1.00  0.00     0.023 A 
ATOM     67  C   UNL A   1      39.911  26.482  28.912  1.00  0.00     0.012 A 
ATOM     68  C   UNL A   1      41.695  27.822  27.943  1.00  0.00     0.148 A 
ATOM     69  C   UNL A   1      39.959  25.613  27.823  1.00  0.00     0.002 A 
ATOM     70  C   UNL A   1      41.706  26.978  26.838  1.00  0.00     0.091 A 
ATOM     71  F   UNL A   1      42.537  28.860  28.047  1.00  0.00    -0.205 F 
ATOM     72  C   UNL A   1      40.848  25.867  26.783  1.00  0.00     0.022 A 
BRANCH  70  73
ATOM     73  S   UNL A   1      42.757  27.266  25.410  1.00  0.00     0.127 S 
ATOM     74  O   UNL A   1      42.158  28.471  24.840  1.00  0.00    -0.237 OA
ATOM     75  O   UNL A   1      44.067  27.473  26.030  1.00  0.00    -0.237 OA
ATOM     76  O   UNL A   1      42.658  26.067  24.590  1.00  0.00    -0.744 OA
ENDBRANCH  70  73
ENDBRANCH  52  66
BRANCH  53  77
ATOM     77  C   UNL A   1      39.594  33.737  36.789  1.00  0.00     0.023 A 
ATOM     78  C   UNL A   1      39.979  35.090  36.721  1.00  0.00     0.012 A 
ATOM     79  C   UNL A   1      38.991  33.253  37.967  1.00  0.00     0.148 A 
ATOM     80  C   UNL A   1      39.796  35.938  37.814  1.00  0.00     0.002 A 
ATOM     81  C   UNL A   1      38.764  34.118  39.034  1.00  0.00     0.091 A 
ATOM     82  F   UNL A   1      38.641  31.960  38.018  1.00  0.00    -0.205 F 
ATOM     83  C   UNL A   1      39.180  35.455  38.965  1.00  0.00     0.022 A 
BRANCH  81  84
ATOM     84  S   UNL A   1      37.861  33.616  40.504  1.00  0.00     0.127 S 
ATOM     85  O   UNL A   1      37.764  34.873  41.240  1.00  0.00    -0.237 OA
ATOM     86  O   UNL A   1      36.600  33.136  39.937  1.00  0.00    -0.237 OA
ATOM     87  O   UNL A   1      38.671  32.576  41.125  1.00  0.00    -0.744 OA
ENDBRANCH  81  84
ENDBRANCH  53  77
BRANCH  65  88
ATOM     88  C   UNL A   1      44.173  28.678  35.248  1.00  0.00     0.023 A 
ATOM     89  C   UNL A   1      45.449  29.248  35.083  1.00  0.00     0.012 A 
ATOM     90  C   UNL A   1      43.987  27.648  36.192  1.00  0.00     0.148 A 
ATOM     91  C   UNL A   1      46.529  28.788  35.837  1.00  0.00     0.002 A 
ATOM     92  C   UNL A   1      45.057  27.228  36.972  1.00  0.00     0.091 A 
ATOM     93  F   UNL A   1      42.765  27.110  36.318  1.00  0.00    -0.205 F 
ATOM     94  C   UNL A   1      46.331  27.791  36.790  1.00  0.00     0.022 A 
BRANCH  92  95
ATOM     95  S   UNL A   1      44.874  26.024  38.293  1.00  0.00     0.127 S 
ATOM     96  O   UNL A   1      43.927  26.697  39.180  1.00  0.00    -0.237 OA
ATOM     97  O   UNL A   1      44.329  24.867  37.582  1.00  0.00    -0.237 OA
ATOM     98  O   UNL A   1      46.207  25.823  38.844  1.00  0.00    -0.744 OA
ENDBRANCH  92  95
ENDBRANCH  65  88
ENDBRANCH  39  40
ENDBRANCH  31  34
ENDBRANCH  29  30
ENDBRANCH  28  29
ENDBRANCH   1  28
TORSDOF 20
ENDMDL
MODEL 2
REMARK VINA RESULT:     -11.4      1.821      2.131
REMARK SMILES CC[C@H](C)[C@H](C(=O)NCCCCCCNC(=O)c1ccc(-c2c3nc(c(-c4cccc(S(=O)(=O)[O-])c4F)c4ccc([nH]4)c(-c4cccc(S(=O)(=O)[O-])c4F)c4nc(c(-c5cccc(S(=O)(=O)[O-])c5F)c5ccc2[nH]5)C=C4)C=C3)cc1)N1C(=O)/C(=C/c2ccc(C)o2)SC1=S
REMARK SMILES IDX 12 1 11 2 10 3 9 4 8 5 6 6 7 7 5 9 3 10 4 11 2 12 1 13 81 14
REMARK SMILES IDX 82 15 93 16 83 17 84 18 92 19 94 20 85 21 86 22 87 23 91 24
REMARK SMILES IDX 88 25 89 26 90 27 13 28 14 29 15 30 16 31 17 33 18 34 19 35
REMARK SMILES IDX 80 36 20 37 79 38 21 39 22 40 23 41 73 42 24 43 78 44 72 45
REMARK SMILES IDX 74 46 25 47 77 48 71 49 70 50 26 52 58 53 38 54 57 55 39 56
REMARK SMILES IDX 42 57 56 58 75 59 40 60 41 61 55 63 76 64 43 65 27 66 28 67
REMARK SMILES IDX 36 68 29 69 31 70 37 71 30 72 32 73 33 74 34 75 35 76 59 77
REMARK SMILES IDX 60 78 68 79 61 80 63 81 69 82 62 83 64 84 65 85 66 86 67 87
REMARK SMILES IDX 44 88 45 89 53 90 46 91 48 92 54 93 47 94 49 95 50 96 51 97
REMARK SMILES IDX 52 98
REMARK H PARENT 8 8 15 32 74 51 42 62
REMARK Flexibility Score: inf
ROOT
ATOM      1  C   UNL A   1      31.355  30.513  25.386  1.00  0.00     0.002 C 
ENDROOT
BRANCH   1   2
ATOM      2  C   UNL A   1      32.206  29.304  25.785  1.00  0.00     0.002 C 
BRANCH   2   3
ATOM      3  C   UNL A   1      33.159  28.812  24.697  1.00  0.00     0.021 C 
BRANCH   3   4
ATOM      4  C   UNL A   1      33.797  27.452  24.998  1.00  0.00     0.116 C 
BRANCH   4   5
ATOM      5  N   UNL A   1      33.820  26.647  23.792  1.00  0.00    -0.354 N 
ATOM      6  C   UNL A   1      33.402  25.387  23.512  1.00  0.00     0.243 C 
ATOM      7  O   UNL A   1      33.669  24.971  22.374  1.00  0.00    -0.273 OA
ATOM      8  H   UNL A   1      34.220  27.108  23.020  1.00  0.00     0.163 HD
BRANCH   6   9
ATOM      9  C   UNL A   1      32.732  24.424  24.534  1.00  0.00     0.184 C 
BRANCH   9  10
ATOM     10  C   UNL A   1      31.159  24.630  24.475  1.00  0.00     0.018 C 
ATOM     11  C   UNL A   1      30.557  24.701  25.889  1.00  0.00     0.010 C 
BRANCH  10  12
ATOM     12  C   UNL A   1      30.711  25.835  23.631  1.00  0.00     0.002 C 
ATOM     13  C   UNL A   1      29.362  26.432  24.014  1.00  0.00     0.004 C 
ENDBRANCH  10  12
ENDBRANCH   9  10
BRANCH   9  14
ATOM     14  N   UNL A   1      33.227  23.009  24.557  1.00  0.00    -0.280 N 
ATOM     15  C   UNL A   1      32.582  22.058  23.767  1.00  0.00     0.267 C 
ATOM     16  C   UNL A   1      33.881  22.422  25.632  1.00  0.00     0.149 C 
ATOM     17  O   UNL A   1      31.603  22.243  23.048  1.00  0.00    -0.268 OA
ATOM     18  C   UNL A   1      33.066  20.683  24.053  1.00  0.00     0.084 C 
ATOM     19  S   UNL A   1      34.267  20.747  25.265  1.00  0.00    -0.054 SA
ATOM     20  S   UNL A   1      34.269  23.019  27.144  1.00  0.00    -0.052 S 
ATOM     21  C   UNL A   1      32.526  19.602  23.472  1.00  0.00     0.068 C 
BRANCH  21  22
ATOM     22  C   UNL A   1      32.914  18.277  23.800  1.00  0.00     0.128 A 
ATOM     23  C   UNL A   1      33.886  17.458  23.232  1.00  0.00     0.050 A 
ATOM     24  O   UNL A   1      32.327  17.572  24.820  1.00  0.00    -0.462 OA
ATOM     25  C   UNL A   1      33.836  16.206  23.887  1.00  0.00     0.046 A 
ATOM     26  C   UNL A   1      32.855  16.321  24.843  1.00  0.00     0.101 A 
ATOM     27  C   UNL A   1      32.278  15.382  25.827  1.00  0.00     0.087 C 
ENDBRANCH  21  22
ENDBRANCH   9  14
ENDBRANCH   6   9
ENDBRANCH   4   5
ENDBRANCH   3   4
ENDBRANCH   2   3
ENDBRANCH   1   2
BRANCH   1  28
ATOM     28  C   UNL A   1      31.237  31.610  26.448  1.00  0.00     0.021 C 
BRANCH  28  29
ATOM     29  C   UNL A   1      32.561  32.231  26.886  1.00  0.00     0.116 C 
BRANCH  29  30
ATOM     30  N   UNL A   1      32.394  33.604  27.338  1.00  0.00    -0.352 N 
ATOM     31  C   UNL A   1      33.071  34.274  28.324  1.00  0.00     0.251 C 
ATOM     32  H   UNL A   1      31.701  34.124  26.871  1.00  0.00     0.163 HD
ATOM     33  O   UNL A   1      32.663  35.360  28.731  1.00  0.00    -0.269 OA
BRANCH  31  34
ATOM     34  C   UNL A   1      34.291  33.676  28.899  1.00  0.00     0.039 A 
ATOM     35  C   UNL A   1      35.536  34.238  28.604  1.00  0.00     0.014 A 
ATOM     36  C   UNL A   1      34.195  32.558  29.732  1.00  0.00     0.014 A 
ATOM     37  C   UNL A   1      36.688  33.705  29.187  1.00  0.00     0.010 A 
ATOM     38  C   UNL A   1      35.333  32.073  30.363  1.00  0.00     0.010 A 
ATOM     39  C   UNL A   1      36.592  32.631  30.087  1.00  0.00    -0.014 A 
BRANCH  39  40
ATOM     40  C   UNL A   1      37.788  32.045  30.740  1.00  0.00     0.031 A 
ATOM     41  C   UNL A   1      38.567  30.975  30.025  1.00  0.00     0.074 A 
ATOM     42  C   UNL A   1      38.097  32.383  32.007  1.00  0.00     0.049 A 
ATOM     43  N   UNL A   1      39.540  30.226  30.470  1.00  0.00    -0.248 NA
ATOM     44  C   UNL A   1      38.174  30.686  28.635  1.00  0.00     0.031 C 
ATOM     45  C   UNL A   1      37.378  33.363  32.822  1.00  0.00     0.029 A 
ATOM     46  N   UNL A   1      39.075  31.907  32.846  1.00  0.00    -0.354 N 
ATOM     47  C   UNL A   1      39.841  29.345  29.438  1.00  0.00     0.074 A 
ATOM     48  C   UNL A   1      38.930  29.635  28.353  1.00  0.00     0.031 C 
ATOM     49  C   UNL A   1      37.928  33.406  34.047  1.00  0.00     0.029 A 
ATOM     50  C   UNL A   1      39.017  32.435  34.114  1.00  0.00     0.049 A 
ATOM     51  H   UNL A   1      39.752  31.251  32.566  1.00  0.00     0.167 HD
ATOM     52  C   UNL A   1      40.803  28.395  29.390  1.00  0.00     0.034 A 
ATOM     53  C   UNL A   1      39.746  32.155  35.212  1.00  0.00     0.034 A 
ATOM     54  C   UNL A   1      41.742  28.153  30.451  1.00  0.00     0.049 A 
ATOM     55  C   UNL A   1      40.844  31.128  35.116  1.00  0.00     0.074 A 
ATOM     56  C   UNL A   1      42.813  27.277  30.467  1.00  0.00     0.029 A 
ATOM     57  N   UNL A   1      41.723  28.790  31.681  1.00  0.00    -0.354 N 
ATOM     58  N   UNL A   1      41.205  30.403  34.086  1.00  0.00    -0.248 NA
ATOM     59  C   UNL A   1      41.658  30.904  36.320  1.00  0.00     0.031 C 
ATOM     60  C   UNL A   1      43.433  27.373  31.717  1.00  0.00     0.029 A 
ATOM     61  C   UNL A   1      42.762  28.327  32.467  1.00  0.00     0.049 A 
ATOM     62  H   UNL A   1      41.067  29.471  31.955  1.00  0.00     0.167 HD
ATOM     63  C   UNL A   1      42.314  29.674  34.501  1.00  0.00     0.074 A 
ATOM     64  C   UNL A   1      42.569  30.049  35.875  1.00  0.00     0.031 C 
ATOM     65  C   UNL A   1      43.046  28.768  33.809  1.00  0.00     0.034 A 
BRANCH  52  66
ATOM     66  C   UNL A   1      40.926  27.582  28.128  1.00  0.00     0.023 A 
ATOM     67  C   UNL A   1      41.553  28.143  26.997  1.00  0.00     0.012 A 
ATOM     68  C   UNL A   1      40.476  26.248  28.078  1.00  0.00     0.148 A 
ATOM     69  C   UNL A   1      41.696  27.403  25.824  1.00  0.00     0.002 A 
ATOM     70  C   UNL A   1      40.665  25.501  26.921  1.00  0.00     0.091 A 
ATOM     71  F   UNL A   1      39.863  25.738  29.156  1.00  0.00    -0.205 F 
ATOM     72  C   UNL A   1      41.263  26.081  25.790  1.00  0.00     0.022 A 
BRANCH  70  73
ATOM     73  S   UNL A   1      40.214  23.766  26.805  1.00  0.00     0.127 S 
ATOM     74  O   UNL A   1      41.120  23.295  25.759  1.00  0.00    -0.237 OA
ATOM     75  O   UNL A   1      40.527  23.276  28.148  1.00  0.00    -0.237 OA
ATOM     76  O   UNL A   1      38.799  23.742  26.466  1.00  0.00    -0.744 OA
ENDBRANCH  70  73
ENDBRANCH  52  66
BRANCH  53  77
ATOM     77  C   UNL A   1      39.506  32.905  36.478  1.00  0.00     0.023 A 
ATOM     78  C   UNL A   1      40.134  34.151  36.670  1.00  0.00     0.012 A 
ATOM     79  C   UNL A   1      38.640  32.413  37.474  1.00  0.00     0.148 A 
ATOM     80  C   UNL A   1      39.928  34.879  37.842  1.00  0.00     0.002 A 
ATOM     81  C   UNL A   1      38.398  33.169  38.617  1.00  0.00     0.091 A 
ATOM     82  F   UNL A   1      38.059  31.220  37.280  1.00  0.00    -0.205 F 
ATOM     83  C   UNL A   1      39.054  34.394  38.810  1.00  0.00     0.022 A 
BRANCH  81  84
ATOM     84  S   UNL A   1      37.189  32.684  39.854  1.00  0.00     0.127 S 
ATOM     85  O   UNL A   1      35.963  32.612  39.064  1.00  0.00    -0.237 OA
ATOM     86  O   UNL A   1      37.712  31.391  40.299  1.00  0.00    -0.237 OA
ATOM     87  O   UNL A   1      37.229  33.727  40.871  1.00  0.00    -0.744 OA
ENDBRANCH  81  84
ENDBRANCH  53  77
BRANCH  65  88
ATOM     88  C   UNL A   1      44.240  28.154  34.489  1.00  0.00     0.023 A 
ATOM     89  C   UNL A   1      44.101  26.946  35.198  1.00  0.00     0.012 A 
ATOM     90  C   UNL A   1      45.521  28.716  34.315  1.00  0.00     0.148 A 
ATOM     91  C   UNL A   1      45.220  26.313  35.739  1.00  0.00     0.002 A 
ATOM     92  C   UNL A   1      46.636  28.055  34.816  1.00  0.00     0.091 A 
ATOM     93  F   UNL A   1      45.625  29.876  33.651  1.00  0.00    -0.205 F 
ATOM     94  C   UNL A   1      46.487  26.859  35.536  1.00  0.00     0.022 A 
BRANCH  92  95
ATOM     95  S   UNL A   1      48.312  28.628  34.516  1.00  0.00     0.127 S 
ATOM     96  O   UNL A   1      48.486  28.309  33.100  1.00  0.00    -0.237 OA
ATOM     97  O   UNL A   1      48.208  30.056  34.813  1.00  0.00    -0.237 OA
ATOM     98  O   UNL A   1      49.165  27.880  35.431  1.00  0.00    -0.744 OA
ENDBRANCH  92  95
ENDBRANCH  65  88
ENDBRANCH  39  40
ENDBRANCH  31  34
ENDBRANCH  29  30
ENDBRANCH  28  29
ENDBRANCH   1  28
TORSDOF 20
ENDMDL
MODEL 3
REMARK VINA RESULT:     -11.0      2.005      7.714
REMARK SMILES CC[C@H](C)[C@H](C(=O)NCCCCCCNC(=O)c1ccc(-c2c3nc(c(-c4cccc(S(=O)(=O)[O-])c4F)c4ccc([nH]4)c(-c4cccc(S(=O)(=O)[O-])c4F)c4nc(c(-c5cccc(S(=O)(=O)[O-])c5F)c5ccc2[nH]5)C=C4)C=C3)cc1)N1C(=O)/C(=C/c2ccc(C)o2)SC1=S
REMARK SMILES IDX 12 1 11 2 10 3 9 4 8 5 6 6 7 7 5 9 3 10 4 11 2 12 1 13 81 14
REMARK SMILES IDX 82 15 93 16 83 17 84 18 92 19 94 20 85 21 86 22 87 23 91 24
REMARK SMILES IDX 88 25 89 26 90 27 13 28 14 29 15 30 16 31 17 33 18 34 19 35
REMARK SMILES IDX 80 36 20 37 79 38 21 39 22 40 23 41 73 42 24 43 78 44 72 45
REMARK SMILES IDX 74 46 25 47 77 48 71 49 70 50 26 52 58 53 38 54 57 55 39 56
REMARK SMILES IDX 42 57 56 58 75 59 40 60 41 61 55 63 76 64 43 65 27 66 28 67
REMARK SMILES IDX 36 68 29 69 31 70 37 71 30 72 32 73 33 74 34 75 35 76 59 77
REMARK SMILES IDX 60 78 68 79 61 80 63 81 69 82 62 83 64 84 65 85 66 86 67 87
REMARK SMILES IDX 44 88 45 89 53 90 46 91 48 92 54 93 47 94 49 95 50 96 51 97
REMARK SMILES IDX 52 98
REMARK H PARENT 8 8 15 32 74 51 42 62
REMARK Flexibility Score: inf
ROOT
ATOM      1  C   UNL A   1      31.174  30.537  25.220  1.00  0.00     0.002 C 
ENDROOT
BRANCH   1   2
ATOM      2  C   UNL A   1      31.708  29.104  25.287  1.00  0.00     0.002 C 
BRANCH   2   3
ATOM      3  C   UNL A   1      32.424  28.634  24.022  1.00  0.00     0.021 C 
BRANCH   3   4
ATOM      4  C   UNL A   1      33.559  27.638  24.282  1.00  0.00     0.116 C 
BRANCH   4   5
ATOM      5  N   UNL A   1      33.595  26.651  23.220  1.00  0.00    -0.354 N 
ATOM      6  C   UNL A   1      33.343  25.318  23.186  1.00  0.00     0.243 C 
ATOM      7  O   UNL A   1      33.568  24.755  22.104  1.00  0.00    -0.273 OA
ATOM      8  H   UNL A   1      33.853  27.024  22.347  1.00  0.00     0.163 HD
BRANCH   6   9
ATOM      9  C   UNL A   1      32.914  24.462  24.412  1.00  0.00     0.184 C 
BRANCH   9  10
ATOM     10  C   UNL A   1      31.364  24.682  24.671  1.00  0.00     0.018 C 
ATOM     11  C   UNL A   1      31.121  25.372  26.025  1.00  0.00     0.010 C 
BRANCH  10  12
ATOM     12  C   UNL A   1      30.633  25.429  23.542  1.00  0.00     0.002 C 
ATOM     13  C   UNL A   1      29.469  26.305  23.987  1.00  0.00     0.004 C 
ENDBRANCH  10  12
ENDBRANCH   9  10
BRANCH   9  14
ATOM     14  N   UNL A   1      33.412  23.049  24.459  1.00  0.00    -0.280 N 
ATOM     15  C   UNL A   1      32.632  22.041  23.895  1.00  0.00     0.267 C 
ATOM     16  C   UNL A   1      34.266  22.548  25.433  1.00  0.00     0.149 C 
ATOM     17  O   UNL A   1      31.529  22.174  23.368  1.00  0.00    -0.268 OA
ATOM     18  C   UNL A   1      33.169  20.689  24.198  1.00  0.00     0.084 C 
ATOM     19  S   UNL A   1      34.583  20.844  25.142  1.00  0.00    -0.054 SA
ATOM     20  S   UNL A   1      34.938  23.267  26.783  1.00  0.00    -0.052 S 
ATOM     21  C   UNL A   1      32.532  19.569  23.828  1.00  0.00     0.068 C 
BRANCH  21  22
ATOM     22  C   UNL A   1      32.985  18.273  24.187  1.00  0.00     0.128 A 
ATOM     23  C   UNL A   1      34.185  17.629  23.901  1.00  0.00     0.050 A 
ATOM     24  O   UNL A   1      32.225  17.412  24.936  1.00  0.00    -0.462 OA
ATOM     25  C   UNL A   1      34.117  16.323  24.440  1.00  0.00     0.046 A 
ATOM     26  C   UNL A   1      32.889  16.234  25.052  1.00  0.00     0.101 A 
ATOM     27  C   UNL A   1      32.181  15.145  25.757  1.00  0.00     0.087 C 
ENDBRANCH  21  22
ENDBRANCH   9  14
ENDBRANCH   6   9
ENDBRANCH   4   5
ENDBRANCH   3   4
ENDBRANCH   2   3
ENDBRANCH   1   2
BRANCH   1  28
ATOM     28  C   UNL A   1      31.370  31.370  26.491  1.00  0.00     0.021 C 
BRANCH  28  29
ATOM     29  C   UNL A   1      32.801  31.841  26.740  1.00  0.00     0.116 C 
BRANCH  29  30
ATOM     30  N   UNL A   1      32.850  33.237  27.146  1.00  0.00    -0.352 N 
ATOM     31  C   UNL A   1      33.641  33.831  28.095  1.00  0.00     0.251 C 
ATOM     32  H   UNL A   1      32.231  33.839  26.673  1.00  0.00     0.163 HD
ATOM     33  O   UNL A   1      33.409  34.978  28.470  1.00  0.00    -0.269 OA
BRANCH  31  34
ATOM     34  C   UNL A   1      34.772  33.076  28.669  1.00  0.00     0.039 A 
ATOM     35  C   UNL A   1      36.079  33.506  28.426  1.00  0.00     0.014 A 
ATOM     36  C   UNL A   1      34.531  31.942  29.450  1.00  0.00     0.014 A 
ATOM     37  C   UNL A   1      37.149  32.824  29.010  1.00  0.00     0.010 A 
ATOM     38  C   UNL A   1      35.591  31.307  30.083  1.00  0.00     0.010 A 
ATOM     39  C   UNL A   1      36.911  31.732  29.859  1.00  0.00    -0.014 A 
BRANCH  39  40
ATOM     40  C   UNL A   1      38.017  30.989  30.511  1.00  0.00     0.031 A 
ATOM     41  C   UNL A   1      38.397  31.326  31.927  1.00  0.00     0.074 A 
ATOM     42  C   UNL A   1      38.749  30.110  29.799  1.00  0.00     0.049 A 
ATOM     43  N   UNL A   1      39.420  30.916  32.627  1.00  0.00    -0.248 NA
ATOM     44  C   UNL A   1      37.527  32.280  32.637  1.00  0.00     0.031 C 
ATOM     45  C   UNL A   1      38.514  29.748  28.400  1.00  0.00     0.029 A 
ATOM     46  N   UNL A   1      39.867  29.392  30.145  1.00  0.00    -0.354 N 
ATOM     47  C   UNL A   1      39.349  31.597  33.837  1.00  0.00     0.074 A 
ATOM     48  C   UNL A   1      38.196  32.467  33.766  1.00  0.00     0.031 C 
ATOM     49  C   UNL A   1      39.465  28.887  28.003  1.00  0.00     0.029 A 
ATOM     50  C   UNL A   1      40.395  28.662  29.105  1.00  0.00     0.049 A 
ATOM     51  H   UNL A   1      40.253  29.398  31.050  1.00  0.00     0.167 HD
ATOM     52  C   UNL A   1      40.156  31.491  34.917  1.00  0.00     0.034 A 
ATOM     53  C   UNL A   1      41.513  27.911  29.044  1.00  0.00     0.034 A 
ATOM     54  C   UNL A   1      41.265  30.581  35.000  1.00  0.00     0.049 A 
ATOM     55  C   UNL A   1      42.367  27.772  30.276  1.00  0.00     0.074 A 
ATOM     56  C   UNL A   1      42.091  30.330  36.081  1.00  0.00     0.029 A 
ATOM     57  N   UNL A   1      41.701  29.772  33.963  1.00  0.00    -0.354 N 
ATOM     58  N   UNL A   1      42.204  28.316  31.457  1.00  0.00    -0.248 NA
ATOM     59  C   UNL A   1      43.539  26.889  30.181  1.00  0.00     0.031 C 
ATOM     60  C   UNL A   1      43.039  29.379  35.691  1.00  0.00     0.029 A 
ATOM     61  C   UNL A   1      42.786  29.021  34.376  1.00  0.00     0.049 A 
ATOM     62  H   UNL A   1      41.298  29.738  33.065  1.00  0.00     0.167 HD
ATOM     63  C   UNL A   1      43.220  27.807  32.257  1.00  0.00     0.074 A 
ATOM     64  C   UNL A   1      43.992  26.905  31.428  1.00  0.00     0.031 C 
ATOM     65  C   UNL A   1      43.495  28.071  33.557  1.00  0.00     0.034 A 
BRANCH  52  66
ATOM     66  C   UNL A   1      39.839  32.343  36.118  1.00  0.00     0.023 A 
ATOM     67  C   UNL A   1      40.515  33.565  36.303  1.00  0.00     0.012 A 
ATOM     68  C   UNL A   1      38.835  31.964  37.030  1.00  0.00     0.148 A 
ATOM     69  C   UNL A   1      40.225  34.381  37.396  1.00  0.00     0.002 A 
ATOM     70  C   UNL A   1      38.518  32.804  38.092  1.00  0.00     0.091 A 
ATOM     71  F   UNL A   1      38.216  30.788  36.852  1.00  0.00    -0.205 F 
ATOM     72  C   UNL A   1      39.220  34.006  38.283  1.00  0.00     0.022 A 
BRANCH  70  73
ATOM     73  S   UNL A   1      37.185  32.449  39.243  1.00  0.00     0.127 S 
ATOM     74  O   UNL A   1      37.423  33.443  40.287  1.00  0.00    -0.237 OA
ATOM     75  O   UNL A   1      35.997  32.699  38.424  1.00  0.00    -0.237 OA
ATOM     76  O   UNL A   1      37.362  31.061  39.645  1.00  0.00    -0.744 OA
ENDBRANCH  70  73
ENDBRANCH  52  66
BRANCH  53  77
ATOM     77  C   UNL A   1      41.852  27.180  27.789  1.00  0.00     0.023 A 
ATOM     78  C   UNL A   1      42.363  27.899  26.691  1.00  0.00     0.012 A 
ATOM     79  C   UNL A   1      41.704  25.783  27.686  1.00  0.00     0.148 A 
ATOM     80  C   UNL A   1      42.691  27.245  25.503  1.00  0.00     0.002 A 
ATOM     81  C   UNL A   1      42.084  25.131  26.517  1.00  0.00     0.091 A 
ATOM     82  F   UNL A   1      41.207  25.117  28.738  1.00  0.00    -0.205 F 
ATOM     83  C   UNL A   1      42.562  25.862  25.419  1.00  0.00     0.022 A 
BRANCH  81  84
ATOM     84  S   UNL A   1      42.074  23.341  26.367  1.00  0.00     0.127 S 
ATOM     85  O   UNL A   1      42.885  22.939  27.513  1.00  0.00    -0.237 OA
ATOM     86  O   UNL A   1      40.648  23.035  26.484  1.00  0.00    -0.237 OA
ATOM     87  O   UNL A   1      42.641  23.054  25.056  1.00  0.00    -0.744 OA
ENDBRANCH  81  84
ENDBRANCH  53  77
BRANCH  65  88
ATOM     88  C   UNL A   1      44.639  27.337  34.203  1.00  0.00     0.023 A 
ATOM     89  C   UNL A   1      44.416  26.092  34.822  1.00  0.00     0.012 A 
ATOM     90  C   UNL A   1      45.955  27.828  34.081  1.00  0.00     0.148 A 
ATOM     91  C   UNL A   1      45.486  25.354  35.327  1.00  0.00     0.002 A 
ATOM     92  C   UNL A   1      47.020  27.065  34.544  1.00  0.00     0.091 A 
ATOM     93  F   UNL A   1      46.139  29.023  33.502  1.00  0.00    -0.205 F 
ATOM     94  C   UNL A   1      46.787  25.832  35.175  1.00  0.00     0.022 A 
BRANCH  92  95
ATOM     95  S   UNL A   1      48.732  27.551  34.301  1.00  0.00     0.127 S 
ATOM     96  O   UNL A   1      48.827  27.586  32.842  1.00  0.00    -0.237 OA
ATOM     97  O   UNL A   1      48.775  28.862  34.947  1.00  0.00    -0.237 OA
ATOM     98  O   UNL A   1      49.539  26.528  34.952  1.00  0.00    -0.744 OA
ENDBRANCH  92  95
ENDBRANCH  65  88
ENDBRANCH  39  40
ENDBRANCH  31  34
ENDBRANCH  29  30
ENDBRANCH  28  29
ENDBRANCH   1  28
TORSDOF 20
ENDMDL
