MODEL 1
REMARK VINA RESULT:     -11.0      0.000      0.000
REMARK SMILES O=C(CSc1nc(-c2cccc(F)c2)n[nH]1)NCCCCCCNC(=O)c1ccc(-c2c3nc(c(-c4cccc(S(=O)(=O)[O-])c4F)c4ccc([nH]4)c(-c4cccc(S(=O)(=O)[O-])c4F)c4nc(c(-c5cccc(S(=O)(=O)[O-])c5F)c5ccc2[nH]5)C=C4)C=C3)cc1
REMARK SMILES IDX 20 1 19 2 18 3 17 4 1 5 2 6 3 8 4 9 5 10 6 11 16 12 7 13
REMARK SMILES IDX 15 14 8 16 9 17 14 18 10 19 12 20 11 21 13 22 21 23 22 24
REMARK SMILES IDX 23 25 24 26 25 27 26 29 27 30 28 31 89 32 29 33 88 34 30 35
REMARK SMILES IDX 31 36 32 37 82 38 33 39 87 40 81 41 83 42 34 43 86 44 80 45
REMARK SMILES IDX 79 46 35 48 67 49 47 50 66 51 48 52 51 53 65 54 84 55 49 56
REMARK SMILES IDX 50 57 64 59 85 60 52 61 36 62 37 63 45 64 38 65 40 66 46 67
REMARK SMILES IDX 39 68 41 69 42 70 43 71 44 72 68 73 69 74 77 75 70 76 72 77
REMARK SMILES IDX 78 78 71 79 73 80 74 81 75 82 76 83 53 84 54 85 62 86 55 87
REMARK SMILES IDX 57 88 63 89 56 90 58 91 59 92 60 93 61 94
REMARK H PARENT 17 7 16 15 24 28 83 47 51 58
REMARK Flexibility Score: inf
ROOT
ATOM      1  C   UNL A   1      37.466  22.139  24.268  1.00  0.00     0.002 C 
ENDROOT
BRANCH   1   2
ATOM      2  C   UNL A   1      36.413  22.908  23.458  1.00  0.00     0.021 C 
BRANCH   2   3
ATOM      3  C   UNL A   1      35.285  23.515  24.289  1.00  0.00     0.116 C 
BRANCH   3   4
ATOM      4  N   UNL A   1      34.132  23.836  23.475  1.00  0.00    -0.355 N 
ATOM      5  O   UNL A   1      33.552  25.753  24.597  1.00  0.00    -0.274 OA
ATOM      6  C   UNL A   1      33.370  24.968  23.666  1.00  0.00     0.230 C 
ATOM      7  H   UNL A   1      33.880  23.218  22.752  1.00  0.00     0.163 HD
BRANCH   6   8
ATOM      8  C   UNL A   1      32.170  25.111  22.747  1.00  0.00     0.178 C 
BRANCH   8   9
ATOM      9  S   UNL A   1      30.654  24.314  23.360  1.00  0.00    -0.077 SA
BRANCH   9  10
ATOM     10  C   UNL A   1      31.288  22.829  23.945  1.00  0.00     0.184 A 
ATOM     11  N   UNL A   1      31.818  21.852  23.261  1.00  0.00    -0.201 NA
ATOM     12  N   UNL A   1      31.296  22.527  25.268  1.00  0.00    -0.254 N 
ATOM     13  C   UNL A   1      32.112  20.916  24.230  1.00  0.00     0.182 A 
ATOM     14  N   UNL A   1      31.770  21.289  25.477  1.00  0.00    -0.153 NA
ATOM     15  H   UNL A   1      30.995  23.137  25.979  1.00  0.00     0.192 HD
BRANCH  13  16
ATOM     16  C   UNL A   1      32.737  19.645  23.910  1.00  0.00     0.024 A 
ATOM     17  C   UNL A   1      32.202  18.831  22.900  1.00  0.00     0.012 A 
ATOM     18  C   UNL A   1      33.877  19.221  24.601  1.00  0.00     0.051 A 
ATOM     19  C   UNL A   1      32.807  17.614  22.575  1.00  0.00     0.004 A 
ATOM     20  C   UNL A   1      34.459  17.999  24.282  1.00  0.00     0.123 A 
ATOM     21  C   UNL A   1      33.939  17.196  23.272  1.00  0.00     0.039 A 
ATOM     22  F   UNL A   1      35.539  17.589  24.960  1.00  0.00    -0.207 F 
ENDBRANCH  13  16
ENDBRANCH   9  10
ENDBRANCH   8   9
ENDBRANCH   6   8
ENDBRANCH   3   4
ENDBRANCH   2   3
ENDBRANCH   1   2
BRANCH   1  23
ATOM     23  C   UNL A   1      37.007  20.794  24.841  1.00  0.00     0.002 C 
BRANCH  23  24
ATOM     24  C   UNL A   1      38.113  19.754  25.038  1.00  0.00     0.021 C 
BRANCH  24  25
ATOM     25  C   UNL A   1      39.211  20.156  26.019  1.00  0.00     0.116 C 
BRANCH  25  26
ATOM     26  N   UNL A   1      40.322  19.215  26.026  1.00  0.00    -0.352 N 
ATOM     27  C   UNL A   1      41.670  19.460  26.123  1.00  0.00     0.251 C 
ATOM     28  H   UNL A   1      40.072  18.266  25.952  1.00  0.00     0.163 HD
ATOM     29  O   UNL A   1      42.474  18.548  25.940  1.00  0.00    -0.269 OA
BRANCH  27  30
ATOM     30  C   UNL A   1      42.156  20.825  26.422  1.00  0.00     0.039 A 
ATOM     31  C   UNL A   1      42.357  21.721  25.368  1.00  0.00     0.014 A 
ATOM     32  C   UNL A   1      42.408  21.225  27.738  1.00  0.00     0.014 A 
ATOM     33  C   UNL A   1      42.743  23.036  25.641  1.00  0.00     0.010 A 
ATOM     34  C   UNL A   1      42.720  22.555  28.011  1.00  0.00     0.010 A 
ATOM     35  C   UNL A   1      42.890  23.476  26.967  1.00  0.00    -0.014 A 
BRANCH  35  36
ATOM     36  C   UNL A   1      43.192  24.897  27.282  1.00  0.00     0.031 A 
ATOM     37  C   UNL A   1      44.580  25.445  27.086  1.00  0.00     0.074 A 
ATOM     38  C   UNL A   1      42.234  25.675  27.825  1.00  0.00     0.049 A 
ATOM     39  N   UNL A   1      45.041  26.637  27.365  1.00  0.00    -0.248 NA
ATOM     40  C   UNL A   1      45.589  24.531  26.522  1.00  0.00     0.031 C 
ATOM     41  C   UNL A   1      40.868  25.244  28.128  1.00  0.00     0.029 A 
ATOM     42  N   UNL A   1      42.267  26.984  28.241  1.00  0.00    -0.354 N 
ATOM     43  C   UNL A   1      46.392  26.608  27.042  1.00  0.00     0.074 A 
ATOM     44  C   UNL A   1      46.686  25.271  26.577  1.00  0.00     0.031 C 
ATOM     45  C   UNL A   1      40.192  26.269  28.668  1.00  0.00     0.029 A 
ATOM     46  C   UNL A   1      41.082  27.420  28.789  1.00  0.00     0.049 A 
ATOM     47  H   UNL A   1      43.063  27.556  28.155  1.00  0.00     0.167 HD
ATOM     48  C   UNL A   1      47.298  27.612  27.101  1.00  0.00     0.034 A 
ATOM     49  C   UNL A   1      40.749  28.606  29.337  1.00  0.00     0.034 A 
ATOM     50  C   UNL A   1      46.992  28.951  27.528  1.00  0.00     0.049 A 
ATOM     51  C   UNL A   1      41.770  29.710  29.373  1.00  0.00     0.074 A 
ATOM     52  C   UNL A   1      47.827  30.055  27.547  1.00  0.00     0.029 A 
ATOM     53  N   UNL A   1      45.765  29.370  28.016  1.00  0.00    -0.354 N 
ATOM     54  N   UNL A   1      43.006  29.702  28.937  1.00  0.00    -0.248 NA
ATOM     55  C   UNL A   1      41.344  30.996  29.945  1.00  0.00     0.031 C 
ATOM     56  C   UNL A   1      47.114  31.132  28.079  1.00  0.00     0.029 A 
ATOM     57  C   UNL A   1      45.823  30.712  28.350  1.00  0.00     0.049 A 
ATOM     58  H   UNL A   1      44.969  28.798  28.111  1.00  0.00     0.167 HD
ATOM     59  C   UNL A   1      43.494  30.986  29.148  1.00  0.00     0.074 A 
ATOM     60  C   UNL A   1      42.415  31.752  29.737  1.00  0.00     0.031 C 
ATOM     61  C   UNL A   1      44.729  31.481  28.888  1.00  0.00     0.034 A 
BRANCH  48  62
ATOM     62  C   UNL A   1      48.705  27.328  26.640  1.00  0.00     0.023 A 
ATOM     63  C   UNL A   1      49.610  26.700  27.518  1.00  0.00     0.012 A 
ATOM     64  C   UNL A   1      49.096  27.583  25.310  1.00  0.00     0.148 A 
ATOM     65  C   UNL A   1      50.890  26.350  27.090  1.00  0.00     0.002 A 
ATOM     66  C   UNL A   1      50.356  27.186  24.876  1.00  0.00     0.091 A 
ATOM     67  F   UNL A   1      48.227  28.197  24.494  1.00  0.00    -0.205 F 
ATOM     68  C   UNL A   1      51.257  26.580  25.767  1.00  0.00     0.022 A 
BRANCH  66  69
ATOM     69  S   UNL A   1      50.893  27.352  23.170  1.00  0.00     0.127 S 
ATOM     70  O   UNL A   1      50.989  28.806  23.033  1.00  0.00    -0.237 OA
ATOM     71  O   UNL A   1      52.180  26.657  23.186  1.00  0.00    -0.237 OA
ATOM     72  O   UNL A   1      49.865  26.719  22.357  1.00  0.00    -0.744 OA
ENDBRANCH  66  69
ENDBRANCH  48  62
BRANCH  49  73
ATOM     73  C   UNL A   1      39.360  28.824  29.832  1.00  0.00     0.023 A 
ATOM     74  C   UNL A   1      39.037  28.479  31.158  1.00  0.00     0.012 A 
ATOM     75  C   UNL A   1      38.377  29.425  29.020  1.00  0.00     0.148 A 
ATOM     76  C   UNL A   1      37.756  28.707  31.662  1.00  0.00     0.002 A 
ATOM     77  C   UNL A   1      37.121  29.704  29.546  1.00  0.00     0.091 A 
ATOM     78  F   UNL A   1      38.702  29.737  27.757  1.00  0.00    -0.205 F 
ATOM     79  C   UNL A   1      36.803  29.331  30.861  1.00  0.00     0.022 A 
BRANCH  77  80
ATOM     80  S   UNL A   1      35.878  30.632  28.641  1.00  0.00     0.127 S 
ATOM     81  O   UNL A   1      36.699  31.407  27.714  1.00  0.00    -0.237 OA
ATOM     82  O   UNL A   1      35.095  29.561  28.025  1.00  0.00    -0.237 OA
ATOM     83  O   UNL A   1      35.155  31.407  29.640  1.00  0.00    -0.744 OA
ENDBRANCH  77  80
ENDBRANCH  49  73
BRANCH  61  84
ATOM     84  C   UNL A   1      44.996  32.931  29.199  1.00  0.00     0.023 A 
ATOM     85  C   UNL A   1      45.551  33.292  30.442  1.00  0.00     0.012 A 
ATOM     86  C   UNL A   1      44.810  33.920  28.210  1.00  0.00     0.148 A 
ATOM     87  C   UNL A   1      45.897  34.618  30.705  1.00  0.00     0.002 A 
ATOM     88  C   UNL A   1      45.207  35.228  28.460  1.00  0.00     0.091 A 
ATOM     89  F   UNL A   1      44.267  33.557  27.040  1.00  0.00    -0.205 F 
ATOM     90  C   UNL A   1      45.740  35.581  29.710  1.00  0.00     0.022 A 
BRANCH  88  91
ATOM     91  S   UNL A   1      45.146  36.513  27.205  1.00  0.00     0.127 S 
ATOM     92  O   UNL A   1      45.744  37.645  27.910  1.00  0.00    -0.237 OA
ATOM     93  O   UNL A   1      45.977  35.946  26.143  1.00  0.00    -0.237 OA
ATOM     94  O   UNL A   1      43.740  36.671  26.856  1.00  0.00    -0.744 OA
ENDBRANCH  88  91
ENDBRANCH  61  84
ENDBRANCH  35  36
ENDBRANCH  27  30
ENDBRANCH  25  26
ENDBRANCH  24  25
ENDBRANCH  23  24
ENDBRANCH   1  23
TORSDOF 19
ENDMDL
MODEL 2
REMARK VINA RESULT:     -10.9      5.553      8.513
REMARK SMILES O=C(CSc1nc(-c2cccc(F)c2)n[nH]1)NCCCCCCNC(=O)c1ccc(-c2c3nc(c(-c4cccc(S(=O)(=O)[O-])c4F)c4ccc([nH]4)c(-c4cccc(S(=O)(=O)[O-])c4F)c4nc(c(-c5cccc(S(=O)(=O)[O-])c5F)c5ccc2[nH]5)C=C4)C=C3)cc1
REMARK SMILES IDX 20 1 19 2 18 3 17 4 1 5 2 6 3 8 4 9 5 10 6 11 16 12 7 13
REMARK SMILES IDX 15 14 8 16 9 17 14 18 10 19 12 20 11 21 13 22 21 23 22 24
REMARK SMILES IDX 23 25 24 26 25 27 26 29 27 30 28 31 89 32 29 33 88 34 30 35
REMARK SMILES IDX 31 36 32 37 82 38 33 39 87 40 81 41 83 42 34 43 86 44 80 45
REMARK SMILES IDX 79 46 35 48 67 49 47 50 66 51 48 52 51 53 65 54 84 55 49 56
REMARK SMILES IDX 50 57 64 59 85 60 52 61 36 62 37 63 45 64 38 65 40 66 46 67
REMARK SMILES IDX 39 68 41 69 42 70 43 71 44 72 68 73 69 74 77 75 70 76 72 77
REMARK SMILES IDX 78 78 71 79 73 80 74 81 75 82 76 83 53 84 54 85 62 86 55 87
REMARK SMILES IDX 57 88 63 89 56 90 58 91 59 92 60 93 61 94
REMARK H PARENT 17 7 16 15 24 28 83 47 51 58
REMARK Flexibility Score: inf
ROOT
ATOM      1  C   UNL A   1      33.416  25.665  26.105  1.00  0.00     0.002 C 
ENDROOT
BRANCH   1   2
ATOM      2  C   UNL A   1      34.489  25.202  25.112  1.00  0.00     0.021 C 
BRANCH   2   3
ATOM      3  C   UNL A   1      35.391  24.079  25.621  1.00  0.00     0.116 C 
BRANCH   3   4
ATOM      4  N   UNL A   1      35.043  22.803  25.034  1.00  0.00    -0.355 N 
ATOM      5  O   UNL A   1      34.656  21.708  27.013  1.00  0.00    -0.274 OA
ATOM      6  C   UNL A   1      34.655  21.714  25.782  1.00  0.00     0.230 C 
ATOM      7  H   UNL A   1      35.085  22.709  24.055  1.00  0.00     0.163 HD
BRANCH   6   8
ATOM      8  C   UNL A   1      34.376  20.445  24.995  1.00  0.00     0.178 C 
BRANCH   8   9
ATOM      9  S   UNL A   1      32.621  19.970  24.932  1.00  0.00    -0.077 SA
BRANCH   9  10
ATOM     10  C   UNL A   1      31.873  21.515  24.897  1.00  0.00     0.184 A 
ATOM     11  N   UNL A   1      31.967  22.438  23.979  1.00  0.00    -0.201 NA
ATOM     12  N   UNL A   1      31.056  21.936  25.895  1.00  0.00    -0.254 N 
ATOM     13  C   UNL A   1      31.199  23.464  24.487  1.00  0.00     0.182 A 
ATOM     14  N   UNL A   1      30.650  23.199  25.686  1.00  0.00    -0.153 NA
ATOM     15  H   UNL A   1      30.795  21.387  26.669  1.00  0.00     0.192 HD
BRANCH  13  16
ATOM     16  C   UNL A   1      31.013  24.715  23.773  1.00  0.00     0.024 A 
ATOM     17  C   UNL A   1      31.823  25.023  22.669  1.00  0.00     0.012 A 
ATOM     18  C   UNL A   1      30.025  25.620  24.174  1.00  0.00     0.051 A 
ATOM     19  C   UNL A   1      31.639  26.217  21.966  1.00  0.00     0.004 A 
ATOM     20  C   UNL A   1      29.864  26.813  23.478  1.00  0.00     0.123 A 
ATOM     21  C   UNL A   1      30.656  27.117  22.376  1.00  0.00     0.039 A 
ATOM     22  F   UNL A   1      28.929  27.686  23.878  1.00  0.00    -0.207 F 
ENDBRANCH  13  16
ENDBRANCH   9  10
ENDBRANCH   8   9
ENDBRANCH   6   8
ENDBRANCH   3   4
ENDBRANCH   2   3
ENDBRANCH   1   2
BRANCH   1  23
ATOM     23  C   UNL A   1      33.417  27.163  26.430  1.00  0.00     0.002 C 
BRANCH  23  24
ATOM     24  C   UNL A   1      32.621  28.043  25.463  1.00  0.00     0.021 C 
BRANCH  24  25
ATOM     25  C   UNL A   1      33.283  29.369  25.100  1.00  0.00     0.116 C 
BRANCH  25  26
ATOM     26  N   UNL A   1      32.675  30.501  25.787  1.00  0.00    -0.352 N 
ATOM     27  C   UNL A   1      33.088  31.154  26.922  1.00  0.00     0.251 C 
ATOM     28  H   UNL A   1      31.850  30.848  25.379  1.00  0.00     0.163 HD
ATOM     29  O   UNL A   1      32.352  31.983  27.454  1.00  0.00    -0.269 OA
BRANCH  27  30
ATOM     30  C   UNL A   1      34.406  30.844  27.519  1.00  0.00     0.039 A 
ATOM     31  C   UNL A   1      35.359  31.861  27.626  1.00  0.00     0.014 A 
ATOM     32  C   UNL A   1      34.701  29.557  27.978  1.00  0.00     0.014 A 
ATOM     33  C   UNL A   1      36.580  31.603  28.255  1.00  0.00     0.010 A 
ATOM     34  C   UNL A   1      35.887  29.322  28.670  1.00  0.00     0.010 A 
ATOM     35  C   UNL A   1      36.840  30.342  28.817  1.00  0.00    -0.014 A 
BRANCH  35  36
ATOM     36  C   UNL A   1      38.085  30.079  29.587  1.00  0.00     0.031 A 
ATOM     37  C   UNL A   1      39.148  29.172  29.030  1.00  0.00     0.074 A 
ATOM     38  C   UNL A   1      38.221  30.593  30.826  1.00  0.00     0.049 A 
ATOM     39  N   UNL A   1      40.267  28.778  29.585  1.00  0.00    -0.248 NA
ATOM     40  C   UNL A   1      38.921  28.614  27.686  1.00  0.00     0.031 C 
ATOM     41  C   UNL A   1      37.232  31.433  31.504  1.00  0.00     0.029 A 
ATOM     42  N   UNL A   1      39.234  30.467  31.745  1.00  0.00    -0.354 N 
ATOM     43  C   UNL A   1      40.857  27.909  28.676  1.00  0.00     0.074 A 
ATOM     44  C   UNL A   1      39.960  27.805  27.547  1.00  0.00     0.031 C 
ATOM     45  C   UNL A   1      37.690  31.756  32.723  1.00  0.00     0.029 A 
ATOM     46  C   UNL A   1      38.986  31.116  32.932  1.00  0.00     0.049 A 
ATOM     47  H   UNL A   1      40.060  29.960  31.570  1.00  0.00     0.167 HD
ATOM     48  C   UNL A   1      42.052  27.279  28.762  1.00  0.00     0.034 A 
ATOM     49  C   UNL A   1      39.711  31.184  34.067  1.00  0.00     0.034 A 
ATOM     50  C   UNL A   1      42.959  27.416  29.870  1.00  0.00     0.049 A 
ATOM     51  C   UNL A   1      41.043  30.488  34.129  1.00  0.00     0.074 A 
ATOM     52  C   UNL A   1      44.227  26.877  30.010  1.00  0.00     0.029 A 
ATOM     53  N   UNL A   1      42.701  28.133  31.026  1.00  0.00    -0.354 N 
ATOM     54  N   UNL A   1      41.646  29.781  33.204  1.00  0.00    -0.248 NA
ATOM     55  C   UNL A   1      41.813  30.626  35.375  1.00  0.00     0.031 C 
ATOM     56  C   UNL A   1      44.719  27.240  31.265  1.00  0.00     0.029 A 
ATOM     57  C   UNL A   1      43.778  28.041  31.890  1.00  0.00     0.049 A 
ATOM     58  H   UNL A   1      41.872  28.634  31.208  1.00  0.00     0.167 HD
ATOM     59  C   UNL A   1      42.876  29.419  33.741  1.00  0.00     0.074 A 
ATOM     60  C   UNL A   1      42.941  29.999  35.066  1.00  0.00     0.031 C 
ATOM     61  C   UNL A   1      43.857  28.663  33.188  1.00  0.00     0.034 A 
BRANCH  48  62
ATOM     62  C   UNL A   1      42.488  26.420  27.602  1.00  0.00     0.023 A 
ATOM     63  C   UNL A   1      43.400  26.936  26.660  1.00  0.00     0.012 A 
ATOM     64  C   UNL A   1      42.080  25.074  27.504  1.00  0.00     0.148 A 
ATOM     65  C   UNL A   1      43.884  26.137  25.626  1.00  0.00     0.002 A 
ATOM     66  C   UNL A   1      42.606  24.269  26.500  1.00  0.00     0.091 A 
ATOM     67  F   UNL A   1      41.199  24.606  28.399  1.00  0.00    -0.205 F 
ATOM     68  C   UNL A   1      43.498  24.800  25.555  1.00  0.00     0.022 A 
BRANCH  66  69
ATOM     69  S   UNL A   1      42.245  22.513  26.374  1.00  0.00     0.127 S 
ATOM     70  O   UNL A   1      42.982  22.148  25.165  1.00  0.00    -0.237 OA
ATOM     71  O   UNL A   1      42.817  21.995  27.616  1.00  0.00    -0.237 OA
ATOM     72  O   UNL A   1      40.797  22.403  26.275  1.00  0.00    -0.744 OA
ENDBRANCH  66  69
ENDBRANCH  48  62
BRANCH  49  73
ATOM     73  C   UNL A   1      39.215  32.000  35.211  1.00  0.00     0.023 A 
ATOM     74  C   UNL A   1      38.298  31.434  36.118  1.00  0.00     0.012 A 
ATOM     75  C   UNL A   1      39.688  33.308  35.441  1.00  0.00     0.148 A 
ATOM     76  C   UNL A   1      37.845  32.161  37.220  1.00  0.00     0.002 A 
ATOM     77  C   UNL A   1      39.279  34.003  36.572  1.00  0.00     0.091 A 
ATOM     78  F   UNL A   1      40.554  33.832  34.560  1.00  0.00    -0.205 F 
ATOM     79  C   UNL A   1      38.345  33.439  37.454  1.00  0.00     0.022 A 
BRANCH  77  80
ATOM     80  S   UNL A   1      39.976  35.594  37.034  1.00  0.00     0.127 S 
ATOM     81  O   UNL A   1      41.398  35.278  37.140  1.00  0.00    -0.237 OA
ATOM     82  O   UNL A   1      39.611  36.424  35.887  1.00  0.00    -0.237 OA
ATOM     83  O   UNL A   1      39.320  35.967  38.280  1.00  0.00    -0.744 OA
ENDBRANCH  77  80
ENDBRANCH  49  73
BRANCH  61  84
ATOM     84  C   UNL A   1      45.115  28.434  33.984  1.00  0.00     0.023 A 
ATOM     85  C   UNL A   1      46.185  29.344  33.885  1.00  0.00     0.012 A 
ATOM     86  C   UNL A   1      45.185  27.383  34.921  1.00  0.00     0.148 A 
ATOM     87  C   UNL A   1      47.315  29.200  34.691  1.00  0.00     0.002 A 
ATOM     88  C   UNL A   1      46.290  27.277  35.758  1.00  0.00     0.091 A 
ATOM     89  F   UNL A   1      44.163  26.518  34.989  1.00  0.00    -0.205 F 
ATOM     90  C   UNL A   1      47.360  28.178  35.637  1.00  0.00     0.022 A 
BRANCH  88  91
ATOM     91  S   UNL A   1      46.390  26.062  37.078  1.00  0.00     0.127 S 
ATOM     92  O   UNL A   1      45.206  26.387  37.871  1.00  0.00    -0.237 OA
ATOM     93  O   UNL A   1      46.306  24.800  36.343  1.00  0.00    -0.237 OA
ATOM     94  O   UNL A   1      47.666  26.292  37.744  1.00  0.00    -0.744 OA
ENDBRANCH  88  91
ENDBRANCH  61  84
ENDBRANCH  35  36
ENDBRANCH  27  30
ENDBRANCH  25  26
ENDBRANCH  24  25
ENDBRANCH  23  24
ENDBRANCH   1  23
TORSDOF 19
ENDMDL
MODEL 3
REMARK VINA RESULT:     -10.9      5.713     10.841
REMARK SMILES O=C(CSc1nc(-c2cccc(F)c2)n[nH]1)NCCCCCCNC(=O)c1ccc(-c2c3nc(c(-c4cccc(S(=O)(=O)[O-])c4F)c4ccc([nH]4)c(-c4cccc(S(=O)(=O)[O-])c4F)c4nc(c(-c5cccc(S(=O)(=O)[O-])c5F)c5ccc2[nH]5)C=C4)C=C3)cc1
REMARK SMILES IDX 20 1 19 2 18 3 17 4 1 5 2 6 3 8 4 9 5 10 6 11 16 12 7 13
REMARK SMILES IDX 15 14 8 16 9 17 14 18 10 19 12 20 11 21 13 22 21 23 22 24
REMARK SMILES IDX 23 25 24 26 25 27 26 29 27 30 28 31 89 32 29 33 88 34 30 35
REMARK SMILES IDX 31 36 32 37 82 38 33 39 87 40 81 41 83 42 34 43 86 44 80 45
REMARK SMILES IDX 79 46 35 48 67 49 47 50 66 51 48 52 51 53 65 54 84 55 49 56
REMARK SMILES IDX 50 57 64 59 85 60 52 61 36 62 37 63 45 64 38 65 40 66 46 67
REMARK SMILES IDX 39 68 41 69 42 70 43 71 44 72 68 73 69 74 77 75 70 76 72 77
REMARK SMILES IDX 78 78 71 79 73 80 74 81 75 82 76 83 53 84 54 85 62 86 55 87
REMARK SMILES IDX 57 88 63 89 56 90 58 91 59 92 60 93 61 94
REMARK H PARENT 17 7 16 15 24 28 83 47 51 58
REMARK Flexibility Score: inf
ROOT
ATOM      1  C   UNL A   1      31.999  26.784  26.520  1.00  0.00     0.002 C 
ENDROOT
BRANCH   1   2
ATOM      2  C   UNL A   1      31.085  25.557  26.397  1.00  0.00     0.021 C 
BRANCH   2   3
ATOM      3  C   UNL A   1      31.754  24.225  26.730  1.00  0.00     0.116 C 
BRANCH   3   4
ATOM      4  N   UNL A   1      32.692  23.824  25.703  1.00  0.00    -0.355 N 
ATOM      5  O   UNL A   1      31.230  22.509  24.520  1.00  0.00    -0.274 OA
ATOM      6  C   UNL A   1      32.342  23.022  24.639  1.00  0.00     0.230 C 
ATOM      7  H   UNL A   1      33.622  24.140  25.767  1.00  0.00     0.163 HD
BRANCH   6   8
ATOM      8  C   UNL A   1      33.472  22.666  23.689  1.00  0.00     0.178 C 
BRANCH   8   9
ATOM      9  S   UNL A   1      33.271  23.320  22.003  1.00  0.00    -0.077 SA
BRANCH   9  10
ATOM     10  C   UNL A   1      32.728  24.914  22.342  1.00  0.00     0.184 A 
ATOM     11  N   UNL A   1      31.504  25.367  22.345  1.00  0.00    -0.201 NA
ATOM     12  N   UNL A   1      33.591  25.910  22.663  1.00  0.00    -0.254 N 
ATOM     13  C   UNL A   1      31.665  26.703  22.643  1.00  0.00     0.182 A 
ATOM     14  N   UNL A   1      32.946  27.078  22.811  1.00  0.00    -0.153 NA
ATOM     15  H   UNL A   1      34.562  25.791  22.773  1.00  0.00     0.192 HD
BRANCH  13  16
ATOM     16  C   UNL A   1      30.536  27.609  22.760  1.00  0.00     0.024 A 
ATOM     17  C   UNL A   1      30.661  28.946  22.355  1.00  0.00     0.012 A 
ATOM     18  C   UNL A   1      29.315  27.158  23.272  1.00  0.00     0.051 A 
ATOM     19  C   UNL A   1      29.575  29.820  22.448  1.00  0.00     0.004 A 
ATOM     20  C   UNL A   1      28.246  28.042  23.378  1.00  0.00     0.123 A 
ATOM     21  C   UNL A   1      28.363  29.365  22.965  1.00  0.00     0.039 A 
ATOM     22  F   UNL A   1      27.085  27.610  23.888  1.00  0.00    -0.207 F 
ENDBRANCH  13  16
ENDBRANCH   9  10
ENDBRANCH   8   9
ENDBRANCH   6   8
ENDBRANCH   3   4
ENDBRANCH   2   3
ENDBRANCH   1   2
BRANCH   1  23
ATOM     23  C   UNL A   1      31.319  28.139  26.297  1.00  0.00     0.002 C 
BRANCH  23  24
ATOM     24  C   UNL A   1      31.894  29.302  27.110  1.00  0.00     0.021 C 
BRANCH  24  25
ATOM     25  C   UNL A   1      32.917  30.162  26.374  1.00  0.00     0.116 C 
BRANCH  25  26
ATOM     26  N   UNL A   1      32.864  31.560  26.780  1.00  0.00    -0.352 N 
ATOM     27  C   UNL A   1      33.689  32.251  27.634  1.00  0.00     0.251 C 
ATOM     28  H   UNL A   1      32.131  32.087  26.386  1.00  0.00     0.163 HD
ATOM     29  O   UNL A   1      33.388  33.388  27.992  1.00  0.00    -0.269 OA
BRANCH  27  30
ATOM     30  C   UNL A   1      34.927  31.619  28.141  1.00  0.00     0.039 A 
ATOM     31  C   UNL A   1      36.104  32.371  28.184  1.00  0.00     0.014 A 
ATOM     32  C   UNL A   1      34.928  30.291  28.579  1.00  0.00     0.014 A 
ATOM     33  C   UNL A   1      37.263  31.813  28.731  1.00  0.00     0.010 A 
ATOM     34  C   UNL A   1      36.063  29.763  29.190  1.00  0.00     0.010 A 
ATOM     35  C   UNL A   1      37.243  30.517  29.274  1.00  0.00    -0.014 A 
BRANCH  35  36
ATOM     36  C   UNL A   1      38.433  29.947  29.959  1.00  0.00     0.031 A 
ATOM     37  C   UNL A   1      38.838  30.438  31.322  1.00  0.00     0.074 A 
ATOM     38  C   UNL A   1      39.200  29.043  29.316  1.00  0.00     0.049 A 
ATOM     39  N   UNL A   1      39.878  30.104  32.042  1.00  0.00    -0.248 NA
ATOM     40  C   UNL A   1      37.977  31.453  31.953  1.00  0.00     0.031 C 
ATOM     41  C   UNL A   1      38.953  28.536  27.965  1.00  0.00     0.029 A 
ATOM     42  N   UNL A   1      40.355  28.407  29.702  1.00  0.00    -0.354 N 
ATOM     43  C   UNL A   1      39.814  30.883  33.190  1.00  0.00     0.074 A 
ATOM     44  C   UNL A   1      38.651  31.733  33.059  1.00  0.00     0.031 C 
ATOM     45  C   UNL A   1      39.917  27.661  27.640  1.00  0.00     0.029 A 
ATOM     46  C   UNL A   1      40.873  27.572  28.739  1.00  0.00     0.049 A 
ATOM     47  H   UNL A   1      40.772  28.537  30.584  1.00  0.00     0.167 HD
ATOM     48  C   UNL A   1      40.632  30.872  34.268  1.00  0.00     0.034 A 
ATOM     49  C   UNL A   1      41.996  26.825  28.733  1.00  0.00     0.034 A 
ATOM     50  C   UNL A   1      41.765  29.997  34.412  1.00  0.00     0.049 A 
ATOM     51  C   UNL A   1      42.878  26.817  29.951  1.00  0.00     0.074 A 
ATOM     52  C   UNL A   1      42.607  29.859  35.502  1.00  0.00     0.029 A 
ATOM     53  N   UNL A   1      42.221  29.120  33.442  1.00  0.00    -0.354 N 
ATOM     54  N   UNL A   1      42.725  27.461  31.083  1.00  0.00    -0.248 NA
ATOM     55  C   UNL A   1      44.069  25.955  29.909  1.00  0.00     0.031 C 
ATOM     56  C   UNL A   1      43.592  28.924  35.178  1.00  0.00     0.029 A 
ATOM     57  C   UNL A   1      43.339  28.447  33.902  1.00  0.00     0.049 A 
ATOM     58  H   UNL A   1      41.811  28.994  32.555  1.00  0.00     0.167 HD
ATOM     59  C   UNL A   1      43.776  27.058  31.898  1.00  0.00     0.074 A 
ATOM     60  C   UNL A   1      44.552  26.101  31.137  1.00  0.00     0.031 C 
ATOM     61  C   UNL A   1      44.077  27.457  33.159  1.00  0.00     0.034 A 
BRANCH  48  62
ATOM     62  C   UNL A   1      40.308  31.793  35.417  1.00  0.00     0.023 A 
ATOM     63  C   UNL A   1      41.043  32.986  35.578  1.00  0.00     0.012 A 
ATOM     64  C   UNL A   1      39.214  31.535  36.267  1.00  0.00     0.148 A 
ATOM     65  C   UNL A   1      40.709  33.896  36.580  1.00  0.00     0.002 A 
ATOM     66  C   UNL A   1      38.857  32.470  37.231  1.00  0.00     0.091 A 
ATOM     67  F   UNL A   1      38.538  30.388  36.108  1.00  0.00    -0.205 F 
ATOM     68  C   UNL A   1      39.609  33.644  37.396  1.00  0.00     0.022 A 
BRANCH  66  69
ATOM     69  S   UNL A   1      37.403  32.287  38.271  1.00  0.00     0.127 S 
ATOM     70  O   UNL A   1      37.198  30.839  38.236  1.00  0.00    -0.237 OA
ATOM     71  O   UNL A   1      37.879  32.803  39.554  1.00  0.00    -0.237 OA
ATOM     72  O   UNL A   1      36.354  33.078  37.644  1.00  0.00    -0.744 OA
ENDBRANCH  66  69
ENDBRANCH  48  62
BRANCH  49  73
ATOM     73  C   UNL A   1      42.306  25.970  27.552  1.00  0.00     0.023 A 
ATOM     74  C   UNL A   1      43.078  26.499  26.500  1.00  0.00     0.012 A 
ATOM     75  C   UNL A   1      41.895  24.624  27.491  1.00  0.00     0.148 A 
ATOM     76  C   UNL A   1      43.417  25.712  25.398  1.00  0.00     0.002 A 
ATOM     77  C   UNL A   1      42.286  23.828  26.421  1.00  0.00     0.091 A 
ATOM     78  F   UNL A   1      41.153  24.142  28.499  1.00  0.00    -0.205 F 
ATOM     79  C   UNL A   1      43.032  24.374  25.365  1.00  0.00     0.022 A 
BRANCH  77  80
ATOM     80  S   UNL A   1      41.962  22.062  26.360  1.00  0.00     0.127 S 
ATOM     81  O   UNL A   1      40.510  22.029  26.209  1.00  0.00    -0.237 OA
ATOM     82  O   UNL A   1      42.716  21.661  25.173  1.00  0.00    -0.237 OA
ATOM     83  O   UNL A   1      42.477  21.521  27.611  1.00  0.00    -0.744 OA
ENDBRANCH  77  80
ENDBRANCH  49  73
BRANCH  61  84
ATOM     84  C   UNL A   1      45.277  26.844  33.833  1.00  0.00     0.023 A 
ATOM     85  C   UNL A   1      46.520  27.504  33.791  1.00  0.00     0.012 A 
ATOM     86  C   UNL A   1      45.140  25.675  34.610  1.00  0.00     0.148 A 
ATOM     87  C   UNL A   1      47.614  27.000  34.494  1.00  0.00     0.002 A 
ATOM     88  C   UNL A   1      46.220  25.209  35.351  1.00  0.00     0.091 A 
ATOM     89  F   UNL A   1      43.952  25.053  34.624  1.00  0.00    -0.205 F 
ATOM     90  C   UNL A   1      47.460  25.864  35.285  1.00  0.00     0.022 A 
BRANCH  88  91
ATOM     91  S   UNL A   1      46.088  23.819  36.482  1.00  0.00     0.127 S 
ATOM     92  O   UNL A   1      45.162  24.340  37.486  1.00  0.00    -0.237 OA
ATOM     93  O   UNL A   1      45.532  22.773  35.623  1.00  0.00    -0.237 OA
ATOM     94  O   UNL A   1      47.439  23.557  36.960  1.00  0.00    -0.744 OA
ENDBRANCH  88  91
ENDBRANCH  61  84
ENDBRANCH  35  36
ENDBRANCH  27  30
ENDBRANCH  25  26
ENDBRANCH  24  25
ENDBRANCH  23  24
ENDBRANCH   1  23
TORSDOF 19
ENDMDL
