MODEL 1
REMARK VINA RESULT:     -11.2      0.000      0.000
REMARK SMILES Cc1cc(C)n([C@@H](C(=O)NCCCCCCNC(=O)c2ccc(-c3c4nc(c(-c5cccc(S(=O)(=O)[O-])c5F)c5ccc([nH]5)c(-c5cccc(S(=O)(=O)[O-])c5F)c5nc(c(-c6cccc(S(=O)(=O)[O-])c6F)c6ccc3[nH]6)C=C5)C=C4)cc2)C(C)C)n1
REMARK SMILES IDX 14 1 13 2 12 3 11 4 10 5 8 6 9 7 7 9 6 10 1 11 2 12 3 13
REMARK SMILES IDX 86 14 4 15 5 16 83 17 84 18 85 19 15 20 16 21 17 22 18 23
REMARK SMILES IDX 19 25 20 26 21 27 82 28 22 29 81 30 23 31 24 32 25 33 75 34
REMARK SMILES IDX 26 35 80 36 74 37 76 38 27 39 79 40 73 41 72 42 28 44 60 45
REMARK SMILES IDX 40 46 59 47 41 48 44 49 58 50 77 51 42 52 43 53 57 55 78 56
REMARK SMILES IDX 45 57 29 58 30 59 38 60 31 61 33 62 39 63 32 64 34 65 35 66
REMARK SMILES IDX 36 67 37 68 61 69 62 70 70 71 63 72 65 73 71 74 64 75 66 76
REMARK SMILES IDX 67 77 68 78 69 79 46 80 47 81 55 82 48 83 50 84 56 85 49 86
REMARK SMILES IDX 51 87 52 88 53 89 54 90
REMARK H PARENT 10 8 17 24 76 43 44 54
REMARK Flexibility Score: inf
ROOT
ATOM      1  C   UNL A   1      36.852  20.379  24.877  1.00  0.00     0.002 C 
ENDROOT
BRANCH   1   2
ATOM      2  C   UNL A   1      37.236  21.848  24.638  1.00  0.00     0.002 C 
BRANCH   2   3
ATOM      3  C   UNL A   1      36.265  22.652  23.763  1.00  0.00     0.021 C 
BRANCH   3   4
ATOM      4  C   UNL A   1      35.583  23.809  24.493  1.00  0.00     0.116 C 
BRANCH   4   5
ATOM      5  N   UNL A   1      34.487  24.348  23.703  1.00  0.00    -0.354 N 
ATOM      6  C   UNL A   1      33.145  24.111  23.820  1.00  0.00     0.245 C 
ATOM      7  O   UNL A   1      32.424  24.535  22.911  1.00  0.00    -0.273 OA
ATOM      8  H   UNL A   1      34.748  24.968  22.985  1.00  0.00     0.163 HD
BRANCH   6   9
ATOM      9  C   UNL A   1      32.589  23.413  25.065  1.00  0.00     0.199 C 
BRANCH   9  10
ATOM     10  N   UNL A   1      32.837  21.970  25.001  1.00  0.00    -0.257 N 
ATOM     11  C   UNL A   1      32.337  18.983  23.143  1.00  0.00     0.069 C 
ATOM     12  C   UNL A   1      32.697  20.032  24.127  1.00  0.00     0.060 A 
ATOM     13  C   UNL A   1      33.312  19.863  25.384  1.00  0.00     0.048 A 
ATOM     14  N   UNL A   1      32.439  21.322  23.880  1.00  0.00    -0.177 NA
ATOM     15  C   UNL A   1      33.410  21.130  25.925  1.00  0.00     0.037 A 
ATOM     16  C   UNL A   1      33.981  21.542  27.229  1.00  0.00     0.066 C 
ENDBRANCH   9  10
BRANCH   9  17
ATOM     17  C   UNL A   1      31.101  23.760  25.357  1.00  0.00     0.017 C 
ATOM     18  C   UNL A   1      30.529  22.886  26.483  1.00  0.00     0.010 C 
ATOM     19  C   UNL A   1      30.919  25.230  25.766  1.00  0.00     0.010 C 
ENDBRANCH   9  17
ENDBRANCH   6   9
ENDBRANCH   4   5
ENDBRANCH   3   4
ENDBRANCH   2   3
ENDBRANCH   1   2
BRANCH   1  20
ATOM     20  C   UNL A   1      38.023  19.400  25.035  1.00  0.00     0.021 C 
BRANCH  20  21
ATOM     21  C   UNL A   1      39.213  19.997  25.773  1.00  0.00     0.116 C 
BRANCH  21  22
ATOM     22  N   UNL A   1      40.366  19.097  25.764  1.00  0.00    -0.352 N 
ATOM     23  C   UNL A   1      41.689  19.423  25.929  1.00  0.00     0.251 C 
ATOM     24  H   UNL A   1      40.170  18.143  25.622  1.00  0.00     0.163 HD
ATOM     25  O   UNL A   1      42.578  18.646  25.560  1.00  0.00    -0.269 OA
BRANCH  23  26
ATOM     26  C   UNL A   1      42.038  20.710  26.548  1.00  0.00     0.039 A 
ATOM     27  C   UNL A   1      42.423  21.799  25.761  1.00  0.00     0.014 A 
ATOM     28  C   UNL A   1      41.956  20.821  27.936  1.00  0.00     0.014 A 
ATOM     29  C   UNL A   1      42.652  23.026  26.376  1.00  0.00     0.010 A 
ATOM     30  C   UNL A   1      42.065  22.057  28.527  1.00  0.00     0.010 A 
ATOM     31  C   UNL A   1      42.452  23.152  27.759  1.00  0.00    -0.014 A 
BRANCH  31  32
ATOM     32  C   UNL A   1      42.507  24.466  28.392  1.00  0.00     0.031 A 
ATOM     33  C   UNL A   1      41.317  25.327  28.132  1.00  0.00     0.074 A 
ATOM     34  C   UNL A   1      43.428  24.784  29.327  1.00  0.00     0.049 A 
ATOM     35  N   UNL A   1      41.273  26.451  27.497  1.00  0.00    -0.248 NA
ATOM     36  C   UNL A   1      39.992  24.803  28.503  1.00  0.00     0.031 C 
ATOM     37  C   UNL A   1      44.445  23.903  29.917  1.00  0.00     0.029 A 
ATOM     38  N   UNL A   1      43.548  25.919  30.070  1.00  0.00    -0.354 N 
ATOM     39  C   UNL A   1      39.953  26.893  27.603  1.00  0.00     0.074 A 
ATOM     40  C   UNL A   1      39.186  25.757  28.034  1.00  0.00     0.031 C 
ATOM     41  C   UNL A   1      44.874  24.433  31.083  1.00  0.00     0.029 A 
ATOM     42  C   UNL A   1      44.300  25.756  31.230  1.00  0.00     0.049 A 
ATOM     43  H   UNL A   1      43.138  26.776  29.811  1.00  0.00     0.167 HD
ATOM     44  C   UNL A   1      39.649  28.222  27.586  1.00  0.00     0.034 A 
ATOM     45  C   UNL A   1      44.398  26.624  32.265  1.00  0.00     0.034 A 
ATOM     46  C   UNL A   1      40.757  29.002  27.094  1.00  0.00     0.049 A 
ATOM     47  C   UNL A   1      43.974  27.950  31.765  1.00  0.00     0.074 A 
ATOM     48  C   UNL A   1      41.496  29.040  25.930  1.00  0.00     0.029 A 
ATOM     49  N   UNL A   1      41.498  29.672  28.035  1.00  0.00    -0.354 N 
ATOM     50  N   UNL A   1      44.634  28.627  30.868  1.00  0.00    -0.248 NA
ATOM     51  C   UNL A   1      42.589  28.342  31.955  1.00  0.00     0.031 C 
ATOM     52  C   UNL A   1      42.832  29.310  26.353  1.00  0.00     0.029 A 
ATOM     53  C   UNL A   1      42.820  29.486  27.738  1.00  0.00     0.049 A 
ATOM     54  H   UNL A   1      41.141  30.194  28.790  1.00  0.00     0.167 HD
ATOM     55  C   UNL A   1      43.646  29.187  30.070  1.00  0.00     0.074 A 
ATOM     56  C   UNL A   1      42.421  29.088  30.860  1.00  0.00     0.031 C 
ATOM     57  C   UNL A   1      43.861  29.403  28.739  1.00  0.00     0.034 A 
BRANCH  44  58
ATOM     58  C   UNL A   1      38.530  28.880  28.377  1.00  0.00     0.023 A 
ATOM     59  C   UNL A   1      37.685  29.770  27.669  1.00  0.00     0.012 A 
ATOM     60  C   UNL A   1      38.444  28.915  29.787  1.00  0.00     0.148 A 
ATOM     61  C   UNL A   1      36.871  30.698  28.327  1.00  0.00     0.002 A 
ATOM     62  C   UNL A   1      37.575  29.786  30.436  1.00  0.00     0.091 A 
ATOM     63  F   UNL A   1      39.288  28.200  30.533  1.00  0.00    -0.205 F 
ATOM     64  C   UNL A   1      36.815  30.706  29.714  1.00  0.00     0.022 A 
BRANCH  62  65
ATOM     65  S   UNL A   1      37.426  29.807  32.229  1.00  0.00     0.127 S 
ATOM     66  O   UNL A   1      37.208  28.394  32.520  1.00  0.00    -0.237 OA
ATOM     67  O   UNL A   1      38.731  30.331  32.629  1.00  0.00    -0.237 OA
ATOM     68  O   UNL A   1      36.311  30.701  32.519  1.00  0.00    -0.744 OA
ENDBRANCH  62  65
ENDBRANCH  44  58
BRANCH  45  69
ATOM     69  C   UNL A   1      44.598  26.365  33.709  1.00  0.00     0.023 A 
ATOM     70  C   UNL A   1      45.876  26.541  34.277  1.00  0.00     0.012 A 
ATOM     71  C   UNL A   1      43.493  26.230  34.579  1.00  0.00     0.148 A 
ATOM     72  C   UNL A   1      46.043  26.621  35.664  1.00  0.00     0.002 A 
ATOM     73  C   UNL A   1      43.664  26.307  35.958  1.00  0.00     0.091 A 
ATOM     74  F   UNL A   1      42.266  26.122  34.051  1.00  0.00    -0.205 F 
ATOM     75  C   UNL A   1      44.937  26.515  36.504  1.00  0.00     0.022 A 
BRANCH  73  76
ATOM     76  S   UNL A   1      42.281  26.216  37.104  1.00  0.00     0.127 S 
ATOM     77  O   UNL A   1      42.950  26.360  38.398  1.00  0.00    -0.237 OA
ATOM     78  O   UNL A   1      41.475  27.364  36.699  1.00  0.00    -0.237 OA
ATOM     79  O   UNL A   1      41.666  24.911  36.890  1.00  0.00    -0.744 OA
ENDBRANCH  73  76
ENDBRANCH  45  69
BRANCH  57  80
ATOM     80  C   UNL A   1      45.273  29.294  28.220  1.00  0.00     0.023 A 
ATOM     81  C   UNL A   1      46.206  30.346  28.327  1.00  0.00     0.012 A 
ATOM     82  C   UNL A   1      45.714  28.038  27.772  1.00  0.00     0.148 A 
ATOM     83  C   UNL A   1      47.545  30.154  27.974  1.00  0.00     0.002 A 
ATOM     84  C   UNL A   1      47.054  27.837  27.470  1.00  0.00     0.091 A 
ATOM     85  F   UNL A   1      44.814  27.048  27.678  1.00  0.00    -0.205 F 
ATOM     86  C   UNL A   1      47.972  28.894  27.559  1.00  0.00     0.022 A 
BRANCH  84  87
ATOM     87  S   UNL A   1      47.683  26.208  27.059  1.00  0.00     0.127 S 
ATOM     88  O   UNL A   1      46.906  25.872  25.868  1.00  0.00    -0.237 OA
ATOM     89  O   UNL A   1      49.102  26.471  26.809  1.00  0.00    -0.237 OA
ATOM     90  O   UNL A   1      47.432  25.375  28.228  1.00  0.00    -0.744 OA
ENDBRANCH  84  87
ENDBRANCH  57  80
ENDBRANCH  31  32
ENDBRANCH  23  26
ENDBRANCH  21  22
ENDBRANCH  20  21
ENDBRANCH   1  20
TORSDOF 18
ENDMDL
MODEL 2
REMARK VINA RESULT:     -11.1      1.227      2.410
REMARK SMILES Cc1cc(C)n([C@@H](C(=O)NCCCCCCNC(=O)c2ccc(-c3c4nc(c(-c5cccc(S(=O)(=O)[O-])c5F)c5ccc([nH]5)c(-c5cccc(S(=O)(=O)[O-])c5F)c5nc(c(-c6cccc(S(=O)(=O)[O-])c6F)c6ccc3[nH]6)C=C5)C=C4)cc2)C(C)C)n1
REMARK SMILES IDX 14 1 13 2 12 3 11 4 10 5 8 6 9 7 7 9 6 10 1 11 2 12 3 13
REMARK SMILES IDX 86 14 4 15 5 16 83 17 84 18 85 19 15 20 16 21 17 22 18 23
REMARK SMILES IDX 19 25 20 26 21 27 82 28 22 29 81 30 23 31 24 32 25 33 75 34
REMARK SMILES IDX 26 35 80 36 74 37 76 38 27 39 79 40 73 41 72 42 28 44 60 45
REMARK SMILES IDX 40 46 59 47 41 48 44 49 58 50 77 51 42 52 43 53 57 55 78 56
REMARK SMILES IDX 45 57 29 58 30 59 38 60 31 61 33 62 39 63 32 64 34 65 35 66
REMARK SMILES IDX 36 67 37 68 61 69 62 70 70 71 63 72 65 73 71 74 64 75 66 76
REMARK SMILES IDX 67 77 68 78 69 79 46 80 47 81 55 82 48 83 50 84 56 85 49 86
REMARK SMILES IDX 51 87 52 88 53 89 54 90
REMARK H PARENT 10 8 17 24 76 43 44 54
REMARK Flexibility Score: inf
ROOT
ATOM      1  C   UNL A   1      36.651  20.450  24.921  1.00  0.00     0.002 C 
ENDROOT
BRANCH   1   2
ATOM      2  C   UNL A   1      37.012  21.944  24.944  1.00  0.00     0.002 C 
BRANCH   2   3
ATOM      3  C   UNL A   1      35.937  22.893  24.395  1.00  0.00     0.021 C 
BRANCH   3   4
ATOM      4  C   UNL A   1      35.521  23.992  25.374  1.00  0.00     0.116 C 
BRANCH   4   5
ATOM      5  N   UNL A   1      34.395  23.564  26.187  1.00  0.00    -0.354 N 
ATOM      6  C   UNL A   1      33.092  23.976  26.138  1.00  0.00     0.245 C 
ATOM      7  O   UNL A   1      32.356  23.608  27.059  1.00  0.00    -0.273 OA
ATOM      8  H   UNL A   1      34.600  22.883  26.868  1.00  0.00     0.163 HD
BRANCH   6   9
ATOM      9  C   UNL A   1      32.585  24.795  24.946  1.00  0.00     0.199 C 
BRANCH   9  10
ATOM     10  N   UNL A   1      33.106  26.164  25.003  1.00  0.00    -0.257 N 
ATOM     11  C   UNL A   1      33.929  28.908  27.104  1.00  0.00     0.069 C 
ATOM     12  C   UNL A   1      33.680  27.963  25.989  1.00  0.00     0.060 A 
ATOM     13  C   UNL A   1      33.786  28.211  24.606  1.00  0.00     0.048 A 
ATOM     14  N   UNL A   1      33.298  26.703  26.231  1.00  0.00    -0.177 NA
ATOM     15  C   UNL A   1      33.428  27.030  23.987  1.00  0.00     0.037 A 
ATOM     16  C   UNL A   1      33.367  26.721  22.538  1.00  0.00     0.066 C 
ENDBRANCH   9  10
BRANCH   9  17
ATOM     17  C   UNL A   1      31.041  24.741  24.770  1.00  0.00     0.017 C 
ATOM     18  C   UNL A   1      30.366  26.005  25.325  1.00  0.00     0.010 C 
ATOM     19  C   UNL A   1      30.632  24.601  23.295  1.00  0.00     0.010 C 
ENDBRANCH   9  17
ENDBRANCH   6   9
ENDBRANCH   4   5
ENDBRANCH   3   4
ENDBRANCH   2   3
ENDBRANCH   1   2
BRANCH   1  20
ATOM     20  C   UNL A   1      37.835  19.477  25.007  1.00  0.00     0.021 C 
BRANCH  20  21
ATOM     21  C   UNL A   1      39.063  20.078  25.674  1.00  0.00     0.116 C 
BRANCH  21  22
ATOM     22  N   UNL A   1      40.170  19.125  25.736  1.00  0.00    -0.352 N 
ATOM     23  C   UNL A   1      41.498  19.390  25.966  1.00  0.00     0.251 C 
ATOM     24  H   UNL A   1      39.936  18.179  25.595  1.00  0.00     0.163 HD
ATOM     25  O   UNL A   1      42.366  18.567  25.654  1.00  0.00    -0.269 OA
BRANCH  23  26
ATOM     26  C   UNL A   1      41.876  20.668  26.586  1.00  0.00     0.039 A 
ATOM     27  C   UNL A   1      42.364  21.722  25.809  1.00  0.00     0.014 A 
ATOM     28  C   UNL A   1      41.716  20.808  27.965  1.00  0.00     0.014 A 
ATOM     29  C   UNL A   1      42.620  22.946  26.419  1.00  0.00     0.010 A 
ATOM     30  C   UNL A   1      41.854  22.046  28.543  1.00  0.00     0.010 A 
ATOM     31  C   UNL A   1      42.344  23.107  27.784  1.00  0.00    -0.014 A 
BRANCH  31  32
ATOM     32  C   UNL A   1      42.429  24.427  28.401  1.00  0.00     0.031 A 
ATOM     33  C   UNL A   1      41.250  25.303  28.149  1.00  0.00     0.074 A 
ATOM     34  C   UNL A   1      43.370  24.741  29.318  1.00  0.00     0.049 A 
ATOM     35  N   UNL A   1      41.214  26.421  27.501  1.00  0.00    -0.248 NA
ATOM     36  C   UNL A   1      39.922  24.806  28.546  1.00  0.00     0.031 C 
ATOM     37  C   UNL A   1      44.382  23.851  29.903  1.00  0.00     0.029 A 
ATOM     38  N   UNL A   1      43.519  25.883  30.045  1.00  0.00    -0.354 N 
ATOM     39  C   UNL A   1      39.903  26.885  27.621  1.00  0.00     0.074 A 
ATOM     40  C   UNL A   1      39.125  25.766  28.078  1.00  0.00     0.031 C 
ATOM     41  C   UNL A   1      44.837  24.388  31.056  1.00  0.00     0.029 A 
ATOM     42  C   UNL A   1      44.287  25.721  31.196  1.00  0.00     0.049 A 
ATOM     43  H   UNL A   1      43.120  26.743  29.782  1.00  0.00     0.167 HD
ATOM     44  C   UNL A   1      39.620  28.218  27.593  1.00  0.00     0.034 A 
ATOM     45  C   UNL A   1      44.414  26.601  32.218  1.00  0.00     0.034 A 
ATOM     46  C   UNL A   1      40.732  28.975  27.075  1.00  0.00     0.049 A 
ATOM     47  C   UNL A   1      44.004  27.926  31.708  1.00  0.00     0.074 A 
ATOM     48  C   UNL A   1      41.454  28.987  25.899  1.00  0.00     0.029 A 
ATOM     49  N   UNL A   1      41.499  29.644  27.997  1.00  0.00    -0.354 N 
ATOM     50  N   UNL A   1      44.660  28.582  30.793  1.00  0.00    -0.248 NA
ATOM     51  C   UNL A   1      42.628  28.344  31.915  1.00  0.00     0.031 C 
ATOM     52  C   UNL A   1      42.800  29.240  26.298  1.00  0.00     0.029 A 
ATOM     53  C   UNL A   1      42.812  29.434  27.681  1.00  0.00     0.049 A 
ATOM     54  H   UNL A   1      41.162  30.181  28.750  1.00  0.00     0.167 HD
ATOM     55  C   UNL A   1      43.669  29.149  30.004  1.00  0.00     0.074 A 
ATOM     56  C   UNL A   1      42.455  29.079  30.813  1.00  0.00     0.031 C 
ATOM     57  C   UNL A   1      43.867  29.345  28.667  1.00  0.00     0.034 A 
BRANCH  44  58
ATOM     58  C   UNL A   1      38.524  28.904  28.393  1.00  0.00     0.023 A 
ATOM     59  C   UNL A   1      37.698  29.817  27.693  1.00  0.00     0.012 A 
ATOM     60  C   UNL A   1      38.448  28.938  29.804  1.00  0.00     0.148 A 
ATOM     61  C   UNL A   1      36.912  30.764  28.359  1.00  0.00     0.002 A 
ATOM     62  C   UNL A   1      37.606  29.830  30.461  1.00  0.00     0.091 A 
ATOM     63  F   UNL A   1      39.279  28.200  30.542  1.00  0.00    -0.205 F 
ATOM     64  C   UNL A   1      36.866  30.771  29.745  1.00  0.00     0.022 A 
BRANCH  62  65
ATOM     65  S   UNL A   1      37.470  29.852  32.255  1.00  0.00     0.127 S 
ATOM     66  O   UNL A   1      38.784  30.358  32.640  1.00  0.00    -0.237 OA
ATOM     67  O   UNL A   1      36.361  30.783  32.456  1.00  0.00    -0.237 OA
ATOM     68  O   UNL A   1      37.174  28.478  32.642  1.00  0.00    -0.744 OA
ENDBRANCH  62  65
ENDBRANCH  44  58
BRANCH  45  69
ATOM     69  C   UNL A   1      44.633  26.356  33.662  1.00  0.00     0.023 A 
ATOM     70  C   UNL A   1      45.913  26.555  34.216  1.00  0.00     0.012 A 
ATOM     71  C   UNL A   1      43.538  26.210  34.543  1.00  0.00     0.148 A 
ATOM     72  C   UNL A   1      46.093  26.648  35.600  1.00  0.00     0.002 A 
ATOM     73  C   UNL A   1      43.722  26.299  35.921  1.00  0.00     0.091 A 
ATOM     74  F   UNL A   1      42.309  26.079  34.029  1.00  0.00    -0.205 F 
ATOM     75  C   UNL A   1      44.997  26.531  36.452  1.00  0.00     0.022 A 
BRANCH  73  76
ATOM     76  S   UNL A   1      42.352  26.196  37.081  1.00  0.00     0.127 S 
ATOM     77  O   UNL A   1      41.894  24.820  36.886  1.00  0.00    -0.237 OA
ATOM     78  O   UNL A   1      43.016  26.445  38.357  1.00  0.00    -0.237 OA
ATOM     79  O   UNL A   1      41.394  27.212  36.663  1.00  0.00    -0.744 OA
ENDBRANCH  73  76
ENDBRANCH  45  69
BRANCH  57  80
ATOM     80  C   UNL A   1      45.269  29.207  28.127  1.00  0.00     0.023 A 
ATOM     81  C   UNL A   1      46.223  30.242  28.217  1.00  0.00     0.012 A 
ATOM     82  C   UNL A   1      45.679  27.942  27.679  1.00  0.00     0.148 A 
ATOM     83  C   UNL A   1      47.553  30.023  27.845  1.00  0.00     0.002 A 
ATOM     84  C   UNL A   1      47.011  27.714  27.357  1.00  0.00     0.091 A 
ATOM     85  F   UNL A   1      44.760  26.968  27.601  1.00  0.00    -0.205 F 
ATOM     86  C   UNL A   1      47.950  28.754  27.429  1.00  0.00     0.022 A 
BRANCH  84  87
ATOM     87  S   UNL A   1      47.602  26.072  26.943  1.00  0.00     0.127 S 
ATOM     88  O   UNL A   1      48.930  26.352  26.403  1.00  0.00    -0.237 OA
ATOM     89  O   UNL A   1      47.600  25.399  28.244  1.00  0.00    -0.237 OA
ATOM     90  O   UNL A   1      46.640  25.527  25.994  1.00  0.00    -0.744 OA
ENDBRANCH  84  87
ENDBRANCH  57  80
ENDBRANCH  31  32
ENDBRANCH  23  26
ENDBRANCH  21  22
ENDBRANCH  20  21
ENDBRANCH   1  20
TORSDOF 18
ENDMDL
MODEL 3
REMARK VINA RESULT:     -10.3      2.204      3.194
REMARK SMILES Cc1cc(C)n([C@@H](C(=O)NCCCCCCNC(=O)c2ccc(-c3c4nc(c(-c5cccc(S(=O)(=O)[O-])c5F)c5ccc([nH]5)c(-c5cccc(S(=O)(=O)[O-])c5F)c5nc(c(-c6cccc(S(=O)(=O)[O-])c6F)c6ccc3[nH]6)C=C5)C=C4)cc2)C(C)C)n1
REMARK SMILES IDX 14 1 13 2 12 3 11 4 10 5 8 6 9 7 7 9 6 10 1 11 2 12 3 13
REMARK SMILES IDX 86 14 4 15 5 16 83 17 84 18 85 19 15 20 16 21 17 22 18 23
REMARK SMILES IDX 19 25 20 26 21 27 82 28 22 29 81 30 23 31 24 32 25 33 75 34
REMARK SMILES IDX 26 35 80 36 74 37 76 38 27 39 79 40 73 41 72 42 28 44 60 45
REMARK SMILES IDX 40 46 59 47 41 48 44 49 58 50 77 51 42 52 43 53 57 55 78 56
REMARK SMILES IDX 45 57 29 58 30 59 38 60 31 61 33 62 39 63 32 64 34 65 35 66
REMARK SMILES IDX 36 67 37 68 61 69 62 70 70 71 63 72 65 73 71 74 64 75 66 76
REMARK SMILES IDX 67 77 68 78 69 79 46 80 47 81 55 82 48 83 50 84 56 85 49 86
REMARK SMILES IDX 51 87 52 88 53 89 54 90
REMARK H PARENT 10 8 17 24 76 43 44 54
REMARK Flexibility Score: inf
ROOT
ATOM      1  C   UNL A   1      36.290  20.869  24.956  1.00  0.00     0.002 C 
ENDROOT
BRANCH   1   2
ATOM      2  C   UNL A   1      36.494  22.340  25.352  1.00  0.00     0.002 C 
BRANCH   2   3
ATOM      3  C   UNL A   1      35.640  23.357  24.583  1.00  0.00     0.021 C 
BRANCH   3   4
ATOM      4  C   UNL A   1      34.850  24.310  25.481  1.00  0.00     0.116 C 
BRANCH   4   5
ATOM      5  N   UNL A   1      33.444  23.942  25.520  1.00  0.00    -0.354 N 
ATOM      6  C   UNL A   1      32.399  24.459  24.804  1.00  0.00     0.245 C 
ATOM      7  O   UNL A   1      31.264  24.115  25.149  1.00  0.00    -0.273 OA
ATOM      8  H   UNL A   1      33.213  23.221  26.148  1.00  0.00     0.163 HD
BRANCH   6   9
ATOM      9  C   UNL A   1      32.663  25.362  23.595  1.00  0.00     0.199 C 
BRANCH   9  10
ATOM     10  N   UNL A   1      31.961  26.640  23.744  1.00  0.00    -0.257 N 
ATOM     11  C   UNL A   1      28.953  28.428  23.128  1.00  0.00     0.069 C 
ATOM     12  C   UNL A   1      30.308  27.964  23.511  1.00  0.00     0.060 A 
ATOM     13  C   UNL A   1      31.363  28.728  24.050  1.00  0.00     0.048 A 
ATOM     14  N   UNL A   1      30.663  26.683  23.357  1.00  0.00    -0.177 NA
ATOM     15  C   UNL A   1      32.416  27.850  24.210  1.00  0.00     0.037 A 
ATOM     16  C   UNL A   1      33.773  28.113  24.744  1.00  0.00     0.066 C 
ENDBRANCH   9  10
BRANCH   9  17
ATOM     17  C   UNL A   1      32.378  24.670  22.231  1.00  0.00     0.017 C 
ATOM     18  C   UNL A   1      32.703  25.596  21.050  1.00  0.00     0.010 C 
ATOM     19  C   UNL A   1      33.198  23.381  22.055  1.00  0.00     0.010 C 
ENDBRANCH   9  17
ENDBRANCH   6   9
ENDBRANCH   4   5
ENDBRANCH   3   4
ENDBRANCH   2   3
ENDBRANCH   1   2
BRANCH   1  20
ATOM     20  C   UNL A   1      37.572  20.050  24.751  1.00  0.00     0.021 C 
BRANCH  20  21
ATOM     21  C   UNL A   1      38.700  20.450  25.689  1.00  0.00     0.116 C 
BRANCH  21  22
ATOM     22  N   UNL A   1      39.736  19.421  25.765  1.00  0.00    -0.352 N 
ATOM     23  C   UNL A   1      41.078  19.592  25.999  1.00  0.00     0.251 C 
ATOM     24  H   UNL A   1      39.436  18.493  25.630  1.00  0.00     0.163 HD
ATOM     25  O   UNL A   1      41.887  18.706  25.697  1.00  0.00    -0.269 OA
BRANCH  23  26
ATOM     26  C   UNL A   1      41.544  20.845  26.610  1.00  0.00     0.039 A 
ATOM     27  C   UNL A   1      41.995  21.903  25.816  1.00  0.00     0.014 A 
ATOM     28  C   UNL A   1      41.506  20.958  28.000  1.00  0.00     0.014 A 
ATOM     29  C   UNL A   1      42.336  23.105  26.426  1.00  0.00     0.010 A 
ATOM     30  C   UNL A   1      41.728  22.179  28.589  1.00  0.00     0.010 A 
ATOM     31  C   UNL A   1      42.182  23.242  27.813  1.00  0.00    -0.014 A 
BRANCH  31  32
ATOM     32  C   UNL A   1      42.357  24.546  28.447  1.00  0.00     0.031 A 
ATOM     33  C   UNL A   1      41.224  25.492  28.236  1.00  0.00     0.074 A 
ATOM     34  C   UNL A   1      43.335  24.790  29.346  1.00  0.00     0.049 A 
ATOM     35  N   UNL A   1      41.238  26.620  27.606  1.00  0.00    -0.248 NA
ATOM     36  C   UNL A   1      39.880  25.065  28.657  1.00  0.00     0.031 C 
ATOM     37  C   UNL A   1      44.306  23.835  29.895  1.00  0.00     0.029 A 
ATOM     38  N   UNL A   1      43.566  25.910  30.086  1.00  0.00    -0.354 N 
ATOM     39  C   UNL A   1      39.959  27.157  27.763  1.00  0.00     0.074 A 
ATOM     40  C   UNL A   1      39.129  26.077  28.221  1.00  0.00     0.031 C 
ATOM     41  C   UNL A   1      44.818  24.326  31.044  1.00  0.00     0.029 A 
ATOM     42  C   UNL A   1      44.349  25.686  31.216  1.00  0.00     0.049 A 
ATOM     43  H   UNL A   1      43.210  26.796  29.845  1.00  0.00     0.167 HD
ATOM     44  C   UNL A   1      39.753  28.504  27.762  1.00  0.00     0.034 A 
ATOM     45  C   UNL A   1      44.549  26.540  32.248  1.00  0.00     0.034 A 
ATOM     46  C   UNL A   1      40.895  29.204  27.229  1.00  0.00     0.049 A 
ATOM     47  C   UNL A   1      44.204  27.896  31.768  1.00  0.00     0.074 A 
ATOM     48  C   UNL A   1      41.589  29.193  26.036  1.00  0.00     0.029 A 
ATOM     49  N   UNL A   1      41.719  29.813  28.142  1.00  0.00    -0.354 N 
ATOM     50  N   UNL A   1      44.877  28.527  30.848  1.00  0.00    -0.248 NA
ATOM     51  C   UNL A   1      42.860  28.387  32.013  1.00  0.00     0.031 C 
ATOM     52  C   UNL A   1      42.957  29.363  26.408  1.00  0.00     0.029 A 
ATOM     53  C   UNL A   1      43.011  29.533  27.793  1.00  0.00     0.049 A 
ATOM     54  H   UNL A   1      41.431  30.356  28.911  1.00  0.00     0.167 HD
ATOM     55  C   UNL A   1      43.903  29.162  30.090  1.00  0.00     0.074 A 
ATOM     56  C   UNL A   1      42.705  29.149  30.927  1.00  0.00     0.031 C 
ATOM     57  C   UNL A   1      44.081  29.368  28.752  1.00  0.00     0.034 A 
BRANCH  44  58
ATOM     58  C   UNL A   1      38.717  29.239  28.596  1.00  0.00     0.023 A 
ATOM     59  C   UNL A   1      38.646  28.901  29.970  1.00  0.00     0.012 A 
ATOM     60  C   UNL A   1      37.641  29.993  28.075  1.00  0.00     0.148 A 
ATOM     61  C   UNL A   1      37.530  29.218  30.753  1.00  0.00     0.002 A 
ATOM     62  C   UNL A   1      36.570  30.373  28.878  1.00  0.00     0.091 A 
ATOM     63  F   UNL A   1      37.567  30.249  26.768  1.00  0.00    -0.205 F 
ATOM     64  C   UNL A   1      36.490  29.956  30.207  1.00  0.00     0.022 A 
BRANCH  62  65
ATOM     65  S   UNL A   1      35.217  31.370  28.235  1.00  0.00     0.127 S 
ATOM     66  O   UNL A   1      34.542  31.772  29.465  1.00  0.00    -0.237 OA
ATOM     67  O   UNL A   1      35.938  32.438  27.543  1.00  0.00    -0.237 OA
ATOM     68  O   UNL A   1      34.466  30.488  27.351  1.00  0.00    -0.744 OA
ENDBRANCH  62  65
ENDBRANCH  44  58
BRANCH  45  69
ATOM     69  C   UNL A   1      44.786  26.260  33.683  1.00  0.00     0.023 A 
ATOM     70  C   UNL A   1      46.098  26.305  34.194  1.00  0.00     0.012 A 
ATOM     71  C   UNL A   1      43.712  26.235  34.601  1.00  0.00     0.148 A 
ATOM     72  C   UNL A   1      46.334  26.366  35.572  1.00  0.00     0.002 A 
ATOM     73  C   UNL A   1      43.950  26.292  35.971  1.00  0.00     0.091 A 
ATOM     74  F   UNL A   1      42.459  26.252  34.127  1.00  0.00    -0.205 F 
ATOM     75  C   UNL A   1      45.261  26.370  36.460  1.00  0.00     0.022 A 
BRANCH  73  76
ATOM     76  S   UNL A   1      42.617  26.339  37.177  1.00  0.00     0.127 S 
ATOM     77  O   UNL A   1      43.353  26.417  38.439  1.00  0.00    -0.237 OA
ATOM     78  O   UNL A   1      41.912  27.562  36.802  1.00  0.00    -0.237 OA
ATOM     79  O   UNL A   1      41.867  25.102  36.996  1.00  0.00    -0.744 OA
ENDBRANCH  73  76
ENDBRANCH  45  69
BRANCH  57  80
ATOM     80  C   UNL A   1      45.460  29.159  28.178  1.00  0.00     0.023 A 
ATOM     81  C   UNL A   1      45.852  27.954  27.559  1.00  0.00     0.012 A 
ATOM     82  C   UNL A   1      46.318  30.268  28.108  1.00  0.00     0.148 A 
ATOM     83  C   UNL A   1      47.084  27.853  26.904  1.00  0.00     0.002 A 
ATOM     84  C   UNL A   1      47.518  30.179  27.414  1.00  0.00     0.091 A 
ATOM     85  F   UNL A   1      45.930  31.408  28.699  1.00  0.00    -0.205 F 
ATOM     86  C   UNL A   1      47.910  28.971  26.819  1.00  0.00     0.022 A 
BRANCH  84  87
ATOM     87  S   UNL A   1      48.558  31.619  27.161  1.00  0.00     0.127 S 
ATOM     88  O   UNL A   1      47.749  32.422  26.246  1.00  0.00    -0.237 OA
ATOM     89  O   UNL A   1      48.675  32.165  28.514  1.00  0.00    -0.237 OA
ATOM     90  O   UNL A   1      49.812  31.117  26.614  1.00  0.00    -0.744 OA
ENDBRANCH  84  87
ENDBRANCH  57  80
ENDBRANCH  31  32
ENDBRANCH  23  26
ENDBRANCH  21  22
ENDBRANCH  20  21
ENDBRANCH   1  20
TORSDOF 18
ENDMDL
