MODEL 1
REMARK VINA RESULT:     -11.2      0.000      0.000
REMARK SMILES CC(C)C[C@@H](NC(=O)Cn1nc(O)ccc1=O)C(=O)NCCCCCCNC(=O)c1ccc(-c2c3nc(c(-c4cccc(S(=O)(=O)[O-])c4F)c4ccc([nH]4)c(-c4cccc(S(=O)(=O)[O-])c4F)c4nc(c(-c5cccc(S(=O)(=O)[O-])c5F)c5ccc2[nH]5)C=C4)C=C3)cc1
REMARK SMILES IDX 23 1 22 2 21 3 20 4 18 5 19 6 5 8 4 9 2 10 1 11 3 12 6 13
REMARK SMILES IDX 7 14 8 16 9 17 10 18 11 19 16 20 12 21 15 22 17 23 14 24
REMARK SMILES IDX 13 25 24 27 25 28 26 29 27 30 28 31 29 33 30 34 31 35 92 36
REMARK SMILES IDX 32 37 91 38 33 39 34 40 35 41 85 42 36 43 90 44 84 45 86 46
REMARK SMILES IDX 37 47 89 48 83 49 82 50 38 52 70 53 50 54 69 55 51 56 54 57
REMARK SMILES IDX 68 58 87 59 52 60 53 61 67 63 88 64 55 65 39 66 40 67 48 68
REMARK SMILES IDX 41 69 43 70 49 71 42 72 44 73 45 74 46 75 47 76 71 77 72 78
REMARK SMILES IDX 80 79 73 80 75 81 81 82 74 83 76 84 77 85 78 86 79 87 56 88
REMARK SMILES IDX 57 89 65 90 58 91 60 92 66 93 59 94 61 95 62 96 63 97 64 98
REMARK H PARENT 20 7 6 15 13 26 27 32 86 51 54 62
REMARK Flexibility Score: inf
ROOT
ATOM      1  C   UNL A   1      33.867  28.532  26.992  1.00  0.00     0.002 C 
ENDROOT
BRANCH   1   2
ATOM      2  C   UNL A   1      33.992  28.301  25.484  1.00  0.00     0.021 C 
BRANCH   2   3
ATOM      3  C   UNL A   1      33.692  26.868  25.052  1.00  0.00     0.116 C 
BRANCH   3   4
ATOM      4  N   UNL A   1      33.878  26.694  23.618  1.00  0.00    -0.354 N 
ATOM      5  C   UNL A   1      33.153  25.953  22.727  1.00  0.00     0.242 C 
ATOM      6  O   UNL A   1      33.595  25.839  21.577  1.00  0.00    -0.273 OA
ATOM      7  H   UNL A   1      34.641  27.184  23.232  1.00  0.00     0.163 HD
BRANCH   5   8
ATOM      8  C   UNL A   1      31.987  25.071  23.211  1.00  0.00     0.171 C 
BRANCH   8   9
ATOM      9  C   UNL A   1      30.765  25.963  22.860  1.00  0.00     0.038 C 
BRANCH   9  10
ATOM     10  C   UNL A   1      30.118  26.846  23.931  1.00  0.00    -0.015 C 
ATOM     11  C   UNL A   1      30.474  28.317  23.745  1.00  0.00     0.007 C 
ATOM     12  C   UNL A   1      28.595  26.664  23.828  1.00  0.00     0.007 C 
ENDBRANCH   9  10
ENDBRANCH   8   9
BRANCH   8  13
ATOM     13  N   UNL A   1      31.935  23.741  22.599  1.00  0.00    -0.343 N 
ATOM     14  C   UNL A   1      32.651  22.606  22.850  1.00  0.00     0.242 C 
ATOM     15  H   UNL A   1      31.266  23.650  21.883  1.00  0.00     0.164 HD
ATOM     16  O   UNL A   1      32.170  21.560  22.395  1.00  0.00    -0.273 OA
BRANCH  14  17
ATOM     17  C   UNL A   1      33.893  22.550  23.752  1.00  0.00     0.248 C 
BRANCH  17  18
ATOM     18  N   UNL A   1      33.663  22.452  25.188  1.00  0.00    -0.217 N 
ATOM     19  N   UNL A   1      32.510  23.040  25.675  1.00  0.00    -0.131 NA
ATOM     20  C   UNL A   1      34.524  21.695  25.981  1.00  0.00     0.267 A 
ATOM     21  C   UNL A   1      32.333  22.963  26.945  1.00  0.00     0.229 A 
ATOM     22  C   UNL A   1      34.207  21.642  27.432  1.00  0.00     0.079 A 
ATOM     23  O   UNL A   1      35.521  21.109  25.572  1.00  0.00    -0.268 OA
ATOM     24  C   UNL A   1      33.148  22.280  27.931  1.00  0.00     0.075 A 
BRANCH  21  25
ATOM     25  O   UNL A   1      31.315  23.618  27.509  1.00  0.00    -0.492 OA
ATOM     26  H   UNL A   1      31.464  24.157  28.261  1.00  0.00     0.295 HD
ENDBRANCH  21  25
ENDBRANCH  17  18
ENDBRANCH  14  17
ENDBRANCH   8  13
ENDBRANCH   5   8
ENDBRANCH   3   4
ENDBRANCH   2   3
ENDBRANCH   1   2
BRANCH   1  27
ATOM     27  C   UNL A   1      32.715  29.456  27.397  1.00  0.00     0.002 C 
BRANCH  27  28
ATOM     28  C   UNL A   1      32.750  30.855  26.797  1.00  0.00     0.021 C 
BRANCH  28  29
ATOM     29  C   UNL A   1      33.483  31.879  27.643  1.00  0.00     0.116 C 
BRANCH  29  30
ATOM     30  N   UNL A   1      32.867  33.202  27.643  1.00  0.00    -0.352 N 
ATOM     31  C   UNL A   1      33.196  34.254  28.474  1.00  0.00     0.251 C 
ATOM     32  H   UNL A   1      32.151  33.360  26.987  1.00  0.00     0.163 HD
ATOM     33  O   UNL A   1      32.592  35.319  28.441  1.00  0.00    -0.269 OA
BRANCH  31  34
ATOM     34  C   UNL A   1      34.284  34.008  29.439  1.00  0.00     0.039 A 
ATOM     35  C   UNL A   1      35.573  34.419  29.095  1.00  0.00     0.014 A 
ATOM     36  C   UNL A   1      34.060  33.141  30.509  1.00  0.00     0.014 A 
ATOM     37  C   UNL A   1      36.654  33.796  29.697  1.00  0.00     0.010 A 
ATOM     38  C   UNL A   1      35.156  32.601  31.184  1.00  0.00     0.010 A 
ATOM     39  C   UNL A   1      36.461  32.875  30.744  1.00  0.00    -0.014 A 
BRANCH  39  40
ATOM     40  C   UNL A   1      37.642  32.218  31.360  1.00  0.00     0.031 A 
ATOM     41  C   UNL A   1      38.378  31.105  30.658  1.00  0.00     0.074 A 
ATOM     42  C   UNL A   1      38.076  32.667  32.553  1.00  0.00     0.049 A 
ATOM     43  N   UNL A   1      39.389  30.395  31.090  1.00  0.00    -0.248 NA
ATOM     44  C   UNL A   1      37.926  30.734  29.307  1.00  0.00     0.031 C 
ATOM     45  C   UNL A   1      37.443  33.739  33.326  1.00  0.00     0.029 A 
ATOM     46  N   UNL A   1      39.151  32.299  33.318  1.00  0.00    -0.354 N 
ATOM     47  C   UNL A   1      39.652  29.455  30.099  1.00  0.00     0.074 A 
ATOM     48  C   UNL A   1      38.708  29.697  29.030  1.00  0.00     0.031 C 
ATOM     49  C   UNL A   1      38.172  33.983  34.421  1.00  0.00     0.029 A 
ATOM     50  C   UNL A   1      39.272  33.028  34.476  1.00  0.00     0.049 A 
ATOM     51  H   UNL A   1      39.776  31.581  33.063  1.00  0.00     0.167 HD
ATOM     52  C   UNL A   1      40.600  28.489  30.083  1.00  0.00     0.034 A 
ATOM     53  C   UNL A   1      40.149  32.926  35.493  1.00  0.00     0.034 A 
ATOM     54  C   UNL A   1      41.581  28.303  31.120  1.00  0.00     0.049 A 
ATOM     55  C   UNL A   1      41.197  31.860  35.441  1.00  0.00     0.074 A 
ATOM     56  C   UNL A   1      42.606  27.375  31.174  1.00  0.00     0.029 A 
ATOM     57  N   UNL A   1      41.669  29.065  32.275  1.00  0.00    -0.354 N 
ATOM     58  N   UNL A   1      41.444  31.001  34.482  1.00  0.00    -0.248 NA
ATOM     59  C   UNL A   1      42.084  31.742  36.605  1.00  0.00     0.031 C 
ATOM     60  C   UNL A   1      43.314  27.575  32.363  1.00  0.00     0.029 A 
ATOM     61  C   UNL A   1      42.731  28.630  33.047  1.00  0.00     0.049 A 
ATOM     62  H   UNL A   1      41.063  29.805  32.510  1.00  0.00     0.167 HD
ATOM     63  C   UNL A   1      42.511  30.235  34.926  1.00  0.00     0.074 A 
ATOM     64  C   UNL A   1      42.885  30.753  36.228  1.00  0.00     0.031 C 
ATOM     65  C   UNL A   1      43.109  29.182  34.322  1.00  0.00     0.034 A 
BRANCH  52  66
ATOM     66  C   UNL A   1      40.668  27.569  28.894  1.00  0.00     0.023 A 
ATOM     67  C   UNL A   1      39.678  26.583  28.725  1.00  0.00     0.012 A 
ATOM     68  C   UNL A   1      41.637  27.760  27.888  1.00  0.00     0.148 A 
ATOM     69  C   UNL A   1      39.652  25.795  27.574  1.00  0.00     0.002 A 
ATOM     70  C   UNL A   1      41.589  26.989  26.732  1.00  0.00     0.091 A 
ATOM     71  F   UNL A   1      42.575  28.698  28.076  1.00  0.00    -0.205 F 
ATOM     72  C   UNL A   1      40.599  26.004  26.575  1.00  0.00     0.022 A 
BRANCH  70  73
ATOM     73  S   UNL A   1      42.726  27.217  25.358  1.00  0.00     0.127 S 
ATOM     74  O   UNL A   1      43.999  27.390  26.057  1.00  0.00    -0.237 OA
ATOM     75  O   UNL A   1      42.593  25.950  24.637  1.00  0.00    -0.237 OA
ATOM     76  O   UNL A   1      42.254  28.386  24.632  1.00  0.00    -0.744 OA
ENDBRANCH  70  73
ENDBRANCH  52  66
BRANCH  53  77
ATOM     77  C   UNL A   1      40.054  33.888  36.621  1.00  0.00     0.023 A 
ATOM     78  C   UNL A   1      40.398  35.235  36.406  1.00  0.00     0.012 A 
ATOM     79  C   UNL A   1      39.505  33.501  37.860  1.00  0.00     0.148 A 
ATOM     80  C   UNL A   1      40.191  36.185  37.405  1.00  0.00     0.002 A 
ATOM     81  C   UNL A   1      39.253  34.461  38.831  1.00  0.00     0.091 A 
ATOM     82  F   UNL A   1      39.195  32.211  38.039  1.00  0.00    -0.205 F 
ATOM     83  C   UNL A   1      39.604  35.802  38.610  1.00  0.00     0.022 A 
BRANCH  81  84
ATOM     84  S   UNL A   1      38.367  34.086  40.348  1.00  0.00     0.127 S 
ATOM     85  O   UNL A   1      37.166  33.432  39.837  1.00  0.00    -0.237 OA
ATOM     86  O   UNL A   1      39.309  33.202  41.035  1.00  0.00    -0.237 OA
ATOM     87  O   UNL A   1      38.154  35.368  41.008  1.00  0.00    -0.744 OA
ENDBRANCH  81  84
ENDBRANCH  53  77
BRANCH  65  88
ATOM     88  C   UNL A   1      44.230  28.507  35.058  1.00  0.00     0.023 A 
ATOM     89  C   UNL A   1      45.555  28.914  34.810  1.00  0.00     0.012 A 
ATOM     90  C   UNL A   1      43.967  27.549  36.055  1.00  0.00     0.148 A 
ATOM     91  C   UNL A   1      46.608  28.366  35.538  1.00  0.00     0.002 A 
ATOM     92  C   UNL A   1      45.019  27.031  36.800  1.00  0.00     0.091 A 
ATOM     93  F   UNL A   1      42.697  27.172  36.260  1.00  0.00    -0.205 F 
ATOM     94  C   UNL A   1      46.340  27.435  36.540  1.00  0.00     0.022 A 
BRANCH  92  95
ATOM     95  S   UNL A   1      44.768  25.877  38.152  1.00  0.00     0.127 S 
ATOM     96  O   UNL A   1      43.951  26.668  39.071  1.00  0.00    -0.237 OA
ATOM     97  O   UNL A   1      44.061  24.778  37.494  1.00  0.00    -0.237 OA
ATOM     98  O   UNL A   1      46.098  25.535  38.640  1.00  0.00    -0.744 OA
ENDBRANCH  92  95
ENDBRANCH  65  88
ENDBRANCH  39  40
ENDBRANCH  31  34
ENDBRANCH  29  30
ENDBRANCH  28  29
ENDBRANCH  27  28
ENDBRANCH   1  27
TORSDOF 22
ENDMDL
MODEL 2
REMARK VINA RESULT:     -10.9      1.322      7.794
REMARK SMILES CC(C)C[C@@H](NC(=O)Cn1nc(O)ccc1=O)C(=O)NCCCCCCNC(=O)c1ccc(-c2c3nc(c(-c4cccc(S(=O)(=O)[O-])c4F)c4ccc([nH]4)c(-c4cccc(S(=O)(=O)[O-])c4F)c4nc(c(-c5cccc(S(=O)(=O)[O-])c5F)c5ccc2[nH]5)C=C4)C=C3)cc1
REMARK SMILES IDX 23 1 22 2 21 3 20 4 18 5 19 6 5 8 4 9 2 10 1 11 3 12 6 13
REMARK SMILES IDX 7 14 8 16 9 17 10 18 11 19 16 20 12 21 15 22 17 23 14 24
REMARK SMILES IDX 13 25 24 27 25 28 26 29 27 30 28 31 29 33 30 34 31 35 92 36
REMARK SMILES IDX 32 37 91 38 33 39 34 40 35 41 85 42 36 43 90 44 84 45 86 46
REMARK SMILES IDX 37 47 89 48 83 49 82 50 38 52 70 53 50 54 69 55 51 56 54 57
REMARK SMILES IDX 68 58 87 59 52 60 53 61 67 63 88 64 55 65 39 66 40 67 48 68
REMARK SMILES IDX 41 69 43 70 49 71 42 72 44 73 45 74 46 75 47 76 71 77 72 78
REMARK SMILES IDX 80 79 73 80 75 81 81 82 74 83 76 84 77 85 78 86 79 87 56 88
REMARK SMILES IDX 57 89 65 90 58 91 60 92 66 93 59 94 61 95 62 96 63 97 64 98
REMARK H PARENT 20 7 6 15 13 26 27 32 86 51 54 62
REMARK Flexibility Score: inf
ROOT
ATOM      1  C   UNL A   1      34.461  28.831  27.015  1.00  0.00     0.002 C 
ENDROOT
BRANCH   1   2
ATOM      2  C   UNL A   1      33.051  28.255  27.167  1.00  0.00     0.021 C 
BRANCH   2   3
ATOM      3  C   UNL A   1      32.229  28.287  25.881  1.00  0.00     0.116 C 
BRANCH   3   4
ATOM      4  N   UNL A   1      32.963  28.924  24.796  1.00  0.00    -0.354 N 
ATOM      5  C   UNL A   1      32.744  28.875  23.447  1.00  0.00     0.242 C 
ATOM      6  O   UNL A   1      33.596  29.379  22.706  1.00  0.00    -0.273 OA
ATOM      7  H   UNL A   1      33.733  29.472  25.076  1.00  0.00     0.163 HD
BRANCH   5   8
ATOM      8  C   UNL A   1      31.628  27.985  22.869  1.00  0.00     0.171 C 
BRANCH   8   9
ATOM      9  C   UNL A   1      30.647  29.052  22.313  1.00  0.00     0.038 C 
BRANCH   9  10
ATOM     10  C   UNL A   1      29.467  29.536  23.162  1.00  0.00    -0.015 C 
ATOM     11  C   UNL A   1      29.083  30.975  22.832  1.00  0.00     0.007 C 
ATOM     12  C   UNL A   1      28.276  28.605  22.880  1.00  0.00     0.007 C 
ENDBRANCH   9  10
ENDBRANCH   8   9
BRANCH   8  13
ATOM     13  N   UNL A   1      32.078  27.022  21.860  1.00  0.00    -0.343 N 
ATOM     14  C   UNL A   1      32.950  25.976  21.942  1.00  0.00     0.242 C 
ATOM     15  H   UNL A   1      31.681  27.153  20.970  1.00  0.00     0.164 HD
ATOM     16  O   UNL A   1      32.889  25.156  21.015  1.00  0.00    -0.273 OA
BRANCH  14  17
ATOM     17  C   UNL A   1      33.863  25.703  23.146  1.00  0.00     0.248 C 
BRANCH  17  18
ATOM     18  N   UNL A   1      33.245  25.099  24.321  1.00  0.00    -0.217 N 
ATOM     19  N   UNL A   1      31.866  24.997  24.314  1.00  0.00    -0.131 NA
ATOM     20  C   UNL A   1      34.043  24.558  25.327  1.00  0.00     0.267 A 
ATOM     21  C   UNL A   1      31.336  24.482  25.365  1.00  0.00     0.229 A 
ATOM     22  C   UNL A   1      33.328  23.955  26.481  1.00  0.00     0.079 A 
ATOM     23  O   UNL A   1      35.270  24.577  25.335  1.00  0.00    -0.268 OA
ATOM     24  C   UNL A   1      31.996  23.929  26.532  1.00  0.00     0.075 A 
BRANCH  21  25
ATOM     25  O   UNL A   1      30.007  24.469  25.493  1.00  0.00    -0.492 OA
ATOM     26  H   UNL A   1      29.565  23.672  25.711  1.00  0.00     0.295 HD
ENDBRANCH  21  25
ENDBRANCH  17  18
ENDBRANCH  14  17
ENDBRANCH   8  13
ENDBRANCH   5   8
ENDBRANCH   3   4
ENDBRANCH   2   3
ENDBRANCH   1   2
BRANCH   1  27
ATOM     27  C   UNL A   1      34.719  30.099  27.832  1.00  0.00     0.002 C 
BRANCH  27  28
ATOM     28  C   UNL A   1      33.681  31.204  27.679  1.00  0.00     0.021 C 
BRANCH  28  29
ATOM     29  C   UNL A   1      34.268  32.583  27.445  1.00  0.00     0.116 C 
BRANCH  29  30
ATOM     30  N   UNL A   1      33.331  33.677  27.681  1.00  0.00    -0.352 N 
ATOM     31  C   UNL A   1      33.309  34.507  28.784  1.00  0.00     0.251 C 
ATOM     32  H   UNL A   1      32.651  33.839  26.988  1.00  0.00     0.163 HD
ATOM     33  O   UNL A   1      32.453  35.371  28.927  1.00  0.00    -0.269 OA
BRANCH  31  34
ATOM     34  C   UNL A   1      34.346  34.264  29.804  1.00  0.00     0.039 A 
ATOM     35  C   UNL A   1      35.651  34.668  29.525  1.00  0.00     0.014 A 
ATOM     36  C   UNL A   1      34.064  33.404  30.867  1.00  0.00     0.014 A 
ATOM     37  C   UNL A   1      36.699  34.046  30.185  1.00  0.00     0.010 A 
ATOM     38  C   UNL A   1      35.122  32.866  31.601  1.00  0.00     0.010 A 
ATOM     39  C   UNL A   1      36.449  33.132  31.226  1.00  0.00    -0.014 A 
BRANCH  39  40
ATOM     40  C   UNL A   1      37.595  32.475  31.906  1.00  0.00     0.031 A 
ATOM     41  C   UNL A   1      38.041  32.903  33.281  1.00  0.00     0.074 A 
ATOM     42  C   UNL A   1      38.210  31.452  31.284  1.00  0.00     0.049 A 
ATOM     43  N   UNL A   1      39.057  32.468  33.982  1.00  0.00    -0.248 NA
ATOM     44  C   UNL A   1      37.260  33.951  33.958  1.00  0.00     0.031 C 
ATOM     45  C   UNL A   1      37.864  30.951  29.951  1.00  0.00     0.029 A 
ATOM     46  N   UNL A   1      39.236  30.639  31.686  1.00  0.00    -0.354 N 
ATOM     47  C   UNL A   1      39.078  33.228  35.146  1.00  0.00     0.074 A 
ATOM     48  C   UNL A   1      37.958  34.141  35.071  1.00  0.00     0.031 C 
ATOM     49  C   UNL A   1      38.619  29.883  29.672  1.00  0.00     0.029 A 
ATOM     50  C   UNL A   1      39.563  29.676  30.763  1.00  0.00     0.049 A 
ATOM     51  H   UNL A   1      39.695  30.735  32.553  1.00  0.00     0.167 HD
ATOM     52  C   UNL A   1      39.946  33.160  36.183  1.00  0.00     0.034 A 
ATOM     53  C   UNL A   1      40.536  28.745  30.769  1.00  0.00     0.034 A 
ATOM     54  C   UNL A   1      41.014  32.200  36.281  1.00  0.00     0.049 A 
ATOM     55  C   UNL A   1      41.470  28.682  31.935  1.00  0.00     0.074 A 
ATOM     56  C   UNL A   1      41.922  32.030  37.311  1.00  0.00     0.029 A 
ATOM     57  N   UNL A   1      41.309  31.242  35.323  1.00  0.00    -0.354 N 
ATOM     58  N   UNL A   1      41.454  29.392  33.037  1.00  0.00    -0.248 NA
ATOM     59  C   UNL A   1      42.558  27.698  31.865  1.00  0.00     0.031 C 
ATOM     60  C   UNL A   1      42.767  30.967  36.976  1.00  0.00     0.029 A 
ATOM     61  C   UNL A   1      42.383  30.475  35.739  1.00  0.00     0.049 A 
ATOM     62  H   UNL A   1      40.826  31.126  34.474  1.00  0.00     0.167 HD
ATOM     63  C   UNL A   1      42.530  28.947  33.790  1.00  0.00     0.074 A 
ATOM     64  C   UNL A   1      43.159  27.882  33.033  1.00  0.00     0.031 C 
ATOM     65  C   UNL A   1      42.971  29.398  34.988  1.00  0.00     0.034 A 
BRANCH  52  66
ATOM     66  C   UNL A   1      39.771  34.120  37.329  1.00  0.00     0.023 A 
ATOM     67  C   UNL A   1      40.093  35.479  37.150  1.00  0.00     0.012 A 
ATOM     68  C   UNL A   1      39.178  33.700  38.538  1.00  0.00     0.148 A 
ATOM     69  C   UNL A   1      39.832  36.408  38.158  1.00  0.00     0.002 A 
ATOM     70  C   UNL A   1      38.897  34.636  39.527  1.00  0.00     0.091 A 
ATOM     71  F   UNL A   1      38.890  32.400  38.689  1.00  0.00    -0.205 F 
ATOM     72  C   UNL A   1      39.225  35.988  39.340  1.00  0.00     0.022 A 
BRANCH  70  73
ATOM     73  S   UNL A   1      38.066  34.212  41.063  1.00  0.00     0.127 S 
ATOM     74  O   UNL A   1      37.699  35.533  41.574  1.00  0.00    -0.237 OA
ATOM     75  O   UNL A   1      36.939  33.406  40.590  1.00  0.00    -0.237 OA
ATOM     76  O   UNL A   1      39.041  33.488  41.865  1.00  0.00    -0.744 OA
ENDBRANCH  70  73
ENDBRANCH  52  66
BRANCH  53  77
ATOM     77  C   UNL A   1      40.633  27.802  29.625  1.00  0.00     0.023 A 
ATOM     78  C   UNL A   1      39.741  26.717  29.551  1.00  0.00     0.012 A 
ATOM     79  C   UNL A   1      41.516  28.049  28.555  1.00  0.00     0.148 A 
ATOM     80  C   UNL A   1      39.719  25.897  28.424  1.00  0.00     0.002 A 
ATOM     81  C   UNL A   1      41.453  27.260  27.414  1.00  0.00     0.091 A 
ATOM     82  F   UNL A   1      42.360  29.084  28.658  1.00  0.00    -0.205 F 
ATOM     83  C   UNL A   1      40.562  26.177  27.350  1.00  0.00     0.022 A 
BRANCH  81  84
ATOM     84  S   UNL A   1      42.391  27.636  25.930  1.00  0.00     0.127 S 
ATOM     85  O   UNL A   1      43.764  27.461  26.393  1.00  0.00    -0.237 OA
ATOM     86  O   UNL A   1      41.915  26.608  25.005  1.00  0.00    -0.237 OA
ATOM     87  O   UNL A   1      42.019  28.997  25.561  1.00  0.00    -0.744 OA
ENDBRANCH  81  84
ENDBRANCH  53  77
BRANCH  65  88
ATOM     88  C   UNL A   1      44.199  28.750  35.560  1.00  0.00     0.023 A 
ATOM     89  C   UNL A   1      45.465  29.270  35.229  1.00  0.00     0.012 A 
ATOM     90  C   UNL A   1      44.095  27.701  36.492  1.00  0.00     0.148 A 
ATOM     91  C   UNL A   1      46.616  28.745  35.810  1.00  0.00     0.002 A 
ATOM     92  C   UNL A   1      45.245  27.203  37.092  1.00  0.00     0.091 A 
ATOM     93  F   UNL A   1      42.877  27.217  36.777  1.00  0.00    -0.205 F 
ATOM     94  C   UNL A   1      46.506  27.720  36.749  1.00  0.00     0.022 A 
BRANCH  92  95
ATOM     95  S   UNL A   1      45.200  25.931  38.358  1.00  0.00     0.127 S 
ATOM     96  O   UNL A   1      44.657  24.793  37.618  1.00  0.00    -0.237 OA
ATOM     97  O   UNL A   1      46.612  25.806  38.722  1.00  0.00    -0.237 OA
ATOM     98  O   UNL A   1      44.345  26.448  39.418  1.00  0.00    -0.744 OA
ENDBRANCH  92  95
ENDBRANCH  65  88
ENDBRANCH  39  40
ENDBRANCH  31  34
ENDBRANCH  29  30
ENDBRANCH  28  29
ENDBRANCH  27  28
ENDBRANCH   1  27
TORSDOF 22
ENDMDL
MODEL 3
REMARK VINA RESULT:     -10.9      1.981      7.911
REMARK SMILES CC(C)C[C@@H](NC(=O)Cn1nc(O)ccc1=O)C(=O)NCCCCCCNC(=O)c1ccc(-c2c3nc(c(-c4cccc(S(=O)(=O)[O-])c4F)c4ccc([nH]4)c(-c4cccc(S(=O)(=O)[O-])c4F)c4nc(c(-c5cccc(S(=O)(=O)[O-])c5F)c5ccc2[nH]5)C=C4)C=C3)cc1
REMARK SMILES IDX 23 1 22 2 21 3 20 4 18 5 19 6 5 8 4 9 2 10 1 11 3 12 6 13
REMARK SMILES IDX 7 14 8 16 9 17 10 18 11 19 16 20 12 21 15 22 17 23 14 24
REMARK SMILES IDX 13 25 24 27 25 28 26 29 27 30 28 31 29 33 30 34 31 35 92 36
REMARK SMILES IDX 32 37 91 38 33 39 34 40 35 41 85 42 36 43 90 44 84 45 86 46
REMARK SMILES IDX 37 47 89 48 83 49 82 50 38 52 70 53 50 54 69 55 51 56 54 57
REMARK SMILES IDX 68 58 87 59 52 60 53 61 67 63 88 64 55 65 39 66 40 67 48 68
REMARK SMILES IDX 41 69 43 70 49 71 42 72 44 73 45 74 46 75 47 76 71 77 72 78
REMARK SMILES IDX 80 79 73 80 75 81 81 82 74 83 76 84 77 85 78 86 79 87 56 88
REMARK SMILES IDX 57 89 65 90 58 91 60 92 66 93 59 94 61 95 62 96 63 97 64 98
REMARK H PARENT 20 7 6 15 13 26 27 32 86 51 54 62
REMARK Flexibility Score: inf
ROOT
ATOM      1  C   UNL A   1      33.492  28.807  24.416  1.00  0.00     0.002 C 
ENDROOT
BRANCH   1   2
ATOM      2  C   UNL A   1      32.120  28.734  23.741  1.00  0.00     0.021 C 
BRANCH   2   3
ATOM      3  C   UNL A   1      31.571  27.316  23.609  1.00  0.00     0.116 C 
BRANCH   3   4
ATOM      4  N   UNL A   1      30.710  26.971  24.732  1.00  0.00    -0.354 N 
ATOM      5  C   UNL A   1      30.718  25.859  25.528  1.00  0.00     0.242 C 
ATOM      6  O   UNL A   1      29.786  25.719  26.330  1.00  0.00    -0.273 OA
ATOM      7  H   UNL A   1      30.020  27.639  24.950  1.00  0.00     0.163 HD
BRANCH   5   8
ATOM      8  C   UNL A   1      31.689  24.700  25.241  1.00  0.00     0.171 C 
BRANCH   8   9
ATOM      9  C   UNL A   1      32.963  25.178  25.989  1.00  0.00     0.038 C 
BRANCH   9  10
ATOM     10  C   UNL A   1      34.344  25.021  25.345  1.00  0.00    -0.015 C 
ATOM     11  C   UNL A   1      35.061  23.769  25.838  1.00  0.00     0.007 C 
ATOM     12  C   UNL A   1      34.141  24.938  23.823  1.00  0.00     0.007 C 
ENDBRANCH   9  10
ENDBRANCH   8   9
BRANCH   8  13
ATOM     13  N   UNL A   1      31.214  23.385  25.679  1.00  0.00    -0.343 N 
ATOM     14  C   UNL A   1      31.581  22.125  25.304  1.00  0.00     0.242 C 
ATOM     15  H   UNL A   1      30.508  23.416  26.364  1.00  0.00     0.164 HD
ATOM     16  O   UNL A   1      31.231  21.217  26.070  1.00  0.00    -0.273 OA
BRANCH  14  17
ATOM     17  C   UNL A   1      32.489  21.810  24.106  1.00  0.00     0.248 C 
BRANCH  17  18
ATOM     18  N   UNL A   1      32.859  20.414  23.907  1.00  0.00    -0.217 N 
ATOM     19  N   UNL A   1      32.172  19.723  22.926  1.00  0.00    -0.131 NA
ATOM     20  C   UNL A   1      33.937  19.873  24.606  1.00  0.00     0.267 A 
ATOM     21  C   UNL A   1      32.496  18.489  22.777  1.00  0.00     0.229 A 
ATOM     22  C   UNL A   1      34.250  18.446  24.332  1.00  0.00     0.079 A 
ATOM     23  O   UNL A   1      34.608  20.477  25.437  1.00  0.00    -0.268 OA
ATOM     24  C   UNL A   1      33.537  17.739  23.454  1.00  0.00     0.075 A 
BRANCH  21  25
ATOM     25  O   UNL A   1      31.790  17.718  21.946  1.00  0.00    -0.492 OA
ATOM     26  H   UNL A   1      31.574  16.840  22.192  1.00  0.00     0.295 HD
ENDBRANCH  21  25
ENDBRANCH  17  18
ENDBRANCH  14  17
ENDBRANCH   8  13
ENDBRANCH   5   8
ENDBRANCH   3   4
ENDBRANCH   2   3
ENDBRANCH   1   2
BRANCH   1  27
ATOM     27  C   UNL A   1      33.442  28.967  25.937  1.00  0.00     0.002 C 
BRANCH  27  28
ATOM     28  C   UNL A   1      32.577  30.112  26.451  1.00  0.00     0.021 C 
BRANCH  28  29
ATOM     29  C   UNL A   1      33.331  31.144  27.270  1.00  0.00     0.116 C 
BRANCH  29  30
ATOM     30  N   UNL A   1      32.728  32.473  27.253  1.00  0.00    -0.352 N 
ATOM     31  C   UNL A   1      33.138  33.562  27.995  1.00  0.00     0.251 C 
ATOM     32  H   UNL A   1      31.958  32.605  26.655  1.00  0.00     0.163 HD
ATOM     33  O   UNL A   1      32.542  34.631  27.959  1.00  0.00    -0.269 OA
BRANCH  31  34
ATOM     34  C   UNL A   1      34.305  33.353  28.873  1.00  0.00     0.039 A 
ATOM     35  C   UNL A   1      35.578  33.467  28.312  1.00  0.00     0.014 A 
ATOM     36  C   UNL A   1      34.115  32.780  30.131  1.00  0.00     0.014 A 
ATOM     37  C   UNL A   1      36.637  32.819  28.926  1.00  0.00     0.010 A 
ATOM     38  C   UNL A   1      35.210  32.226  30.795  1.00  0.00     0.010 A 
ATOM     39  C   UNL A   1      36.467  32.184  30.171  1.00  0.00    -0.014 A 
BRANCH  39  40
ATOM     40  C   UNL A   1      37.622  31.490  30.796  1.00  0.00     0.031 A 
ATOM     41  C   UNL A   1      38.003  31.739  32.233  1.00  0.00     0.074 A 
ATOM     42  C   UNL A   1      38.306  30.593  30.061  1.00  0.00     0.049 A 
ATOM     43  N   UNL A   1      39.017  31.255  32.905  1.00  0.00    -0.248 NA
ATOM     44  C   UNL A   1      37.149  32.645  33.020  1.00  0.00     0.031 C 
ATOM     45  C   UNL A   1      38.028  30.271  28.659  1.00  0.00     0.029 A 
ATOM     46  N   UNL A   1      39.359  29.778  30.385  1.00  0.00    -0.354 N 
ATOM     47  C   UNL A   1      38.963  31.843  34.163  1.00  0.00     0.074 A 
ATOM     48  C   UNL A   1      37.802  32.707  34.174  1.00  0.00     0.031 C 
ATOM     49  C   UNL A   1      38.844  29.288  28.263  1.00  0.00     0.029 A 
ATOM     50  C   UNL A   1      39.762  28.971  29.349  1.00  0.00     0.049 A 
ATOM     51  H   UNL A   1      39.784  29.772  31.273  1.00  0.00     0.167 HD
ATOM     52  C   UNL A   1      39.800  31.669  35.213  1.00  0.00     0.034 A 
ATOM     53  C   UNL A   1      40.779  28.093  29.263  1.00  0.00     0.034 A 
ATOM     54  C   UNL A   1      40.911  30.753  35.217  1.00  0.00     0.049 A 
ATOM     55  C   UNL A   1      41.678  27.908  30.444  1.00  0.00     0.074 A 
ATOM     56  C   UNL A   1      41.793  30.480  36.247  1.00  0.00     0.029 A 
ATOM     57  N   UNL A   1      41.283  29.955  34.147  1.00  0.00    -0.354 N 
ATOM     58  N   UNL A   1      41.592  28.454  31.633  1.00  0.00    -0.248 NA
ATOM     59  C   UNL A   1      42.815  26.993  30.278  1.00  0.00     0.031 C 
ATOM     60  C   UNL A   1      42.700  29.515  35.800  1.00  0.00     0.029 A 
ATOM     61  C   UNL A   1      42.380  29.186  34.492  1.00  0.00     0.049 A 
ATOM     62  H   UNL A   1      40.833  29.938  33.272  1.00  0.00     0.167 HD
ATOM     63  C   UNL A   1      42.664  27.956  32.356  1.00  0.00     0.074 A 
ATOM     64  C   UNL A   1      43.369  27.038  31.483  1.00  0.00     0.031 C 
ATOM     65  C   UNL A   1      43.045  28.252  33.621  1.00  0.00     0.034 A 
BRANCH  52  66
ATOM     66  C   UNL A   1      39.541  32.448  36.475  1.00  0.00     0.023 A 
ATOM     67  C   UNL A   1      40.191  33.681  36.672  1.00  0.00     0.012 A 
ATOM     68  C   UNL A   1      38.570  32.019  37.402  1.00  0.00     0.148 A 
ATOM     69  C   UNL A   1      39.882  34.476  37.777  1.00  0.00     0.002 A 
ATOM     70  C   UNL A   1      38.248  32.828  38.485  1.00  0.00     0.091 A 
ATOM     71  F   UNL A   1      37.972  30.836  37.197  1.00  0.00    -0.205 F 
ATOM     72  C   UNL A   1      38.905  34.055  38.676  1.00  0.00     0.022 A 
BRANCH  70  73
ATOM     73  S   UNL A   1      36.964  32.408  39.671  1.00  0.00     0.127 S 
ATOM     74  O   UNL A   1      37.420  31.102  40.148  1.00  0.00    -0.237 OA
ATOM     75  O   UNL A   1      37.083  33.490  40.649  1.00  0.00    -0.237 OA
ATOM     76  O   UNL A   1      35.714  32.391  38.926  1.00  0.00    -0.744 OA
ENDBRANCH  70  73
ENDBRANCH  52  66
BRANCH  53  77
ATOM     77  C   UNL A   1      40.960  27.327  28.003  1.00  0.00     0.023 A 
ATOM     78  C   UNL A   1      41.606  27.939  26.914  1.00  0.00     0.012 A 
ATOM     79  C   UNL A   1      40.611  25.964  27.926  1.00  0.00     0.148 A 
ATOM     80  C   UNL A   1      41.910  27.203  25.769  1.00  0.00     0.002 A 
ATOM     81  C   UNL A   1      40.963  25.225  26.805  1.00  0.00     0.091 A 
ATOM     82  F   UNL A   1      39.988  25.411  28.975  1.00  0.00    -0.205 F 
ATOM     83  C   UNL A   1      41.605  25.844  25.720  1.00  0.00     0.022 A 
BRANCH  81  84
ATOM     84  S   UNL A   1      40.743  23.444  26.717  1.00  0.00     0.127 S 
ATOM     85  O   UNL A   1      39.330  23.336  26.368  1.00  0.00    -0.237 OA
ATOM     86  O   UNL A   1      41.674  23.080  25.649  1.00  0.00    -0.237 OA
ATOM     87  O   UNL A   1      41.109  22.935  28.033  1.00  0.00    -0.744 OA
ENDBRANCH  81  84
ENDBRANCH  53  77
BRANCH  65  88
ATOM     88  C   UNL A   1      44.284  27.586  34.144  1.00  0.00     0.023 A 
ATOM     89  C   UNL A   1      45.515  28.265  34.058  1.00  0.00     0.012 A 
ATOM     90  C   UNL A   1      44.215  26.343  34.801  1.00  0.00     0.148 A 
ATOM     91  C   UNL A   1      46.666  27.710  34.610  1.00  0.00     0.002 A 
ATOM     92  C   UNL A   1      45.361  25.810  35.377  1.00  0.00     0.091 A 
ATOM     93  F   UNL A   1      43.033  25.714  34.855  1.00  0.00    -0.205 F 
ATOM     94  C   UNL A   1      46.588  26.489  35.279  1.00  0.00     0.022 A 
BRANCH  92  95
ATOM     95  S   UNL A   1      45.348  24.278  36.313  1.00  0.00     0.127 S 
ATOM     96  O   UNL A   1      44.919  24.739  37.632  1.00  0.00    -0.237 OA
ATOM     97  O   UNL A   1      44.355  23.482  35.590  1.00  0.00    -0.237 OA
ATOM     98  O   UNL A   1      46.706  23.756  36.249  1.00  0.00    -0.744 OA
ENDBRANCH  92  95
ENDBRANCH  65  88
ENDBRANCH  39  40
ENDBRANCH  31  34
ENDBRANCH  29  30
ENDBRANCH  28  29
ENDBRANCH  27  28
ENDBRANCH   1  27
TORSDOF 22
ENDMDL
