MODEL 1
REMARK VINA RESULT:     -10.6      0.000      0.000
REMARK SMILES C[C@@H](c1ccco1)n1c(SCC(=O)NCCCCCCNC(=O)c2ccc(-c3c4nc(c(-c5cccc(S(=O)(=O)[O-])c5F)c5ccc([nH]5)c(-c5cccc(S(=O)(=O)[O-])c5F)c5nc(c(-c6cccc(S(=O)(=O)[O-])c6F)c6ccc3[nH]6)C=C5)C=C4)cc2)nc2cnccc21
REMARK SMILES IDX 17 1 16 2 15 3 14 4 12 5 13 6 11 8 10 9 9 10 8 11 93 12
REMARK SMILES IDX 87 13 88 14 92 15 89 16 91 17 90 18 2 19 1 20 3 21 4 22 7 23
REMARK SMILES IDX 5 24 6 25 18 26 19 27 20 28 21 29 22 30 23 32 24 33 25 34
REMARK SMILES IDX 86 35 26 36 85 37 27 38 28 39 29 40 79 41 30 42 84 43 78 44
REMARK SMILES IDX 80 45 31 46 83 47 77 48 76 49 32 51 64 52 44 53 63 54 45 55
REMARK SMILES IDX 48 56 62 57 81 58 46 59 47 60 61 62 82 63 49 64 33 65 34 66
REMARK SMILES IDX 42 67 35 68 37 69 43 70 36 71 38 72 39 73 40 74 41 75 65 76
REMARK SMILES IDX 66 77 74 78 67 79 69 80 75 81 68 82 70 83 71 84 72 85 73 86
REMARK SMILES IDX 50 87 51 88 59 89 52 90 54 91 60 92 53 93 55 94 56 95 57 96
REMARK SMILES IDX 58 97
REMARK H PARENT 14 7 21 31 80 50 48 61
REMARK Flexibility Score: inf
ROOT
ATOM      1  C   UNL A   1      37.405  23.071  25.249  1.00  0.00     0.002 C 
ENDROOT
BRANCH   1   2
ATOM      2  C   UNL A   1      36.792  22.836  23.865  1.00  0.00     0.021 C 
BRANCH   2   3
ATOM      3  C   UNL A   1      35.346  23.309  23.704  1.00  0.00     0.116 C 
BRANCH   3   4
ATOM      4  N   UNL A   1      34.650  23.444  24.971  1.00  0.00    -0.355 N 
ATOM      5  C   UNL A   1      33.314  23.407  25.237  1.00  0.00     0.230 C 
ATOM      6  O   UNL A   1      32.952  23.385  26.415  1.00  0.00    -0.274 OA
ATOM      7  H   UNL A   1      35.230  23.583  25.754  1.00  0.00     0.163 HD
BRANCH   5   8
ATOM      8  C   UNL A   1      32.295  23.307  24.129  1.00  0.00     0.178 C 
BRANCH   8   9
ATOM      9  S   UNL A   1      30.707  24.021  24.461  1.00  0.00    -0.078 SA
BRANCH   9  10
ATOM     10  C   UNL A   1      30.436  25.711  24.236  1.00  0.00     0.170 A 
ATOM     11  N   UNL A   1      31.224  26.850  24.222  1.00  0.00    -0.308 N 
ATOM     12  C   UNL A   1      30.404  27.905  23.798  1.00  0.00     0.073 A 
ATOM     13  N   UNL A   1      29.194  26.010  23.897  1.00  0.00    -0.221 NA
ATOM     14  C   UNL A   1      29.159  27.334  23.589  1.00  0.00     0.108 A 
ATOM     15  C   UNL A   1      30.625  29.265  23.542  1.00  0.00     0.049 A 
ATOM     16  C   UNL A   1      28.109  28.122  23.109  1.00  0.00     0.141 A 
ATOM     17  C   UNL A   1      29.525  29.969  23.073  1.00  0.00     0.113 A 
ATOM     18  N   UNL A   1      28.300  29.443  22.857  1.00  0.00    -0.262 NA
BRANCH  11  19
ATOM     19  C   UNL A   1      32.651  27.074  24.431  1.00  0.00     0.153 C 
ATOM     20  C   UNL A   1      33.480  27.300  23.178  1.00  0.00     0.040 C 
BRANCH  19  21
ATOM     21  C   UNL A   1      32.904  27.959  25.609  1.00  0.00     0.126 A 
ATOM     22  C   UNL A   1      32.269  28.172  26.818  1.00  0.00     0.048 A 
ATOM     23  O   UNL A   1      34.087  28.648  25.593  1.00  0.00    -0.467 OA
ATOM     24  C   UNL A   1      33.075  29.075  27.550  1.00  0.00     0.042 A 
ATOM     25  C   UNL A   1      34.173  29.327  26.765  1.00  0.00     0.195 A 
ENDBRANCH  19  21
ENDBRANCH  11  19
ENDBRANCH   9  10
ENDBRANCH   8   9
ENDBRANCH   5   8
ENDBRANCH   3   4
ENDBRANCH   2   3
ENDBRANCH   1   2
BRANCH   1  26
ATOM     26  C   UNL A   1      38.263  21.931  25.794  1.00  0.00     0.002 C 
BRANCH  26  27
ATOM     27  C   UNL A   1      38.222  20.643  24.973  1.00  0.00     0.021 C 
BRANCH  27  28
ATOM     28  C   UNL A   1      38.618  19.383  25.748  1.00  0.00     0.116 C 
BRANCH  28  29
ATOM     29  N   UNL A   1      39.952  18.906  25.451  1.00  0.00    -0.352 N 
ATOM     30  C   UNL A   1      41.207  19.269  25.860  1.00  0.00     0.251 C 
ATOM     31  H   UNL A   1      39.957  18.155  24.814  1.00  0.00     0.163 HD
ATOM     32  O   UNL A   1      42.126  18.532  25.497  1.00  0.00    -0.269 OA
BRANCH  30  33
ATOM     33  C   UNL A   1      41.525  20.503  26.630  1.00  0.00     0.039 A 
ATOM     34  C   UNL A   1      41.249  20.701  27.982  1.00  0.00     0.014 A 
ATOM     35  C   UNL A   1      42.090  21.565  25.900  1.00  0.00     0.014 A 
ATOM     36  C   UNL A   1      41.404  21.953  28.556  1.00  0.00     0.010 A 
ATOM     37  C   UNL A   1      42.289  22.814  26.481  1.00  0.00     0.010 A 
ATOM     38  C   UNL A   1      41.893  23.018  27.797  1.00  0.00    -0.014 A 
BRANCH  38  39
ATOM     39  C   UNL A   1      42.064  24.291  28.487  1.00  0.00     0.031 A 
ATOM     40  C   UNL A   1      40.963  25.264  28.250  1.00  0.00     0.074 A 
ATOM     41  C   UNL A   1      43.097  24.574  29.306  1.00  0.00     0.049 A 
ATOM     42  N   UNL A   1      41.015  26.368  27.576  1.00  0.00    -0.248 NA
ATOM     43  C   UNL A   1      39.611  24.887  28.687  1.00  0.00     0.031 C 
ATOM     44  C   UNL A   1      44.093  23.642  29.840  1.00  0.00     0.029 A 
ATOM     45  N   UNL A   1      43.404  25.748  29.930  1.00  0.00    -0.354 N 
ATOM     46  C   UNL A   1      39.751  26.938  27.707  1.00  0.00     0.074 A 
ATOM     47  C   UNL A   1      38.889  25.919  28.249  1.00  0.00     0.031 C 
ATOM     48  C   UNL A   1      44.723  24.219  30.887  1.00  0.00     0.029 A 
ATOM     49  C   UNL A   1      44.292  25.601  30.991  1.00  0.00     0.049 A 
ATOM     50  H   UNL A   1      43.033  26.618  29.656  1.00  0.00     0.167 HD
ATOM     51  C   UNL A   1      39.561  28.281  27.613  1.00  0.00     0.034 A 
ATOM     52  C   UNL A   1      44.592  26.543  31.917  1.00  0.00     0.034 A 
ATOM     53  C   UNL A   1      40.708  28.958  27.085  1.00  0.00     0.049 A 
ATOM     54  C   UNL A   1      44.314  27.861  31.305  1.00  0.00     0.074 A 
ATOM     55  C   UNL A   1      41.287  29.159  25.852  1.00  0.00     0.029 A 
ATOM     56  N   UNL A   1      41.633  29.284  28.038  1.00  0.00    -0.354 N 
ATOM     57  N   UNL A   1      44.984  28.347  30.299  1.00  0.00    -0.248 NA
ATOM     58  C   UNL A   1      43.093  28.578  31.656  1.00  0.00     0.031 C 
ATOM     59  C   UNL A   1      42.665  29.427  26.106  1.00  0.00     0.029 A 
ATOM     60  C   UNL A   1      42.877  29.398  27.483  1.00  0.00     0.049 A 
ATOM     61  H   UNL A   1      41.432  29.417  28.992  1.00  0.00     0.167 HD
ATOM     62  C   UNL A   1      44.065  29.140  29.641  1.00  0.00     0.074 A 
ATOM     63  C   UNL A   1      43.011  29.401  30.607  1.00  0.00     0.031 C 
ATOM     64  C   UNL A   1      44.068  29.230  28.284  1.00  0.00     0.034 A 
BRANCH  51  65
ATOM     65  C   UNL A   1      38.537  29.042  28.418  1.00  0.00     0.023 A 
ATOM     66  C   UNL A   1      37.724  29.985  27.754  1.00  0.00     0.012 A 
ATOM     67  C   UNL A   1      38.547  29.078  29.831  1.00  0.00     0.148 A 
ATOM     68  C   UNL A   1      36.949  30.909  28.467  1.00  0.00     0.002 A 
ATOM     69  C   UNL A   1      37.717  29.942  30.533  1.00  0.00     0.091 A 
ATOM     70  F   UNL A   1      39.466  28.372  30.501  1.00  0.00    -0.205 F 
ATOM     71  C   UNL A   1      36.930  30.876  29.857  1.00  0.00     0.022 A 
BRANCH  69  72
ATOM     72  S   UNL A   1      37.635  29.906  32.327  1.00  0.00     0.127 S 
ATOM     73  O   UNL A   1      37.314  28.502  32.577  1.00  0.00    -0.237 OA
ATOM     74  O   UNL A   1      38.995  30.306  32.694  1.00  0.00    -0.237 OA
ATOM     75  O   UNL A   1      36.611  30.876  32.684  1.00  0.00    -0.744 OA
ENDBRANCH  69  72
ENDBRANCH  51  65
BRANCH  52  76
ATOM     76  C   UNL A   1      44.902  26.432  33.363  1.00  0.00     0.023 A 
ATOM     77  C   UNL A   1      46.161  26.889  33.816  1.00  0.00     0.012 A 
ATOM     78  C   UNL A   1      43.890  26.222  34.323  1.00  0.00     0.148 A 
ATOM     79  C   UNL A   1      46.370  27.230  35.155  1.00  0.00     0.002 A 
ATOM     80  C   UNL A   1      44.109  26.550  35.659  1.00  0.00     0.091 A 
ATOM     81  F   UNL A   1      42.684  25.803  33.918  1.00  0.00    -0.205 F 
ATOM     82  C   UNL A   1      45.338  27.080  36.073  1.00  0.00     0.022 A 
BRANCH  80  83
ATOM     83  S   UNL A   1      42.819  26.386  36.899  1.00  0.00     0.127 S 
ATOM     84  O   UNL A   1      42.721  24.935  37.057  1.00  0.00    -0.237 OA
ATOM     85  O   UNL A   1      43.397  27.090  38.035  1.00  0.00    -0.237 OA
ATOM     86  O   UNL A   1      41.631  26.997  36.302  1.00  0.00    -0.744 OA
ENDBRANCH  80  83
ENDBRANCH  52  76
BRANCH  64  87
ATOM     87  C   UNL A   1      45.348  28.928  27.571  1.00  0.00     0.023 A 
ATOM     88  C   UNL A   1      46.420  29.838  27.506  1.00  0.00     0.012 A 
ATOM     89  C   UNL A   1      45.508  27.632  27.056  1.00  0.00     0.148 A 
ATOM     90  C   UNL A   1      47.634  29.457  26.929  1.00  0.00     0.002 A 
ATOM     91  C   UNL A   1      46.726  27.244  26.523  1.00  0.00     0.091 A 
ATOM     92  F   UNL A   1      44.466  26.791  27.131  1.00  0.00    -0.205 F 
ATOM     93  C   UNL A   1      47.792  28.155  26.450  1.00  0.00     0.022 A 
BRANCH  91  94
ATOM     94  S   UNL A   1      47.028  25.558  25.990  1.00  0.00     0.127 S 
ATOM     95  O   UNL A   1      46.184  25.456  24.802  1.00  0.00    -0.237 OA
ATOM     96  O   UNL A   1      48.467  25.574  25.722  1.00  0.00    -0.237 OA
ATOM     97  O   UNL A   1      46.637  24.705  27.106  1.00  0.00    -0.744 OA
ENDBRANCH  91  94
ENDBRANCH  64  87
ENDBRANCH  38  39
ENDBRANCH  30  33
ENDBRANCH  28  29
ENDBRANCH  27  28
ENDBRANCH  26  27
ENDBRANCH   1  26
TORSDOF 20
ENDMDL
MODEL 2
REMARK VINA RESULT:     -10.5      2.871      7.024
REMARK SMILES C[C@@H](c1ccco1)n1c(SCC(=O)NCCCCCCNC(=O)c2ccc(-c3c4nc(c(-c5cccc(S(=O)(=O)[O-])c5F)c5ccc([nH]5)c(-c5cccc(S(=O)(=O)[O-])c5F)c5nc(c(-c6cccc(S(=O)(=O)[O-])c6F)c6ccc3[nH]6)C=C5)C=C4)cc2)nc2cnccc21
REMARK SMILES IDX 17 1 16 2 15 3 14 4 12 5 13 6 11 8 10 9 9 10 8 11 93 12
REMARK SMILES IDX 87 13 88 14 92 15 89 16 91 17 90 18 2 19 1 20 3 21 4 22 7 23
REMARK SMILES IDX 5 24 6 25 18 26 19 27 20 28 21 29 22 30 23 32 24 33 25 34
REMARK SMILES IDX 86 35 26 36 85 37 27 38 28 39 29 40 79 41 30 42 84 43 78 44
REMARK SMILES IDX 80 45 31 46 83 47 77 48 76 49 32 51 64 52 44 53 63 54 45 55
REMARK SMILES IDX 48 56 62 57 81 58 46 59 47 60 61 62 82 63 49 64 33 65 34 66
REMARK SMILES IDX 42 67 35 68 37 69 43 70 36 71 38 72 39 73 40 74 41 75 65 76
REMARK SMILES IDX 66 77 74 78 67 79 69 80 75 81 68 82 70 83 71 84 72 85 73 86
REMARK SMILES IDX 50 87 51 88 59 89 52 90 54 91 60 92 53 93 55 94 56 95 57 96
REMARK SMILES IDX 58 97
REMARK H PARENT 14 7 21 31 80 50 48 61
REMARK Flexibility Score: inf
ROOT
ATOM      1  C   UNL A   1      35.259  24.099  23.879  1.00  0.00     0.002 C 
ENDROOT
BRANCH   1   2
ATOM      2  C   UNL A   1      34.677  24.154  25.295  1.00  0.00     0.021 C 
BRANCH   2   3
ATOM      3  C   UNL A   1      34.163  25.526  25.735  1.00  0.00     0.116 C 
BRANCH   3   4
ATOM      4  N   UNL A   1      32.745  25.524  26.048  1.00  0.00    -0.355 N 
ATOM      5  C   UNL A   1      31.975  26.505  26.598  1.00  0.00     0.230 C 
ATOM      6  O   UNL A   1      30.753  26.343  26.628  1.00  0.00    -0.274 OA
ATOM      7  H   UNL A   1      32.270  24.690  25.829  1.00  0.00     0.163 HD
BRANCH   5   8
ATOM      8  C   UNL A   1      32.580  27.800  27.082  1.00  0.00     0.178 C 
BRANCH   8   9
ATOM      9  S   UNL A   1      32.953  29.001  25.833  1.00  0.00    -0.078 SA
BRANCH   9  10
ATOM     10  C   UNL A   1      31.815  29.361  24.586  1.00  0.00     0.170 A 
ATOM     11  N   UNL A   1      31.504  28.834  23.344  1.00  0.00    -0.308 N 
ATOM     12  C   UNL A   1      30.338  29.479  22.909  1.00  0.00     0.073 A 
ATOM     13  N   UNL A   1      30.950  30.304  24.912  1.00  0.00    -0.221 NA
ATOM     14  C   UNL A   1      30.019  30.369  23.923  1.00  0.00     0.108 A 
ATOM     15  C   UNL A   1      29.521  29.353  21.778  1.00  0.00     0.049 A 
ATOM     16  C   UNL A   1      28.863  31.148  23.820  1.00  0.00     0.141 A 
ATOM     17  C   UNL A   1      28.398  30.169  21.760  1.00  0.00     0.113 A 
ATOM     18  N   UNL A   1      28.058  31.044  22.731  1.00  0.00    -0.262 NA
BRANCH  11  19
ATOM     19  C   UNL A   1      32.067  27.739  22.558  1.00  0.00     0.153 C 
ATOM     20  C   UNL A   1      33.563  27.806  22.299  1.00  0.00     0.040 C 
BRANCH  19  21
ATOM     21  C   UNL A   1      31.481  26.421  22.948  1.00  0.00     0.126 A 
ATOM     22  C   UNL A   1      30.224  25.993  23.335  1.00  0.00     0.048 A 
ATOM     23  O   UNL A   1      32.298  25.335  22.787  1.00  0.00    -0.467 OA
ATOM     24  C   UNL A   1      30.295  24.587  23.467  1.00  0.00     0.042 A 
ATOM     25  C   UNL A   1      31.575  24.234  23.116  1.00  0.00     0.195 A 
ENDBRANCH  19  21
ENDBRANCH  11  19
ENDBRANCH   9  10
ENDBRANCH   8   9
ENDBRANCH   5   8
ENDBRANCH   3   4
ENDBRANCH   2   3
ENDBRANCH   1   2
BRANCH   1  26
ATOM     26  C   UNL A   1      36.477  23.194  23.699  1.00  0.00     0.002 C 
BRANCH  26  27
ATOM     27  C   UNL A   1      36.412  21.868  24.457  1.00  0.00     0.021 C 
BRANCH  27  28
ATOM     28  C   UNL A   1      37.144  21.869  25.802  1.00  0.00     0.116 C 
BRANCH  28  29
ATOM     29  N   UNL A   1      38.505  21.382  25.730  1.00  0.00    -0.352 N 
ATOM     30  C   UNL A   1      39.701  21.821  26.229  1.00  0.00     0.251 C 
ATOM     31  H   UNL A   1      38.588  20.553  25.205  1.00  0.00     0.163 HD
ATOM     32  O   UNL A   1      40.660  21.061  26.080  1.00  0.00    -0.269 OA
BRANCH  30  33
ATOM     33  C   UNL A   1      39.922  23.153  26.857  1.00  0.00     0.039 A 
ATOM     34  C   UNL A   1      39.254  24.326  26.512  1.00  0.00     0.014 A 
ATOM     35  C   UNL A   1      40.938  23.223  27.830  1.00  0.00     0.014 A 
ATOM     36  C   UNL A   1      39.670  25.549  27.016  1.00  0.00     0.010 A 
ATOM     37  C   UNL A   1      41.332  24.442  28.373  1.00  0.00     0.010 A 
ATOM     38  C   UNL A   1      40.731  25.610  27.921  1.00  0.00    -0.014 A 
BRANCH  38  39
ATOM     39  C   UNL A   1      41.080  26.930  28.435  1.00  0.00     0.031 A 
ATOM     40  C   UNL A   1      42.406  27.429  27.978  1.00  0.00     0.074 A 
ATOM     41  C   UNL A   1      40.275  27.671  29.222  1.00  0.00     0.049 A 
ATOM     42  N   UNL A   1      43.477  27.590  28.686  1.00  0.00    -0.248 NA
ATOM     43  C   UNL A   1      42.601  27.629  26.534  1.00  0.00     0.031 C 
ATOM     44  C   UNL A   1      38.861  27.436  29.526  1.00  0.00     0.029 A 
ATOM     45  N   UNL A   1      40.528  28.869  29.827  1.00  0.00    -0.354 N 
ATOM     46  C   UNL A   1      44.415  28.135  27.814  1.00  0.00     0.074 A 
ATOM     47  C   UNL A   1      43.885  27.982  26.483  1.00  0.00     0.031 C 
ATOM     48  C   UNL A   1      38.323  28.567  30.033  1.00  0.00     0.029 A 
ATOM     49  C   UNL A   1      39.380  29.540  30.236  1.00  0.00     0.049 A 
ATOM     50  H   UNL A   1      41.436  29.224  29.960  1.00  0.00     0.167 HD
ATOM     51  C   UNL A   1      45.436  28.914  28.260  1.00  0.00     0.034 A 
ATOM     52  C   UNL A   1      39.316  30.828  30.652  1.00  0.00     0.034 A 
ATOM     53  C   UNL A   1      45.592  28.845  29.683  1.00  0.00     0.049 A 
ATOM     54  C   UNL A   1      40.658  31.193  31.153  1.00  0.00     0.074 A 
ATOM     55  C   UNL A   1      46.126  27.971  30.603  1.00  0.00     0.029 A 
ATOM     56  N   UNL A   1      44.794  29.726  30.360  1.00  0.00    -0.354 N 
ATOM     57  N   UNL A   1      41.202  30.667  32.213  1.00  0.00    -0.248 NA
ATOM     58  C   UNL A   1      41.546  31.999  30.322  1.00  0.00     0.031 C 
ATOM     59  C   UNL A   1      45.456  28.240  31.834  1.00  0.00     0.029 A 
ATOM     60  C   UNL A   1      44.549  29.278  31.628  1.00  0.00     0.049 A 
ATOM     61  H   UNL A   1      44.442  30.566  29.985  1.00  0.00     0.167 HD
ATOM     62  C   UNL A   1      42.556  30.714  31.948  1.00  0.00     0.074 A 
ATOM     63  C   UNL A   1      42.715  31.702  30.894  1.00  0.00     0.031 C 
ATOM     64  C   UNL A   1      43.381  29.714  32.359  1.00  0.00     0.034 A 
BRANCH  51  65
ATOM     65  C   UNL A   1      45.995  30.087  27.494  1.00  0.00     0.023 A 
ATOM     66  C   UNL A   1      47.391  30.293  27.502  1.00  0.00     0.012 A 
ATOM     67  C   UNL A   1      45.188  31.146  27.018  1.00  0.00     0.148 A 
ATOM     68  C   UNL A   1      47.953  31.492  27.045  1.00  0.00     0.002 A 
ATOM     69  C   UNL A   1      45.754  32.300  26.494  1.00  0.00     0.091 A 
ATOM     70  F   UNL A   1      43.864  31.098  27.204  1.00  0.00    -0.205 F 
ATOM     71  C   UNL A   1      47.137  32.489  26.523  1.00  0.00     0.022 A 
BRANCH  69  72
ATOM     72  S   UNL A   1      44.737  33.595  25.776  1.00  0.00     0.127 S 
ATOM     73  O   UNL A   1      44.007  34.076  26.946  1.00  0.00    -0.237 OA
ATOM     74  O   UNL A   1      45.751  34.515  25.256  1.00  0.00    -0.237 OA
ATOM     75  O   UNL A   1      43.947  32.936  24.747  1.00  0.00    -0.744 OA
ENDBRANCH  69  72
ENDBRANCH  51  65
BRANCH  52  76
ATOM     76  C   UNL A   1      38.267  31.863  30.477  1.00  0.00     0.023 A 
ATOM     77  C   UNL A   1      37.689  32.022  29.196  1.00  0.00     0.012 A 
ATOM     78  C   UNL A   1      37.598  32.432  31.581  1.00  0.00     0.148 A 
ATOM     79  C   UNL A   1      36.439  32.626  29.035  1.00  0.00     0.002 A 
ATOM     80  C   UNL A   1      36.359  33.045  31.411  1.00  0.00     0.091 A 
ATOM     81  F   UNL A   1      38.118  32.283  32.806  1.00  0.00    -0.205 F 
ATOM     82  C   UNL A   1      35.764  33.119  30.145  1.00  0.00     0.022 A 
BRANCH  80  83
ATOM     83  S   UNL A   1      35.428  33.701  32.802  1.00  0.00     0.127 S 
ATOM     84  O   UNL A   1      36.090  34.984  33.043  1.00  0.00    -0.237 OA
ATOM     85  O   UNL A   1      34.084  33.798  32.250  1.00  0.00    -0.237 OA
ATOM     86  O   UNL A   1      35.611  32.730  33.880  1.00  0.00    -0.744 OA
ENDBRANCH  80  83
ENDBRANCH  52  76
BRANCH  64  87
ATOM     87  C   UNL A   1      42.938  28.881  33.521  1.00  0.00     0.023 A 
ATOM     88  C   UNL A   1      41.940  27.893  33.416  1.00  0.00     0.012 A 
ATOM     89  C   UNL A   1      43.645  29.026  34.724  1.00  0.00     0.148 A 
ATOM     90  C   UNL A   1      41.651  27.066  34.504  1.00  0.00     0.002 A 
ATOM     91  C   UNL A   1      43.385  28.178  35.787  1.00  0.00     0.091 A 
ATOM     92  F   UNL A   1      44.587  29.980  34.791  1.00  0.00    -0.205 F 
ATOM     93  C   UNL A   1      42.383  27.198  35.685  1.00  0.00     0.022 A 
BRANCH  91  94
ATOM     94  S   UNL A   1      44.361  28.224  37.291  1.00  0.00     0.127 S 
ATOM     95  O   UNL A   1      43.776  27.134  38.070  1.00  0.00    -0.237 OA
ATOM     96  O   UNL A   1      45.711  27.963  36.788  1.00  0.00    -0.237 OA
ATOM     97  O   UNL A   1      44.179  29.557  37.852  1.00  0.00    -0.744 OA
ENDBRANCH  91  94
ENDBRANCH  64  87
ENDBRANCH  38  39
ENDBRANCH  30  33
ENDBRANCH  28  29
ENDBRANCH  27  28
ENDBRANCH  26  27
ENDBRANCH   1  26
TORSDOF 20
ENDMDL
MODEL 3
REMARK VINA RESULT:     -10.5      3.398      7.215
REMARK SMILES C[C@@H](c1ccco1)n1c(SCC(=O)NCCCCCCNC(=O)c2ccc(-c3c4nc(c(-c5cccc(S(=O)(=O)[O-])c5F)c5ccc([nH]5)c(-c5cccc(S(=O)(=O)[O-])c5F)c5nc(c(-c6cccc(S(=O)(=O)[O-])c6F)c6ccc3[nH]6)C=C5)C=C4)cc2)nc2cnccc21
REMARK SMILES IDX 17 1 16 2 15 3 14 4 12 5 13 6 11 8 10 9 9 10 8 11 93 12
REMARK SMILES IDX 87 13 88 14 92 15 89 16 91 17 90 18 2 19 1 20 3 21 4 22 7 23
REMARK SMILES IDX 5 24 6 25 18 26 19 27 20 28 21 29 22 30 23 32 24 33 25 34
REMARK SMILES IDX 86 35 26 36 85 37 27 38 28 39 29 40 79 41 30 42 84 43 78 44
REMARK SMILES IDX 80 45 31 46 83 47 77 48 76 49 32 51 64 52 44 53 63 54 45 55
REMARK SMILES IDX 48 56 62 57 81 58 46 59 47 60 61 62 82 63 49 64 33 65 34 66
REMARK SMILES IDX 42 67 35 68 37 69 43 70 36 71 38 72 39 73 40 74 41 75 65 76
REMARK SMILES IDX 66 77 74 78 67 79 69 80 75 81 68 82 70 83 71 84 72 85 73 86
REMARK SMILES IDX 50 87 51 88 59 89 52 90 54 91 60 92 53 93 55 94 56 95 57 96
REMARK SMILES IDX 58 97
REMARK H PARENT 14 7 21 31 80 50 48 61
REMARK Flexibility Score: inf
ROOT
ATOM      1  C   UNL A   1      36.361  23.653  26.081  1.00  0.00     0.002 C 
ENDROOT
BRANCH   1   2
ATOM      2  C   UNL A   1      34.831  23.626  26.034  1.00  0.00     0.021 C 
BRANCH   2   3
ATOM      3  C   UNL A   1      34.200  24.374  24.857  1.00  0.00     0.116 C 
BRANCH   3   4
ATOM      4  N   UNL A   1      33.585  23.485  23.888  1.00  0.00    -0.355 N 
ATOM      5  C   UNL A   1      32.344  22.919  23.891  1.00  0.00     0.230 C 
ATOM      6  O   UNL A   1      31.972  22.320  22.881  1.00  0.00    -0.274 OA
ATOM      7  H   UNL A   1      34.148  23.258  23.113  1.00  0.00     0.163 HD
BRANCH   5   8
ATOM      8  C   UNL A   1      31.408  23.090  25.061  1.00  0.00     0.178 C 
BRANCH   8   9
ATOM      9  S   UNL A   1      30.364  24.522  25.023  1.00  0.00    -0.078 SA
BRANCH   9  10
ATOM     10  C   UNL A   1      31.027  26.103  25.224  1.00  0.00     0.170 A 
ATOM     11  N   UNL A   1      31.234  27.204  24.410  1.00  0.00    -0.308 N 
ATOM     12  C   UNL A   1      31.652  28.252  25.243  1.00  0.00     0.073 A 
ATOM     13  N   UNL A   1      31.332  26.396  26.476  1.00  0.00    -0.221 NA
ATOM     14  C   UNL A   1      31.680  27.710  26.518  1.00  0.00     0.108 A 
ATOM     15  C   UNL A   1      31.964  29.600  25.025  1.00  0.00     0.049 A 
ATOM     16  C   UNL A   1      32.017  28.521  27.606  1.00  0.00     0.141 A 
ATOM     17  C   UNL A   1      32.292  30.326  26.162  1.00  0.00     0.113 A 
ATOM     18  N   UNL A   1      32.326  29.830  27.418  1.00  0.00    -0.262 NA
BRANCH  11  19
ATOM     19  C   UNL A   1      30.988  27.453  22.993  1.00  0.00     0.153 C 
ATOM     20  C   UNL A   1      31.382  26.335  22.042  1.00  0.00     0.040 C 
BRANCH  19  21
ATOM     21  C   UNL A   1      29.675  28.133  22.772  1.00  0.00     0.126 A 
ATOM     22  C   UNL A   1      28.412  28.009  23.321  1.00  0.00     0.048 A 
ATOM     23  O   UNL A   1      29.698  29.214  21.933  1.00  0.00    -0.467 OA
ATOM     24  C   UNL A   1      27.616  29.028  22.748  1.00  0.00     0.042 A 
ATOM     25  C   UNL A   1      28.446  29.738  21.917  1.00  0.00     0.195 A 
ENDBRANCH  19  21
ENDBRANCH  11  19
ENDBRANCH   9  10
ENDBRANCH   8   9
ENDBRANCH   5   8
ENDBRANCH   3   4
ENDBRANCH   2   3
ENDBRANCH   1   2
BRANCH   1  26
ATOM     26  C   UNL A   1      37.071  23.143  24.828  1.00  0.00     0.002 C 
BRANCH  26  27
ATOM     27  C   UNL A   1      37.828  21.828  25.007  1.00  0.00     0.021 C 
BRANCH  27  28
ATOM     28  C   UNL A   1      38.794  21.808  26.195  1.00  0.00     0.116 C 
BRANCH  28  29
ATOM     29  N   UNL A   1      40.188  21.906  25.819  1.00  0.00    -0.352 N 
ATOM     30  C   UNL A   1      41.203  22.768  26.139  1.00  0.00     0.251 C 
ATOM     31  H   UNL A   1      40.468  21.197  25.196  1.00  0.00     0.163 HD
ATOM     32  O   UNL A   1      42.323  22.457  25.729  1.00  0.00    -0.269 OA
BRANCH  30  33
ATOM     33  C   UNL A   1      41.026  24.056  26.866  1.00  0.00     0.039 A 
ATOM     34  C   UNL A   1      40.146  25.072  26.499  1.00  0.00     0.014 A 
ATOM     35  C   UNL A   1      41.873  24.270  27.970  1.00  0.00     0.014 A 
ATOM     36  C   UNL A   1      40.198  26.309  27.124  1.00  0.00     0.010 A 
ATOM     37  C   UNL A   1      41.901  25.494  28.630  1.00  0.00     0.010 A 
ATOM     38  C   UNL A   1      41.099  26.530  28.167  1.00  0.00    -0.014 A 
BRANCH  38  39
ATOM     39  C   UNL A   1      41.062  27.845  28.797  1.00  0.00     0.031 A 
ATOM     40  C   UNL A   1      42.051  28.811  28.245  1.00  0.00     0.074 A 
ATOM     41  C   UNL A   1      40.194  28.194  29.767  1.00  0.00     0.049 A 
ATOM     42  N   UNL A   1      43.106  29.283  28.828  1.00  0.00    -0.248 NA
ATOM     43  C   UNL A   1      41.931  29.176  26.825  1.00  0.00     0.031 C 
ATOM     44  C   UNL A   1      39.010  27.455  30.213  1.00  0.00     0.029 A 
ATOM     45  N   UNL A   1      40.124  29.354  30.483  1.00  0.00    -0.354 N 
ATOM     46  C   UNL A   1      43.652  30.188  27.922  1.00  0.00     0.074 A 
ATOM     47  C   UNL A   1      42.997  29.961  26.660  1.00  0.00     0.031 C 
ATOM     48  C   UNL A   1      38.212  28.283  30.924  1.00  0.00     0.029 A 
ATOM     49  C   UNL A   1      38.899  29.547  31.116  1.00  0.00     0.049 A 
ATOM     50  H   UNL A   1      40.869  29.994  30.546  1.00  0.00     0.167 HD
ATOM     51  C   UNL A   1      44.410  31.240  28.333  1.00  0.00     0.034 A 
ATOM     52  C   UNL A   1      38.475  30.694  31.697  1.00  0.00     0.034 A 
ATOM     53  C   UNL A   1      44.808  31.121  29.705  1.00  0.00     0.049 A 
ATOM     54  C   UNL A   1      39.678  31.468  32.068  1.00  0.00     0.074 A 
ATOM     55  C   UNL A   1      45.745  30.423  30.431  1.00  0.00     0.029 A 
ATOM     56  N   UNL A   1      43.881  31.611  30.583  1.00  0.00    -0.354 N 
ATOM     57  N   UNL A   1      40.531  31.087  32.977  1.00  0.00    -0.248 NA
ATOM     58  C   UNL A   1      40.097  32.595  31.243  1.00  0.00     0.031 C 
ATOM     59  C   UNL A   1      45.232  30.344  31.760  1.00  0.00     0.029 A 
ATOM     60  C   UNL A   1      44.009  31.010  31.804  1.00  0.00     0.049 A 
ATOM     61  H   UNL A   1      43.212  32.300  30.366  1.00  0.00     0.167 HD
ATOM     62  C   UNL A   1      41.730  31.626  32.552  1.00  0.00     0.074 A 
ATOM     63  C   UNL A   1      41.374  32.685  31.621  1.00  0.00     0.031 C 
ATOM     64  C   UNL A   1      42.898  30.951  32.725  1.00  0.00     0.034 A 
BRANCH  51  65
ATOM     65  C   UNL A   1      44.411  32.589  27.658  1.00  0.00     0.023 A 
ATOM     66  C   UNL A   1      45.489  32.916  26.809  1.00  0.00     0.012 A 
ATOM     67  C   UNL A   1      43.556  33.643  28.053  1.00  0.00     0.148 A 
ATOM     68  C   UNL A   1      45.695  34.229  26.366  1.00  0.00     0.002 A 
ATOM     69  C   UNL A   1      43.718  34.926  27.548  1.00  0.00     0.091 A 
ATOM     70  F   UNL A   1      42.667  33.438  29.033  1.00  0.00    -0.205 F 
ATOM     71  C   UNL A   1      44.799  35.231  26.719  1.00  0.00     0.022 A 
BRANCH  69  72
ATOM     72  S   UNL A   1      42.561  36.240  27.950  1.00  0.00     0.127 S 
ATOM     73  O   UNL A   1      41.282  35.616  27.620  1.00  0.00    -0.237 OA
ATOM     74  O   UNL A   1      42.809  36.426  29.382  1.00  0.00    -0.237 OA
ATOM     75  O   UNL A   1      42.961  37.369  27.125  1.00  0.00    -0.744 OA
ENDBRANCH  69  72
ENDBRANCH  51  65
BRANCH  52  76
ATOM     76  C   UNL A   1      37.125  31.305  31.788  1.00  0.00     0.023 A 
ATOM     77  C   UNL A   1      36.643  31.678  33.063  1.00  0.00     0.012 A 
ATOM     78  C   UNL A   1      36.474  31.832  30.653  1.00  0.00     0.148 A 
ATOM     79  C   UNL A   1      35.626  32.626  33.205  1.00  0.00     0.002 A 
ATOM     80  C   UNL A   1      35.451  32.766  30.801  1.00  0.00     0.091 A 
ATOM     81  F   UNL A   1      36.921  31.504  29.433  1.00  0.00    -0.205 F 
ATOM     82  C   UNL A   1      35.044  33.186  32.074  1.00  0.00     0.022 A 
BRANCH  80  83
ATOM     83  S   UNL A   1      34.657  33.534  29.383  1.00  0.00     0.127 S 
ATOM     84  O   UNL A   1      33.545  34.256  30.003  1.00  0.00    -0.237 OA
ATOM     85  O   UNL A   1      35.721  34.377  28.857  1.00  0.00    -0.237 OA
ATOM     86  O   UNL A   1      34.236  32.423  28.529  1.00  0.00    -0.744 OA
ENDBRANCH  80  83
ENDBRANCH  52  76
BRANCH  64  87
ATOM     87  C   UNL A   1      42.954  29.929  33.817  1.00  0.00     0.023 A 
ATOM     88  C   UNL A   1      42.607  28.579  33.619  1.00  0.00     0.012 A 
ATOM     89  C   UNL A   1      43.491  30.333  35.049  1.00  0.00     0.148 A 
ATOM     90  C   UNL A   1      42.792  27.647  34.643  1.00  0.00     0.002 A 
ATOM     91  C   UNL A   1      43.712  29.399  36.048  1.00  0.00     0.091 A 
ATOM     92  F   UNL A   1      43.807  31.627  35.205  1.00  0.00    -0.205 F 
ATOM     93  C   UNL A   1      43.358  28.054  35.852  1.00  0.00     0.022 A 
BRANCH  91  94
ATOM     94  S   UNL A   1      44.533  29.835  37.581  1.00  0.00     0.127 S 
ATOM     95  O   UNL A   1      45.774  30.441  37.103  1.00  0.00    -0.237 OA
ATOM     96  O   UNL A   1      43.584  30.773  38.182  1.00  0.00    -0.237 OA
ATOM     97  O   UNL A   1      44.694  28.590  38.323  1.00  0.00    -0.744 OA
ENDBRANCH  91  94
ENDBRANCH  64  87
ENDBRANCH  38  39
ENDBRANCH  30  33
ENDBRANCH  28  29
ENDBRANCH  27  28
ENDBRANCH  26  27
ENDBRANCH   1  26
TORSDOF 20
ENDMDL
