MODEL 1
REMARK VINA RESULT:     -11.2      0.000      0.000
REMARK SMILES C=CCS(=O)(=O)N1CCc2ccccc2[C@@H]1C(=O)NCCCCCCNC(=O)c1ccc(-c2c3nc(c(-c4cccc(S(=O)(=O)[O-])c4F)c4ccc([nH]4)c(-c4cccc(S(=O)(=O)[O-])c4F)c4nc(c(-c5cccc(S(=O)(=O)[O-])c5F)c5ccc2[nH]5)C=C4)C=C3)cc1
REMARK SMILES IDX 22 1 21 2 20 3 19 4 17 5 18 6 16 8 7 9 8 10 9 11 15 12 10 13
REMARK SMILES IDX 14 14 11 15 13 16 12 17 4 18 5 19 6 20 3 21 2 22 1 23 23 24
REMARK SMILES IDX 24 25 25 26 26 27 27 28 28 30 29 31 30 32 91 33 31 34 90 35
REMARK SMILES IDX 32 36 33 37 34 38 84 39 35 40 89 41 83 42 85 43 36 44 88 45
REMARK SMILES IDX 82 46 81 47 37 49 69 50 49 51 68 52 50 53 53 54 67 55 86 56
REMARK SMILES IDX 51 57 52 58 66 60 87 61 54 62 38 63 39 64 47 65 40 66 42 67
REMARK SMILES IDX 48 68 41 69 43 70 44 71 45 72 46 73 70 74 71 75 79 76 72 77
REMARK SMILES IDX 74 78 80 79 73 80 75 81 76 82 77 83 78 84 55 85 56 86 64 87
REMARK SMILES IDX 57 88 59 89 65 90 58 91 60 92 61 93 62 94 63 95
REMARK H PARENT 19 7 26 29 85 48 53 59
REMARK Flexibility Score: inf
ROOT
ATOM      1  C   UNL A   1      33.893  30.229  27.445  1.00  0.00     0.002 C 
ENDROOT
BRANCH   1   2
ATOM      2  C   UNL A   1      34.422  28.804  27.255  1.00  0.00     0.021 C 
BRANCH   2   3
ATOM      3  C   UNL A   1      34.025  28.122  25.949  1.00  0.00     0.116 C 
BRANCH   3   4
ATOM      4  N   UNL A   1      33.092  27.031  26.146  1.00  0.00    -0.354 N 
ATOM      5  C   UNL A   1      33.019  25.818  25.527  1.00  0.00     0.243 C 
ATOM      6  O   UNL A   1      32.234  24.995  26.012  1.00  0.00    -0.273 OA
ATOM      7  H   UNL A   1      32.405  27.190  26.833  1.00  0.00     0.163 HD
BRANCH   5   8
ATOM      8  C   UNL A   1      33.908  25.483  24.301  1.00  0.00     0.192 C 
ATOM      9  N   UNL A   1      33.077  25.341  23.061  1.00  0.00    -0.184 NA
ATOM     10  C   UNL A   1      33.107  24.038  22.381  1.00  0.00     0.108 C 
ATOM     11  C   UNL A   1      32.966  22.914  23.407  1.00  0.00     0.052 C 
ATOM     12  C   UNL A   1      34.706  24.216  24.640  1.00  0.00    -0.017 A 
ATOM     13  C   UNL A   1      34.166  22.957  24.312  1.00  0.00    -0.041 A 
ATOM     14  C   UNL A   1      35.912  24.263  25.353  1.00  0.00     0.006 A 
ATOM     15  C   UNL A   1      34.746  21.784  24.803  1.00  0.00     0.004 A 
ATOM     16  C   UNL A   1      36.510  23.087  25.808  1.00  0.00     0.000 A 
ATOM     17  C   UNL A   1      35.912  21.854  25.560  1.00  0.00     0.000 A 
BRANCH   9  18
ATOM     18  S   UNL A   1      32.002  26.527  22.600  1.00  0.00     0.218 S 
ATOM     19  O   UNL A   1      31.683  26.288  21.205  1.00  0.00    -0.212 OA
ATOM     20  O   UNL A   1      32.566  27.804  22.993  1.00  0.00    -0.212 OA
BRANCH  18  21
ATOM     21  C   UNL A   1      30.472  26.269  23.552  1.00  0.00     0.181 C 
BRANCH  21  22
ATOM     22  C   UNL A   1      29.783  27.567  23.883  1.00  0.00    -0.017 C 
ATOM     23  C   UNL A   1      28.855  28.150  23.113  1.00  0.00     0.005 C 
ENDBRANCH  21  22
ENDBRANCH  18  21
ENDBRANCH   9  18
ENDBRANCH   5   8
ENDBRANCH   3   4
ENDBRANCH   2   3
ENDBRANCH   1   2
BRANCH   1  24
ATOM     24  C   UNL A   1      32.433  30.459  27.048  1.00  0.00     0.002 C 
BRANCH  24  25
ATOM     25  C   UNL A   1      31.979  31.918  27.014  1.00  0.00     0.021 C 
BRANCH  25  26
ATOM     26  C   UNL A   1      33.098  32.950  27.091  1.00  0.00     0.116 C 
BRANCH  26  27
ATOM     27  N   UNL A   1      32.651  34.227  27.623  1.00  0.00    -0.352 N 
ATOM     28  C   UNL A   1      33.074  34.891  28.748  1.00  0.00     0.251 C 
ATOM     29  H   UNL A   1      31.946  34.678  27.104  1.00  0.00     0.163 HD
ATOM     30  O   UNL A   1      32.479  35.895  29.130  1.00  0.00    -0.269 OA
BRANCH  28  31
ATOM     31  C   UNL A   1      34.232  34.378  29.512  1.00  0.00     0.039 A 
ATOM     32  C   UNL A   1      34.005  33.723  30.725  1.00  0.00     0.014 A 
ATOM     33  C   UNL A   1      35.535  34.534  29.033  1.00  0.00     0.014 A 
ATOM     34  C   UNL A   1      35.079  33.169  31.426  1.00  0.00     0.010 A 
ATOM     35  C   UNL A   1      36.595  33.917  29.692  1.00  0.00     0.010 A 
ATOM     36  C   UNL A   1      36.380  33.233  30.898  1.00  0.00    -0.014 A 
BRANCH  36  37
ATOM     37  C   UNL A   1      37.525  32.582  31.586  1.00  0.00     0.031 A 
ATOM     38  C   UNL A   1      38.252  31.436  30.933  1.00  0.00     0.074 A 
ATOM     39  C   UNL A   1      37.856  32.963  32.836  1.00  0.00     0.049 A 
ATOM     40  N   UNL A   1      39.238  30.714  31.399  1.00  0.00    -0.248 NA
ATOM     41  C   UNL A   1      37.794  31.031  29.594  1.00  0.00     0.031 C 
ATOM     42  C   UNL A   1      37.178  34.008  33.608  1.00  0.00     0.029 A 
ATOM     43  N   UNL A   1      38.827  32.499  33.689  1.00  0.00    -0.354 N 
ATOM     44  C   UNL A   1      39.491  29.748  30.433  1.00  0.00     0.074 A 
ATOM     45  C   UNL A   1      38.536  29.956  29.367  1.00  0.00     0.031 C 
ATOM     46  C   UNL A   1      37.759  34.109  34.815  1.00  0.00     0.029 A 
ATOM     47  C   UNL A   1      38.827  33.120  34.916  1.00  0.00     0.049 A 
ATOM     48  H   UNL A   1      39.463  31.789  33.444  1.00  0.00     0.167 HD
ATOM     49  C   UNL A   1      40.449  28.790  30.421  1.00  0.00     0.034 A 
ATOM     50  C   UNL A   1      39.597  32.913  36.003  1.00  0.00     0.034 A 
ATOM     51  C   UNL A   1      41.427  28.616  31.460  1.00  0.00     0.049 A 
ATOM     52  C   UNL A   1      40.679  31.869  35.946  1.00  0.00     0.074 A 
ATOM     53  C   UNL A   1      42.501  27.743  31.492  1.00  0.00     0.029 A 
ATOM     54  N   UNL A   1      41.448  29.319  32.653  1.00  0.00    -0.354 N 
ATOM     55  N   UNL A   1      41.011  31.078  34.954  1.00  0.00    -0.248 NA
ATOM     56  C   UNL A   1      41.517  31.713  37.144  1.00  0.00     0.031 C 
ATOM     57  C   UNL A   1      43.153  27.897  32.720  1.00  0.00     0.029 A 
ATOM     58  C   UNL A   1      42.505  28.889  33.438  1.00  0.00     0.049 A 
ATOM     59  H   UNL A   1      40.806  30.020  32.907  1.00  0.00     0.167 HD
ATOM     60  C   UNL A   1      42.118  30.360  35.393  1.00  0.00     0.074 A 
ATOM     61  C   UNL A   1      42.412  30.824  36.733  1.00  0.00     0.031 C 
ATOM     62  C   UNL A   1      42.820  29.396  34.749  1.00  0.00     0.034 A 
BRANCH  49  63
ATOM     63  C   UNL A   1      40.517  27.881  29.220  1.00  0.00     0.023 A 
ATOM     64  C   UNL A   1      39.627  26.792  29.117  1.00  0.00     0.012 A 
ATOM     65  C   UNL A   1      41.417  28.138  28.168  1.00  0.00     0.148 A 
ATOM     66  C   UNL A   1      39.655  25.953  28.004  1.00  0.00     0.002 A 
ATOM     67  C   UNL A   1      41.408  27.325  27.040  1.00  0.00     0.091 A 
ATOM     68  F   UNL A   1      42.270  29.165  28.291  1.00  0.00    -0.205 F 
ATOM     69  C   UNL A   1      40.537  26.225  26.962  1.00  0.00     0.022 A 
BRANCH  67  70
ATOM     70  S   UNL A   1      42.446  27.641  25.609  1.00  0.00     0.127 S 
ATOM     71  O   UNL A   1      43.766  27.765  26.225  1.00  0.00    -0.237 OA
ATOM     72  O   UNL A   1      42.255  26.428  24.815  1.00  0.00    -0.237 OA
ATOM     73  O   UNL A   1      41.926  28.856  24.996  1.00  0.00    -0.744 OA
ENDBRANCH  67  70
ENDBRANCH  49  63
BRANCH  50  74
ATOM     74  C   UNL A   1      39.417  33.760  37.217  1.00  0.00     0.023 A 
ATOM     75  C   UNL A   1      39.910  35.080  37.214  1.00  0.00     0.012 A 
ATOM     76  C   UNL A   1      38.745  33.280  38.358  1.00  0.00     0.148 A 
ATOM     77  C   UNL A   1      39.768  35.894  38.338  1.00  0.00     0.002 A 
ATOM     78  C   UNL A   1      38.559  34.115  39.453  1.00  0.00     0.091 A 
ATOM     79  F   UNL A   1      38.293  32.019  38.344  1.00  0.00    -0.205 F 
ATOM     80  C   UNL A   1      39.085  35.417  39.452  1.00  0.00     0.022 A 
BRANCH  78  81
ATOM     81  S   UNL A   1      37.578  33.631  40.878  1.00  0.00     0.127 S 
ATOM     82  O   UNL A   1      38.465  32.680  41.543  1.00  0.00    -0.237 OA
ATOM     83  O   UNL A   1      37.407  34.906  41.576  1.00  0.00    -0.237 OA
ATOM     84  O   UNL A   1      36.345  33.074  40.337  1.00  0.00    -0.744 OA
ENDBRANCH  78  81
ENDBRANCH  50  74
BRANCH  62  85
ATOM     85  C   UNL A   1      44.005  28.797  35.462  1.00  0.00     0.023 A 
ATOM     86  C   UNL A   1      45.287  29.351  35.282  1.00  0.00     0.012 A 
ATOM     87  C   UNL A   1      43.832  27.734  36.370  1.00  0.00     0.148 A 
ATOM     88  C   UNL A   1      46.386  28.834  35.969  1.00  0.00     0.002 A 
ATOM     89  C   UNL A   1      44.922  27.257  37.090  1.00  0.00     0.091 A 
ATOM     90  F   UNL A   1      42.607  27.208  36.515  1.00  0.00    -0.205 F 
ATOM     91  C   UNL A   1      46.201  27.797  36.881  1.00  0.00     0.022 A 
BRANCH  89  92
ATOM     92  S   UNL A   1      44.761  25.993  38.355  1.00  0.00     0.127 S 
ATOM     93  O   UNL A   1      44.298  24.846  37.575  1.00  0.00    -0.237 OA
ATOM     94  O   UNL A   1      46.132  25.877  38.854  1.00  0.00    -0.237 OA
ATOM     95  O   UNL A   1      43.808  26.514  39.326  1.00  0.00    -0.744 OA
ENDBRANCH  89  92
ENDBRANCH  62  85
ENDBRANCH  36  37
ENDBRANCH  28  31
ENDBRANCH  26  27
ENDBRANCH  25  26
ENDBRANCH  24  25
ENDBRANCH   1  24
TORSDOF 19
ENDMDL
MODEL 2
REMARK VINA RESULT:     -11.2      6.258     11.641
REMARK SMILES C=CCS(=O)(=O)N1CCc2ccccc2[C@@H]1C(=O)NCCCCCCNC(=O)c1ccc(-c2c3nc(c(-c4cccc(S(=O)(=O)[O-])c4F)c4ccc([nH]4)c(-c4cccc(S(=O)(=O)[O-])c4F)c4nc(c(-c5cccc(S(=O)(=O)[O-])c5F)c5ccc2[nH]5)C=C4)C=C3)cc1
REMARK SMILES IDX 22 1 21 2 20 3 19 4 17 5 18 6 16 8 7 9 8 10 9 11 15 12 10 13
REMARK SMILES IDX 14 14 11 15 13 16 12 17 4 18 5 19 6 20 3 21 2 22 1 23 23 24
REMARK SMILES IDX 24 25 25 26 26 27 27 28 28 30 29 31 30 32 91 33 31 34 90 35
REMARK SMILES IDX 32 36 33 37 34 38 84 39 35 40 89 41 83 42 85 43 36 44 88 45
REMARK SMILES IDX 82 46 81 47 37 49 69 50 49 51 68 52 50 53 53 54 67 55 86 56
REMARK SMILES IDX 51 57 52 58 66 60 87 61 54 62 38 63 39 64 47 65 40 66 42 67
REMARK SMILES IDX 48 68 41 69 43 70 44 71 45 72 46 73 70 74 71 75 79 76 72 77
REMARK SMILES IDX 74 78 80 79 73 80 75 81 76 82 77 83 78 84 55 85 56 86 64 87
REMARK SMILES IDX 57 88 59 89 65 90 58 91 60 92 61 93 62 94 63 95
REMARK H PARENT 19 7 26 29 85 48 53 59
REMARK Flexibility Score: inf
ROOT
ATOM      1  C   UNL A   1      37.390  21.776  24.516  1.00  0.00     0.002 C 
ENDROOT
BRANCH   1   2
ATOM      2  C   UNL A   1      36.535  22.579  23.532  1.00  0.00     0.021 C 
BRANCH   2   3
ATOM      3  C   UNL A   1      35.664  23.668  24.151  1.00  0.00     0.116 C 
BRANCH   3   4
ATOM      4  N   UNL A   1      34.550  24.045  23.306  1.00  0.00    -0.354 N 
ATOM      5  C   UNL A   1      33.374  24.657  23.627  1.00  0.00     0.243 C 
ATOM      6  O   UNL A   1      32.667  25.030  22.683  1.00  0.00    -0.273 OA
ATOM      7  H   UNL A   1      34.658  23.826  22.352  1.00  0.00     0.163 HD
BRANCH   5   8
ATOM      8  C   UNL A   1      32.969  24.902  25.104  1.00  0.00     0.192 C 
ATOM      9  N   UNL A   1      31.770  24.081  25.474  1.00  0.00    -0.184 NA
ATOM     10  C   UNL A   1      30.567  24.809  25.901  1.00  0.00     0.108 C 
ATOM     11  C   UNL A   1      30.303  25.979  24.953  1.00  0.00     0.052 C 
ATOM     12  C   UNL A   1      32.743  26.411  25.277  1.00  0.00    -0.017 A 
ATOM     13  C   UNL A   1      31.454  26.940  25.069  1.00  0.00    -0.041 A 
ATOM     14  C   UNL A   1      33.797  27.297  25.542  1.00  0.00     0.006 A 
ATOM     15  C   UNL A   1      31.256  28.321  24.993  1.00  0.00     0.004 A 
ATOM     16  C   UNL A   1      33.587  28.676  25.503  1.00  0.00     0.000 A 
ATOM     17  C   UNL A   1      32.326  29.186  25.199  1.00  0.00     0.000 A 
BRANCH   9  18
ATOM     18  S   UNL A   1      31.731  22.438  25.203  1.00  0.00     0.218 S 
ATOM     19  O   UNL A   1      31.829  22.245  23.768  1.00  0.00    -0.212 OA
ATOM     20  O   UNL A   1      30.586  21.905  25.916  1.00  0.00    -0.212 OA
BRANCH  18  21
ATOM     21  C   UNL A   1      33.237  21.733  25.943  1.00  0.00     0.181 C 
BRANCH  21  22
ATOM     22  C   UNL A   1      33.603  20.406  25.331  1.00  0.00    -0.017 C 
ATOM     23  C   UNL A   1      32.832  19.311  25.379  1.00  0.00     0.005 C 
ENDBRANCH  21  22
ENDBRANCH  18  21
ENDBRANCH   9  18
ENDBRANCH   5   8
ENDBRANCH   3   4
ENDBRANCH   2   3
ENDBRANCH   1   2
BRANCH   1  24
ATOM     24  C   UNL A   1      36.975  20.318  24.730  1.00  0.00     0.002 C 
BRANCH  24  25
ATOM     25  C   UNL A   1      38.117  19.335  24.983  1.00  0.00     0.021 C 
BRANCH  25  26
ATOM     26  C   UNL A   1      39.113  19.757  26.058  1.00  0.00     0.116 C 
BRANCH  26  27
ATOM     27  N   UNL A   1      40.339  18.976  26.026  1.00  0.00    -0.352 N 
ATOM     28  C   UNL A   1      41.640  19.404  26.130  1.00  0.00     0.251 C 
ATOM     29  H   UNL A   1      40.220  18.005  25.914  1.00  0.00     0.163 HD
ATOM     30  O   UNL A   1      42.563  18.619  25.933  1.00  0.00    -0.269 OA
BRANCH  28  31
ATOM     31  C   UNL A   1      41.924  20.819  26.453  1.00  0.00     0.039 A 
ATOM     32  C   UNL A   1      42.311  21.152  27.754  1.00  0.00     0.014 A 
ATOM     33  C   UNL A   1      41.820  21.814  25.477  1.00  0.00     0.014 A 
ATOM     34  C   UNL A   1      42.653  22.472  28.060  1.00  0.00     0.010 A 
ATOM     35  C   UNL A   1      42.233  23.113  25.764  1.00  0.00     0.010 A 
ATOM     36  C   UNL A   1      42.648  23.457  27.059  1.00  0.00    -0.014 A 
BRANCH  36  37
ATOM     37  C   UNL A   1      43.085  24.849  27.343  1.00  0.00     0.031 A 
ATOM     38  C   UNL A   1      42.150  25.816  28.019  1.00  0.00     0.074 A 
ATOM     39  C   UNL A   1      44.292  25.268  26.915  1.00  0.00     0.049 A 
ATOM     40  N   UNL A   1      42.336  27.079  28.304  1.00  0.00    -0.248 NA
ATOM     41  C   UNL A   1      40.823  25.305  28.401  1.00  0.00     0.031 C 
ATOM     42  C   UNL A   1      45.259  24.451  26.179  1.00  0.00     0.029 A 
ATOM     43  N   UNL A   1      44.903  26.495  27.013  1.00  0.00    -0.354 N 
ATOM     44  C   UNL A   1      41.142  27.524  28.859  1.00  0.00     0.074 A 
ATOM     45  C   UNL A   1      40.227  26.404  28.844  1.00  0.00     0.031 C 
ATOM     46  C   UNL A   1      46.342  25.195  25.899  1.00  0.00     0.029 A 
ATOM     47  C   UNL A   1      46.136  26.548  26.406  1.00  0.00     0.049 A 
ATOM     48  H   UNL A   1      44.495  27.264  27.473  1.00  0.00     0.167 HD
ATOM     49  C   UNL A   1      40.841  28.745  29.360  1.00  0.00     0.034 A 
ATOM     50  C   UNL A   1      47.002  27.571  26.269  1.00  0.00     0.034 A 
ATOM     51  C   UNL A   1      41.769  29.843  29.417  1.00  0.00     0.049 A 
ATOM     52  C   UNL A   1      46.659  28.907  26.870  1.00  0.00     0.074 A 
ATOM     53  C   UNL A   1      41.594  31.087  29.998  1.00  0.00     0.029 A 
ATOM     54  N   UNL A   1      43.040  29.834  28.867  1.00  0.00    -0.354 N 
ATOM     55  N   UNL A   1      45.589  29.259  27.542  1.00  0.00    -0.248 NA
ATOM     56  C   UNL A   1      47.656  29.977  26.729  1.00  0.00     0.031 C 
ATOM     57  C   UNL A   1      42.750  31.841  29.772  1.00  0.00     0.029 A 
ATOM     58  C   UNL A   1      43.657  31.055  29.079  1.00  0.00     0.049 A 
ATOM     59  H   UNL A   1      43.446  29.072  28.394  1.00  0.00     0.167 HD
ATOM     60  C   UNL A   1      45.801  30.575  27.936  1.00  0.00     0.074 A 
ATOM     61  C   UNL A   1      47.110  30.952  27.444  1.00  0.00     0.031 C 
ATOM     62  C   UNL A   1      44.982  31.401  28.631  1.00  0.00     0.034 A 
BRANCH  49  63
ATOM     63  C   UNL A   1      39.463  28.950  29.933  1.00  0.00     0.023 A 
ATOM     64  C   UNL A   1      39.160  28.455  31.219  1.00  0.00     0.012 A 
ATOM     65  C   UNL A   1      38.487  29.682  29.229  1.00  0.00     0.148 A 
ATOM     66  C   UNL A   1      37.899  28.655  31.779  1.00  0.00     0.002 A 
ATOM     67  C   UNL A   1      37.248  29.918  29.813  1.00  0.00     0.091 A 
ATOM     68  F   UNL A   1      38.785  30.127  28.000  1.00  0.00    -0.205 F 
ATOM     69  C   UNL A   1      36.948  29.394  31.082  1.00  0.00     0.022 A 
BRANCH  67  70
ATOM     70  S   UNL A   1      35.984  30.928  29.032  1.00  0.00     0.127 S 
ATOM     71  O   UNL A   1      35.293  29.944  28.202  1.00  0.00    -0.237 OA
ATOM     72  O   UNL A   1      35.216  31.404  30.182  1.00  0.00    -0.237 OA
ATOM     73  O   UNL A   1      36.697  31.970  28.305  1.00  0.00    -0.744 OA
ENDBRANCH  67  70
ENDBRANCH  49  63
BRANCH  50  74
ATOM     74  C   UNL A   1      48.311  27.354  25.589  1.00  0.00     0.023 A 
ATOM     75  C   UNL A   1      49.425  26.952  26.352  1.00  0.00     0.012 A 
ATOM     76  C   UNL A   1      48.456  27.519  24.198  1.00  0.00     0.148 A 
ATOM     77  C   UNL A   1      50.667  26.753  25.748  1.00  0.00     0.002 A 
ATOM     78  C   UNL A   1      49.682  27.265  23.595  1.00  0.00     0.091 A 
ATOM     79  F   UNL A   1      47.387  27.913  23.491  1.00  0.00    -0.205 F 
ATOM     80  C   UNL A   1      50.793  26.899  24.370  1.00  0.00     0.022 A 
BRANCH  78  81
ATOM     81  S   UNL A   1      49.905  27.299  21.812  1.00  0.00     0.127 S 
ATOM     82  O   UNL A   1      51.291  26.859  21.675  1.00  0.00    -0.237 OA
ATOM     83  O   UNL A   1      48.903  26.332  21.363  1.00  0.00    -0.237 OA
ATOM     84  O   UNL A   1      49.635  28.673  21.408  1.00  0.00    -0.744 OA
ENDBRANCH  78  81
ENDBRANCH  50  74
BRANCH  62  85
ATOM     85  C   UNL A   1      45.483  32.788  28.942  1.00  0.00     0.023 A 
ATOM     86  C   UNL A   1      46.154  33.035  30.157  1.00  0.00     0.012 A 
ATOM     87  C   UNL A   1      45.358  33.824  27.997  1.00  0.00     0.148 A 
ATOM     88  C   UNL A   1      46.661  34.304  30.440  1.00  0.00     0.002 A 
ATOM     89  C   UNL A   1      45.912  35.071  28.264  1.00  0.00     0.091 A 
ATOM     90  F   UNL A   1      44.702  33.573  26.855  1.00  0.00    -0.205 F 
ATOM     91  C   UNL A   1      46.552  35.316  29.489  1.00  0.00     0.022 A 
BRANCH  89  92
ATOM     92  S   UNL A   1      45.905  36.404  27.060  1.00  0.00     0.127 S 
ATOM     93  O   UNL A   1      46.853  37.346  27.653  1.00  0.00    -0.237 OA
ATOM     94  O   UNL A   1      46.387  35.733  25.851  1.00  0.00    -0.237 OA
ATOM     95  O   UNL A   1      44.527  36.870  26.982  1.00  0.00    -0.744 OA
ENDBRANCH  89  92
ENDBRANCH  62  85
ENDBRANCH  36  37
ENDBRANCH  28  31
ENDBRANCH  26  27
ENDBRANCH  25  26
ENDBRANCH  24  25
ENDBRANCH   1  24
TORSDOF 19
ENDMDL
MODEL 3
REMARK VINA RESULT:     -11.0      6.262      9.986
REMARK SMILES C=CCS(=O)(=O)N1CCc2ccccc2[C@@H]1C(=O)NCCCCCCNC(=O)c1ccc(-c2c3nc(c(-c4cccc(S(=O)(=O)[O-])c4F)c4ccc([nH]4)c(-c4cccc(S(=O)(=O)[O-])c4F)c4nc(c(-c5cccc(S(=O)(=O)[O-])c5F)c5ccc2[nH]5)C=C4)C=C3)cc1
REMARK SMILES IDX 22 1 21 2 20 3 19 4 17 5 18 6 16 8 7 9 8 10 9 11 15 12 10 13
REMARK SMILES IDX 14 14 11 15 13 16 12 17 4 18 5 19 6 20 3 21 2 22 1 23 23 24
REMARK SMILES IDX 24 25 25 26 26 27 27 28 28 30 29 31 30 32 91 33 31 34 90 35
REMARK SMILES IDX 32 36 33 37 34 38 84 39 35 40 89 41 83 42 85 43 36 44 88 45
REMARK SMILES IDX 82 46 81 47 37 49 69 50 49 51 68 52 50 53 53 54 67 55 86 56
REMARK SMILES IDX 51 57 52 58 66 60 87 61 54 62 38 63 39 64 47 65 40 66 42 67
REMARK SMILES IDX 48 68 41 69 43 70 44 71 45 72 46 73 70 74 71 75 79 76 72 77
REMARK SMILES IDX 74 78 80 79 73 80 75 81 76 82 77 83 78 84 55 85 56 86 64 87
REMARK SMILES IDX 57 88 59 89 65 90 58 91 60 92 61 93 62 94 63 95
REMARK H PARENT 19 7 26 29 85 48 53 59
REMARK Flexibility Score: inf
ROOT
ATOM      1  C   UNL A   1      36.825  22.081  24.280  1.00  0.00     0.002 C 
ENDROOT
BRANCH   1   2
ATOM      2  C   UNL A   1      36.964  23.329  25.157  1.00  0.00     0.021 C 
BRANCH   2   3
ATOM      3  C   UNL A   1      35.654  23.995  25.568  1.00  0.00     0.116 C 
BRANCH   3   4
ATOM      4  N   UNL A   1      34.835  24.373  24.435  1.00  0.00    -0.354 N 
ATOM      5  C   UNL A   1      33.652  25.052  24.396  1.00  0.00     0.243 C 
ATOM      6  O   UNL A   1      33.252  25.403  23.280  1.00  0.00    -0.273 OA
ATOM      7  H   UNL A   1      35.187  24.099  23.557  1.00  0.00     0.163 HD
BRANCH   5   8
ATOM      8  C   UNL A   1      32.874  25.392  25.693  1.00  0.00     0.192 C 
ATOM      9  N   UNL A   1      31.599  24.608  25.774  1.00  0.00    -0.184 NA
ATOM     10  C   UNL A   1      30.345  25.373  25.821  1.00  0.00     0.108 C 
ATOM     11  C   UNL A   1      30.375  26.484  24.771  1.00  0.00     0.052 C 
ATOM     12  C   UNL A   1      32.650  26.911  25.713  1.00  0.00    -0.017 A 
ATOM     13  C   UNL A   1      31.478  27.439  25.137  1.00  0.00    -0.041 A 
ATOM     14  C   UNL A   1      33.617  27.801  26.200  1.00  0.00     0.006 A 
ATOM     15  C   UNL A   1      31.343  28.815  24.931  1.00  0.00     0.004 A 
ATOM     16  C   UNL A   1      33.462  29.177  26.027  1.00  0.00     0.000 A 
ATOM     17  C   UNL A   1      32.342  29.680  25.368  1.00  0.00     0.000 A 
BRANCH   9  18
ATOM     18  S   UNL A   1      31.590  22.951  25.597  1.00  0.00     0.218 S 
ATOM     19  O   UNL A   1      30.325  22.477  26.128  1.00  0.00    -0.212 OA
ATOM     20  O   UNL A   1      32.830  22.446  26.154  1.00  0.00    -0.212 OA
BRANCH  18  21
ATOM     21  C   UNL A   1      31.589  22.599  23.811  1.00  0.00     0.181 C 
BRANCH  21  22
ATOM     22  C   UNL A   1      32.507  21.459  23.456  1.00  0.00    -0.017 C 
ATOM     23  C   UNL A   1      32.154  20.407  22.706  1.00  0.00     0.005 C 
ENDBRANCH  21  22
ENDBRANCH  18  21
ENDBRANCH   9  18
ENDBRANCH   5   8
ENDBRANCH   3   4
ENDBRANCH   2   3
ENDBRANCH   1   2
BRANCH   1  24
ATOM     24  C   UNL A   1      36.645  20.756  25.026  1.00  0.00     0.002 C 
BRANCH  24  25
ATOM     25  C   UNL A   1      37.856  19.824  25.019  1.00  0.00     0.021 C 
BRANCH  25  26
ATOM     26  C   UNL A   1      39.032  20.279  25.875  1.00  0.00     0.116 C 
BRANCH  26  27
ATOM     27  N   UNL A   1      40.092  19.287  25.948  1.00  0.00    -0.352 N 
ATOM     28  C   UNL A   1      41.440  19.472  26.128  1.00  0.00     0.251 C 
ATOM     29  H   UNL A   1      39.802  18.350  25.855  1.00  0.00     0.163 HD
ATOM     30  O   UNL A   1      42.213  18.524  26.015  1.00  0.00    -0.269 OA
BRANCH  28  31
ATOM     31  C   UNL A   1      41.962  20.823  26.430  1.00  0.00     0.039 A 
ATOM     32  C   UNL A   1      42.225  21.700  25.374  1.00  0.00     0.014 A 
ATOM     33  C   UNL A   1      42.182  21.229  27.749  1.00  0.00     0.014 A 
ATOM     34  C   UNL A   1      42.650  23.003  25.644  1.00  0.00     0.010 A 
ATOM     35  C   UNL A   1      42.532  22.550  28.020  1.00  0.00     0.010 A 
ATOM     36  C   UNL A   1      42.775  23.449  26.971  1.00  0.00    -0.014 A 
BRANCH  36  37
ATOM     37  C   UNL A   1      43.147  24.854  27.281  1.00  0.00     0.031 A 
ATOM     38  C   UNL A   1      44.558  25.333  27.063  1.00  0.00     0.074 A 
ATOM     39  C   UNL A   1      42.237  25.676  27.841  1.00  0.00     0.049 A 
ATOM     40  N   UNL A   1      45.080  26.504  27.320  1.00  0.00    -0.248 NA
ATOM     41  C   UNL A   1      45.515  24.361  26.509  1.00  0.00     0.031 C 
ATOM     42  C   UNL A   1      40.859  25.309  28.176  1.00  0.00     0.029 A 
ATOM     43  N   UNL A   1      42.341  26.982  28.254  1.00  0.00    -0.354 N 
ATOM     44  C   UNL A   1      46.427  26.400  27.000  1.00  0.00     0.074 A 
ATOM     45  C   UNL A   1      46.651  25.042  26.556  1.00  0.00     0.031 C 
ATOM     46  C   UNL A   1      40.246  26.365  28.733  1.00  0.00     0.029 A 
ATOM     47  C   UNL A   1      41.191  27.473  28.827  1.00  0.00     0.049 A 
ATOM     48  H   UNL A   1      43.162  27.515  28.150  1.00  0.00     0.167 HD
ATOM     49  C   UNL A   1      47.388  27.354  27.044  1.00  0.00     0.034 A 
ATOM     50  C   UNL A   1      40.928  28.678  29.369  1.00  0.00     0.034 A 
ATOM     51  C   UNL A   1      47.152  28.716  27.439  1.00  0.00     0.049 A 
ATOM     52  C   UNL A   1      42.002  29.732  29.369  1.00  0.00     0.074 A 
ATOM     53  C   UNL A   1      48.034  29.782  27.420  1.00  0.00     0.029 A 
ATOM     54  N   UNL A   1      45.952  29.199  27.936  1.00  0.00    -0.354 N 
ATOM     55  N   UNL A   1      43.226  29.663  28.902  1.00  0.00    -0.248 NA
ATOM     56  C   UNL A   1      41.650  31.042  29.935  1.00  0.00     0.031 C 
ATOM     57  C   UNL A   1      47.375  30.904  27.933  1.00  0.00     0.029 A 
ATOM     58  C   UNL A   1      46.073  30.544  28.242  1.00  0.00     0.049 A 
ATOM     59  H   UNL A   1      45.133  28.666  28.054  1.00  0.00     0.167 HD
ATOM     60  C   UNL A   1      43.775  30.927  29.083  1.00  0.00     0.074 A 
ATOM     61  C   UNL A   1      42.744  31.748  29.683  1.00  0.00     0.031 C 
ATOM     62  C   UNL A   1      45.024  31.365  28.789  1.00  0.00     0.034 A 
BRANCH  49  63
ATOM     63  C   UNL A   1      48.779  26.971  26.608  1.00  0.00     0.023 A 
ATOM     64  C   UNL A   1      49.579  26.171  27.449  1.00  0.00     0.012 A 
ATOM     65  C   UNL A   1      49.271  27.350  25.344  1.00  0.00     0.148 A 
ATOM     66  C   UNL A   1      50.859  25.784  27.055  1.00  0.00     0.002 A 
ATOM     67  C   UNL A   1      50.530  26.922  24.938  1.00  0.00     0.091 A 
ATOM     68  F   UNL A   1      48.506  28.129  24.566  1.00  0.00    -0.205 F 
ATOM     69  C   UNL A   1      51.330  26.149  25.798  1.00  0.00     0.022 A 
BRANCH  67  70
ATOM     70  S   UNL A   1      51.194  27.270  23.306  1.00  0.00     0.127 S 
ATOM     71  O   UNL A   1      50.161  26.701  22.442  1.00  0.00    -0.237 OA
ATOM     72  O   UNL A   1      51.255  28.731  23.302  1.00  0.00    -0.237 OA
ATOM     73  O   UNL A   1      52.490  26.607  23.250  1.00  0.00    -0.744 OA
ENDBRANCH  67  70
ENDBRANCH  49  63
BRANCH  50  74
ATOM     74  C   UNL A   1      39.566  28.977  29.897  1.00  0.00     0.023 A 
ATOM     75  C   UNL A   1      39.195  28.484  31.164  1.00  0.00     0.012 A 
ATOM     76  C   UNL A   1      38.649  29.762  29.170  1.00  0.00     0.148 A 
ATOM     77  C   UNL A   1      37.924  28.736  31.681  1.00  0.00     0.002 A 
ATOM     78  C   UNL A   1      37.405  30.056  29.716  1.00  0.00     0.091 A 
ATOM     79  F   UNL A   1      39.017  30.212  27.963  1.00  0.00    -0.205 F 
ATOM     80  C   UNL A   1      37.033  29.529  30.963  1.00  0.00     0.022 A 
BRANCH  78  81
ATOM     81  S   UNL A   1      36.246  31.176  28.923  1.00  0.00     0.127 S 
ATOM     82  O   UNL A   1      37.057  32.379  28.757  1.00  0.00    -0.237 OA
ATOM     83  O   UNL A   1      35.938  30.464  27.682  1.00  0.00    -0.237 OA
ATOM     84  O   UNL A   1      35.121  31.293  29.841  1.00  0.00    -0.744 OA
ENDBRANCH  78  81
ENDBRANCH  50  74
BRANCH  62  85
ATOM     85  C   UNL A   1      45.344  32.810  29.073  1.00  0.00     0.023 A 
ATOM     86  C   UNL A   1      45.952  33.169  30.292  1.00  0.00     0.012 A 
ATOM     87  C   UNL A   1      45.113  33.800  28.098  1.00  0.00     0.148 A 
ATOM     88  C   UNL A   1      46.293  34.497  30.550  1.00  0.00     0.002 A 
ATOM     89  C   UNL A   1      45.503  35.112  28.340  1.00  0.00     0.091 A 
ATOM     90  F   UNL A   1      44.518  33.442  26.951  1.00  0.00    -0.205 F 
ATOM     91  C   UNL A   1      46.081  35.464  29.570  1.00  0.00     0.022 A 
BRANCH  89  92
ATOM     92  S   UNL A   1      45.359  36.404  27.101  1.00  0.00     0.127 S 
ATOM     93  O   UNL A   1      43.909  36.503  26.940  1.00  0.00    -0.237 OA
ATOM     94  O   UNL A   1      45.977  37.549  27.773  1.00  0.00    -0.237 OA
ATOM     95  O   UNL A   1      46.087  35.925  25.934  1.00  0.00    -0.744 OA
ENDBRANCH  89  92
ENDBRANCH  62  85
ENDBRANCH  36  37
ENDBRANCH  28  31
ENDBRANCH  26  27
ENDBRANCH  25  26
ENDBRANCH  24  25
ENDBRANCH   1  24
TORSDOF 19
ENDMDL
