MODEL 1
REMARK VINA RESULT:     -13.0      0.000      0.000
REMARK SMILES Cc1coc2cc3c(cc12)[C@@H](C)[C@H](CCC(=O)N[C@@H](Cc1c[nH]c2ccccc12)C(=O)NCCCCCCNC(=O)c1ccc(-c2c4nc(c(-c5cccc(S(=O)(=O)[O-])c5F)c5ccc([nH]5)c(-c5cccc(S(=O)(=O)[O-])c5F)c5nc(c(-c6cccc(S(=O)(=O)[O-])c6F)c6ccc2[nH]6)C=C5)C=C4)cc1)C(=O)O3
REMARK SMILES IDX 35 1 34 2 33 3 32 4 30 5 31 6 19 8 18 9 16 10 17 11 15 13
REMARK SMILES IDX 14 14 13 15 1 16 2 17 3 18 10 19 4 20 5 21 9 22 6 23 8 24
REMARK SMILES IDX 7 25 11 26 107 27 12 28 105 29 106 30 20 31 21 32 22 33
REMARK SMILES IDX 29 34 23 35 24 36 28 37 25 39 27 40 26 41 36 42 37 43 38 44
REMARK SMILES IDX 39 45 40 46 41 48 42 49 43 50 104 51 44 52 103 53 45 54
REMARK SMILES IDX 46 55 47 56 97 57 48 58 102 59 96 60 98 61 49 62 101 63
REMARK SMILES IDX 95 64 94 65 50 67 82 68 62 69 81 70 63 71 66 72 80 73 99 74
REMARK SMILES IDX 64 75 65 76 79 78 100 79 67 80 51 81 52 82 60 83 53 84 55 85
REMARK SMILES IDX 61 86 54 87 56 88 57 89 58 90 59 91 83 92 84 93 92 94 85 95
REMARK SMILES IDX 87 96 93 97 86 98 88 99 89 100 90 101 91 102 68 103 69 104
REMARK SMILES IDX 77 105 70 106 72 107 78 108 71 109 73 110 74 111 75 112
REMARK SMILES IDX 76 113
REMARK H PARENT 32 7 18 12 23 38 39 47 98 66 66 77
REMARK Flexibility Score: inf
ROOT
ATOM      1  C   UNL A   1      36.347  21.399  25.443  1.00  0.00     0.002 C 
ENDROOT
BRANCH   1   2
ATOM      2  C   UNL A   1      35.183  21.881  26.298  1.00  0.00     0.021 C 
BRANCH   2   3
ATOM      3  C   UNL A   1      34.330  22.981  25.692  1.00  0.00     0.116 C 
BRANCH   3   4
ATOM      4  N   UNL A   1      32.931  22.984  26.042  1.00  0.00    -0.354 N 
ATOM      5  C   UNL A   1      31.863  22.691  25.227  1.00  0.00     0.242 C 
ATOM      6  O   UNL A   1      30.734  22.839  25.710  1.00  0.00    -0.273 OA
ATOM      7  H   UNL A   1      32.715  23.225  26.971  1.00  0.00     0.163 HD
BRANCH   5   8
ATOM      8  C   UNL A   1      32.028  22.299  23.709  1.00  0.00     0.175 C 
BRANCH   8   9
ATOM      9  N   UNL A   1      31.900  23.521  22.851  1.00  0.00    -0.344 N 
ATOM     10  C   UNL A   1      32.522  24.745  22.731  1.00  0.00     0.220 C 
ATOM     11  O   UNL A   1      32.223  25.386  21.710  1.00  0.00    -0.275 OA
ATOM     12  H   UNL A   1      31.173  23.423  22.194  1.00  0.00     0.164 HD
BRANCH  10  13
ATOM     13  C   UNL A   1      33.518  25.422  23.734  1.00  0.00     0.101 C 
BRANCH  13  14
ATOM     14  C   UNL A   1      33.534  27.032  23.905  1.00  0.00     0.026 C 
BRANCH  14  15
ATOM     15  C   UNL A   1      33.109  27.612  25.323  1.00  0.00     0.107 C 
ATOM     16  C   UNL A   1      27.622  32.062  23.642  1.00  0.00     0.048 C 
ATOM     17  C   UNL A   1      28.354  31.003  22.913  1.00  0.00    -0.005 A 
ATOM     18  C   UNL A   1      27.979  30.444  21.705  1.00  0.00     0.199 A 
ATOM     19  C   UNL A   1      29.488  30.255  23.360  1.00  0.00     0.024 A 
ATOM     20  O   UNL A   1      28.696  29.325  21.450  1.00  0.00    -0.464 OA
ATOM     21  C   UNL A   1      29.515  29.150  22.516  1.00  0.00     0.137 A 
ATOM     22  C   UNL A   1      30.434  30.310  24.418  1.00  0.00     0.020 A 
ATOM     23  C   UNL A   1      30.177  27.978  22.819  1.00  0.00     0.095 A 
ATOM     24  C   UNL A   1      31.198  29.166  24.671  1.00  0.00    -0.001 A 
ATOM     25  C   UNL A   1      30.810  28.002  24.049  1.00  0.00     0.138 A 
ATOM     26  C   UNL A   1      32.386  29.006  25.589  1.00  0.00     0.034 C 
ATOM     27  O   UNL A   1      30.981  26.820  24.809  1.00  0.00    -0.426 OA
ATOM     28  C   UNL A   1      31.889  29.093  27.055  1.00  0.00     0.014 C 
ATOM     29  C   UNL A   1      32.050  26.676  25.695  1.00  0.00     0.314 C 
ATOM     30  O   UNL A   1      32.197  25.785  26.532  1.00  0.00    -0.251 OA
ENDBRANCH  14  15
ENDBRANCH  13  14
ENDBRANCH  10  13
ENDBRANCH   8   9
BRANCH   8  31
ATOM     31  C   UNL A   1      33.134  21.188  23.526  1.00  0.00     0.072 C 
BRANCH  31  32
ATOM     32  C   UNL A   1      33.023  19.657  23.389  1.00  0.00    -0.020 A 
ATOM     33  C   UNL A   1      31.932  19.118  22.711  1.00  0.00     0.087 A 
ATOM     34  C   UNL A   1      33.749  18.502  23.891  1.00  0.00     0.003 A 
ATOM     35  N   UNL A   1      31.926  17.760  22.839  1.00  0.00    -0.361 N 
ATOM     36  C   UNL A   1      33.004  17.357  23.581  1.00  0.00     0.046 A 
ATOM     37  C   UNL A   1      34.925  18.288  24.648  1.00  0.00     0.010 A 
ATOM     38  H   UNL A   1      31.247  17.159  22.456  1.00  0.00     0.166 HD
ATOM     39  C   UNL A   1      33.345  16.065  24.011  1.00  0.00     0.026 A 
ATOM     40  C   UNL A   1      35.291  17.005  25.080  1.00  0.00     0.001 A 
ATOM     41  C   UNL A   1      34.501  15.909  24.773  1.00  0.00     0.002 A 
ENDBRANCH  31  32
ENDBRANCH   8  31
ENDBRANCH   5   8
ENDBRANCH   3   4
ENDBRANCH   2   3
ENDBRANCH   1   2
BRANCH   1  42
ATOM     42  C   UNL A   1      37.686  22.139  25.578  1.00  0.00     0.002 C 
BRANCH  42  43
ATOM     43  C   UNL A   1      38.959  21.335  25.875  1.00  0.00     0.021 C 
BRANCH  43  44
ATOM     44  C   UNL A   1      39.928  21.899  26.908  1.00  0.00     0.116 C 
BRANCH  44  45
ATOM     45  N   UNL A   1      41.294  22.045  26.459  1.00  0.00    -0.352 N 
ATOM     46  C   UNL A   1      42.243  23.024  26.523  1.00  0.00     0.251 C 
ATOM     47  H   UNL A   1      41.621  21.241  25.994  1.00  0.00     0.163 HD
ATOM     48  O   UNL A   1      43.336  22.744  26.021  1.00  0.00    -0.269 OA
BRANCH  46  49
ATOM     49  C   UNL A   1      42.042  24.378  27.100  1.00  0.00     0.039 A 
ATOM     50  C   UNL A   1      41.265  25.392  26.540  1.00  0.00     0.014 A 
ATOM     51  C   UNL A   1      42.669  24.619  28.337  1.00  0.00     0.014 A 
ATOM     52  C   UNL A   1      41.177  26.639  27.160  1.00  0.00     0.010 A 
ATOM     53  C   UNL A   1      42.559  25.851  28.974  1.00  0.00     0.010 A 
ATOM     54  C   UNL A   1      41.841  26.878  28.366  1.00  0.00    -0.014 A 
BRANCH  54  55
ATOM     55  C   UNL A   1      41.704  28.200  28.983  1.00  0.00     0.031 A 
ATOM     56  C   UNL A   1      42.640  29.267  28.515  1.00  0.00     0.074 A 
ATOM     57  C   UNL A   1      40.711  28.525  29.835  1.00  0.00     0.049 A 
ATOM     58  N   UNL A   1      43.483  29.955  29.218  1.00  0.00    -0.248 NA
ATOM     59  C   UNL A   1      42.668  29.575  27.079  1.00  0.00     0.031 C 
ATOM     60  C   UNL A   1      39.522  27.738  30.170  1.00  0.00     0.029 A 
ATOM     61  N   UNL A   1      40.490  29.713  30.471  1.00  0.00    -0.354 N 
ATOM     62  C   UNL A   1      44.027  30.907  28.353  1.00  0.00     0.074 A 
ATOM     63  C   UNL A   1      43.570  30.557  27.031  1.00  0.00     0.031 C 
ATOM     64  C   UNL A   1      38.597  28.554  30.720  1.00  0.00     0.029 A 
ATOM     65  C   UNL A   1      39.181  29.870  30.905  1.00  0.00     0.049 A 
ATOM     66  H   UNL A   1      41.191  30.391  30.610  1.00  0.00     0.167 HD
ATOM     67  C   UNL A   1      44.691  32.011  28.797  1.00  0.00     0.034 A 
ATOM     68  C   UNL A   1      38.597  31.023  31.306  1.00  0.00     0.034 A 
ATOM     69  C   UNL A   1      45.054  31.907  30.183  1.00  0.00     0.049 A 
ATOM     70  C   UNL A   1      39.669  31.962  31.704  1.00  0.00     0.074 A 
ATOM     71  C   UNL A   1      45.837  31.055  30.936  1.00  0.00     0.029 A 
ATOM     72  N   UNL A   1      44.334  32.649  31.085  1.00  0.00    -0.354 N 
ATOM     73  N   UNL A   1      40.426  31.804  32.752  1.00  0.00    -0.248 NA
ATOM     74  C   UNL A   1      40.137  32.936  30.733  1.00  0.00     0.031 C 
ATOM     75  C   UNL A   1      45.201  31.000  32.209  1.00  0.00     0.029 A 
ATOM     76  C   UNL A   1      44.080  31.832  32.152  1.00  0.00     0.049 A 
ATOM     77  H   UNL A   1      44.055  33.588  30.984  1.00  0.00     0.167 HD
ATOM     78  C   UNL A   1      41.658  32.319  32.372  1.00  0.00     0.074 A 
ATOM     79  C   UNL A   1      41.379  33.122  31.185  1.00  0.00     0.031 C 
ATOM     80  C   UNL A   1      42.825  31.813  32.874  1.00  0.00     0.034 A 
BRANCH  67  81
ATOM     81  C   UNL A   1      44.808  33.330  28.070  1.00  0.00     0.023 A 
ATOM     82  C   UNL A   1      46.081  33.690  27.563  1.00  0.00     0.012 A 
ATOM     83  C   UNL A   1      43.819  34.337  28.085  1.00  0.00     0.148 A 
ATOM     84  C   UNL A   1      46.367  34.991  27.137  1.00  0.00     0.002 A 
ATOM     85  C   UNL A   1      44.086  35.609  27.584  1.00  0.00     0.091 A 
ATOM     86  F   UNL A   1      42.654  34.115  28.703  1.00  0.00    -0.205 F 
ATOM     87  C   UNL A   1      45.364  35.951  27.137  1.00  0.00     0.022 A 
BRANCH  85  88
ATOM     88  S   UNL A   1      42.803  36.863  27.494  1.00  0.00     0.127 S 
ATOM     89  O   UNL A   1      43.424  37.859  26.626  1.00  0.00    -0.237 OA
ATOM     90  O   UNL A   1      41.694  36.123  26.891  1.00  0.00    -0.237 OA
ATOM     91  O   UNL A   1      42.567  37.261  28.876  1.00  0.00    -0.744 OA
ENDBRANCH  85  88
ENDBRANCH  67  81
BRANCH  68  92
ATOM     92  C   UNL A   1      37.187  31.453  31.164  1.00  0.00     0.023 A 
ATOM     93  C   UNL A   1      36.468  31.865  32.303  1.00  0.00     0.012 A 
ATOM     94  C   UNL A   1      36.629  31.713  29.892  1.00  0.00     0.148 A 
ATOM     95  C   UNL A   1      35.247  32.539  32.178  1.00  0.00     0.002 A 
ATOM     96  C   UNL A   1      35.409  32.372  29.774  1.00  0.00     0.091 A 
ATOM     97  F   UNL A   1      37.337  31.403  28.797  1.00  0.00    -0.205 F 
ATOM     98  C   UNL A   1      34.720  32.797  30.916  1.00  0.00     0.022 A 
BRANCH  96  99
ATOM     99  S   UNL A   1      34.683  32.751  28.173  1.00  0.00     0.127 S 
ATOM    100  O   UNL A   1      33.456  33.453  28.553  1.00  0.00    -0.237 OA
ATOM    101  O   UNL A   1      35.710  33.593  27.568  1.00  0.00    -0.237 OA
ATOM    102  O   UNL A   1      34.455  31.462  27.530  1.00  0.00    -0.744 OA
ENDBRANCH  96  99
ENDBRANCH  68  92
BRANCH  80 103
ATOM    103  C   UNL A   1      42.762  30.870  34.053  1.00  0.00     0.023 A 
ATOM    104  C   UNL A   1      42.764  31.349  35.380  1.00  0.00     0.012 A 
ATOM    105  C   UNL A   1      42.473  29.511  33.825  1.00  0.00     0.148 A 
ATOM    106  C   UNL A   1      42.510  30.494  36.455  1.00  0.00     0.002 A 
ATOM    107  C   UNL A   1      42.161  28.676  34.894  1.00  0.00     0.091 A 
ATOM    108  F   UNL A   1      42.463  29.066  32.560  1.00  0.00    -0.205 F 
ATOM    109  C   UNL A   1      42.191  29.162  36.211  1.00  0.00     0.022 A 
BRANCH 107 110
ATOM    110  S   UNL A   1      41.574  26.998  34.637  1.00  0.00     0.127 S 
ATOM    111  O   UNL A   1      41.163  26.608  35.990  1.00  0.00    -0.237 OA
ATOM    112  O   UNL A   1      40.460  27.196  33.700  1.00  0.00    -0.237 OA
ATOM    113  O   UNL A   1      42.690  26.262  34.081  1.00  0.00    -0.744 OA
ENDBRANCH 107 110
ENDBRANCH  80 103
ENDBRANCH  54  55
ENDBRANCH  46  49
ENDBRANCH  44  45
ENDBRANCH  43  44
ENDBRANCH  42  43
ENDBRANCH   1  42
TORSDOF 22
ENDMDL
MODEL 2
REMARK VINA RESULT:     -12.4      3.245      9.687
REMARK SMILES Cc1coc2cc3c(cc12)[C@@H](C)[C@H](CCC(=O)N[C@@H](Cc1c[nH]c2ccccc12)C(=O)NCCCCCCNC(=O)c1ccc(-c2c4nc(c(-c5cccc(S(=O)(=O)[O-])c5F)c5ccc([nH]5)c(-c5cccc(S(=O)(=O)[O-])c5F)c5nc(c(-c6cccc(S(=O)(=O)[O-])c6F)c6ccc2[nH]6)C=C5)C=C4)cc1)C(=O)O3
REMARK SMILES IDX 35 1 34 2 33 3 32 4 30 5 31 6 19 8 18 9 16 10 17 11 15 13
REMARK SMILES IDX 14 14 13 15 1 16 2 17 3 18 10 19 4 20 5 21 9 22 6 23 8 24
REMARK SMILES IDX 7 25 11 26 107 27 12 28 105 29 106 30 20 31 21 32 22 33
REMARK SMILES IDX 29 34 23 35 24 36 28 37 25 39 27 40 26 41 36 42 37 43 38 44
REMARK SMILES IDX 39 45 40 46 41 48 42 49 43 50 104 51 44 52 103 53 45 54
REMARK SMILES IDX 46 55 47 56 97 57 48 58 102 59 96 60 98 61 49 62 101 63
REMARK SMILES IDX 95 64 94 65 50 67 82 68 62 69 81 70 63 71 66 72 80 73 99 74
REMARK SMILES IDX 64 75 65 76 79 78 100 79 67 80 51 81 52 82 60 83 53 84 55 85
REMARK SMILES IDX 61 86 54 87 56 88 57 89 58 90 59 91 83 92 84 93 92 94 85 95
REMARK SMILES IDX 87 96 93 97 86 98 88 99 89 100 90 101 91 102 68 103 69 104
REMARK SMILES IDX 77 105 70 106 72 107 78 108 71 109 73 110 74 111 75 112
REMARK SMILES IDX 76 113
REMARK H PARENT 32 7 18 12 23 38 39 47 98 66 66 77
REMARK Flexibility Score: inf
ROOT
ATOM      1  C   UNL A   1      31.529  29.473  26.283  1.00  0.00     0.002 C 
ENDROOT
BRANCH   1   2
ATOM      2  C   UNL A   1      32.035  28.065  26.563  1.00  0.00     0.021 C 
BRANCH   2   3
ATOM      3  C   UNL A   1      32.692  27.355  25.392  1.00  0.00     0.116 C 
BRANCH   3   4
ATOM      4  N   UNL A   1      33.357  28.187  24.420  1.00  0.00    -0.354 N 
ATOM      5  C   UNL A   1      33.074  28.298  23.078  1.00  0.00     0.242 C 
ATOM      6  O   UNL A   1      33.828  29.011  22.405  1.00  0.00    -0.273 OA
ATOM      7  H   UNL A   1      34.100  28.739  24.754  1.00  0.00     0.163 HD
BRANCH   5   8
ATOM      8  C   UNL A   1      31.927  27.477  22.376  1.00  0.00     0.175 C 
BRANCH   8   9
ATOM      9  N   UNL A   1      32.514  26.316  21.633  1.00  0.00    -0.344 N 
ATOM     10  C   UNL A   1      33.163  25.139  21.940  1.00  0.00     0.220 C 
ATOM     11  O   UNL A   1      33.285  24.347  20.992  1.00  0.00    -0.275 OA
ATOM     12  H   UNL A   1      32.406  26.422  20.660  1.00  0.00     0.164 HD
BRANCH  10  13
ATOM     13  C   UNL A   1      33.785  24.713  23.314  1.00  0.00     0.101 C 
BRANCH  13  14
ATOM     14  C   UNL A   1      32.856  24.031  24.452  1.00  0.00     0.026 C 
BRANCH  14  15
ATOM     15  C   UNL A   1      33.569  23.617  25.812  1.00  0.00     0.107 C 
ATOM     16  C   UNL A   1      32.786  16.398  25.878  1.00  0.00     0.048 C 
ATOM     17  C   UNL A   1      32.609  17.447  24.850  1.00  0.00    -0.005 A 
ATOM     18  C   UNL A   1      32.433  17.231  23.496  1.00  0.00     0.199 A 
ATOM     19  C   UNL A   1      32.725  18.862  25.014  1.00  0.00     0.024 A 
ATOM     20  O   UNL A   1      32.581  18.384  22.803  1.00  0.00    -0.464 OA
ATOM     21  C   UNL A   1      32.883  19.338  23.717  1.00  0.00     0.137 A 
ATOM     22  C   UNL A   1      32.816  19.794  26.082  1.00  0.00     0.020 A 
ATOM     23  C   UNL A   1      33.422  20.573  23.420  1.00  0.00     0.095 A 
ATOM     24  C   UNL A   1      33.255  21.089  25.785  1.00  0.00    -0.001 A 
ATOM     25  C   UNL A   1      33.799  21.296  24.539  1.00  0.00     0.138 A 
ATOM     26  C   UNL A   1      33.264  22.311  26.671  1.00  0.00     0.034 C 
ATOM     27  O   UNL A   1      34.875  22.214  24.490  1.00  0.00    -0.426 OA
ATOM     28  C   UNL A   1      34.342  22.114  27.768  1.00  0.00     0.014 C 
ATOM     29  C   UNL A   1      34.919  23.325  25.335  1.00  0.00     0.314 C 
ATOM     30  O   UNL A   1      35.877  24.078  25.510  1.00  0.00    -0.251 OA
ENDBRANCH  14  15
ENDBRANCH  13  14
ENDBRANCH  10  13
ENDBRANCH   8   9
BRANCH   8  31
ATOM     31  C   UNL A   1      30.642  27.399  23.289  1.00  0.00     0.072 C 
BRANCH  31  32
ATOM     32  C   UNL A   1      29.372  28.270  23.332  1.00  0.00    -0.020 A 
ATOM     33  C   UNL A   1      28.131  27.663  23.154  1.00  0.00     0.087 A 
ATOM     34  C   UNL A   1      29.074  29.690  23.423  1.00  0.00     0.003 A 
ATOM     35  N   UNL A   1      27.154  28.611  23.060  1.00  0.00    -0.361 N 
ATOM     36  C   UNL A   1      27.704  29.859  23.189  1.00  0.00     0.046 A 
ATOM     37  C   UNL A   1      29.821  30.879  23.602  1.00  0.00     0.010 A 
ATOM     38  H   UNL A   1      26.198  28.425  22.921  1.00  0.00     0.166 HD
ATOM     39  C   UNL A   1      27.078  31.112  23.087  1.00  0.00     0.026 A 
ATOM     40  C   UNL A   1      29.216  32.141  23.515  1.00  0.00     0.001 A 
ATOM     41  C   UNL A   1      27.860  32.253  23.249  1.00  0.00     0.002 A 
ENDBRANCH  31  32
ENDBRANCH   8  31
ENDBRANCH   5   8
ENDBRANCH   3   4
ENDBRANCH   2   3
ENDBRANCH   1   2
BRANCH   1  42
ATOM     42  C   UNL A   1      32.172  30.630  27.064  1.00  0.00     0.002 C 
BRANCH  42  43
ATOM     43  C   UNL A   1      33.694  30.647  27.256  1.00  0.00     0.021 C 
BRANCH  43  44
ATOM     44  C   UNL A   1      34.332  31.947  27.736  1.00  0.00     0.116 C 
BRANCH  44  45
ATOM     45  N   UNL A   1      34.229  32.197  29.156  1.00  0.00    -0.352 N 
ATOM     46  C   UNL A   1      35.036  32.010  30.241  1.00  0.00     0.251 C 
ATOM     47  H   UNL A   1      33.367  32.603  29.401  1.00  0.00     0.163 HD
ATOM     48  O   UNL A   1      34.577  32.390  31.322  1.00  0.00    -0.269 OA
BRANCH  46  49
ATOM     49  C   UNL A   1      36.371  31.360  30.215  1.00  0.00     0.039 A 
ATOM     50  C   UNL A   1      37.598  32.023  30.270  1.00  0.00     0.014 A 
ATOM     51  C   UNL A   1      36.371  29.953  30.170  1.00  0.00     0.014 A 
ATOM     52  C   UNL A   1      38.792  31.305  30.204  1.00  0.00     0.010 A 
ATOM     53  C   UNL A   1      37.560  29.232  30.135  1.00  0.00     0.010 A 
ATOM     54  C   UNL A   1      38.776  29.910  30.115  1.00  0.00    -0.014 A 
BRANCH  54  55
ATOM     55  C   UNL A   1      40.058  29.204  30.064  1.00  0.00     0.031 A 
ATOM     56  C   UNL A   1      40.724  28.912  31.370  1.00  0.00     0.074 A 
ATOM     57  C   UNL A   1      40.587  28.699  28.930  1.00  0.00     0.049 A 
ATOM     58  N   UNL A   1      41.900  29.281  31.767  1.00  0.00    -0.248 NA
ATOM     59  C   UNL A   1      39.966  28.149  32.372  1.00  0.00     0.031 C 
ATOM     60  C   UNL A   1      39.953  28.592  27.614  1.00  0.00     0.029 A 
ATOM     61  N   UNL A   1      41.768  28.035  28.765  1.00  0.00    -0.354 N 
ATOM     62  C   UNL A   1      42.110  28.655  32.998  1.00  0.00     0.074 A 
ATOM     63  C   UNL A   1      40.850  28.062  33.368  1.00  0.00     0.031 C 
ATOM     64  C   UNL A   1      40.630  27.687  26.874  1.00  0.00     0.029 A 
ATOM     65  C   UNL A   1      41.812  27.270  27.607  1.00  0.00     0.049 A 
ATOM     66  H   UNL A   1      42.516  28.092  29.403  1.00  0.00     0.167 HD
ATOM     67  C   UNL A   1      43.345  28.533  33.560  1.00  0.00     0.034 A 
ATOM     68  C   UNL A   1      42.711  26.302  27.312  1.00  0.00     0.034 A 
ATOM     69  C   UNL A   1      44.315  29.391  32.937  1.00  0.00     0.049 A 
ATOM     70  C   UNL A   1      43.914  26.530  28.143  1.00  0.00     0.074 A 
ATOM     71  C   UNL A   1      44.459  30.752  32.763  1.00  0.00     0.029 A 
ATOM     72  N   UNL A   1      45.237  28.807  32.104  1.00  0.00    -0.354 N 
ATOM     73  N   UNL A   1      44.725  27.539  27.994  1.00  0.00    -0.248 NA
ATOM     74  C   UNL A   1      44.046  25.799  29.392  1.00  0.00     0.031 C 
ATOM     75  C   UNL A   1      45.112  30.895  31.505  1.00  0.00     0.029 A 
ATOM     76  C   UNL A   1      45.334  29.611  31.001  1.00  0.00     0.049 A 
ATOM     77  H   UNL A   1      45.731  27.972  32.269  1.00  0.00     0.167 HD
ATOM     78  C   UNL A   1      45.154  27.834  29.280  1.00  0.00     0.074 A 
ATOM     79  C   UNL A   1      44.820  26.651  30.068  1.00  0.00     0.031 C 
ATOM     80  C   UNL A   1      45.468  29.113  29.648  1.00  0.00     0.034 A 
BRANCH  67  81
ATOM     81  C   UNL A   1      43.783  27.449  34.518  1.00  0.00     0.023 A 
ATOM     82  C   UNL A   1      44.402  27.851  35.726  1.00  0.00     0.012 A 
ATOM     83  C   UNL A   1      43.859  26.079  34.187  1.00  0.00     0.148 A 
ATOM     84  C   UNL A   1      45.096  26.948  36.539  1.00  0.00     0.002 A 
ATOM     85  C   UNL A   1      44.480  25.170  35.040  1.00  0.00     0.091 A 
ATOM     86  F   UNL A   1      43.446  25.662  32.985  1.00  0.00    -0.205 F 
ATOM     87  C   UNL A   1      45.126  25.602  36.201  1.00  0.00     0.022 A 
BRANCH  85  88
ATOM     88  S   UNL A   1      44.482  23.409  34.685  1.00  0.00     0.127 S 
ATOM     89  O   UNL A   1      45.363  23.343  33.523  1.00  0.00    -0.237 OA
ATOM     90  O   UNL A   1      45.039  22.850  35.917  1.00  0.00    -0.237 OA
ATOM     91  O   UNL A   1      43.083  23.070  34.459  1.00  0.00    -0.744 OA
ENDBRANCH  85  88
ENDBRANCH  67  81
BRANCH  68  92
ATOM     92  C   UNL A   1      42.523  25.063  26.524  1.00  0.00     0.023 A 
ATOM     93  C   UNL A   1      43.438  24.743  25.502  1.00  0.00     0.012 A 
ATOM     94  C   UNL A   1      41.611  24.067  26.940  1.00  0.00     0.148 A 
ATOM     95  C   UNL A   1      43.463  23.465  24.933  1.00  0.00     0.002 A 
ATOM     96  C   UNL A   1      41.633  22.801  26.362  1.00  0.00     0.091 A 
ATOM     97  F   UNL A   1      40.790  24.326  27.966  1.00  0.00    -0.205 F 
ATOM     98  C   UNL A   1      42.566  22.493  25.365  1.00  0.00     0.022 A 
BRANCH  96  99
ATOM     99  S   UNL A   1      40.512  21.497  26.886  1.00  0.00     0.127 S 
ATOM    100  O   UNL A   1      40.779  21.425  28.324  1.00  0.00    -0.237 OA
ATOM    101  O   UNL A   1      39.211  22.056  26.531  1.00  0.00    -0.237 OA
ATOM    102  O   UNL A   1      40.918  20.307  26.147  1.00  0.00    -0.744 OA
ENDBRANCH  96  99
ENDBRANCH  68  92
BRANCH  80 103
ATOM    103  C   UNL A   1      45.609  30.166  28.574  1.00  0.00     0.023 A 
ATOM    104  C   UNL A   1      44.480  30.788  28.000  1.00  0.00     0.012 A 
ATOM    105  C   UNL A   1      46.884  30.694  28.299  1.00  0.00     0.148 A 
ATOM    106  C   UNL A   1      44.617  31.892  27.156  1.00  0.00     0.002 A 
ATOM    107  C   UNL A   1      47.012  31.830  27.505  1.00  0.00     0.091 A 
ATOM    108  F   UNL A   1      47.952  30.102  28.856  1.00  0.00    -0.205 F 
ATOM    109  C   UNL A   1      45.881  32.423  26.922  1.00  0.00     0.022 A 
BRANCH 107 110
ATOM    110  S   UNL A   1      48.590  32.665  27.305  1.00  0.00     0.127 S 
ATOM    111  O   UNL A   1      49.110  32.667  28.676  1.00  0.00    -0.237 OA
ATOM    112  O   UNL A   1      49.305  31.766  26.389  1.00  0.00    -0.237 OA
ATOM    113  O   UNL A   1      48.289  33.965  26.743  1.00  0.00    -0.744 OA
ENDBRANCH 107 110
ENDBRANCH  80 103
ENDBRANCH  54  55
ENDBRANCH  46  49
ENDBRANCH  44  45
ENDBRANCH  43  44
ENDBRANCH  42  43
ENDBRANCH   1  42
TORSDOF 22
ENDMDL
MODEL 3
REMARK VINA RESULT:     -12.0      3.532      9.605
REMARK SMILES Cc1coc2cc3c(cc12)[C@@H](C)[C@H](CCC(=O)N[C@@H](Cc1c[nH]c2ccccc12)C(=O)NCCCCCCNC(=O)c1ccc(-c2c4nc(c(-c5cccc(S(=O)(=O)[O-])c5F)c5ccc([nH]5)c(-c5cccc(S(=O)(=O)[O-])c5F)c5nc(c(-c6cccc(S(=O)(=O)[O-])c6F)c6ccc2[nH]6)C=C5)C=C4)cc1)C(=O)O3
REMARK SMILES IDX 35 1 34 2 33 3 32 4 30 5 31 6 19 8 18 9 16 10 17 11 15 13
REMARK SMILES IDX 14 14 13 15 1 16 2 17 3 18 10 19 4 20 5 21 9 22 6 23 8 24
REMARK SMILES IDX 7 25 11 26 107 27 12 28 105 29 106 30 20 31 21 32 22 33
REMARK SMILES IDX 29 34 23 35 24 36 28 37 25 39 27 40 26 41 36 42 37 43 38 44
REMARK SMILES IDX 39 45 40 46 41 48 42 49 43 50 104 51 44 52 103 53 45 54
REMARK SMILES IDX 46 55 47 56 97 57 48 58 102 59 96 60 98 61 49 62 101 63
REMARK SMILES IDX 95 64 94 65 50 67 82 68 62 69 81 70 63 71 66 72 80 73 99 74
REMARK SMILES IDX 64 75 65 76 79 78 100 79 67 80 51 81 52 82 60 83 53 84 55 85
REMARK SMILES IDX 61 86 54 87 56 88 57 89 58 90 59 91 83 92 84 93 92 94 85 95
REMARK SMILES IDX 87 96 93 97 86 98 88 99 89 100 90 101 91 102 68 103 69 104
REMARK SMILES IDX 77 105 70 106 72 107 78 108 71 109 73 110 74 111 75 112
REMARK SMILES IDX 76 113
REMARK H PARENT 32 7 18 12 23 38 39 47 98 66 66 77
REMARK Flexibility Score: inf
ROOT
ATOM      1  C   UNL A   1      31.847  29.211  25.730  1.00  0.00     0.002 C 
ENDROOT
BRANCH   1   2
ATOM      2  C   UNL A   1      31.965  27.738  26.096  1.00  0.00     0.021 C 
BRANCH   2   3
ATOM      3  C   UNL A   1      32.538  26.835  25.019  1.00  0.00     0.116 C 
BRANCH   3   4
ATOM      4  N   UNL A   1      33.338  27.467  23.999  1.00  0.00    -0.354 N 
ATOM      5  C   UNL A   1      33.161  27.406  22.636  1.00  0.00     0.242 C 
ATOM      6  O   UNL A   1      34.018  27.957  21.936  1.00  0.00    -0.273 OA
ATOM      7  H   UNL A   1      34.100  28.005  24.314  1.00  0.00     0.163 HD
BRANCH   5   8
ATOM      8  C   UNL A   1      32.001  26.580  21.962  1.00  0.00     0.175 C 
BRANCH   8   9
ATOM      9  N   UNL A   1      32.579  25.495  21.105  1.00  0.00    -0.344 N 
ATOM     10  C   UNL A   1      33.191  24.274  21.292  1.00  0.00     0.220 C 
ATOM     11  O   UNL A   1      33.320  23.592  20.263  1.00  0.00    -0.275 OA
ATOM     12  H   UNL A   1      32.500  25.714  20.148  1.00  0.00     0.164 HD
BRANCH  10  13
ATOM     13  C   UNL A   1      33.764  23.678  22.623  1.00  0.00     0.101 C 
BRANCH  13  14
ATOM     14  C   UNL A   1      32.761  23.171  23.788  1.00  0.00     0.026 C 
BRANCH  14  15
ATOM     15  C   UNL A   1      32.785  21.620  24.137  1.00  0.00     0.107 C 
ATOM     16  C   UNL A   1      39.656  20.571  26.239  1.00  0.00     0.048 C 
ATOM     17  C   UNL A   1      38.819  21.767  26.004  1.00  0.00    -0.005 A 
ATOM     18  C   UNL A   1      39.140  23.063  26.363  1.00  0.00     0.199 A 
ATOM     19  C   UNL A   1      37.480  21.815  25.503  1.00  0.00     0.024 A 
ATOM     20  O   UNL A   1      38.059  23.872  26.263  1.00  0.00    -0.464 OA
ATOM     21  C   UNL A   1      37.032  23.081  25.865  1.00  0.00     0.137 A 
ATOM     22  C   UNL A   1      36.557  20.933  24.883  1.00  0.00     0.020 A 
ATOM     23  C   UNL A   1      35.698  23.422  25.946  1.00  0.00     0.095 A 
ATOM     24  C   UNL A   1      35.210  21.311  24.854  1.00  0.00    -0.001 A 
ATOM     25  C   UNL A   1      34.841  22.378  25.638  1.00  0.00     0.138 A 
ATOM     26  C   UNL A   1      34.064  20.671  24.107  1.00  0.00     0.034 C 
ATOM     27  O   UNL A   1      33.558  22.285  26.229  1.00  0.00    -0.426 OA
ATOM     28  C   UNL A   1      33.747  19.306  24.770  1.00  0.00     0.014 C 
ATOM     29  C   UNL A   1      32.501  21.657  25.569  1.00  0.00     0.314 C 
ATOM     30  O   UNL A   1      31.408  21.356  26.051  1.00  0.00    -0.251 OA
ENDBRANCH  14  15
ENDBRANCH  13  14
ENDBRANCH  10  13
ENDBRANCH   8   9
BRANCH   8  31
ATOM     31  C   UNL A   1      30.788  26.388  22.954  1.00  0.00     0.072 C 
BRANCH  31  32
ATOM     32  C   UNL A   1      29.557  27.270  23.238  1.00  0.00    -0.020 A 
ATOM     33  C   UNL A   1      28.385  26.667  23.690  1.00  0.00     0.087 A 
ATOM     34  C   UNL A   1      29.205  28.670  23.065  1.00  0.00     0.003 A 
ATOM     35  N   UNL A   1      27.372  27.580  23.723  1.00  0.00    -0.361 N 
ATOM     36  C   UNL A   1      27.834  28.804  23.317  1.00  0.00     0.046 A 
ATOM     37  C   UNL A   1      29.874  29.845  22.646  1.00  0.00     0.010 A 
ATOM     38  H   UNL A   1      26.447  27.387  23.998  1.00  0.00     0.166 HD
ATOM     39  C   UNL A   1      27.121  29.999  23.136  1.00  0.00     0.026 A 
ATOM     40  C   UNL A   1      29.185  31.052  22.469  1.00  0.00     0.001 A 
ATOM     41  C   UNL A   1      27.820  31.123  22.702  1.00  0.00     0.002 A 
ENDBRANCH  31  32
ENDBRANCH   8  31
ENDBRANCH   5   8
ENDBRANCH   3   4
ENDBRANCH   2   3
ENDBRANCH   1   2
BRANCH   1  42
ATOM     42  C   UNL A   1      32.540  30.231  26.646  1.00  0.00     0.002 C 
BRANCH  42  43
ATOM     43  C   UNL A   1      33.924  29.901  27.222  1.00  0.00     0.021 C 
BRANCH  43  44
ATOM     44  C   UNL A   1      34.820  31.068  27.625  1.00  0.00     0.116 C 
BRANCH  44  45
ATOM     45  N   UNL A   1      34.621  31.563  28.968  1.00  0.00    -0.352 N 
ATOM     46  C   UNL A   1      35.377  31.641  30.102  1.00  0.00     0.251 C 
ATOM     47  H   UNL A   1      33.720  31.937  29.097  1.00  0.00     0.163 HD
ATOM     48  O   UNL A   1      34.833  32.174  31.073  1.00  0.00    -0.269 OA
BRANCH  46  49
ATOM     49  C   UNL A   1      36.754  31.106  30.252  1.00  0.00     0.039 A 
ATOM     50  C   UNL A   1      37.913  31.871  30.390  1.00  0.00     0.014 A 
ATOM     51  C   UNL A   1      36.868  29.703  30.295  1.00  0.00     0.014 A 
ATOM     52  C   UNL A   1      39.160  31.254  30.491  1.00  0.00     0.010 A 
ATOM     53  C   UNL A   1      38.107  29.084  30.426  1.00  0.00     0.010 A 
ATOM     54  C   UNL A   1      39.262  29.860  30.487  1.00  0.00    -0.014 A 
BRANCH  54  55
ATOM     55  C   UNL A   1      40.593  29.262  30.611  1.00  0.00     0.031 A 
ATOM     56  C   UNL A   1      41.275  29.394  31.935  1.00  0.00     0.074 A 
ATOM     57  C   UNL A   1      41.161  28.501  29.653  1.00  0.00     0.049 A 
ATOM     58  N   UNL A   1      42.420  29.944  32.192  1.00  0.00    -0.248 NA
ATOM     59  C   UNL A   1      40.575  28.888  33.123  1.00  0.00     0.031 C 
ATOM     60  C   UNL A   1      40.541  27.987  28.430  1.00  0.00     0.029 A 
ATOM     61  N   UNL A   1      42.389  27.904  29.657  1.00  0.00    -0.354 N 
ATOM     62  C   UNL A   1      42.673  29.702  33.544  1.00  0.00     0.074 A 
ATOM     63  C   UNL A   1      41.460  29.146  34.088  1.00  0.00     0.031 C 
ATOM     64  C   UNL A   1      41.285  26.962  27.959  1.00  0.00     0.029 A 
ATOM     65  C   UNL A   1      42.493  26.853  28.756  1.00  0.00     0.049 A 
ATOM     66  H   UNL A   1      43.129  28.192  30.240  1.00  0.00     0.167 HD
ATOM     67  C   UNL A   1      43.913  29.831  34.095  1.00  0.00     0.034 A 
ATOM     68  C   UNL A   1      43.463  25.909  28.726  1.00  0.00     0.034 A 
ATOM     69  C   UNL A   1      44.817  30.549  33.240  1.00  0.00     0.049 A 
ATOM     70  C   UNL A   1      44.643  26.446  29.439  1.00  0.00     0.074 A 
ATOM     71  C   UNL A   1      44.860  31.815  32.692  1.00  0.00     0.029 A 
ATOM     72  N   UNL A   1      45.782  29.825  32.586  1.00  0.00    -0.354 N 
ATOM     73  N   UNL A   1      45.377  27.429  29.000  1.00  0.00    -0.248 NA
ATOM     74  C   UNL A   1      44.826  26.103  30.839  1.00  0.00     0.031 C 
ATOM     75  C   UNL A   1      45.503  31.649  31.433  1.00  0.00     0.029 A 
ATOM     76  C   UNL A   1      45.821  30.295  31.302  1.00  0.00     0.049 A 
ATOM     77  H   UNL A   1      46.337  29.108  32.967  1.00  0.00     0.167 HD
ATOM     78  C   UNL A   1      45.779  28.101  30.146  1.00  0.00     0.074 A 
ATOM     79  C   UNL A   1      45.532  27.163  31.237  1.00  0.00     0.031 C 
ATOM     80  C   UNL A   1      45.996  29.451  30.138  1.00  0.00     0.034 A 
BRANCH  67  81
ATOM     81  C   UNL A   1      44.428  29.092  35.308  1.00  0.00     0.023 A 
ATOM     82  C   UNL A   1      44.183  27.699  35.382  1.00  0.00     0.012 A 
ATOM     83  C   UNL A   1      44.898  29.721  36.482  1.00  0.00     0.148 A 
ATOM     84  C   UNL A   1      44.354  26.980  36.570  1.00  0.00     0.002 A 
ATOM     85  C   UNL A   1      45.144  28.985  37.638  1.00  0.00     0.091 A 
ATOM     86  F   UNL A   1      44.987  31.054  36.531  1.00  0.00    -0.205 F 
ATOM     87  C   UNL A   1      44.846  27.621  37.698  1.00  0.00     0.022 A 
BRANCH  85  88
ATOM     88  S   UNL A   1      45.850  29.754  39.100  1.00  0.00     0.127 S 
ATOM     89  O   UNL A   1      45.969  28.614  40.004  1.00  0.00    -0.237 OA
ATOM     90  O   UNL A   1      47.119  30.273  38.589  1.00  0.00    -0.237 OA
ATOM     91  O   UNL A   1      44.895  30.788  39.479  1.00  0.00    -0.744 OA
ENDBRANCH  85  88
ENDBRANCH  67  81
BRANCH  68  92
ATOM     92  C   UNL A   1      43.369  24.489  28.317  1.00  0.00     0.023 A 
ATOM     93  C   UNL A   1      42.364  23.671  28.869  1.00  0.00     0.012 A 
ATOM     94  C   UNL A   1      44.086  24.004  27.200  1.00  0.00     0.148 A 
ATOM     95  C   UNL A   1      42.063  22.424  28.310  1.00  0.00     0.002 A 
ATOM     96  C   UNL A   1      43.790  22.758  26.655  1.00  0.00     0.091 A 
ATOM     97  F   UNL A   1      44.987  24.802  26.611  1.00  0.00    -0.205 F 
ATOM     98  C   UNL A   1      42.771  21.969  27.201  1.00  0.00     0.022 A 
BRANCH  96  99
ATOM     99  S   UNL A   1      44.656  22.121  25.214  1.00  0.00     0.127 S 
ATOM    100  O   UNL A   1      46.004  21.898  25.741  1.00  0.00    -0.237 OA
ATOM    101  O   UNL A   1      43.903  20.905  24.923  1.00  0.00    -0.237 OA
ATOM    102  O   UNL A   1      44.579  23.175  24.210  1.00  0.00    -0.744 OA
ENDBRANCH  96  99
ENDBRANCH  68  92
BRANCH  80 103
ATOM    103  C   UNL A   1      46.060  30.171  28.811  1.00  0.00     0.023 A 
ATOM    104  C   UNL A   1      44.894  30.450  28.067  1.00  0.00     0.012 A 
ATOM    105  C   UNL A   1      47.273  30.767  28.416  1.00  0.00     0.148 A 
ATOM    106  C   UNL A   1      44.937  31.282  26.946  1.00  0.00     0.002 A 
ATOM    107  C   UNL A   1      47.299  31.642  27.334  1.00  0.00     0.091 A 
ATOM    108  F   UNL A   1      48.375  30.504  29.134  1.00  0.00    -0.205 F 
ATOM    109  C   UNL A   1      46.136  31.891  26.590  1.00  0.00     0.022 A 
BRANCH 107 110
ATOM    110  S   UNL A   1      48.769  32.592  26.929  1.00  0.00     0.127 S 
ATOM    111  O   UNL A   1      49.708  31.541  26.520  1.00  0.00    -0.237 OA
ATOM    112  O   UNL A   1      48.298  33.442  25.828  1.00  0.00    -0.237 OA
ATOM    113  O   UNL A   1      49.122  33.320  28.129  1.00  0.00    -0.744 OA
ENDBRANCH 107 110
ENDBRANCH  80 103
ENDBRANCH  54  55
ENDBRANCH  46  49
ENDBRANCH  44  45
ENDBRANCH  43  44
ENDBRANCH  42  43
ENDBRANCH   1  42
TORSDOF 22
ENDMDL
