MODEL 1
REMARK VINA RESULT:     -11.1      0.000      0.000
REMARK SMILES O=C(N[C@@H]1C=C[C@@H](C(=O)NCCCCCCNC(=O)c2ccc(-c3c4nc(c(-c5cccc(S(=O)(=O)[O-])c5F)c5ccc([nH]5)c(-c5cccc(S(=O)(=O)[O-])c5F)c5nc(c(-c6cccc(S(=O)(=O)[O-])c6F)c6ccc3[nH]6)C=C5)C=C4)cc2)C1)Oc1ccccc1
REMARK SMILES IDX 13 1 12 2 11 3 10 4 8 5 9 6 7 8 4 9 5 10 83 11 6 12 3 13
REMARK SMILES IDX 1 14 2 15 84 17 85 18 86 19 90 20 87 21 89 22 88 23 14 24
REMARK SMILES IDX 15 25 16 26 17 27 18 28 19 30 20 31 21 32 82 33 22 34 81 35
REMARK SMILES IDX 23 36 24 37 25 38 75 39 26 40 80 41 74 42 76 43 27 44 79 45
REMARK SMILES IDX 73 46 72 47 28 49 60 50 40 51 59 52 41 53 44 54 58 55 77 56
REMARK SMILES IDX 42 57 43 58 57 60 78 61 45 62 29 63 30 64 38 65 31 66 33 67
REMARK SMILES IDX 39 68 32 69 34 70 35 71 36 72 37 73 61 74 62 75 70 76 63 77
REMARK SMILES IDX 65 78 71 79 64 80 66 81 67 82 68 83 69 84 46 85 47 86 55 87
REMARK SMILES IDX 48 88 50 89 56 90 49 91 51 92 52 93 53 94 54 95
REMARK H PARENT 10 7 3 16 17 29 76 48 44 59
REMARK Flexibility Score: inf
ROOT
ATOM      1  C   UNL A   1      30.828  28.274  24.737  1.00  0.00     0.002 C 
ENDROOT
BRANCH   1   2
ATOM      2  C   UNL A   1      30.172  27.797  23.435  1.00  0.00     0.021 C 
BRANCH   2   3
ATOM      3  C   UNL A   1      30.581  26.392  22.993  1.00  0.00     0.116 C 
BRANCH   3   4
ATOM      4  N   UNL A   1      31.850  26.406  22.290  1.00  0.00    -0.356 N 
ATOM      5  C   UNL A   1      33.016  25.741  22.493  1.00  0.00     0.227 C 
ATOM      6  O   UNL A   1      33.921  25.957  21.676  1.00  0.00    -0.274 OA
ATOM      7  H   UNL A   1      31.869  27.015  21.517  1.00  0.00     0.163 HD
BRANCH   5   8
ATOM      8  C   UNL A   1      33.254  24.741  23.631  1.00  0.00     0.103 C 
ATOM      9  C   UNL A   1      31.604  23.813  25.210  1.00  0.00     0.109 C 
ATOM     10  C   UNL A   1      31.994  22.835  24.149  1.00  0.00    -0.006 C 
ATOM     11  C   UNL A   1      32.543  25.009  24.963  1.00  0.00     0.047 C 
ATOM     12  C   UNL A   1      32.869  23.342  23.277  1.00  0.00    -0.016 C 
BRANCH   9  13
ATOM     13  N   UNL A   1      31.790  23.176  26.487  1.00  0.00    -0.315 N 
ATOM     14  O   UNL A   1      32.792  22.347  28.303  1.00  0.00    -0.224 OA
ATOM     15  C   UNL A   1      32.903  22.999  27.266  1.00  0.00     0.413 C 
ATOM     16  H   UNL A   1      30.965  22.800  26.873  1.00  0.00     0.167 HD
BRANCH  15  17
ATOM     17  O   UNL A   1      34.162  23.488  26.869  1.00  0.00    -0.410 OA
BRANCH  17  18
ATOM     18  C   UNL A   1      35.173  22.860  26.103  1.00  0.00     0.132 A 
ATOM     19  C   UNL A   1      35.062  21.486  25.901  1.00  0.00     0.047 A 
ATOM     20  C   UNL A   1      36.234  23.592  25.581  1.00  0.00     0.047 A 
ATOM     21  C   UNL A   1      35.995  20.845  25.088  1.00  0.00     0.004 A 
ATOM     22  C   UNL A   1      37.150  22.949  24.748  1.00  0.00     0.004 A 
ATOM     23  C   UNL A   1      37.026  21.579  24.496  1.00  0.00     0.000 A 
ENDBRANCH  17  18
ENDBRANCH  15  17
ENDBRANCH   9  13
ENDBRANCH   5   8
ENDBRANCH   3   4
ENDBRANCH   2   3
ENDBRANCH   1   2
BRANCH   1  24
ATOM     24  C   UNL A   1      31.988  29.263  24.570  1.00  0.00     0.002 C 
BRANCH  24  25
ATOM     25  C   UNL A   1      33.390  28.689  24.793  1.00  0.00     0.021 C 
BRANCH  25  26
ATOM     26  C   UNL A   1      33.933  28.826  26.214  1.00  0.00     0.116 C 
BRANCH  26  27
ATOM     27  N   UNL A   1      33.822  30.185  26.718  1.00  0.00    -0.352 N 
ATOM     28  C   UNL A   1      34.604  30.849  27.632  1.00  0.00     0.251 C 
ATOM     29  H   UNL A   1      33.074  30.708  26.349  1.00  0.00     0.163 HD
ATOM     30  O   UNL A   1      34.235  31.937  28.066  1.00  0.00    -0.269 OA
BRANCH  28  31
ATOM     31  C   UNL A   1      35.875  30.256  28.109  1.00  0.00     0.039 A 
ATOM     32  C   UNL A   1      37.008  30.345  27.295  1.00  0.00     0.014 A 
ATOM     33  C   UNL A   1      35.950  29.588  29.335  1.00  0.00     0.014 A 
ATOM     34  C   UNL A   1      38.224  29.812  27.733  1.00  0.00     0.010 A 
ATOM     35  C   UNL A   1      37.179  29.118  29.799  1.00  0.00     0.010 A 
ATOM     36  C   UNL A   1      38.329  29.218  29.002  1.00  0.00    -0.014 A 
BRANCH  36  37
ATOM     37  C   UNL A   1      39.632  28.709  29.510  1.00  0.00     0.031 A 
ATOM     38  C   UNL A   1      40.349  29.423  30.627  1.00  0.00     0.074 A 
ATOM     39  C   UNL A   1      40.213  27.650  28.912  1.00  0.00     0.049 A 
ATOM     40  N   UNL A   1      41.514  29.159  31.159  1.00  0.00    -0.248 NA
ATOM     41  C   UNL A   1      39.682  30.601  31.206  1.00  0.00     0.031 C 
ATOM     42  C   UNL A   1      39.662  26.917  27.769  1.00  0.00     0.029 A 
ATOM     43  N   UNL A   1      41.411  27.025  29.157  1.00  0.00    -0.354 N 
ATOM     44  C   UNL A   1      41.740  30.155  32.102  1.00  0.00     0.074 A 
ATOM     45  C   UNL A   1      40.600  31.045  32.054  1.00  0.00     0.031 C 
ATOM     46  C   UNL A   1      40.522  25.949  27.411  1.00  0.00     0.029 A 
ATOM     47  C   UNL A   1      41.695  26.006  28.276  1.00  0.00     0.049 A 
ATOM     48  H   UNL A   1      42.010  27.280  29.896  1.00  0.00     0.167 HD
ATOM     49  C   UNL A   1      42.788  30.303  32.947  1.00  0.00     0.034 A 
ATOM     50  C   UNL A   1      42.782  25.217  28.166  1.00  0.00     0.034 A 
ATOM     51  C   UNL A   1      43.895  29.390  33.030  1.00  0.00     0.049 A 
ATOM     52  C   UNL A   1      43.908  25.375  29.154  1.00  0.00     0.074 A 
ATOM     53  C   UNL A   1      44.950  29.400  33.927  1.00  0.00     0.029 A 
ATOM     54  N   UNL A   1      44.098  28.310  32.187  1.00  0.00    -0.354 N 
ATOM     55  N   UNL A   1      44.017  26.217  30.152  1.00  0.00    -0.248 NA
ATOM     56  C   UNL A   1      45.042  24.446  29.027  1.00  0.00     0.031 C 
ATOM     57  C   UNL A   1      45.806  28.341  33.608  1.00  0.00     0.029 A 
ATOM     58  C   UNL A   1      45.268  27.654  32.533  1.00  0.00     0.049 A 
ATOM     59  H   UNL A   1      43.500  28.048  31.450  1.00  0.00     0.167 HD
ATOM     60  C   UNL A   1      45.209  25.896  30.793  1.00  0.00     0.074 A 
ATOM     61  C   UNL A   1      45.774  24.767  30.084  1.00  0.00     0.031 C 
ATOM     62  C   UNL A   1      45.790  26.493  31.862  1.00  0.00     0.034 A 
BRANCH  49  63
ATOM     63  C   UNL A   1      42.772  31.472  33.897  1.00  0.00     0.023 A 
ATOM     64  C   UNL A   1      43.260  32.723  33.470  1.00  0.00     0.012 A 
ATOM     65  C   UNL A   1      42.184  31.358  35.173  1.00  0.00     0.148 A 
ATOM     66  C   UNL A   1      43.187  33.837  34.306  1.00  0.00     0.002 A 
ATOM     67  C   UNL A   1      42.075  32.482  35.983  1.00  0.00     0.091 A 
ATOM     68  F   UNL A   1      41.740  30.156  35.567  1.00  0.00    -0.205 F 
ATOM     69  C   UNL A   1      42.584  33.719  35.555  1.00  0.00     0.022 A 
BRANCH  67  70
ATOM     70  S   UNL A   1      41.243  32.457  37.575  1.00  0.00     0.127 S 
ATOM     71  O   UNL A   1      41.252  33.874  37.934  1.00  0.00    -0.237 OA
ATOM     72  O   UNL A   1      39.926  31.925  37.225  1.00  0.00    -0.237 OA
ATOM     73  O   UNL A   1      42.041  31.592  38.434  1.00  0.00    -0.744 OA
ENDBRANCH  67  70
ENDBRANCH  49  63
BRANCH  50  74
ATOM     74  C   UNL A   1      42.843  24.168  27.107  1.00  0.00     0.023 A 
ATOM     75  C   UNL A   1      43.564  24.417  25.923  1.00  0.00     0.012 A 
ATOM     76  C   UNL A   1      42.199  22.927  27.269  1.00  0.00     0.148 A 
ATOM     77  C   UNL A   1      43.606  23.467  24.902  1.00  0.00     0.002 A 
ATOM     78  C   UNL A   1      42.293  21.961  26.274  1.00  0.00     0.091 A 
ATOM     79  F   UNL A   1      41.505  22.711  28.395  1.00  0.00    -0.205 F 
ATOM     80  C   UNL A   1      42.979  22.236  25.080  1.00  0.00     0.022 A 
BRANCH  78  81
ATOM     81  S   UNL A   1      41.636  20.303  26.483  1.00  0.00     0.127 S 
ATOM     82  O   UNL A   1      42.220  19.602  25.344  1.00  0.00    -0.237 OA
ATOM     83  O   UNL A   1      42.179  19.921  27.788  1.00  0.00    -0.237 OA
ATOM     84  O   UNL A   1      40.186  20.454  26.465  1.00  0.00    -0.744 OA
ENDBRANCH  78  81
ENDBRANCH  50  74
BRANCH  62  85
ATOM     85  C   UNL A   1      47.086  25.917  32.371  1.00  0.00     0.023 A 
ATOM     86  C   UNL A   1      48.313  26.380  31.855  1.00  0.00     0.012 A 
ATOM     87  C   UNL A   1      47.087  24.973  33.418  1.00  0.00     0.148 A 
ATOM     88  C   UNL A   1      49.520  25.888  32.349  1.00  0.00     0.002 A 
ATOM     89  C   UNL A   1      48.295  24.525  33.940  1.00  0.00     0.091 A 
ATOM     90  F   UNL A   1      45.910  24.532  33.883  1.00  0.00    -0.205 F 
ATOM     91  C   UNL A   1      49.511  24.972  33.399  1.00  0.00     0.022 A 
BRANCH  89  92
ATOM     92  S   UNL A   1      48.380  23.422  35.354  1.00  0.00     0.127 S 
ATOM     93  O   UNL A   1      47.548  24.122  36.331  1.00  0.00    -0.237 OA
ATOM     94  O   UNL A   1      47.793  22.191  34.824  1.00  0.00    -0.237 OA
ATOM     95  O   UNL A   1      49.792  23.316  35.697  1.00  0.00    -0.744 OA
ENDBRANCH  89  92
ENDBRANCH  62  85
ENDBRANCH  36  37
ENDBRANCH  28  31
ENDBRANCH  26  27
ENDBRANCH  25  26
ENDBRANCH  24  25
ENDBRANCH   1  24
TORSDOF 19
ENDMDL
MODEL 2
REMARK VINA RESULT:     -10.9      2.526      7.931
REMARK SMILES O=C(N[C@@H]1C=C[C@@H](C(=O)NCCCCCCNC(=O)c2ccc(-c3c4nc(c(-c5cccc(S(=O)(=O)[O-])c5F)c5ccc([nH]5)c(-c5cccc(S(=O)(=O)[O-])c5F)c5nc(c(-c6cccc(S(=O)(=O)[O-])c6F)c6ccc3[nH]6)C=C5)C=C4)cc2)C1)Oc1ccccc1
REMARK SMILES IDX 13 1 12 2 11 3 10 4 8 5 9 6 7 8 4 9 5 10 83 11 6 12 3 13
REMARK SMILES IDX 1 14 2 15 84 17 85 18 86 19 90 20 87 21 89 22 88 23 14 24
REMARK SMILES IDX 15 25 16 26 17 27 18 28 19 30 20 31 21 32 82 33 22 34 81 35
REMARK SMILES IDX 23 36 24 37 25 38 75 39 26 40 80 41 74 42 76 43 27 44 79 45
REMARK SMILES IDX 73 46 72 47 28 49 60 50 40 51 59 52 41 53 44 54 58 55 77 56
REMARK SMILES IDX 42 57 43 58 57 60 78 61 45 62 29 63 30 64 38 65 31 66 33 67
REMARK SMILES IDX 39 68 32 69 34 70 35 71 36 72 37 73 61 74 62 75 70 76 63 77
REMARK SMILES IDX 65 78 71 79 64 80 66 81 67 82 68 83 69 84 46 85 47 86 55 87
REMARK SMILES IDX 48 88 50 89 56 90 49 91 51 92 52 93 53 94 54 95
REMARK H PARENT 10 7 3 16 17 29 76 48 44 59
REMARK Flexibility Score: inf
ROOT
ATOM      1  C   UNL A   1      33.280  27.575  26.414  1.00  0.00     0.002 C 
ENDROOT
BRANCH   1   2
ATOM      2  C   UNL A   1      32.880  26.363  25.565  1.00  0.00     0.021 C 
BRANCH   2   3
ATOM      3  C   UNL A   1      34.017  25.759  24.741  1.00  0.00     0.116 C 
BRANCH   3   4
ATOM      4  N   UNL A   1      33.894  26.101  23.337  1.00  0.00    -0.356 N 
ATOM      5  C   UNL A   1      33.297  25.475  22.290  1.00  0.00     0.227 C 
ATOM      6  O   UNL A   1      33.343  26.059  21.201  1.00  0.00    -0.274 OA
ATOM      7  H   UNL A   1      34.325  26.952  23.096  1.00  0.00     0.163 HD
BRANCH   5   8
ATOM      8  C   UNL A   1      32.562  24.132  22.393  1.00  0.00     0.103 C 
ATOM      9  C   UNL A   1      32.403  22.629  24.340  1.00  0.00     0.109 C 
ATOM     10  C   UNL A   1      31.145  23.403  24.110  1.00  0.00    -0.006 C 
ATOM     11  C   UNL A   1      33.279  22.992  23.126  1.00  0.00     0.047 C 
ATOM     12  C   UNL A   1      31.235  24.236  23.070  1.00  0.00    -0.016 C 
BRANCH   9  13
ATOM     13  N   UNL A   1      32.056  21.235  24.418  1.00  0.00    -0.315 N 
ATOM     14  O   UNL A   1      32.136  19.070  24.964  1.00  0.00    -0.224 OA
ATOM     15  C   UNL A   1      32.591  20.199  25.140  1.00  0.00     0.413 C 
ATOM     16  H   UNL A   1      31.294  20.978  23.849  1.00  0.00     0.167 HD
BRANCH  15  17
ATOM     17  O   UNL A   1      33.676  20.398  26.014  1.00  0.00    -0.410 OA
BRANCH  17  18
ATOM     18  C   UNL A   1      34.852  21.164  25.832  1.00  0.00     0.132 A 
ATOM     19  C   UNL A   1      35.849  20.623  25.023  1.00  0.00     0.047 A 
ATOM     20  C   UNL A   1      35.000  22.405  26.443  1.00  0.00     0.047 A 
ATOM     21  C   UNL A   1      36.989  21.381  24.758  1.00  0.00     0.004 A 
ATOM     22  C   UNL A   1      36.132  23.167  26.153  1.00  0.00     0.004 A 
ATOM     23  C   UNL A   1      37.120  22.659  25.306  1.00  0.00     0.000 A 
ENDBRANCH  17  18
ENDBRANCH  15  17
ENDBRANCH   9  13
ENDBRANCH   5   8
ENDBRANCH   3   4
ENDBRANCH   2   3
ENDBRANCH   1   2
BRANCH   1  24
ATOM     24  C   UNL A   1      33.693  28.826  25.628  1.00  0.00     0.002 C 
BRANCH  24  25
ATOM     25  C   UNL A   1      32.591  29.864  25.401  1.00  0.00     0.021 C 
BRANCH  25  26
ATOM     26  C   UNL A   1      31.929  30.402  26.668  1.00  0.00     0.116 C 
BRANCH  26  27
ATOM     27  N   UNL A   1      31.885  31.855  26.692  1.00  0.00    -0.352 N 
ATOM     28  C   UNL A   1      32.719  32.748  27.321  1.00  0.00     0.251 C 
ATOM     29  H   UNL A   1      31.148  32.260  26.181  1.00  0.00     0.163 HD
ATOM     30  O   UNL A   1      32.406  33.935  27.373  1.00  0.00    -0.269 OA
BRANCH  28  31
ATOM     31  C   UNL A   1      33.979  32.289  27.950  1.00  0.00     0.039 A 
ATOM     32  C   UNL A   1      35.056  33.176  28.028  1.00  0.00     0.014 A 
ATOM     33  C   UNL A   1      34.117  30.984  28.434  1.00  0.00     0.014 A 
ATOM     34  C   UNL A   1      36.249  32.774  28.637  1.00  0.00     0.010 A 
ATOM     35  C   UNL A   1      35.283  30.607  29.101  1.00  0.00     0.010 A 
ATOM     36  C   UNL A   1      36.365  31.494  29.205  1.00  0.00    -0.014 A 
BRANCH  36  37
ATOM     37  C   UNL A   1      37.603  31.075  29.917  1.00  0.00     0.031 A 
ATOM     38  C   UNL A   1      38.593  30.155  29.253  1.00  0.00     0.074 A 
ATOM     39  C   UNL A   1      37.797  31.457  31.197  1.00  0.00     0.049 A 
ATOM     40  N   UNL A   1      39.694  29.641  29.737  1.00  0.00    -0.248 NA
ATOM     41  C   UNL A   1      38.298  29.738  27.872  1.00  0.00     0.031 C 
ATOM     42  C   UNL A   1      36.877  32.282  31.983  1.00  0.00     0.029 A 
ATOM     43  N   UNL A   1      38.816  31.173  32.073  1.00  0.00    -0.354 N 
ATOM     44  C   UNL A   1      40.200  28.811  28.744  1.00  0.00     0.074 A 
ATOM     45  C   UNL A   1      39.274  28.872  27.634  1.00  0.00     0.031 C 
ATOM     46  C   UNL A   1      37.370  32.431  33.223  1.00  0.00     0.029 A 
ATOM     47  C   UNL A   1      38.624  31.694  33.333  1.00  0.00     0.049 A 
ATOM     48  H   UNL A   1      39.611  30.647  31.823  1.00  0.00     0.167 HD
ATOM     49  C   UNL A   1      41.343  28.085  28.744  1.00  0.00     0.034 A 
ATOM     50  C   UNL A   1      39.364  31.579  34.453  1.00  0.00     0.034 A 
ATOM     51  C   UNL A   1      42.289  28.066  29.826  1.00  0.00     0.049 A 
ATOM     52  C   UNL A   1      40.655  30.806  34.405  1.00  0.00     0.074 A 
ATOM     53  C   UNL A   1      43.525  27.443  29.874  1.00  0.00     0.029 A 
ATOM     54  N   UNL A   1      42.108  28.689  31.050  1.00  0.00    -0.354 N 
ATOM     55  N   UNL A   1      41.200  30.173  33.396  1.00  0.00    -0.248 NA
ATOM     56  C   UNL A   1      41.455  30.765  35.640  1.00  0.00     0.031 C 
ATOM     57  C   UNL A   1      44.079  27.667  31.139  1.00  0.00     0.029 A 
ATOM     58  C   UNL A   1      43.202  28.455  31.866  1.00  0.00     0.049 A 
ATOM     59  H   UNL A   1      41.317  29.219  31.303  1.00  0.00     0.167 HD
ATOM     60  C   UNL A   1      42.420  29.693  33.860  1.00  0.00     0.074 A 
ATOM     61  C   UNL A   1      42.544  30.129  35.235  1.00  0.00     0.031 C 
ATOM     62  C   UNL A   1      43.345  28.945  33.212  1.00  0.00     0.034 A 
BRANCH  49  63
ATOM     63  C   UNL A   1      41.672  27.281  27.512  1.00  0.00     0.023 A 
ATOM     64  C   UNL A   1      42.183  27.932  26.372  1.00  0.00     0.012 A 
ATOM     65  C   UNL A   1      41.571  25.876  27.519  1.00  0.00     0.148 A 
ATOM     66  C   UNL A   1      42.565  27.202  25.248  1.00  0.00     0.002 A 
ATOM     67  C   UNL A   1      41.994  25.150  26.412  1.00  0.00     0.091 A 
ATOM     68  F   UNL A   1      41.067  25.276  28.607  1.00  0.00    -0.205 F 
ATOM     69  C   UNL A   1      42.482  25.812  25.273  1.00  0.00     0.022 A 
BRANCH  67  70
ATOM     70  S   UNL A   1      42.007  23.355  26.372  1.00  0.00     0.127 S 
ATOM     71  O   UNL A   1      40.584  23.047  26.499  1.00  0.00    -0.237 OA
ATOM     72  O   UNL A   1      42.574  23.081  25.051  1.00  0.00    -0.237 OA
ATOM     73  O   UNL A   1      42.838  22.932  27.491  1.00  0.00    -0.744 OA
ENDBRANCH  67  70
ENDBRANCH  49  63
BRANCH  50  74
ATOM     74  C   UNL A   1      38.930  32.254  35.711  1.00  0.00     0.023 A 
ATOM     75  C   UNL A   1      39.191  33.626  35.889  1.00  0.00     0.012 A 
ATOM     76  C   UNL A   1      38.256  31.548  36.725  1.00  0.00     0.148 A 
ATOM     77  C   UNL A   1      38.829  34.272  37.071  1.00  0.00     0.002 A 
ATOM     78  C   UNL A   1      37.844  32.210  37.876  1.00  0.00     0.091 A 
ATOM     79  F   UNL A   1      38.028  30.239  36.547  1.00  0.00    -0.205 F 
ATOM     80  C   UNL A   1      38.148  33.568  38.061  1.00  0.00     0.022 A 
BRANCH  78  81
ATOM     81  S   UNL A   1      36.841  31.411  39.133  1.00  0.00     0.127 S 
ATOM     82  O   UNL A   1      37.764  31.357  40.264  1.00  0.00    -0.237 OA
ATOM     83  O   UNL A   1      35.733  32.356  39.286  1.00  0.00    -0.237 OA
ATOM     84  O   UNL A   1      36.453  30.128  38.563  1.00  0.00    -0.744 OA
ENDBRANCH  78  81
ENDBRANCH  50  74
BRANCH  62  85
ATOM     85  C   UNL A   1      44.604  28.582  33.955  1.00  0.00     0.023 A 
ATOM     86  C   UNL A   1      45.712  29.452  33.931  1.00  0.00     0.012 A 
ATOM     87  C   UNL A   1      44.658  27.414  34.743  1.00  0.00     0.148 A 
ATOM     88  C   UNL A   1      46.866  29.150  34.652  1.00  0.00     0.002 A 
ATOM     89  C   UNL A   1      45.793  27.145  35.499  1.00  0.00     0.091 A 
ATOM     90  F   UNL A   1      43.601  26.590  34.739  1.00  0.00    -0.205 F 
ATOM     91  C   UNL A   1      46.902  28.005  35.445  1.00  0.00     0.022 A 
BRANCH  89  92
ATOM     92  S   UNL A   1      45.891  25.748  36.623  1.00  0.00     0.127 S 
ATOM     93  O   UNL A   1      47.197  25.956  37.246  1.00  0.00    -0.237 OA
ATOM     94  O   UNL A   1      44.749  25.980  37.508  1.00  0.00    -0.237 OA
ATOM     95  O   UNL A   1      45.777  24.556  35.793  1.00  0.00    -0.744 OA
ENDBRANCH  89  92
ENDBRANCH  62  85
ENDBRANCH  36  37
ENDBRANCH  28  31
ENDBRANCH  26  27
ENDBRANCH  25  26
ENDBRANCH  24  25
ENDBRANCH   1  24
TORSDOF 19
ENDMDL
MODEL 3
REMARK VINA RESULT:     -10.8      4.862      9.863
REMARK SMILES O=C(N[C@@H]1C=C[C@@H](C(=O)NCCCCCCNC(=O)c2ccc(-c3c4nc(c(-c5cccc(S(=O)(=O)[O-])c5F)c5ccc([nH]5)c(-c5cccc(S(=O)(=O)[O-])c5F)c5nc(c(-c6cccc(S(=O)(=O)[O-])c6F)c6ccc3[nH]6)C=C5)C=C4)cc2)C1)Oc1ccccc1
REMARK SMILES IDX 13 1 12 2 11 3 10 4 8 5 9 6 7 8 4 9 5 10 83 11 6 12 3 13
REMARK SMILES IDX 1 14 2 15 84 17 85 18 86 19 90 20 87 21 89 22 88 23 14 24
REMARK SMILES IDX 15 25 16 26 17 27 18 28 19 30 20 31 21 32 82 33 22 34 81 35
REMARK SMILES IDX 23 36 24 37 25 38 75 39 26 40 80 41 74 42 76 43 27 44 79 45
REMARK SMILES IDX 73 46 72 47 28 49 60 50 40 51 59 52 41 53 44 54 58 55 77 56
REMARK SMILES IDX 42 57 43 58 57 60 78 61 45 62 29 63 30 64 38 65 31 66 33 67
REMARK SMILES IDX 39 68 32 69 34 70 35 71 36 72 37 73 61 74 62 75 70 76 63 77
REMARK SMILES IDX 65 78 71 79 64 80 66 81 67 82 68 83 69 84 46 85 47 86 55 87
REMARK SMILES IDX 48 88 50 89 56 90 49 91 51 92 52 93 53 94 54 95
REMARK H PARENT 10 7 3 16 17 29 76 48 44 59
REMARK Flexibility Score: inf
ROOT
ATOM      1  C   UNL A   1      35.569  23.605  25.037  1.00  0.00     0.002 C 
ENDROOT
BRANCH   1   2
ATOM      2  C   UNL A   1      34.468  24.625  24.725  1.00  0.00     0.021 C 
BRANCH   2   3
ATOM      3  C   UNL A   1      33.782  25.219  25.955  1.00  0.00     0.116 C 
BRANCH   3   4
ATOM      4  N   UNL A   1      32.946  24.238  26.620  1.00  0.00    -0.356 N 
ATOM      5  C   UNL A   1      31.644  23.888  26.464  1.00  0.00     0.227 C 
ATOM      6  O   UNL A   1      31.231  22.969  27.183  1.00  0.00    -0.274 OA
ATOM      7  H   UNL A   1      33.413  23.728  27.320  1.00  0.00     0.163 HD
BRANCH   5   8
ATOM      8  C   UNL A   1      30.692  24.534  25.449  1.00  0.00     0.103 C 
ATOM      9  C   UNL A   1      31.242  26.109  23.634  1.00  0.00     0.109 C 
ATOM     10  C   UNL A   1      30.983  24.725  23.132  1.00  0.00    -0.006 C 
ATOM     11  C   UNL A   1      30.901  26.020  25.134  1.00  0.00     0.047 C 
ATOM     12  C   UNL A   1      30.708  23.862  24.115  1.00  0.00    -0.016 C 
BRANCH   9  13
ATOM     13  N   UNL A   1      30.401  27.011  22.894  1.00  0.00    -0.315 N 
ATOM     14  O   UNL A   1      29.607  28.899  22.002  1.00  0.00    -0.224 OA
ATOM     15  C   UNL A   1      30.522  28.347  22.609  1.00  0.00     0.413 C 
ATOM     16  H   UNL A   1      29.590  26.593  22.523  1.00  0.00     0.167 HD
BRANCH  15  17
ATOM     17  O   UNL A   1      31.630  29.094  23.052  1.00  0.00    -0.410 OA
BRANCH  17  18
ATOM     18  C   UNL A   1      32.157  29.238  24.358  1.00  0.00     0.132 A 
ATOM     19  C   UNL A   1      33.450  28.768  24.582  1.00  0.00     0.047 A 
ATOM     20  C   UNL A   1      31.405  29.820  25.373  1.00  0.00     0.047 A 
ATOM     21  C   UNL A   1      34.031  28.962  25.834  1.00  0.00     0.004 A 
ATOM     22  C   UNL A   1      32.002  30.033  26.616  1.00  0.00     0.004 A 
ATOM     23  C   UNL A   1      33.316  29.611  26.843  1.00  0.00     0.000 A 
ENDBRANCH  17  18
ENDBRANCH  15  17
ENDBRANCH   9  13
ENDBRANCH   5   8
ENDBRANCH   3   4
ENDBRANCH   2   3
ENDBRANCH   1   2
BRANCH   1  24
ATOM     24  C   UNL A   1      35.283  22.165  24.594  1.00  0.00     0.002 C 
BRANCH  24  25
ATOM     25  C   UNL A   1      36.342  21.128  24.975  1.00  0.00     0.021 C 
BRANCH  25  26
ATOM     26  C   UNL A   1      37.763  21.669  25.123  1.00  0.00     0.116 C 
BRANCH  26  27
ATOM     27  N   UNL A   1      38.645  20.727  25.792  1.00  0.00    -0.352 N 
ATOM     28  C   UNL A   1      39.800  20.958  26.500  1.00  0.00     0.251 C 
ATOM     29  H   UNL A   1      38.374  19.783  25.729  1.00  0.00     0.163 HD
ATOM     30  O   UNL A   1      40.505  20.009  26.833  1.00  0.00    -0.269 OA
BRANCH  28  31
ATOM     31  C   UNL A   1      40.210  22.339  26.846  1.00  0.00     0.039 A 
ATOM     32  C   UNL A   1      41.170  22.526  27.844  1.00  0.00     0.014 A 
ATOM     33  C   UNL A   1      39.633  23.447  26.219  1.00  0.00     0.014 A 
ATOM     34  C   UNL A   1      41.589  23.819  28.174  1.00  0.00     0.010 A 
ATOM     35  C   UNL A   1      40.101  24.730  26.501  1.00  0.00     0.010 A 
ATOM     36  C   UNL A   1      41.080  24.933  27.486  1.00  0.00    -0.014 A 
BRANCH  36  37
ATOM     37  C   UNL A   1      41.566  26.309  27.777  1.00  0.00     0.031 A 
ATOM     38  C   UNL A   1      42.981  26.707  27.443  1.00  0.00     0.074 A 
ATOM     39  C   UNL A   1      40.761  27.179  28.420  1.00  0.00     0.049 A 
ATOM     40  N   UNL A   1      43.595  27.838  27.674  1.00  0.00    -0.248 NA
ATOM     41  C   UNL A   1      43.824  25.695  26.784  1.00  0.00     0.031 C 
ATOM     42  C   UNL A   1      39.396  26.894  28.870  1.00  0.00     0.029 A 
ATOM     43  N   UNL A   1      40.983  28.469  28.837  1.00  0.00    -0.354 N 
ATOM     44  C   UNL A   1      44.901  27.664  27.231  1.00  0.00     0.074 A 
ATOM     45  C   UNL A   1      44.999  26.308  26.736  1.00  0.00     0.031 C 
ATOM     46  C   UNL A   1      38.907  27.972  29.504  1.00  0.00     0.029 A 
ATOM     47  C   UNL A   1      39.927  29.015  29.532  1.00  0.00     0.049 A 
ATOM     48  H   UNL A   1      41.818  28.958  28.654  1.00  0.00     0.167 HD
ATOM     49  C   UNL A   1      45.918  28.557  27.214  1.00  0.00     0.034 A 
ATOM     50  C   UNL A   1      39.799  30.213  30.136  1.00  0.00     0.034 A 
ATOM     51  C   UNL A   1      45.806  29.920  27.657  1.00  0.00     0.049 A 
ATOM     52  C   UNL A   1      40.932  31.202  30.054  1.00  0.00     0.074 A 
ATOM     53  C   UNL A   1      46.753  30.928  27.581  1.00  0.00     0.029 A 
ATOM     54  N   UNL A   1      44.688  30.468  28.264  1.00  0.00    -0.354 N 
ATOM     55  N   UNL A   1      42.098  31.073  29.473  1.00  0.00    -0.248 NA
ATOM     56  C   UNL A   1      40.715  32.518  30.676  1.00  0.00     0.031 C 
ATOM     57  C   UNL A   1      46.215  32.078  28.167  1.00  0.00     0.029 A 
ATOM     58  C   UNL A   1      44.924  31.795  28.580  1.00  0.00     0.049 A 
ATOM     59  H   UNL A   1      43.849  29.984  28.445  1.00  0.00     0.167 HD
ATOM     60  C   UNL A   1      42.738  32.299  29.625  1.00  0.00     0.074 A 
ATOM     61  C   UNL A   1      41.819  33.164  30.333  1.00  0.00     0.031 C 
ATOM     62  C   UNL A   1      43.980  32.668  29.228  1.00  0.00     0.034 A 
BRANCH  49  63
ATOM     63  C   UNL A   1      47.243  28.112  26.649  1.00  0.00     0.023 A 
ATOM     64  C   UNL A   1      48.289  27.758  27.524  1.00  0.00     0.012 A 
ATOM     65  C   UNL A   1      47.417  27.949  25.261  1.00  0.00     0.148 A 
ATOM     66  C   UNL A   1      49.497  27.272  27.027  1.00  0.00     0.002 A 
ATOM     67  C   UNL A   1      48.608  27.424  24.774  1.00  0.00     0.091 A 
ATOM     68  F   UNL A   1      46.416  28.308  24.444  1.00  0.00    -0.205 F 
ATOM     69  C   UNL A   1      49.652  27.093  25.655  1.00  0.00     0.022 A 
BRANCH  67  70
ATOM     70  S   UNL A   1      48.879  27.078  23.032  1.00  0.00     0.127 S 
ATOM     71  O   UNL A   1      48.206  28.210  22.399  1.00  0.00    -0.237 OA
ATOM     72  O   UNL A   1      50.339  27.106  22.937  1.00  0.00    -0.237 OA
ATOM     73  O   UNL A   1      48.277  25.775  22.781  1.00  0.00    -0.744 OA
ENDBRANCH  67  70
ENDBRANCH  49  63
BRANCH  50  74
ATOM     74  C   UNL A   1      38.529  30.570  30.832  1.00  0.00     0.023 A 
ATOM     75  C   UNL A   1      38.328  30.158  32.164  1.00  0.00     0.012 A 
ATOM     76  C   UNL A   1      37.525  31.317  30.187  1.00  0.00     0.148 A 
ATOM     77  C   UNL A   1      37.134  30.446  32.825  1.00  0.00     0.002 A 
ATOM     78  C   UNL A   1      36.362  31.653  30.871  1.00  0.00     0.091 A 
ATOM     79  F   UNL A   1      37.726  31.689  28.915  1.00  0.00    -0.205 F 
ATOM     80  C   UNL A   1      36.155  31.201  32.184  1.00  0.00     0.022 A 
BRANCH  78  81
ATOM     81  S   UNL A   1      35.117  32.739  30.167  1.00  0.00     0.127 S 
ATOM     82  O   UNL A   1      35.913  33.904  29.793  1.00  0.00    -0.237 OA
ATOM     83  O   UNL A   1      34.620  31.944  29.042  1.00  0.00    -0.237 OA
ATOM     84  O   UNL A   1      34.139  32.947  31.226  1.00  0.00    -0.744 OA
ENDBRANCH  78  81
ENDBRANCH  50  74
BRANCH  62  85
ATOM     85  C   UNL A   1      44.415  34.083  29.504  1.00  0.00     0.023 A 
ATOM     86  C   UNL A   1      45.093  34.391  30.700  1.00  0.00     0.012 A 
ATOM     87  C   UNL A   1      44.221  35.093  28.539  1.00  0.00     0.148 A 
ATOM     88  C   UNL A   1      45.541  35.688  30.948  1.00  0.00     0.002 A 
ATOM     89  C   UNL A   1      44.715  36.371  28.771  1.00  0.00     0.091 A 
ATOM     90  F   UNL A   1      43.559  34.785  27.416  1.00  0.00    -0.205 F 
ATOM     91  C   UNL A   1      45.364  36.674  29.979  1.00  0.00     0.022 A 
BRANCH  89  92
ATOM     92  S   UNL A   1      44.619  37.676  27.541  1.00  0.00     0.127 S 
ATOM     93  O   UNL A   1      45.525  37.179  26.506  1.00  0.00    -0.237 OA
ATOM     94  O   UNL A   1      43.203  37.653  27.173  1.00  0.00    -0.237 OA
ATOM     95  O   UNL A   1      45.048  38.895  28.213  1.00  0.00    -0.744 OA
ENDBRANCH  89  92
ENDBRANCH  62  85
ENDBRANCH  36  37
ENDBRANCH  28  31
ENDBRANCH  26  27
ENDBRANCH  25  26
ENDBRANCH  24  25
ENDBRANCH   1  24
TORSDOF 19
ENDMDL
