MODEL 1
REMARK VINA RESULT:     -13.2      0.000      0.000
REMARK SMILES O=C(Cn1c(-c2nc(-c3ccc(C(F)(F)F)cc3)no2)cc2ccccc21)NCCCCCCNC(=O)c1ccc(-c2c3nc(c(-c4cccc(S(=O)(=O)[O-])c4F)c4ccc([nH]4)c(-c4cccc(S(=O)(=O)[O-])c4F)c4nc(c(-c5cccc(S(=O)(=O)[O-])c5F)c5ccc2[nH]5)C=C4)C=C3)cc1
REMARK SMILES IDX 31 1 30 2 29 3 28 4 1 5 2 6 3 8 4 9 5 10 27 11 21 12 22 13
REMARK SMILES IDX 26 14 23 15 25 16 24 17 6 18 7 19 20 20 8 21 19 22 9 23
REMARK SMILES IDX 10 24 18 25 11 26 17 27 12 28 13 29 14 30 15 31 16 32 32 33
REMARK SMILES IDX 33 34 34 35 35 36 36 37 37 39 38 40 39 41 100 42 40 43 99 44
REMARK SMILES IDX 41 45 42 46 43 47 93 48 44 49 98 50 92 51 94 52 45 53 97 54
REMARK SMILES IDX 91 55 90 56 46 58 78 59 58 60 77 61 59 62 62 63 76 64 95 65
REMARK SMILES IDX 60 66 61 67 75 69 96 70 63 71 47 72 48 73 56 74 49 75 51 76
REMARK SMILES IDX 57 77 50 78 52 79 53 80 54 81 55 82 79 83 80 84 88 85 81 86
REMARK SMILES IDX 83 87 89 88 82 89 84 90 85 91 86 92 87 93 64 94 65 95 73 96
REMARK SMILES IDX 66 97 68 98 74 99 67 100 69 101 70 102 71 103 72 104
REMARK H PARENT 28 7 35 38 94 57 62 68
REMARK Flexibility Score: inf
ROOT
ATOM      1  C   UNL A   1      40.065  22.146  26.804  1.00  0.00     0.002 C 
ENDROOT
BRANCH   1   2
ATOM      2  C   UNL A   1      38.806  21.849  25.980  1.00  0.00     0.021 C 
BRANCH   2   3
ATOM      3  C   UNL A   1      37.831  23.021  25.848  1.00  0.00     0.116 C 
BRANCH   3   4
ATOM      4  N   UNL A   1      36.458  22.596  26.037  1.00  0.00    -0.355 N 
ATOM      5  O   UNL A   1      36.043  22.033  23.848  1.00  0.00    -0.273 OA
ATOM      6  C   UNL A   1      35.662  22.128  25.014  1.00  0.00     0.239 C 
ATOM      7  H   UNL A   1      36.074  22.643  26.943  1.00  0.00     0.163 HD
BRANCH   6   8
ATOM      8  C   UNL A   1      34.220  21.849  25.388  1.00  0.00     0.222 C 
BRANCH   8   9
ATOM      9  N   UNL A   1      33.491  21.124  24.355  1.00  0.00    -0.327 N 
ATOM     10  C   UNL A   1      32.642  21.676  23.415  1.00  0.00     0.109 A 
ATOM     11  C   UNL A   1      33.570  19.752  24.181  1.00  0.00     0.049 A 
ATOM     12  C   UNL A   1      32.111  20.632  22.683  1.00  0.00     0.042 A 
ATOM     13  C   UNL A   1      32.720  19.425  23.124  1.00  0.00     0.000 A 
ATOM     14  C   UNL A   1      34.315  18.776  24.865  1.00  0.00     0.027 A 
ATOM     15  C   UNL A   1      32.632  18.080  22.711  1.00  0.00     0.010 A 
ATOM     16  C   UNL A   1      34.211  17.449  24.439  1.00  0.00     0.002 A 
ATOM     17  C   UNL A   1      33.386  17.104  23.373  1.00  0.00     0.001 A 
BRANCH  10  18
ATOM     18  C   UNL A   1      32.455  23.082  23.224  1.00  0.00     0.274 A 
ATOM     19  N   UNL A   1      31.397  23.781  23.587  1.00  0.00    -0.185 NA
ATOM     20  O   UNL A   1      33.410  23.853  22.620  1.00  0.00    -0.332 OA
ATOM     21  C   UNL A   1      31.700  25.046  23.124  1.00  0.00     0.202 A 
ATOM     22  N   UNL A   1      32.912  25.141  22.554  1.00  0.00    -0.057 NA
BRANCH  21  23
ATOM     23  C   UNL A   1      30.833  26.213  23.219  1.00  0.00     0.023 A 
ATOM     24  C   UNL A   1      29.585  26.078  23.844  1.00  0.00     0.013 A 
ATOM     25  C   UNL A   1      31.139  27.417  22.578  1.00  0.00     0.013 A 
ATOM     26  C   UNL A   1      28.631  27.095  23.764  1.00  0.00     0.014 A 
ATOM     27  C   UNL A   1      30.178  28.435  22.484  1.00  0.00     0.014 A 
ATOM     28  C   UNL A   1      28.903  28.269  23.047  1.00  0.00     0.056 A 
BRANCH  28  29
ATOM     29  C   UNL A   1      27.803  29.287  22.849  1.00  0.00     0.416 C 
ATOM     30  F   UNL A   1      27.956  30.360  23.679  1.00  0.00    -0.166 F 
ATOM     31  F   UNL A   1      27.779  29.800  21.588  1.00  0.00    -0.166 F 
ATOM     32  F   UNL A   1      26.553  28.809  23.094  1.00  0.00    -0.166 F 
ENDBRANCH  28  29
ENDBRANCH  21  23
ENDBRANCH  10  18
ENDBRANCH   8   9
ENDBRANCH   6   8
ENDBRANCH   3   4
ENDBRANCH   2   3
ENDBRANCH   1   2
BRANCH   1  33
ATOM     33  C   UNL A   1      40.848  20.930  27.309  1.00  0.00     0.002 C 
BRANCH  33  34
ATOM     34  C   UNL A   1      41.069  19.798  26.295  1.00  0.00     0.021 C 
BRANCH  34  35
ATOM     35  C   UNL A   1      42.444  19.127  26.350  1.00  0.00     0.116 C 
BRANCH  35  36
ATOM     36  N   UNL A   1      43.308  19.468  25.237  1.00  0.00    -0.352 N 
ATOM     37  C   UNL A   1      44.058  20.554  24.872  1.00  0.00     0.251 C 
ATOM     38  H   UNL A   1      43.373  18.736  24.582  1.00  0.00     0.163 HD
ATOM     39  O   UNL A   1      44.817  20.362  23.916  1.00  0.00    -0.269 OA
BRANCH  37  40
ATOM     40  C   UNL A   1      43.993  21.918  25.475  1.00  0.00     0.039 A 
ATOM     41  C   UNL A   1      44.591  22.310  26.668  1.00  0.00     0.014 A 
ATOM     42  C   UNL A   1      43.195  22.863  24.790  1.00  0.00     0.014 A 
ATOM     43  C   UNL A   1      44.341  23.582  27.192  1.00  0.00     0.010 A 
ATOM     44  C   UNL A   1      42.947  24.135  25.307  1.00  0.00     0.010 A 
ATOM     45  C   UNL A   1      43.494  24.489  26.531  1.00  0.00    -0.014 A 
BRANCH  45  46
ATOM     46  C   UNL A   1      43.367  25.842  27.086  1.00  0.00     0.031 A 
ATOM     47  C   UNL A   1      44.538  26.707  26.780  1.00  0.00     0.074 A 
ATOM     48  C   UNL A   1      42.318  26.346  27.775  1.00  0.00     0.049 A 
ATOM     49  N   UNL A   1      45.516  26.986  27.577  1.00  0.00    -0.248 NA
ATOM     50  C   UNL A   1      44.738  27.162  25.397  1.00  0.00     0.031 C 
ATOM     51  C   UNL A   1      40.990  25.758  27.961  1.00  0.00     0.029 A 
ATOM     52  N   UNL A   1      42.201  27.559  28.405  1.00  0.00    -0.354 N 
ATOM     53  C   UNL A   1      46.320  27.877  26.873  1.00  0.00     0.074 A 
ATOM     54  C   UNL A   1      45.908  27.798  25.496  1.00  0.00     0.031 C 
ATOM     55  C   UNL A   1      40.145  26.693  28.457  1.00  0.00     0.029 A 
ATOM     56  C   UNL A   1      40.898  27.894  28.774  1.00  0.00     0.049 A 
ATOM     57  H   UNL A   1      42.972  28.145  28.582  1.00  0.00     0.167 HD
ATOM     58  C   UNL A   1      47.051  28.819  27.528  1.00  0.00     0.034 A 
ATOM     59  C   UNL A   1      40.478  29.080  29.289  1.00  0.00     0.034 A 
ATOM     60  C   UNL A   1      47.121  28.552  28.938  1.00  0.00     0.049 A 
ATOM     61  C   UNL A   1      41.650  29.682  29.959  1.00  0.00     0.074 A 
ATOM     62  C   UNL A   1      47.642  27.570  29.752  1.00  0.00     0.029 A 
ATOM     63  N   UNL A   1      46.211  29.257  29.681  1.00  0.00    -0.354 N 
ATOM     64  N   UNL A   1      42.199  29.193  31.036  1.00  0.00    -0.248 NA
ATOM     65  C   UNL A   1      42.410  30.718  29.275  1.00  0.00     0.031 C 
ATOM     66  C   UNL A   1      46.782  27.523  30.888  1.00  0.00     0.029 A 
ATOM     67  C   UNL A   1      45.801  28.505  30.743  1.00  0.00     0.049 A 
ATOM     68  H   UNL A   1      45.899  30.168  29.477  1.00  0.00     0.167 HD
ATOM     69  C   UNL A   1      43.535  29.521  30.902  1.00  0.00     0.074 A 
ATOM     70  C   UNL A   1      43.570  30.596  29.922  1.00  0.00     0.031 C 
ATOM     71  C   UNL A   1      44.501  28.675  31.355  1.00  0.00     0.034 A 
BRANCH  58  72
ATOM     72  C   UNL A   1      47.279  30.225  27.015  1.00  0.00     0.023 A 
ATOM     73  C   UNL A   1      48.566  30.784  27.184  1.00  0.00     0.012 A 
ATOM     74  C   UNL A   1      46.229  31.115  26.696  1.00  0.00     0.148 A 
ATOM     75  C   UNL A   1      48.788  32.160  27.060  1.00  0.00     0.002 A 
ATOM     76  C   UNL A   1      46.469  32.468  26.496  1.00  0.00     0.091 A 
ATOM     77  F   UNL A   1      44.962  30.689  26.733  1.00  0.00    -0.205 F 
ATOM     78  C   UNL A   1      47.742  33.002  26.701  1.00  0.00     0.022 A 
BRANCH  76  79
ATOM     79  S   UNL A   1      45.154  33.595  26.018  1.00  0.00     0.127 S 
ATOM     80  O   UNL A   1      45.902  34.819  25.758  1.00  0.00    -0.237 OA
ATOM     81  O   UNL A   1      44.610  32.930  24.835  1.00  0.00    -0.237 OA
ATOM     82  O   UNL A   1      44.241  33.628  27.157  1.00  0.00    -0.744 OA
ENDBRANCH  76  79
ENDBRANCH  58  72
BRANCH  59  83
ATOM     83  C   UNL A   1      39.208  29.848  29.170  1.00  0.00     0.023 A 
ATOM     84  C   UNL A   1      38.445  29.733  27.983  1.00  0.00     0.012 A 
ATOM     85  C   UNL A   1      38.578  30.402  30.303  1.00  0.00     0.148 A 
ATOM     86  C   UNL A   1      37.086  30.071  27.951  1.00  0.00     0.002 A 
ATOM     87  C   UNL A   1      37.225  30.746  30.263  1.00  0.00     0.091 A 
ATOM     88  F   UNL A   1      39.274  30.504  31.443  1.00  0.00    -0.205 F 
ATOM     89  C   UNL A   1      36.471  30.558  29.097  1.00  0.00     0.022 A 
BRANCH  87  90
ATOM     90  S   UNL A   1      36.354  31.383  31.702  1.00  0.00     0.127 S 
ATOM     91  O   UNL A   1      35.071  31.791  31.128  1.00  0.00    -0.237 OA
ATOM     92  O   UNL A   1      36.290  30.208  32.566  1.00  0.00    -0.237 OA
ATOM     93  O   UNL A   1      37.164  32.490  32.193  1.00  0.00    -0.744 OA
ENDBRANCH  87  90
ENDBRANCH  59  83
BRANCH  71  94
ATOM     94  C   UNL A   1      44.139  27.693  32.428  1.00  0.00     0.023 A 
ATOM     95  C   UNL A   1      43.982  26.315  32.191  1.00  0.00     0.012 A 
ATOM     96  C   UNL A   1      44.146  28.174  33.747  1.00  0.00     0.148 A 
ATOM     97  C   UNL A   1      43.847  25.429  33.265  1.00  0.00     0.002 A 
ATOM     98  C   UNL A   1      44.059  27.289  34.809  1.00  0.00     0.091 A 
ATOM     99  F   UNL A   1      44.293  29.495  33.935  1.00  0.00    -0.205 F 
ATOM    100  C   UNL A   1      43.904  25.914  34.572  1.00  0.00     0.022 A 
BRANCH  98 101
ATOM    101  S   UNL A   1      44.252  27.834  36.506  1.00  0.00     0.127 S 
ATOM    102  O   UNL A   1      45.488  28.614  36.439  1.00  0.00    -0.237 OA
ATOM    103  O   UNL A   1      43.039  28.625  36.713  1.00  0.00    -0.237 OA
ATOM    104  O   UNL A   1      44.328  26.626  37.318  1.00  0.00    -0.744 OA
ENDBRANCH  98 101
ENDBRANCH  71  94
ENDBRANCH  45  46
ENDBRANCH  37  40
ENDBRANCH  35  36
ENDBRANCH  34  35
ENDBRANCH  33  34
ENDBRANCH   1  33
TORSDOF 20
ENDMDL
MODEL 2
REMARK VINA RESULT:     -12.8      3.326      5.535
REMARK SMILES O=C(Cn1c(-c2nc(-c3ccc(C(F)(F)F)cc3)no2)cc2ccccc21)NCCCCCCNC(=O)c1ccc(-c2c3nc(c(-c4cccc(S(=O)(=O)[O-])c4F)c4ccc([nH]4)c(-c4cccc(S(=O)(=O)[O-])c4F)c4nc(c(-c5cccc(S(=O)(=O)[O-])c5F)c5ccc2[nH]5)C=C4)C=C3)cc1
REMARK SMILES IDX 31 1 30 2 29 3 28 4 1 5 2 6 3 8 4 9 5 10 27 11 21 12 22 13
REMARK SMILES IDX 26 14 23 15 25 16 24 17 6 18 7 19 20 20 8 21 19 22 9 23
REMARK SMILES IDX 10 24 18 25 11 26 17 27 12 28 13 29 14 30 15 31 16 32 32 33
REMARK SMILES IDX 33 34 34 35 35 36 36 37 37 39 38 40 39 41 100 42 40 43 99 44
REMARK SMILES IDX 41 45 42 46 43 47 93 48 44 49 98 50 92 51 94 52 45 53 97 54
REMARK SMILES IDX 91 55 90 56 46 58 78 59 58 60 77 61 59 62 62 63 76 64 95 65
REMARK SMILES IDX 60 66 61 67 75 69 96 70 63 71 47 72 48 73 56 74 49 75 51 76
REMARK SMILES IDX 57 77 50 78 52 79 53 80 54 81 55 82 79 83 80 84 88 85 81 86
REMARK SMILES IDX 83 87 89 88 82 89 84 90 85 91 86 92 87 93 64 94 65 95 73 96
REMARK SMILES IDX 66 97 68 98 74 99 67 100 69 101 70 102 71 103 72 104
REMARK H PARENT 28 7 35 38 94 57 62 68
REMARK Flexibility Score: inf
ROOT
ATOM      1  C   UNL A   1      36.582  23.705  25.720  1.00  0.00     0.002 C 
ENDROOT
BRANCH   1   2
ATOM      2  C   UNL A   1      35.491  23.008  26.542  1.00  0.00     0.021 C 
BRANCH   2   3
ATOM      3  C   UNL A   1      34.137  23.720  26.549  1.00  0.00     0.116 C 
BRANCH   3   4
ATOM      4  N   UNL A   1      34.165  24.925  25.743  1.00  0.00    -0.355 N 
ATOM      5  O   UNL A   1      32.196  25.819  26.519  1.00  0.00    -0.273 OA
ATOM      6  C   UNL A   1      33.184  25.892  25.790  1.00  0.00     0.239 C 
ATOM      7  H   UNL A   1      34.923  25.059  25.129  1.00  0.00     0.163 HD
BRANCH   6   8
ATOM      8  C   UNL A   1      33.330  27.015  24.783  1.00  0.00     0.222 C 
BRANCH   8   9
ATOM      9  N   UNL A   1      32.214  27.093  23.848  1.00  0.00    -0.327 N 
ATOM     10  C   UNL A   1      31.856  26.131  22.922  1.00  0.00     0.109 A 
ATOM     11  C   UNL A   1      31.346  28.170  23.779  1.00  0.00     0.049 A 
ATOM     12  C   UNL A   1      30.795  26.638  22.198  1.00  0.00     0.042 A 
ATOM     13  C   UNL A   1      30.436  27.896  22.756  1.00  0.00     0.000 A 
ATOM     14  C   UNL A   1      31.288  29.359  24.527  1.00  0.00     0.027 A 
ATOM     15  C   UNL A   1      29.411  28.826  22.490  1.00  0.00     0.010 A 
ATOM     16  C   UNL A   1      30.263  30.266  24.244  1.00  0.00     0.002 A 
ATOM     17  C   UNL A   1      29.332  30.003  23.244  1.00  0.00     0.001 A 
BRANCH  10  18
ATOM     18  C   UNL A   1      32.454  24.834  22.834  1.00  0.00     0.274 A 
ATOM     19  N   UNL A   1      31.983  23.724  23.370  1.00  0.00    -0.185 NA
ATOM     20  O   UNL A   1      33.620  24.631  22.149  1.00  0.00    -0.332 OA
ATOM     21  C   UNL A   1      32.953  22.798  23.040  1.00  0.00     0.202 A 
ATOM     22  N   UNL A   1      33.946  23.295  22.288  1.00  0.00    -0.057 NA
BRANCH  21  23
ATOM     23  C   UNL A   1      32.953  21.396  23.438  1.00  0.00     0.023 A 
ATOM     24  C   UNL A   1      33.889  20.963  24.388  1.00  0.00     0.013 A 
ATOM     25  C   UNL A   1      32.155  20.445  22.796  1.00  0.00     0.013 A 
ATOM     26  C   UNL A   1      34.080  19.602  24.636  1.00  0.00     0.014 A 
ATOM     27  C   UNL A   1      32.354  19.076  23.032  1.00  0.00     0.014 A 
ATOM     28  C   UNL A   1      33.342  18.641  23.929  1.00  0.00     0.056 A 
BRANCH  28  29
ATOM     29  C   UNL A   1      33.673  17.177  24.106  1.00  0.00     0.416 C 
ATOM     30  F   UNL A   1      32.612  16.479  24.609  1.00  0.00    -0.166 F 
ATOM     31  F   UNL A   1      33.993  16.562  22.935  1.00  0.00    -0.166 F 
ATOM     32  F   UNL A   1      34.705  16.940  24.960  1.00  0.00    -0.166 F 
ENDBRANCH  28  29
ENDBRANCH  21  23
ENDBRANCH  10  18
ENDBRANCH   8   9
ENDBRANCH   6   8
ENDBRANCH   3   4
ENDBRANCH   2   3
ENDBRANCH   1   2
BRANCH   1  33
ATOM     33  C   UNL A   1      38.030  23.380  26.101  1.00  0.00     0.002 C 
BRANCH  33  34
ATOM     34  C   UNL A   1      38.527  21.973  25.738  1.00  0.00     0.021 C 
BRANCH  34  35
ATOM     35  C   UNL A   1      39.814  21.530  26.439  1.00  0.00     0.116 C 
BRANCH  35  36
ATOM     36  N   UNL A   1      41.022  21.839  25.699  1.00  0.00    -0.352 N 
ATOM     37  C   UNL A   1      41.989  22.805  25.757  1.00  0.00     0.251 C 
ATOM     38  H   UNL A   1      41.187  21.191  24.976  1.00  0.00     0.163 HD
ATOM     39  O   UNL A   1      42.976  22.594  25.043  1.00  0.00    -0.269 OA
BRANCH  37  40
ATOM     40  C   UNL A   1      41.926  24.076  26.537  1.00  0.00     0.039 A 
ATOM     41  C   UNL A   1      42.551  24.315  27.757  1.00  0.00     0.014 A 
ATOM     42  C   UNL A   1      41.100  25.092  26.004  1.00  0.00     0.014 A 
ATOM     43  C   UNL A   1      42.302  25.503  28.452  1.00  0.00     0.010 A 
ATOM     44  C   UNL A   1      40.852  26.281  26.692  1.00  0.00     0.010 A 
ATOM     45  C   UNL A   1      41.428  26.477  27.938  1.00  0.00    -0.014 A 
BRANCH  45  46
ATOM     46  C   UNL A   1      41.301  27.742  28.671  1.00  0.00     0.031 A 
ATOM     47  C   UNL A   1      42.353  28.730  28.310  1.00  0.00     0.074 A 
ATOM     48  C   UNL A   1      40.341  28.077  29.562  1.00  0.00     0.049 A 
ATOM     49  N   UNL A   1      43.423  28.996  28.985  1.00  0.00    -0.248 NA
ATOM     50  C   UNL A   1      42.308  29.356  26.981  1.00  0.00     0.031 C 
ATOM     51  C   UNL A   1      39.098  27.363  29.864  1.00  0.00     0.029 A 
ATOM     52  N   UNL A   1      40.245  29.195  30.350  1.00  0.00    -0.354 N 
ATOM     53  C   UNL A   1      44.050  30.024  28.290  1.00  0.00     0.074 A 
ATOM     54  C   UNL A   1      43.437  30.070  26.988  1.00  0.00     0.031 C 
ATOM     55  C   UNL A   1      38.281  28.163  30.591  1.00  0.00     0.029 A 
ATOM     56  C   UNL A   1      38.995  29.378  30.944  1.00  0.00     0.049 A 
ATOM     57  H   UNL A   1      40.995  29.818  30.486  1.00  0.00     0.167 HD
ATOM     58  C   UNL A   1      44.811  30.943  28.945  1.00  0.00     0.034 A 
ATOM     59  C   UNL A   1      38.585  30.458  31.659  1.00  0.00     0.034 A 
ATOM     60  C   UNL A   1      45.115  30.522  30.285  1.00  0.00     0.049 A 
ATOM     61  C   UNL A   1      39.805  31.074  32.222  1.00  0.00     0.074 A 
ATOM     62  C   UNL A   1      45.816  29.500  30.885  1.00  0.00     0.029 A 
ATOM     63  N   UNL A   1      44.286  31.060  31.234  1.00  0.00    -0.354 N 
ATOM     64  N   UNL A   1      40.543  30.512  33.138  1.00  0.00    -0.248 NA
ATOM     65  C   UNL A   1      40.382  32.240  31.571  1.00  0.00     0.031 C 
ATOM     66  C   UNL A   1      45.147  29.252  32.119  1.00  0.00     0.029 A 
ATOM     67  C   UNL A   1      44.093  30.160  32.242  1.00  0.00     0.049 A 
ATOM     68  H   UNL A   1      43.889  31.960  31.194  1.00  0.00     0.167 HD
ATOM     69  C   UNL A   1      41.819  30.961  32.854  1.00  0.00     0.074 A 
ATOM     70  C   UNL A   1      41.634  32.140  32.022  1.00  0.00     0.031 C 
ATOM     71  C   UNL A   1      42.896  30.151  33.052  1.00  0.00     0.034 A 
BRANCH  58  72
ATOM     72  C   UNL A   1      44.866  32.411  28.585  1.00  0.00     0.023 A 
ATOM     73  C   UNL A   1      46.142  33.007  28.453  1.00  0.00     0.012 A 
ATOM     74  C   UNL A   1      43.761  33.283  28.704  1.00  0.00     0.148 A 
ATOM     75  C   UNL A   1      46.305  34.397  28.460  1.00  0.00     0.002 A 
ATOM     76  C   UNL A   1      43.919  34.660  28.631  1.00  0.00     0.091 A 
ATOM     77  F   UNL A   1      42.563  32.794  29.043  1.00  0.00    -0.205 F 
ATOM     78  C   UNL A   1      45.192  35.225  28.533  1.00  0.00     0.022 A 
BRANCH  76  79
ATOM     79  S   UNL A   1      42.511  35.773  28.706  1.00  0.00     0.127 S 
ATOM     80  O   UNL A   1      41.915  35.577  27.390  1.00  0.00    -0.237 OA
ATOM     81  O   UNL A   1      41.754  35.217  29.826  1.00  0.00    -0.237 OA
ATOM     82  O   UNL A   1      43.077  37.094  28.966  1.00  0.00    -0.744 OA
ENDBRANCH  76  79
ENDBRANCH  58  72
BRANCH  59  83
ATOM     83  C   UNL A   1      37.265  31.127  31.823  1.00  0.00     0.023 A 
ATOM     84  C   UNL A   1      36.858  31.534  33.117  1.00  0.00     0.012 A 
ATOM     85  C   UNL A   1      36.574  31.668  30.719  1.00  0.00     0.148 A 
ATOM     86  C   UNL A   1      35.867  32.508  33.301  1.00  0.00     0.002 A 
ATOM     87  C   UNL A   1      35.581  32.631  30.908  1.00  0.00     0.091 A 
ATOM     88  F   UNL A   1      36.954  31.312  29.485  1.00  0.00    -0.205 F 
ATOM     89  C   UNL A   1      35.243  33.070  32.195  1.00  0.00     0.022 A 
BRANCH  87  90
ATOM     90  S   UNL A   1      34.725  33.409  29.531  1.00  0.00     0.127 S 
ATOM     91  O   UNL A   1      33.698  34.198  30.214  1.00  0.00    -0.237 OA
ATOM     92  O   UNL A   1      35.789  34.195  28.914  1.00  0.00    -0.237 OA
ATOM     93  O   UNL A   1      34.196  32.314  28.728  1.00  0.00    -0.744 OA
ENDBRANCH  87  90
ENDBRANCH  59  83
BRANCH  71  94
ATOM     94  C   UNL A   1      42.766  29.026  34.034  1.00  0.00     0.023 A 
ATOM     95  C   UNL A   1      42.136  27.806  33.731  1.00  0.00     0.012 A 
ATOM     96  C   UNL A   1      43.479  29.159  35.238  1.00  0.00     0.148 A 
ATOM     97  C   UNL A   1      42.229  26.728  34.617  1.00  0.00     0.002 A 
ATOM     98  C   UNL A   1      43.608  28.076  36.090  1.00  0.00     0.091 A 
ATOM     99  F   UNL A   1      44.063  30.340  35.496  1.00  0.00    -0.205 F 
ATOM    100  C   UNL A   1      42.980  26.857  35.786  1.00  0.00     0.022 A 
BRANCH  98 101
ATOM    101  S   UNL A   1      44.660  28.140  37.541  1.00  0.00     0.127 S 
ATOM    102  O   UNL A   1      44.248  29.398  38.162  1.00  0.00    -0.237 OA
ATOM    103  O   UNL A   1      44.255  26.936  38.267  1.00  0.00    -0.237 OA
ATOM    104  O   UNL A   1      46.033  28.113  37.052  1.00  0.00    -0.744 OA
ENDBRANCH  98 101
ENDBRANCH  71  94
ENDBRANCH  45  46
ENDBRANCH  37  40
ENDBRANCH  35  36
ENDBRANCH  34  35
ENDBRANCH  33  34
ENDBRANCH   1  33
TORSDOF 20
ENDMDL
MODEL 3
REMARK VINA RESULT:     -12.8      2.673      8.240
REMARK SMILES O=C(Cn1c(-c2nc(-c3ccc(C(F)(F)F)cc3)no2)cc2ccccc21)NCCCCCCNC(=O)c1ccc(-c2c3nc(c(-c4cccc(S(=O)(=O)[O-])c4F)c4ccc([nH]4)c(-c4cccc(S(=O)(=O)[O-])c4F)c4nc(c(-c5cccc(S(=O)(=O)[O-])c5F)c5ccc2[nH]5)C=C4)C=C3)cc1
REMARK SMILES IDX 31 1 30 2 29 3 28 4 1 5 2 6 3 8 4 9 5 10 27 11 21 12 22 13
REMARK SMILES IDX 26 14 23 15 25 16 24 17 6 18 7 19 20 20 8 21 19 22 9 23
REMARK SMILES IDX 10 24 18 25 11 26 17 27 12 28 13 29 14 30 15 31 16 32 32 33
REMARK SMILES IDX 33 34 34 35 35 36 36 37 37 39 38 40 39 41 100 42 40 43 99 44
REMARK SMILES IDX 41 45 42 46 43 47 93 48 44 49 98 50 92 51 94 52 45 53 97 54
REMARK SMILES IDX 91 55 90 56 46 58 78 59 58 60 77 61 59 62 62 63 76 64 95 65
REMARK SMILES IDX 60 66 61 67 75 69 96 70 63 71 47 72 48 73 56 74 49 75 51 76
REMARK SMILES IDX 57 77 50 78 52 79 53 80 54 81 55 82 79 83 80 84 88 85 81 86
REMARK SMILES IDX 83 87 89 88 82 89 84 90 85 91 86 92 87 93 64 94 65 95 73 96
REMARK SMILES IDX 66 97 68 98 74 99 67 100 69 101 70 102 71 103 72 104
REMARK H PARENT 28 7 35 38 94 57 62 68
REMARK Flexibility Score: inf
ROOT
ATOM      1  C   UNL A   1      33.820  28.494  25.560  1.00  0.00     0.002 C 
ENDROOT
BRANCH   1   2
ATOM      2  C   UNL A   1      33.512  27.023  25.862  1.00  0.00     0.021 C 
BRANCH   2   3
ATOM      3  C   UNL A   1      34.302  26.015  25.023  1.00  0.00     0.116 C 
BRANCH   3   4
ATOM      4  N   UNL A   1      34.345  24.713  25.658  1.00  0.00    -0.355 N 
ATOM      5  O   UNL A   1      35.194  23.561  23.860  1.00  0.00    -0.273 OA
ATOM      6  C   UNL A   1      34.793  23.574  25.023  1.00  0.00     0.239 C 
ATOM      7  H   UNL A   1      34.038  24.636  26.591  1.00  0.00     0.163 HD
BRANCH   6   8
ATOM      8  C   UNL A   1      34.644  22.289  25.812  1.00  0.00     0.222 C 
BRANCH   8   9
ATOM      9  N   UNL A   1      33.760  21.323  25.172  1.00  0.00    -0.327 N 
ATOM     10  C   UNL A   1      32.446  21.540  24.800  1.00  0.00     0.109 A 
ATOM     11  C   UNL A   1      34.145  20.035  24.840  1.00  0.00     0.049 A 
ATOM     12  C   UNL A   1      31.963  20.347  24.299  1.00  0.00     0.042 A 
ATOM     13  C   UNL A   1      33.032  19.409  24.275  1.00  0.00     0.000 A 
ATOM     14  C   UNL A   1      35.375  19.370  24.990  1.00  0.00     0.027 A 
ATOM     15  C   UNL A   1      33.157  18.083  23.815  1.00  0.00     0.010 A 
ATOM     16  C   UNL A   1      35.473  18.055  24.527  1.00  0.00     0.002 A 
ATOM     17  C   UNL A   1      34.383  17.420  23.941  1.00  0.00     0.001 A 
BRANCH  10  18
ATOM     18  C   UNL A   1      31.788  22.809  24.866  1.00  0.00     0.274 A 
ATOM     19  N   UNL A   1      31.409  23.541  23.836  1.00  0.00    -0.185 NA
ATOM     20  O   UNL A   1      31.482  23.392  26.065  1.00  0.00    -0.332 OA
ATOM     21  C   UNL A   1      30.891  24.667  24.445  1.00  0.00     0.202 A 
ATOM     22  N   UNL A   1      30.895  24.612  25.786  1.00  0.00    -0.057 NA
BRANCH  21  23
ATOM     23  C   UNL A   1      30.370  25.839  23.752  1.00  0.00     0.023 A 
ATOM     24  C   UNL A   1      31.240  26.595  22.954  1.00  0.00     0.013 A 
ATOM     25  C   UNL A   1      29.075  26.315  23.977  1.00  0.00     0.013 A 
ATOM     26  C   UNL A   1      30.852  27.840  22.454  1.00  0.00     0.014 A 
ATOM     27  C   UNL A   1      28.686  27.572  23.487  1.00  0.00     0.014 A 
ATOM     28  C   UNL A   1      29.584  28.361  22.751  1.00  0.00     0.056 A 
BRANCH  28  29
ATOM     29  C   UNL A   1      29.245  29.771  22.325  1.00  0.00     0.416 C 
ATOM     30  F   UNL A   1      27.913  29.908  22.055  1.00  0.00    -0.166 F 
ATOM     31  F   UNL A   1      29.520  30.694  23.287  1.00  0.00    -0.166 F 
ATOM     32  F   UNL A   1      29.890  30.182  21.201  1.00  0.00    -0.166 F 
ENDBRANCH  28  29
ENDBRANCH  21  23
ENDBRANCH  10  18
ENDBRANCH   8   9
ENDBRANCH   6   8
ENDBRANCH   3   4
ENDBRANCH   2   3
ENDBRANCH   1   2
BRANCH   1  33
ATOM     33  C   UNL A   1      32.623  29.373  25.177  1.00  0.00     0.002 C 
BRANCH  33  34
ATOM     34  C   UNL A   1      32.172  30.398  26.227  1.00  0.00     0.021 C 
BRANCH  34  35
ATOM     35  C   UNL A   1      33.106  30.561  27.428  1.00  0.00     0.116 C 
BRANCH  35  36
ATOM     36  N   UNL A   1      33.647  31.898  27.575  1.00  0.00    -0.352 N 
ATOM     37  C   UNL A   1      34.882  32.439  27.813  1.00  0.00     0.251 C 
ATOM     38  H   UNL A   1      32.952  32.590  27.478  1.00  0.00     0.163 HD
ATOM     39  O   UNL A   1      34.947  33.665  27.674  1.00  0.00    -0.269 OA
BRANCH  37  40
ATOM     40  C   UNL A   1      36.098  31.701  28.267  1.00  0.00     0.039 A 
ATOM     41  C   UNL A   1      37.267  32.279  28.752  1.00  0.00     0.014 A 
ATOM     42  C   UNL A   1      36.062  30.295  28.123  1.00  0.00     0.014 A 
ATOM     43  C   UNL A   1      38.385  31.482  29.017  1.00  0.00     0.010 A 
ATOM     44  C   UNL A   1      37.174  29.495  28.391  1.00  0.00     0.010 A 
ATOM     45  C   UNL A   1      38.355  30.092  28.809  1.00  0.00    -0.014 A 
BRANCH  45  46
ATOM     46  C   UNL A   1      39.529  29.309  29.211  1.00  0.00     0.031 A 
ATOM     47  C   UNL A   1      39.861  29.463  30.653  1.00  0.00     0.074 A 
ATOM     48  C   UNL A   1      40.263  28.481  28.436  1.00  0.00     0.049 A 
ATOM     49  N   UNL A   1      40.784  30.217  31.154  1.00  0.00    -0.248 NA
ATOM     50  C   UNL A   1      38.967  28.861  31.652  1.00  0.00     0.031 C 
ATOM     51  C   UNL A   1      39.962  28.001  27.085  1.00  0.00     0.029 A 
ATOM     52  N   UNL A   1      41.428  27.820  28.736  1.00  0.00    -0.354 N 
ATOM     53  C   UNL A   1      40.757  29.971  32.523  1.00  0.00     0.074 A 
ATOM     54  C   UNL A   1      39.516  29.292  32.791  1.00  0.00     0.031 C 
ATOM     55  C   UNL A   1      40.787  26.973  26.774  1.00  0.00     0.029 A 
ATOM     56  C   UNL A   1      41.776  26.821  27.827  1.00  0.00     0.049 A 
ATOM     57  H   UNL A   1      41.972  28.033  29.529  1.00  0.00     0.167 HD
ATOM     58  C   UNL A   1      41.888  30.080  33.271  1.00  0.00     0.034 A 
ATOM     59  C   UNL A   1      42.796  25.932  27.948  1.00  0.00     0.034 A 
ATOM     60  C   UNL A   1      42.935  30.757  32.555  1.00  0.00     0.049 A 
ATOM     61  C   UNL A   1      43.806  26.571  28.818  1.00  0.00     0.074 A 
ATOM     62  C   UNL A   1      43.148  32.014  32.034  1.00  0.00     0.029 A 
ATOM     63  N   UNL A   1      43.836  29.911  31.964  1.00  0.00    -0.354 N 
ATOM     64  N   UNL A   1      44.507  27.613  28.470  1.00  0.00    -0.248 NA
ATOM     65  C   UNL A   1      43.868  26.207  30.225  1.00  0.00     0.031 C 
ATOM     66  C   UNL A   1      43.983  31.816  30.896  1.00  0.00     0.029 A 
ATOM     67  C   UNL A   1      44.280  30.456  30.794  1.00  0.00     0.049 A 
ATOM     68  H   UNL A   1      44.119  29.042  32.328  1.00  0.00     0.167 HD
ATOM     69  C   UNL A   1      44.713  28.284  29.661  1.00  0.00     0.074 A 
ATOM     70  C   UNL A   1      44.470  27.297  30.703  1.00  0.00     0.031 C 
ATOM     71  C   UNL A   1      44.744  29.645  29.690  1.00  0.00     0.034 A 
BRANCH  58  72
ATOM     72  C   UNL A   1      42.234  29.165  34.425  1.00  0.00     0.023 A 
ATOM     73  C   UNL A   1      42.685  29.763  35.624  1.00  0.00     0.012 A 
ATOM     74  C   UNL A   1      42.456  27.777  34.277  1.00  0.00     0.148 A 
ATOM     75  C   UNL A   1      43.339  29.019  36.613  1.00  0.00     0.002 A 
ATOM     76  C   UNL A   1      43.035  27.029  35.293  1.00  0.00     0.091 A 
ATOM     77  F   UNL A   1      42.251  27.194  33.091  1.00  0.00    -0.205 F 
ATOM     78  C   UNL A   1      43.502  27.648  36.455  1.00  0.00     0.022 A 
BRANCH  76  79
ATOM     79  S   UNL A   1      43.255  25.252  35.144  1.00  0.00     0.127 S 
ATOM     80  O   UNL A   1      44.116  24.970  36.286  1.00  0.00    -0.237 OA
ATOM     81  O   UNL A   1      41.879  24.773  35.263  1.00  0.00    -0.237 OA
ATOM     82  O   UNL A   1      43.846  25.046  33.825  1.00  0.00    -0.744 OA
ENDBRANCH  76  79
ENDBRANCH  58  72
BRANCH  59  83
ATOM     83  C   UNL A   1      42.971  24.519  27.512  1.00  0.00     0.023 A 
ATOM     84  C   UNL A   1      41.904  23.606  27.699  1.00  0.00     0.012 A 
ATOM     85  C   UNL A   1      44.005  24.146  26.629  1.00  0.00     0.148 A 
ATOM     86  C   UNL A   1      41.824  22.414  26.968  1.00  0.00     0.002 A 
ATOM     87  C   UNL A   1      43.925  22.952  25.909  1.00  0.00     0.091 A 
ATOM     88  F   UNL A   1      45.015  25.001  26.422  1.00  0.00    -0.205 F 
ATOM     89  C   UNL A   1      42.825  22.096  26.058  1.00  0.00     0.022 A 
BRANCH  87  90
ATOM     90  S   UNL A   1      45.177  22.467  24.713  1.00  0.00     0.127 S 
ATOM     91  O   UNL A   1      45.561  23.754  24.131  1.00  0.00    -0.237 OA
ATOM     92  O   UNL A   1      46.193  21.855  25.564  1.00  0.00    -0.237 OA
ATOM     93  O   UNL A   1      44.504  21.570  23.782  1.00  0.00    -0.744 OA
ENDBRANCH  87  90
ENDBRANCH  59  83
BRANCH  71  94
ATOM     94  C   UNL A   1      45.079  30.374  28.425  1.00  0.00     0.023 A 
ATOM     95  C   UNL A   1      44.105  30.906  27.559  1.00  0.00     0.012 A 
ATOM     96  C   UNL A   1      46.434  30.685  28.220  1.00  0.00     0.148 A 
ATOM     97  C   UNL A   1      44.485  31.748  26.509  1.00  0.00     0.002 A 
ATOM     98  C   UNL A   1      46.800  31.556  27.207  1.00  0.00     0.091 A 
ATOM     99  F   UNL A   1      47.336  30.156  29.062  1.00  0.00    -0.205 F 
ATOM    100  C   UNL A   1      45.828  32.087  26.345  1.00  0.00     0.022 A 
BRANCH  98 101
ATOM    101  S   UNL A   1      48.489  32.128  27.024  1.00  0.00     0.127 S 
ATOM    102  O   UNL A   1      48.794  32.618  28.368  1.00  0.00    -0.237 OA
ATOM    103  O   UNL A   1      49.189  30.900  26.645  1.00  0.00    -0.237 OA
ATOM    104  O   UNL A   1      48.465  33.151  25.985  1.00  0.00    -0.744 OA
ENDBRANCH  98 101
ENDBRANCH  71  94
ENDBRANCH  45  46
ENDBRANCH  37  40
ENDBRANCH  35  36
ENDBRANCH  34  35
ENDBRANCH  33  34
ENDBRANCH   1  33
TORSDOF 20
ENDMDL
