MODEL 1
REMARK VINA RESULT:     -12.0      0.000      0.000
REMARK SMILES Cc1cc2nc(SCC(=O)NCCCCCCNC(=O)c3ccc(-c4c5nc(c(-c6cccc(S(=O)(=O)[O-])c6F)c6ccc([nH]6)c(-c6cccc(S(=O)(=O)[O-])c6F)c6nc(c(-c7cccc(S(=O)(=O)[O-])c7F)c7ccc4[nH]7)C=C6)C=C5)cc3)n(CC(C)C)c(=O)c2[nH]1
REMARK SMILES IDX 14 1 13 2 12 3 11 4 9 5 10 6 8 8 7 9 6 10 1 11 2 12 3 13
REMARK SMILES IDX 92 14 4 15 91 16 5 18 89 19 84 20 90 21 85 22 86 23 87 24
REMARK SMILES IDX 88 25 15 26 16 27 17 28 18 29 19 30 20 32 21 33 22 34 83 35
REMARK SMILES IDX 23 36 82 37 24 38 25 39 26 40 76 41 27 42 81 43 75 44 77 45
REMARK SMILES IDX 28 46 80 47 74 48 73 49 29 51 61 52 41 53 60 54 42 55 45 56
REMARK SMILES IDX 59 57 78 58 43 59 44 60 58 62 79 63 46 64 30 65 31 66 39 67
REMARK SMILES IDX 32 68 34 69 40 70 33 71 35 72 36 73 37 74 38 75 62 76 63 77
REMARK SMILES IDX 71 78 64 79 66 80 72 81 65 82 67 83 68 84 69 85 70 86 47 87
REMARK SMILES IDX 48 88 56 89 49 90 51 91 57 92 50 93 52 94 53 95 54 96 55 97
REMARK H PARENT 11 7 92 17 18 31 77 50 45 61
REMARK Flexibility Score: inf
ROOT
ATOM      1  C   UNL A   1      31.026  29.068  24.460  1.00  0.00     0.002 C 
ENDROOT
BRANCH   1   2
ATOM      2  C   UNL A   1      31.753  28.694  23.161  1.00  0.00     0.021 C 
BRANCH   2   3
ATOM      3  C   UNL A   1      31.218  27.458  22.446  1.00  0.00     0.116 C 
BRANCH   3   4
ATOM      4  N   UNL A   1      32.213  26.824  21.607  1.00  0.00    -0.355 N 
ATOM      5  C   UNL A   1      32.623  25.531  21.597  1.00  0.00     0.230 C 
ATOM      6  O   UNL A   1      33.133  25.118  20.552  1.00  0.00    -0.274 OA
ATOM      7  H   UNL A   1      32.653  27.412  20.952  1.00  0.00     0.163 HD
BRANCH   5   8
ATOM      8  C   UNL A   1      32.378  24.575  22.736  1.00  0.00     0.178 C 
BRANCH   8   9
ATOM      9  S   UNL A   1      32.845  22.890  22.519  1.00  0.00    -0.078 SA
BRANCH   9  10
ATOM     10  C   UNL A   1      32.794  21.795  23.879  1.00  0.00     0.172 A 
ATOM     11  C   UNL A   1      32.403  16.164  25.709  1.00  0.00     0.064 C 
ATOM     12  C   UNL A   1      32.637  17.580  25.327  1.00  0.00     0.014 A 
ATOM     13  C   UNL A   1      32.532  18.190  24.085  1.00  0.00     0.052 A 
ATOM     14  N   UNL A   1      32.984  18.552  26.244  1.00  0.00    -0.353 N 
ATOM     15  C   UNL A   1      32.740  19.556  24.306  1.00  0.00     0.097 A 
ATOM     16  C   UNL A   1      33.027  19.764  25.611  1.00  0.00     0.131 A 
ATOM     17  H   UNL A   1      33.170  18.397  27.198  1.00  0.00     0.166 HD
ATOM     18  N   UNL A   1      32.692  20.590  23.394  1.00  0.00    -0.222 NA
ATOM     19  C   UNL A   1      33.266  21.058  26.146  1.00  0.00     0.278 A 
ATOM     20  N   UNL A   1      32.953  22.102  25.240  1.00  0.00    -0.286 N 
ATOM     21  O   UNL A   1      33.687  21.227  27.280  1.00  0.00    -0.267 OA
BRANCH  20  22
ATOM     22  C   UNL A   1      32.858  23.412  25.893  1.00  0.00     0.131 C 
BRANCH  22  23
ATOM     23  C   UNL A   1      31.419  24.008  25.921  1.00  0.00     0.003 C 
ATOM     24  C   UNL A   1      30.442  23.280  26.855  1.00  0.00     0.009 C 
ATOM     25  C   UNL A   1      31.456  25.473  26.380  1.00  0.00     0.009 C 
ENDBRANCH  22  23
ENDBRANCH  20  22
ENDBRANCH   9  10
ENDBRANCH   8   9
ENDBRANCH   5   8
ENDBRANCH   3   4
ENDBRANCH   2   3
ENDBRANCH   1   2
BRANCH   1  26
ATOM     26  C   UNL A   1      31.888  29.134  25.730  1.00  0.00     0.002 C 
BRANCH  26  27
ATOM     27  C   UNL A   1      33.389  29.379  25.525  1.00  0.00     0.021 C 
BRANCH  27  28
ATOM     28  C   UNL A   1      34.169  29.543  26.820  1.00  0.00     0.116 C 
BRANCH  28  29
ATOM     29  N   UNL A   1      34.032  30.888  27.362  1.00  0.00    -0.352 N 
ATOM     30  C   UNL A   1      34.748  31.462  28.386  1.00  0.00     0.251 C 
ATOM     31  H   UNL A   1      33.344  31.454  26.945  1.00  0.00     0.163 HD
ATOM     32  O   UNL A   1      34.299  32.438  28.979  1.00  0.00    -0.269 OA
BRANCH  30  33
ATOM     33  C   UNL A   1      36.055  30.897  28.762  1.00  0.00     0.039 A 
ATOM     34  C   UNL A   1      36.134  29.581  29.230  1.00  0.00     0.014 A 
ATOM     35  C   UNL A   1      37.196  31.700  28.690  1.00  0.00     0.014 A 
ATOM     36  C   UNL A   1      37.375  29.063  29.580  1.00  0.00     0.010 A 
ATOM     37  C   UNL A   1      38.435  31.162  28.956  1.00  0.00     0.010 A 
ATOM     38  C   UNL A   1      38.520  29.858  29.434  1.00  0.00    -0.014 A 
BRANCH  38  39
ATOM     39  C   UNL A   1      39.835  29.285  29.673  1.00  0.00     0.031 A 
ATOM     40  C   UNL A   1      40.288  29.353  31.088  1.00  0.00     0.074 A 
ATOM     41  C   UNL A   1      40.494  28.559  28.747  1.00  0.00     0.049 A 
ATOM     42  N   UNL A   1      41.245  30.070  31.579  1.00  0.00    -0.248 NA
ATOM     43  C   UNL A   1      39.493  28.640  32.102  1.00  0.00     0.031 C 
ATOM     44  C   UNL A   1      40.011  28.137  27.428  1.00  0.00     0.029 A 
ATOM     45  N   UNL A   1      41.691  27.919  28.852  1.00  0.00    -0.354 N 
ATOM     46  C   UNL A   1      41.332  29.699  32.918  1.00  0.00     0.074 A 
ATOM     47  C   UNL A   1      40.120  28.985  33.227  1.00  0.00     0.031 C 
ATOM     48  C   UNL A   1      40.786  27.128  26.970  1.00  0.00     0.029 A 
ATOM     49  C   UNL A   1      41.900  26.943  27.880  1.00  0.00     0.049 A 
ATOM     50  H   UNL A   1      42.350  28.127  29.553  1.00  0.00     0.167 HD
ATOM     51  C   UNL A   1      42.508  29.755  33.600  1.00  0.00     0.034 A 
ATOM     52  C   UNL A   1      42.891  26.019  27.876  1.00  0.00     0.034 A 
ATOM     53  C   UNL A   1      43.508  30.514  32.903  1.00  0.00     0.049 A 
ATOM     54  C   UNL A   1      43.966  26.558  28.743  1.00  0.00     0.074 A 
ATOM     55  C   UNL A   1      43.613  31.807  32.432  1.00  0.00     0.029 A 
ATOM     56  N   UNL A   1      44.468  29.785  32.245  1.00  0.00    -0.354 N 
ATOM     57  N   UNL A   1      44.652  27.632  28.470  1.00  0.00    -0.248 NA
ATOM     58  C   UNL A   1      44.032  26.104  30.123  1.00  0.00     0.031 C 
ATOM     59  C   UNL A   1      44.313  31.690  31.195  1.00  0.00     0.029 A 
ATOM     60  C   UNL A   1      44.641  30.344  31.009  1.00  0.00     0.049 A 
ATOM     61  H   UNL A   1      44.946  29.001  32.600  1.00  0.00     0.167 HD
ATOM     62  C   UNL A   1      44.861  28.229  29.704  1.00  0.00     0.074 A 
ATOM     63  C   UNL A   1      44.581  27.184  30.683  1.00  0.00     0.031 C 
ATOM     64  C   UNL A   1      44.954  29.586  29.818  1.00  0.00     0.034 A 
BRANCH  51  65
ATOM     65  C   UNL A   1      42.885  28.796  34.700  1.00  0.00     0.023 A 
ATOM     66  C   UNL A   1      43.388  29.327  35.906  1.00  0.00     0.012 A 
ATOM     67  C   UNL A   1      43.018  27.404  34.499  1.00  0.00     0.148 A 
ATOM     68  C   UNL A   1      43.996  28.507  36.864  1.00  0.00     0.002 A 
ATOM     69  C   UNL A   1      43.539  26.584  35.491  1.00  0.00     0.091 A 
ATOM     70  F   UNL A   1      42.777  26.882  33.292  1.00  0.00    -0.205 F 
ATOM     71  C   UNL A   1      44.053  27.131  36.667  1.00  0.00     0.022 A 
BRANCH  69  72
ATOM     72  S   UNL A   1      43.577  24.799  35.296  1.00  0.00     0.127 S 
ATOM     73  O   UNL A   1      44.257  24.387  36.519  1.00  0.00    -0.237 OA
ATOM     74  O   UNL A   1      42.152  24.474  35.234  1.00  0.00    -0.237 OA
ATOM     75  O   UNL A   1      44.293  24.569  34.048  1.00  0.00    -0.744 OA
ENDBRANCH  69  72
ENDBRANCH  51  65
BRANCH  52  76
ATOM     76  C   UNL A   1      42.917  24.615  27.392  1.00  0.00     0.023 A 
ATOM     77  C   UNL A   1      41.740  23.842  27.496  1.00  0.00     0.012 A 
ATOM     78  C   UNL A   1      43.953  24.127  26.564  1.00  0.00     0.148 A 
ATOM     79  C   UNL A   1      41.564  22.676  26.744  1.00  0.00     0.002 A 
ATOM     80  C   UNL A   1      43.780  22.955  25.828  1.00  0.00     0.091 A 
ATOM     81  F   UNL A   1      45.067  24.854  26.417  1.00  0.00    -0.205 F 
ATOM     82  C   UNL A   1      42.578  22.241  25.897  1.00  0.00     0.022 A 
BRANCH  80  83
ATOM     83  S   UNL A   1      45.048  22.330  24.714  1.00  0.00     0.127 S 
ATOM     84  O   UNL A   1      46.079  21.869  25.647  1.00  0.00    -0.237 OA
ATOM     85  O   UNL A   1      44.339  21.265  24.013  1.00  0.00    -0.237 OA
ATOM     86  O   UNL A   1      45.454  23.470  23.900  1.00  0.00    -0.744 OA
ENDBRANCH  80  83
ENDBRANCH  52  76
BRANCH  64  87
ATOM     87  C   UNL A   1      45.146  30.391  28.560  1.00  0.00     0.023 A 
ATOM     88  C   UNL A   1      44.061  30.886  27.808  1.00  0.00     0.012 A 
ATOM     89  C   UNL A   1      46.446  30.825  28.256  1.00  0.00     0.148 A 
ATOM     90  C   UNL A   1      44.273  31.798  26.769  1.00  0.00     0.002 A 
ATOM     91  C   UNL A   1      46.649  31.761  27.252  1.00  0.00     0.091 A 
ATOM     92  F   UNL A   1      47.459  30.346  28.995  1.00  0.00    -0.205 F 
ATOM     93  C   UNL A   1      45.566  32.248  26.502  1.00  0.00     0.022 A 
BRANCH  91  94
ATOM     94  S   UNL A   1      48.267  32.468  26.932  1.00  0.00     0.127 S 
ATOM     95  O   UNL A   1      47.989  33.378  25.822  1.00  0.00    -0.237 OA
ATOM     96  O   UNL A   1      48.572  33.128  28.202  1.00  0.00    -0.237 OA
ATOM     97  O   UNL A   1      49.144  31.349  26.611  1.00  0.00    -0.744 OA
ENDBRANCH  91  94
ENDBRANCH  64  87
ENDBRANCH  38  39
ENDBRANCH  30  33
ENDBRANCH  28  29
ENDBRANCH  27  28
ENDBRANCH  26  27
ENDBRANCH   1  26
TORSDOF 20
ENDMDL
MODEL 2
REMARK VINA RESULT:     -11.2      3.469      9.204
REMARK SMILES Cc1cc2nc(SCC(=O)NCCCCCCNC(=O)c3ccc(-c4c5nc(c(-c6cccc(S(=O)(=O)[O-])c6F)c6ccc([nH]6)c(-c6cccc(S(=O)(=O)[O-])c6F)c6nc(c(-c7cccc(S(=O)(=O)[O-])c7F)c7ccc4[nH]7)C=C6)C=C5)cc3)n(CC(C)C)c(=O)c2[nH]1
REMARK SMILES IDX 14 1 13 2 12 3 11 4 9 5 10 6 8 8 7 9 6 10 1 11 2 12 3 13
REMARK SMILES IDX 92 14 4 15 91 16 5 18 89 19 84 20 90 21 85 22 86 23 87 24
REMARK SMILES IDX 88 25 15 26 16 27 17 28 18 29 19 30 20 32 21 33 22 34 83 35
REMARK SMILES IDX 23 36 82 37 24 38 25 39 26 40 76 41 27 42 81 43 75 44 77 45
REMARK SMILES IDX 28 46 80 47 74 48 73 49 29 51 61 52 41 53 60 54 42 55 45 56
REMARK SMILES IDX 59 57 78 58 43 59 44 60 58 62 79 63 46 64 30 65 31 66 39 67
REMARK SMILES IDX 32 68 34 69 40 70 33 71 35 72 36 73 37 74 38 75 62 76 63 77
REMARK SMILES IDX 71 78 64 79 66 80 72 81 65 82 67 83 68 84 69 85 70 86 47 87
REMARK SMILES IDX 48 88 56 89 49 90 51 91 57 92 50 93 52 94 53 95 54 96 55 97
REMARK H PARENT 11 7 92 17 18 31 77 50 45 61
REMARK Flexibility Score: inf
ROOT
ATOM      1  C   UNL A   1      34.863  21.930  24.800  1.00  0.00     0.002 C 
ENDROOT
BRANCH   1   2
ATOM      2  C   UNL A   1      33.464  22.243  25.348  1.00  0.00     0.021 C 
BRANCH   2   3
ATOM      3  C   UNL A   1      32.648  23.236  24.526  1.00  0.00     0.116 C 
BRANCH   3   4
ATOM      4  N   UNL A   1      32.765  23.010  23.101  1.00  0.00    -0.355 N 
ATOM      5  C   UNL A   1      33.006  23.905  22.112  1.00  0.00     0.230 C 
ATOM      6  O   UNL A   1      33.490  23.462  21.066  1.00  0.00    -0.274 OA
ATOM      7  H   UNL A   1      32.655  22.077  22.809  1.00  0.00     0.163 HD
BRANCH   5   8
ATOM      8  C   UNL A   1      32.824  25.393  22.277  1.00  0.00     0.178 C 
BRANCH   8   9
ATOM      9  S   UNL A   1      31.204  25.998  22.616  1.00  0.00    -0.078 SA
BRANCH   9  10
ATOM     10  C   UNL A   1      30.965  27.696  22.946  1.00  0.00     0.172 A 
ATOM     11  C   UNL A   1      28.023  32.658  21.556  1.00  0.00     0.064 C 
ATOM     12  C   UNL A   1      28.703  31.433  22.048  1.00  0.00     0.014 A 
ATOM     13  C   UNL A   1      28.755  30.164  21.488  1.00  0.00     0.052 A 
ATOM     14  N   UNL A   1      29.459  31.412  23.204  1.00  0.00    -0.353 N 
ATOM     15  C   UNL A   1      29.625  29.421  22.291  1.00  0.00     0.097 A 
ATOM     16  C   UNL A   1      30.035  30.178  23.335  1.00  0.00     0.131 A 
ATOM     17  H   UNL A   1      29.564  32.163  23.831  1.00  0.00     0.166 HD
ATOM     18  N   UNL A   1      30.042  28.116  22.127  1.00  0.00    -0.222 NA
ATOM     19  C   UNL A   1      30.946  29.703  24.315  1.00  0.00     0.278 A 
ATOM     20  N   UNL A   1      31.543  28.466  23.968  1.00  0.00    -0.286 N 
ATOM     21  O   UNL A   1      31.183  30.324  25.340  1.00  0.00    -0.267 OA
BRANCH  20  22
ATOM     22  C   UNL A   1      32.722  28.155  24.783  1.00  0.00     0.131 C 
BRANCH  22  23
ATOM     23  C   UNL A   1      32.539  26.927  25.726  1.00  0.00     0.003 C 
ATOM     24  C   UNL A   1      33.821  26.125  25.988  1.00  0.00     0.009 C 
ATOM     25  C   UNL A   1      32.017  27.381  27.097  1.00  0.00     0.009 C 
ENDBRANCH  22  23
ENDBRANCH  20  22
ENDBRANCH   9  10
ENDBRANCH   8   9
ENDBRANCH   5   8
ENDBRANCH   3   4
ENDBRANCH   2   3
ENDBRANCH   1   2
BRANCH   1  26
ATOM     26  C   UNL A   1      35.953  21.630  25.840  1.00  0.00     0.002 C 
BRANCH  26  27
ATOM     27  C   UNL A   1      37.396  21.579  25.321  1.00  0.00     0.021 C 
BRANCH  27  28
ATOM     28  C   UNL A   1      38.371  22.421  26.130  1.00  0.00     0.116 C 
BRANCH  28  29
ATOM     29  N   UNL A   1      39.736  21.927  26.009  1.00  0.00    -0.352 N 
ATOM     30  C   UNL A   1      40.906  22.633  26.159  1.00  0.00     0.251 C 
ATOM     31  H   UNL A   1      39.832  20.971  25.793  1.00  0.00     0.163 HD
ATOM     32  O   UNL A   1      41.950  22.203  25.679  1.00  0.00    -0.269 OA
BRANCH  30  33
ATOM     33  C   UNL A   1      40.895  23.905  26.901  1.00  0.00     0.039 A 
ATOM     34  C   UNL A   1      41.708  24.058  28.029  1.00  0.00     0.014 A 
ATOM     35  C   UNL A   1      40.037  24.930  26.494  1.00  0.00     0.014 A 
ATOM     36  C   UNL A   1      41.687  25.265  28.718  1.00  0.00     0.010 A 
ATOM     37  C   UNL A   1      40.077  26.153  27.124  1.00  0.00     0.010 A 
ATOM     38  C   UNL A   1      40.874  26.308  28.254  1.00  0.00    -0.014 A 
BRANCH  38  39
ATOM     39  C   UNL A   1      40.941  27.615  28.889  1.00  0.00     0.031 A 
ATOM     40  C   UNL A   1      41.919  28.549  28.271  1.00  0.00     0.074 A 
ATOM     41  C   UNL A   1      40.046  28.026  29.810  1.00  0.00     0.049 A 
ATOM     42  N   UNL A   1      43.026  28.985  28.778  1.00  0.00    -0.248 NA
ATOM     43  C   UNL A   1      41.708  28.939  26.867  1.00  0.00     0.031 C 
ATOM     44  C   UNL A   1      38.837  27.327  30.262  1.00  0.00     0.029 A 
ATOM     45  N   UNL A   1      39.952  29.231  30.436  1.00  0.00    -0.354 N 
ATOM     46  C   UNL A   1      43.517  29.903  27.853  1.00  0.00     0.074 A 
ATOM     47  C   UNL A   1      42.790  29.684  26.629  1.00  0.00     0.031 C 
ATOM     48  C   UNL A   1      38.020  28.205  30.885  1.00  0.00     0.029 A 
ATOM     49  C   UNL A   1      38.708  29.475  31.014  1.00  0.00     0.049 A 
ATOM     50  H   UNL A   1      40.696  29.874  30.476  1.00  0.00     0.167 HD
ATOM     51  C   UNL A   1      44.281  30.962  28.234  1.00  0.00     0.034 A 
ATOM     52  C   UNL A   1      38.274  30.662  31.504  1.00  0.00     0.034 A 
ATOM     53  C   UNL A   1      44.763  30.830  29.581  1.00  0.00     0.049 A 
ATOM     54  C   UNL A   1      39.487  31.459  31.800  1.00  0.00     0.074 A 
ATOM     55  C   UNL A   1      45.531  29.911  30.266  1.00  0.00     0.029 A 
ATOM     56  N   UNL A   1      44.103  31.567  30.533  1.00  0.00    -0.354 N 
ATOM     57  N   UNL A   1      40.363  31.142  32.712  1.00  0.00    -0.248 NA
ATOM     58  C   UNL A   1      39.931  32.432  30.815  1.00  0.00     0.031 C 
ATOM     59  C   UNL A   1      44.946  29.841  31.565  1.00  0.00     0.029 A 
ATOM     60  C   UNL A   1      43.891  30.756  31.614  1.00  0.00     0.049 A 
ATOM     61  H   UNL A   1      43.833  32.511  30.452  1.00  0.00     0.167 HD
ATOM     62  C   UNL A   1      41.580  31.519  32.165  1.00  0.00     0.074 A 
ATOM     63  C   UNL A   1      41.240  32.423  31.071  1.00  0.00     0.031 C 
ATOM     64  C   UNL A   1      42.723  30.835  32.463  1.00  0.00     0.034 A 
BRANCH  51  65
ATOM     65  C   UNL A   1      44.264  32.300  27.541  1.00  0.00     0.023 A 
ATOM     66  C   UNL A   1      45.179  32.520  26.491  1.00  0.00     0.012 A 
ATOM     67  C   UNL A   1      43.581  33.426  28.052  1.00  0.00     0.148 A 
ATOM     68  C   UNL A   1      45.403  33.803  25.977  1.00  0.00     0.002 A 
ATOM     69  C   UNL A   1      43.739  34.681  27.478  1.00  0.00     0.091 A 
ATOM     70  F   UNL A   1      42.885  33.321  29.189  1.00  0.00    -0.205 F 
ATOM     71  C   UNL A   1      44.667  34.882  26.456  1.00  0.00     0.022 A 
BRANCH  69  72
ATOM     72  S   UNL A   1      42.765  36.084  28.031  1.00  0.00     0.127 S 
ATOM     73  O   UNL A   1      43.200  37.124  27.104  1.00  0.00    -0.237 OA
ATOM     74  O   UNL A   1      41.399  35.600  27.830  1.00  0.00    -0.237 OA
ATOM     75  O   UNL A   1      43.129  36.271  29.430  1.00  0.00    -0.744 OA
ENDBRANCH  69  72
ENDBRANCH  51  65
BRANCH  52  76
ATOM     76  C   UNL A   1      36.920  31.273  31.528  1.00  0.00     0.023 A 
ATOM     77  C   UNL A   1      36.394  31.702  32.767  1.00  0.00     0.012 A 
ATOM     78  C   UNL A   1      36.279  31.721  30.351  1.00  0.00     0.148 A 
ATOM     79  C   UNL A   1      35.327  32.605  32.833  1.00  0.00     0.002 A 
ATOM     80  C   UNL A   1      35.206  32.608  30.422  1.00  0.00     0.091 A 
ATOM     81  F   UNL A   1      36.776  31.360  29.161  1.00  0.00    -0.205 F 
ATOM     82  C   UNL A   1      34.744  33.071  31.660  1.00  0.00     0.022 A 
BRANCH  80  83
ATOM     83  S   UNL A   1      34.399  33.251  28.947  1.00  0.00     0.127 S 
ATOM     84  O   UNL A   1      33.965  32.027  28.273  1.00  0.00    -0.237 OA
ATOM     85  O   UNL A   1      33.319  34.051  29.516  1.00  0.00    -0.237 OA
ATOM     86  O   UNL A   1      35.429  33.991  28.226  1.00  0.00    -0.744 OA
ENDBRANCH  80  83
ENDBRANCH  52  76
BRANCH  64  87
ATOM     87  C   UNL A   1      42.694  29.881  33.628  1.00  0.00     0.023 A 
ATOM     88  C   UNL A   1      42.308  28.532  33.490  1.00  0.00     0.012 A 
ATOM     89  C   UNL A   1      43.268  30.310  34.835  1.00  0.00     0.148 A 
ATOM     90  C   UNL A   1      42.491  27.629  34.541  1.00  0.00     0.002 A 
ATOM     91  C   UNL A   1      43.486  29.402  35.862  1.00  0.00     0.091 A 
ATOM     92  F   UNL A   1      43.637  31.596  34.935  1.00  0.00    -0.205 F 
ATOM     93  C   UNL A   1      43.095  28.061  35.722  1.00  0.00     0.022 A 
BRANCH  91  94
ATOM     94  S   UNL A   1      44.359  29.862  37.360  1.00  0.00     0.127 S 
ATOM     95  O   UNL A   1      44.492  28.577  38.044  1.00  0.00    -0.237 OA
ATOM     96  O   UNL A   1      45.612  30.406  36.832  1.00  0.00    -0.237 OA
ATOM     97  O   UNL A   1      43.519  30.841  38.037  1.00  0.00    -0.744 OA
ENDBRANCH  91  94
ENDBRANCH  64  87
ENDBRANCH  38  39
ENDBRANCH  30  33
ENDBRANCH  28  29
ENDBRANCH  27  28
ENDBRANCH  26  27
ENDBRANCH   1  26
TORSDOF 20
ENDMDL
MODEL 3
REMARK VINA RESULT:     -11.2      1.832      2.318
REMARK SMILES Cc1cc2nc(SCC(=O)NCCCCCCNC(=O)c3ccc(-c4c5nc(c(-c6cccc(S(=O)(=O)[O-])c6F)c6ccc([nH]6)c(-c6cccc(S(=O)(=O)[O-])c6F)c6nc(c(-c7cccc(S(=O)(=O)[O-])c7F)c7ccc4[nH]7)C=C6)C=C5)cc3)n(CC(C)C)c(=O)c2[nH]1
REMARK SMILES IDX 14 1 13 2 12 3 11 4 9 5 10 6 8 8 7 9 6 10 1 11 2 12 3 13
REMARK SMILES IDX 92 14 4 15 91 16 5 18 89 19 84 20 90 21 85 22 86 23 87 24
REMARK SMILES IDX 88 25 15 26 16 27 17 28 18 29 19 30 20 32 21 33 22 34 83 35
REMARK SMILES IDX 23 36 82 37 24 38 25 39 26 40 76 41 27 42 81 43 75 44 77 45
REMARK SMILES IDX 28 46 80 47 74 48 73 49 29 51 61 52 41 53 60 54 42 55 45 56
REMARK SMILES IDX 59 57 78 58 43 59 44 60 58 62 79 63 46 64 30 65 31 66 39 67
REMARK SMILES IDX 32 68 34 69 40 70 33 71 35 72 36 73 37 74 38 75 62 76 63 77
REMARK SMILES IDX 71 78 64 79 66 80 72 81 65 82 67 83 68 84 69 85 70 86 47 87
REMARK SMILES IDX 48 88 56 89 49 90 51 91 57 92 50 93 52 94 53 95 54 96 55 97
REMARK H PARENT 11 7 92 17 18 31 77 50 45 61
REMARK Flexibility Score: inf
ROOT
ATOM      1  C   UNL A   1      31.009  28.826  24.897  1.00  0.00     0.002 C 
ENDROOT
BRANCH   1   2
ATOM      2  C   UNL A   1      31.806  28.443  23.642  1.00  0.00     0.021 C 
BRANCH   2   3
ATOM      3  C   UNL A   1      31.154  27.391  22.750  1.00  0.00     0.116 C 
BRANCH   3   4
ATOM      4  N   UNL A   1      32.026  26.946  21.683  1.00  0.00    -0.355 N 
ATOM      5  C   UNL A   1      32.605  25.734  21.504  1.00  0.00     0.230 C 
ATOM      6  O   UNL A   1      32.933  25.439  20.351  1.00  0.00    -0.274 OA
ATOM      7  H   UNL A   1      32.225  27.617  20.991  1.00  0.00     0.163 HD
BRANCH   5   8
ATOM      8  C   UNL A   1      32.752  24.714  22.604  1.00  0.00     0.178 C 
BRANCH   8   9
ATOM      9  S   UNL A   1      34.380  24.274  23.116  1.00  0.00    -0.078 SA
BRANCH   9  10
ATOM     10  C   UNL A   1      34.653  22.748  23.918  1.00  0.00     0.172 A 
ATOM     11  C   UNL A   1      32.338  17.564  25.648  1.00  0.00     0.064 C 
ATOM     12  C   UNL A   1      33.021  18.779  25.133  1.00  0.00     0.014 A 
ATOM     13  C   UNL A   1      32.481  19.924  24.567  1.00  0.00     0.052 A 
ATOM     14  N   UNL A   1      34.391  18.945  25.191  1.00  0.00    -0.353 N 
ATOM     15  C   UNL A   1      33.552  20.802  24.371  1.00  0.00     0.097 A 
ATOM     16  C   UNL A   1      34.705  20.197  24.738  1.00  0.00     0.131 A 
ATOM     17  H   UNL A   1      35.036  18.271  25.506  1.00  0.00     0.166 HD
ATOM     18  N   UNL A   1      33.528  22.090  23.878  1.00  0.00    -0.222 NA
ATOM     19  C   UNL A   1      35.966  20.848  24.674  1.00  0.00     0.278 A 
ATOM     20  N   UNL A   1      35.864  22.237  24.413  1.00  0.00    -0.286 N 
ATOM     21  O   UNL A   1      37.017  20.250  24.845  1.00  0.00    -0.267 OA
BRANCH  20  22
ATOM     22  C   UNL A   1      37.106  22.962  24.696  1.00  0.00     0.131 C 
BRANCH  22  23
ATOM     23  C   UNL A   1      36.978  24.032  25.823  1.00  0.00     0.003 C 
ATOM     24  C   UNL A   1      35.867  23.757  26.844  1.00  0.00     0.009 C 
ATOM     25  C   UNL A   1      38.290  24.132  26.616  1.00  0.00     0.009 C 
ENDBRANCH  22  23
ENDBRANCH  20  22
ENDBRANCH   9  10
ENDBRANCH   8   9
ENDBRANCH   5   8
ENDBRANCH   3   4
ENDBRANCH   2   3
ENDBRANCH   1   2
BRANCH   1  26
ATOM     26  C   UNL A   1      31.830  29.202  26.139  1.00  0.00     0.002 C 
BRANCH  26  27
ATOM     27  C   UNL A   1      33.263  29.691  25.888  1.00  0.00     0.021 C 
BRANCH  27  28
ATOM     28  C   UNL A   1      34.131  29.720  27.136  1.00  0.00     0.116 C 
BRANCH  28  29
ATOM     29  N   UNL A   1      34.068  31.013  27.804  1.00  0.00    -0.352 N 
ATOM     30  C   UNL A   1      34.905  31.501  28.779  1.00  0.00     0.251 C 
ATOM     31  H   UNL A   1      33.336  31.609  27.524  1.00  0.00     0.163 HD
ATOM     32  O   UNL A   1      34.537  32.420  29.503  1.00  0.00    -0.269 OA
BRANCH  30  33
ATOM     33  C   UNL A   1      36.245  30.914  28.945  1.00  0.00     0.039 A 
ATOM     34  C   UNL A   1      36.392  29.524  29.011  1.00  0.00     0.014 A 
ATOM     35  C   UNL A   1      37.352  31.756  29.078  1.00  0.00     0.014 A 
ATOM     36  C   UNL A   1      37.663  28.986  29.166  1.00  0.00     0.010 A 
ATOM     37  C   UNL A   1      38.619  31.223  29.147  1.00  0.00     0.010 A 
ATOM     38  C   UNL A   1      38.771  29.842  29.227  1.00  0.00    -0.014 A 
BRANCH  38  39
ATOM     39  C   UNL A   1      40.115  29.287  29.258  1.00  0.00     0.031 A 
ATOM     40  C   UNL A   1      40.674  29.105  30.624  1.00  0.00     0.074 A 
ATOM     41  C   UNL A   1      40.718  28.774  28.166  1.00  0.00     0.049 A 
ATOM     42  N   UNL A   1      41.648  29.755  31.173  1.00  0.00    -0.248 NA
ATOM     43  C   UNL A   1      39.978  28.184  31.538  1.00  0.00     0.031 C 
ATOM     44  C   UNL A   1      40.145  28.588  26.828  1.00  0.00     0.029 A 
ATOM     45  N   UNL A   1      41.935  28.173  28.062  1.00  0.00    -0.354 N 
ATOM     46  C   UNL A   1      41.848  29.143  32.407  1.00  0.00     0.074 A 
ATOM     47  C   UNL A   1      40.682  28.336  32.661  1.00  0.00     0.031 C 
ATOM     48  C   UNL A   1      40.907  27.715  26.134  1.00  0.00     0.029 A 
ATOM     49  C   UNL A   1      42.092  27.406  26.910  1.00  0.00     0.049 A 
ATOM     50  H   UNL A   1      42.641  28.272  28.741  1.00  0.00     0.167 HD
ATOM     51  C   UNL A   1      43.071  29.116  33.002  1.00  0.00     0.034 A 
ATOM     52  C   UNL A   1      43.104  26.539  26.659  1.00  0.00     0.034 A 
ATOM     53  C   UNL A   1      43.995  30.030  32.391  1.00  0.00     0.049 A 
ATOM     54  C   UNL A   1      44.228  26.948  27.534  1.00  0.00     0.074 A 
ATOM     55  C   UNL A   1      44.031  31.392  32.169  1.00  0.00     0.029 A 
ATOM     56  N   UNL A   1      44.920  29.476  31.540  1.00  0.00    -0.354 N 
ATOM     57  N   UNL A   1      44.864  28.079  27.421  1.00  0.00    -0.248 NA
ATOM     58  C   UNL A   1      44.413  26.245  28.793  1.00  0.00     0.031 C 
ATOM     59  C   UNL A   1      44.636  31.537  30.886  1.00  0.00     0.029 A 
ATOM     60  C   UNL A   1      44.981  30.264  30.424  1.00  0.00     0.049 A 
ATOM     61  H   UNL A   1      45.443  28.659  31.705  1.00  0.00     0.167 HD
ATOM     62  C   UNL A   1      45.153  28.442  28.728  1.00  0.00     0.074 A 
ATOM     63  C   UNL A   1      44.977  27.221  29.508  1.00  0.00     0.031 C 
ATOM     64  C   UNL A   1      45.221  29.756  29.091  1.00  0.00     0.034 A 
BRANCH  51  65
ATOM     65  C   UNL A   1      43.557  27.982  33.870  1.00  0.00     0.023 A 
ATOM     66  C   UNL A   1      43.526  26.676  33.341  1.00  0.00     0.012 A 
ATOM     67  C   UNL A   1      43.782  28.115  35.258  1.00  0.00     0.148 A 
ATOM     68  C   UNL A   1      43.710  25.555  34.159  1.00  0.00     0.002 A 
ATOM     69  C   UNL A   1      44.055  27.006  36.048  1.00  0.00     0.091 A 
ATOM     70  F   UNL A   1      43.591  29.298  35.851  1.00  0.00    -0.205 F 
ATOM     71  C   UNL A   1      43.996  25.720  35.511  1.00  0.00     0.022 A 
BRANCH  69  72
ATOM     72  S   UNL A   1      44.484  27.184  37.782  1.00  0.00     0.127 S 
ATOM     73  O   UNL A   1      44.505  28.636  37.930  1.00  0.00    -0.237 OA
ATOM     74  O   UNL A   1      43.366  26.507  38.439  1.00  0.00    -0.237 OA
ATOM     75  O   UNL A   1      45.762  26.500  37.929  1.00  0.00    -0.744 OA
ENDBRANCH  69  72
ENDBRANCH  51  65
BRANCH  52  76
ATOM     76  C   UNL A   1      43.127  25.253  25.916  1.00  0.00     0.023 A 
ATOM     77  C   UNL A   1      44.156  25.036  24.973  1.00  0.00     0.012 A 
ATOM     78  C   UNL A   1      42.367  24.135  26.328  1.00  0.00     0.148 A 
ATOM     79  C   UNL A   1      44.471  23.750  24.520  1.00  0.00     0.002 A 
ATOM     80  C   UNL A   1      42.674  22.858  25.862  1.00  0.00     0.091 A 
ATOM     81  F   UNL A   1      41.408  24.303  27.248  1.00  0.00    -0.205 F 
ATOM     82  C   UNL A   1      43.741  22.659  24.977  1.00  0.00     0.022 A 
BRANCH  80  83
ATOM     83  S   UNL A   1      41.771  21.399  26.406  1.00  0.00     0.127 S 
ATOM     84  O   UNL A   1      42.032  21.393  27.847  1.00  0.00    -0.237 OA
ATOM     85  O   UNL A   1      40.400  21.733  26.035  1.00  0.00    -0.237 OA
ATOM     86  O   UNL A   1      42.370  20.277  25.692  1.00  0.00    -0.744 OA
ENDBRANCH  80  83
ENDBRANCH  52  76
BRANCH  64  87
ATOM     87  C   UNL A   1      45.294  30.790  27.999  1.00  0.00     0.023 A 
ATOM     88  C   UNL A   1      44.142  31.312  27.375  1.00  0.00     0.012 A 
ATOM     89  C   UNL A   1      46.540  31.388  27.751  1.00  0.00     0.148 A 
ATOM     90  C   UNL A   1      44.235  32.413  26.518  1.00  0.00     0.002 A 
ATOM     91  C   UNL A   1      46.622  32.506  26.933  1.00  0.00     0.091 A 
ATOM     92  F   UNL A   1      47.617  30.878  28.367  1.00  0.00    -0.205 F 
ATOM     93  C   UNL A   1      45.473  33.020  26.309  1.00  0.00     0.022 A 
BRANCH  91  94
ATOM     94  S   UNL A   1      48.160  33.403  26.711  1.00  0.00     0.127 S 
ATOM     95  O   UNL A   1      49.091  32.333  26.359  1.00  0.00    -0.237 OA
ATOM     96  O   UNL A   1      47.831  34.313  25.613  1.00  0.00    -0.237 OA
ATOM     97  O   UNL A   1      48.430  34.068  27.980  1.00  0.00    -0.744 OA
ENDBRANCH  91  94
ENDBRANCH  64  87
ENDBRANCH  38  39
ENDBRANCH  30  33
ENDBRANCH  28  29
ENDBRANCH  27  28
ENDBRANCH  26  27
ENDBRANCH   1  26
TORSDOF 20
ENDMDL
