MODEL 1
REMARK VINA RESULT:     -11.8      0.000      0.000
REMARK SMILES Cc1cc(S(=O)(=O)Nc2ccc(F)c(F)c2)sc1C(=O)NCCCCCCNC(=O)c1ccc(-c2c3nc(c(-c4cccc(S(=O)(=O)[O-])c4F)c4ccc([nH]4)c(-c4cccc(S(=O)(=O)[O-])c4F)c4nc(c(-c5cccc(S(=O)(=O)[O-])c5F)c5ccc2[nH]5)C=C4)C=C3)cc1
REMARK SMILES IDX 24 1 23 2 22 3 21 4 19 5 20 6 18 8 1 9 2 10 3 11 4 12 17 13
REMARK SMILES IDX 5 14 6 15 7 16 8 17 9 19 10 20 16 21 11 22 14 23 12 24 15 25
REMARK SMILES IDX 13 26 25 27 26 28 27 29 28 30 29 31 30 33 31 34 32 35 93 36
REMARK SMILES IDX 33 37 92 38 34 39 35 40 36 41 86 42 37 43 91 44 85 45 87 46
REMARK SMILES IDX 38 47 90 48 84 49 83 50 39 52 71 53 51 54 70 55 52 56 55 57
REMARK SMILES IDX 69 58 88 59 53 60 54 61 68 63 89 64 56 65 40 66 41 67 49 68
REMARK SMILES IDX 42 69 44 70 50 71 43 72 45 73 46 74 47 75 48 76 72 77 73 78
REMARK SMILES IDX 81 79 74 80 76 81 82 82 75 83 77 84 78 85 79 86 80 87 57 88
REMARK SMILES IDX 58 89 66 90 59 91 61 92 67 93 60 94 62 95 63 96 64 97 65 98
REMARK H PARENT 21 7 8 18 28 32 87 51 55 62
REMARK Flexibility Score: inf
ROOT
ATOM      1  C   UNL A   1      33.342  25.141  26.110  1.00  0.00     0.002 C 
ENDROOT
BRANCH   1   2
ATOM      2  C   UNL A   1      32.957  23.877  26.888  1.00  0.00     0.021 C 
BRANCH   2   3
ATOM      3  C   UNL A   1      31.509  23.425  26.673  1.00  0.00     0.116 C 
BRANCH   3   4
ATOM      4  N   UNL A   1      31.483  22.045  26.252  1.00  0.00    -0.351 N 
ATOM      5  C   UNL A   1      32.071  21.369  25.219  1.00  0.00     0.261 C 
ATOM      6  O   UNL A   1      31.835  20.154  25.223  1.00  0.00    -0.268 OA
ATOM      7  H   UNL A   1      30.928  21.471  26.829  1.00  0.00     0.163 HD
BRANCH   5   8
ATOM      8  C   UNL A   1      32.914  21.983  24.193  1.00  0.00     0.096 A 
ATOM      9  C   UNL A   1      35.430  21.446  24.630  1.00  0.00     0.046 C 
ATOM     10  C   UNL A   1      34.282  22.111  23.948  1.00  0.00    -0.026 A 
ATOM     11  C   UNL A   1      34.528  23.134  22.954  1.00  0.00     0.038 A 
ATOM     12  C   UNL A   1      33.380  23.720  22.467  1.00  0.00     0.141 A 
ATOM     13  S   UNL A   1      32.019  22.851  22.988  1.00  0.00    -0.116 S 
BRANCH  12  14
ATOM     14  S   UNL A   1      33.093  25.105  21.391  1.00  0.00     0.271 S 
ATOM     15  O   UNL A   1      33.994  26.138  21.863  1.00  0.00    -0.200 OA
ATOM     16  O   UNL A   1      33.184  24.611  20.034  1.00  0.00    -0.200 OA
BRANCH  14  17
ATOM     17  N   UNL A   1      31.522  25.744  21.606  1.00  0.00    -0.279 N 
ATOM     18  H   UNL A   1      30.742  25.341  21.160  1.00  0.00     0.180 HD
BRANCH  17  19
ATOM     19  C   UNL A   1      31.380  26.882  22.457  1.00  0.00     0.052 A 
ATOM     20  C   UNL A   1      30.123  27.115  23.026  1.00  0.00     0.030 A 
ATOM     21  C   UNL A   1      32.432  27.770  22.681  1.00  0.00     0.069 A 
ATOM     22  C   UNL A   1      29.909  28.249  23.813  1.00  0.00     0.044 A 
ATOM     23  C   UNL A   1      32.210  28.893  23.476  1.00  0.00     0.160 A 
ATOM     24  C   UNL A   1      30.958  29.133  24.035  1.00  0.00     0.158 A 
ATOM     25  F   UNL A   1      33.218  29.748  23.699  1.00  0.00    -0.204 F 
ATOM     26  F   UNL A   1      30.757  30.215  24.800  1.00  0.00    -0.204 F 
ENDBRANCH  17  19
ENDBRANCH  14  17
ENDBRANCH  12  14
ENDBRANCH   5   8
ENDBRANCH   3   4
ENDBRANCH   2   3
ENDBRANCH   1   2
BRANCH   1  27
ATOM     27  C   UNL A   1      32.278  26.244  26.093  1.00  0.00     0.002 C 
BRANCH  27  28
ATOM     28  C   UNL A   1      32.552  27.441  27.009  1.00  0.00     0.021 C 
BRANCH  28  29
ATOM     29  C   UNL A   1      33.808  28.242  26.672  1.00  0.00     0.116 C 
BRANCH  29  30
ATOM     30  N   UNL A   1      33.637  29.661  26.944  1.00  0.00    -0.352 N 
ATOM     31  C   UNL A   1      34.416  30.504  27.697  1.00  0.00     0.251 C 
ATOM     32  H   UNL A   1      32.848  30.076  26.527  1.00  0.00     0.163 HD
ATOM     33  O   UNL A   1      33.997  31.621  27.989  1.00  0.00    -0.269 OA
BRANCH  31  34
ATOM     34  C   UNL A   1      35.751  30.071  28.165  1.00  0.00     0.039 A 
ATOM     35  C   UNL A   1      35.883  29.564  29.462  1.00  0.00     0.014 A 
ATOM     36  C   UNL A   1      36.878  30.202  27.348  1.00  0.00     0.014 A 
ATOM     37  C   UNL A   1      37.134  29.146  29.923  1.00  0.00     0.010 A 
ATOM     38  C   UNL A   1      38.115  29.736  27.790  1.00  0.00     0.010 A 
ATOM     39  C   UNL A   1      38.257  29.212  29.083  1.00  0.00    -0.014 A 
BRANCH  39  40
ATOM     40  C   UNL A   1      39.590  28.738  29.536  1.00  0.00     0.031 A 
ATOM     41  C   UNL A   1      40.320  29.465  30.632  1.00  0.00     0.074 A 
ATOM     42  C   UNL A   1      40.182  27.710  28.899  1.00  0.00     0.049 A 
ATOM     43  N   UNL A   1      41.513  29.240  31.117  1.00  0.00    -0.248 NA
ATOM     44  C   UNL A   1      39.629  30.611  31.247  1.00  0.00     0.031 C 
ATOM     45  C   UNL A   1      39.610  26.973  27.771  1.00  0.00     0.029 A 
ATOM     46  N   UNL A   1      41.409  27.126  29.090  1.00  0.00    -0.354 N 
ATOM     47  C   UNL A   1      41.734  30.234  32.063  1.00  0.00     0.074 A 
ATOM     48  C   UNL A   1      40.558  31.079  32.068  1.00  0.00     0.031 C 
ATOM     49  C   UNL A   1      40.487  26.040  27.367  1.00  0.00     0.029 A 
ATOM     50  C   UNL A   1      41.687  26.121  28.195  1.00  0.00     0.049 A 
ATOM     51  H   UNL A   1      42.032  27.402  29.802  1.00  0.00     0.167 HD
ATOM     52  C   UNL A   1      42.801  30.410  32.876  1.00  0.00     0.034 A 
ATOM     53  C   UNL A   1      42.783  25.349  28.056  1.00  0.00     0.034 A 
ATOM     54  C   UNL A   1      43.939  29.532  32.917  1.00  0.00     0.049 A 
ATOM     55  C   UNL A   1      43.929  25.522  29.016  1.00  0.00     0.074 A 
ATOM     56  C   UNL A   1      45.023  29.567  33.775  1.00  0.00     0.029 A 
ATOM     57  N   UNL A   1      44.138  28.458  32.064  1.00  0.00    -0.354 N 
ATOM     58  N   UNL A   1      44.045  26.364  30.015  1.00  0.00    -0.248 NA
ATOM     59  C   UNL A   1      45.075  24.617  28.856  1.00  0.00     0.031 C 
ATOM     60  C   UNL A   1      45.880  28.513  33.440  1.00  0.00     0.029 A 
ATOM     61  C   UNL A   1      45.329  27.822  32.373  1.00  0.00     0.049 A 
ATOM     62  H   UNL A   1      43.524  28.187  31.344  1.00  0.00     0.167 HD
ATOM     63  C   UNL A   1      45.262  26.071  30.620  1.00  0.00     0.074 A 
ATOM     64  C   UNL A   1      45.836  24.961  29.888  1.00  0.00     0.031 C 
ATOM     65  C   UNL A   1      45.859  26.680  31.674  1.00  0.00     0.034 A 
BRANCH  52  66
ATOM     66  C   UNL A   1      42.752  31.558  33.848  1.00  0.00     0.023 A 
ATOM     67  C   UNL A   1      43.270  32.809  33.458  1.00  0.00     0.012 A 
ATOM     68  C   UNL A   1      42.159  31.420  35.117  1.00  0.00     0.148 A 
ATOM     69  C   UNL A   1      43.225  33.899  34.326  1.00  0.00     0.002 A 
ATOM     70  C   UNL A   1      42.086  32.520  35.965  1.00  0.00     0.091 A 
ATOM     71  F   UNL A   1      41.697  30.215  35.483  1.00  0.00    -0.205 F 
ATOM     72  C   UNL A   1      42.625  33.757  35.574  1.00  0.00     0.022 A 
BRANCH  70  73
ATOM     73  S   UNL A   1      41.272  32.441  37.565  1.00  0.00     0.127 S 
ATOM     74  O   UNL A   1      42.159  31.544  38.304  1.00  0.00    -0.237 OA
ATOM     75  O   UNL A   1      41.312  33.836  38.009  1.00  0.00    -0.237 OA
ATOM     76  O   UNL A   1      39.934  31.933  37.299  1.00  0.00    -0.744 OA
ENDBRANCH  70  73
ENDBRANCH  52  66
BRANCH  53  77
ATOM     77  C   UNL A   1      42.805  24.280  27.019  1.00  0.00     0.023 A 
ATOM     78  C   UNL A   1      43.563  24.478  25.849  1.00  0.00     0.012 A 
ATOM     79  C   UNL A   1      42.135  23.057  27.205  1.00  0.00     0.148 A 
ATOM     80  C   UNL A   1      43.637  23.485  24.873  1.00  0.00     0.002 A 
ATOM     81  C   UNL A   1      42.253  22.051  26.252  1.00  0.00     0.091 A 
ATOM     82  F   UNL A   1      41.403  22.894  28.317  1.00  0.00    -0.205 F 
ATOM     83  C   UNL A   1      42.993  22.267  25.080  1.00  0.00     0.022 A 
BRANCH  81  84
ATOM     84  S   UNL A   1      41.567  20.410  26.511  1.00  0.00     0.127 S 
ATOM     85  O   UNL A   1      42.106  19.676  25.369  1.00  0.00    -0.237 OA
ATOM     86  O   UNL A   1      42.136  20.038  27.807  1.00  0.00    -0.237 OA
ATOM     87  O   UNL A   1      40.122  20.597  26.529  1.00  0.00    -0.744 OA
ENDBRANCH  81  84
ENDBRANCH  53  77
BRANCH  65  88
ATOM     88  C   UNL A   1      47.199  26.157  32.115  1.00  0.00     0.023 A 
ATOM     89  C   UNL A   1      48.371  26.703  31.557  1.00  0.00     0.012 A 
ATOM     90  C   UNL A   1      47.302  25.189  33.132  1.00  0.00     0.148 A 
ATOM     91  C   UNL A   1      49.626  26.279  31.990  1.00  0.00     0.002 A 
ATOM     92  C   UNL A   1      48.557  24.800  33.587  1.00  0.00     0.091 A 
ATOM     93  F   UNL A   1      46.175  24.663  33.635  1.00  0.00    -0.205 F 
ATOM     94  C   UNL A   1      49.719  25.338  33.013  1.00  0.00     0.022 A 
BRANCH  92  95
ATOM     95  S   UNL A   1      48.757  23.655  34.959  1.00  0.00     0.127 S 
ATOM     96  O   UNL A   1      47.737  22.651  34.662  1.00  0.00    -0.237 OA
ATOM     97  O   UNL A   1      50.135  23.193  34.788  1.00  0.00    -0.237 OA
ATOM     98  O   UNL A   1      48.537  24.445  36.163  1.00  0.00    -0.744 OA
ENDBRANCH  92  95
ENDBRANCH  65  88
ENDBRANCH  39  40
ENDBRANCH  31  34
ENDBRANCH  29  30
ENDBRANCH  28  29
ENDBRANCH  27  28
ENDBRANCH   1  27
TORSDOF 19
ENDMDL
MODEL 2
REMARK VINA RESULT:     -11.1      2.595      7.755
REMARK SMILES Cc1cc(S(=O)(=O)Nc2ccc(F)c(F)c2)sc1C(=O)NCCCCCCNC(=O)c1ccc(-c2c3nc(c(-c4cccc(S(=O)(=O)[O-])c4F)c4ccc([nH]4)c(-c4cccc(S(=O)(=O)[O-])c4F)c4nc(c(-c5cccc(S(=O)(=O)[O-])c5F)c5ccc2[nH]5)C=C4)C=C3)cc1
REMARK SMILES IDX 24 1 23 2 22 3 21 4 19 5 20 6 18 8 1 9 2 10 3 11 4 12 17 13
REMARK SMILES IDX 5 14 6 15 7 16 8 17 9 19 10 20 16 21 11 22 14 23 12 24 15 25
REMARK SMILES IDX 13 26 25 27 26 28 27 29 28 30 29 31 30 33 31 34 32 35 93 36
REMARK SMILES IDX 33 37 92 38 34 39 35 40 36 41 86 42 37 43 91 44 85 45 87 46
REMARK SMILES IDX 38 47 90 48 84 49 83 50 39 52 71 53 51 54 70 55 52 56 55 57
REMARK SMILES IDX 69 58 88 59 53 60 54 61 68 63 89 64 56 65 40 66 41 67 49 68
REMARK SMILES IDX 42 69 44 70 50 71 43 72 45 73 46 74 47 75 48 76 72 77 73 78
REMARK SMILES IDX 81 79 74 80 76 81 82 82 75 83 77 84 78 85 79 86 80 87 57 88
REMARK SMILES IDX 58 89 66 90 59 91 61 92 67 93 60 94 62 95 63 96 64 97 65 98
REMARK H PARENT 21 7 8 18 28 32 87 51 55 62
REMARK Flexibility Score: inf
ROOT
ATOM      1  C   UNL A   1      34.376  25.083  24.903  1.00  0.00     0.002 C 
ENDROOT
BRANCH   1   2
ATOM      2  C   UNL A   1      34.915  23.855  25.647  1.00  0.00     0.021 C 
BRANCH   2   3
ATOM      3  C   UNL A   1      34.003  23.353  26.771  1.00  0.00     0.116 C 
BRANCH   3   4
ATOM      4  N   UNL A   1      33.431  22.080  26.407  1.00  0.00    -0.351 N 
ATOM      5  C   UNL A   1      32.497  21.702  25.483  1.00  0.00     0.261 C 
ATOM      6  O   UNL A   1      32.303  20.480  25.444  1.00  0.00    -0.268 OA
ATOM      7  H   UNL A   1      33.787  21.327  26.933  1.00  0.00     0.163 HD
BRANCH   5   8
ATOM      8  C   UNL A   1      31.781  22.620  24.596  1.00  0.00     0.096 A 
ATOM      9  C   UNL A   1      32.512  22.260  22.117  1.00  0.00     0.046 C 
ATOM     10  C   UNL A   1      31.803  22.943  23.239  1.00  0.00    -0.026 A 
ATOM     11  C   UNL A   1      31.104  24.187  23.000  1.00  0.00     0.038 A 
ATOM     12  C   UNL A   1      30.565  24.747  24.137  1.00  0.00     0.141 A 
ATOM     13  S   UNL A   1      30.654  23.645  25.425  1.00  0.00    -0.116 S 
BRANCH  12  14
ATOM     14  S   UNL A   1      29.774  26.306  24.459  1.00  0.00     0.271 S 
ATOM     15  O   UNL A   1      28.360  26.056  24.255  1.00  0.00    -0.200 OA
ATOM     16  O   UNL A   1      30.262  26.770  25.739  1.00  0.00    -0.200 OA
BRANCH  14  17
ATOM     17  N   UNL A   1      30.201  27.474  23.286  1.00  0.00    -0.279 N 
ATOM     18  H   UNL A   1      30.898  27.291  22.615  1.00  0.00     0.180 HD
BRANCH  17  19
ATOM     19  C   UNL A   1      29.510  28.724  23.314  1.00  0.00     0.052 A 
ATOM     20  C   UNL A   1      28.292  28.807  22.629  1.00  0.00     0.030 A 
ATOM     21  C   UNL A   1      30.040  29.845  23.950  1.00  0.00     0.069 A 
ATOM     22  C   UNL A   1      27.605  30.021  22.566  1.00  0.00     0.044 A 
ATOM     23  C   UNL A   1      29.342  31.049  23.889  1.00  0.00     0.160 A 
ATOM     24  C   UNL A   1      28.136  31.138  23.200  1.00  0.00     0.158 A 
ATOM     25  F   UNL A   1      29.844  32.131  24.502  1.00  0.00    -0.204 F 
ATOM     26  F   UNL A   1      27.471  32.302  23.150  1.00  0.00    -0.204 F 
ENDBRANCH  17  19
ENDBRANCH  14  17
ENDBRANCH  12  14
ENDBRANCH   5   8
ENDBRANCH   3   4
ENDBRANCH   2   3
ENDBRANCH   1   2
BRANCH   1  27
ATOM     27  C   UNL A   1      34.202  26.341  25.762  1.00  0.00     0.002 C 
BRANCH  27  28
ATOM     28  C   UNL A   1      33.309  27.432  25.163  1.00  0.00     0.021 C 
BRANCH  28  29
ATOM     29  C   UNL A   1      33.975  28.797  24.999  1.00  0.00     0.116 C 
BRANCH  29  30
ATOM     30  N   UNL A   1      33.156  29.870  25.539  1.00  0.00    -0.352 N 
ATOM     31  C   UNL A   1      33.332  30.611  26.681  1.00  0.00     0.251 C 
ATOM     32  H   UNL A   1      32.358  30.098  25.008  1.00  0.00     0.163 HD
ATOM     33  O   UNL A   1      32.422  31.328  27.088  1.00  0.00    -0.269 OA
BRANCH  31  34
ATOM     34  C   UNL A   1      34.608  30.543  27.428  1.00  0.00     0.039 A 
ATOM     35  C   UNL A   1      34.990  29.329  28.006  1.00  0.00     0.014 A 
ATOM     36  C   UNL A   1      35.405  31.680  27.595  1.00  0.00     0.014 A 
ATOM     37  C   UNL A   1      36.194  29.241  28.711  1.00  0.00     0.010 A 
ATOM     38  C   UNL A   1      36.629  31.578  28.254  1.00  0.00     0.010 A 
ATOM     39  C   UNL A   1      37.031  30.362  28.825  1.00  0.00    -0.014 A 
BRANCH  39  40
ATOM     40  C   UNL A   1      38.333  30.285  29.537  1.00  0.00     0.031 A 
ATOM     41  C   UNL A   1      39.476  29.509  28.943  1.00  0.00     0.074 A 
ATOM     42  C   UNL A   1      38.455  30.834  30.761  1.00  0.00     0.049 A 
ATOM     43  N   UNL A   1      40.661  29.276  29.443  1.00  0.00    -0.248 NA
ATOM     44  C   UNL A   1      39.250  28.894  27.625  1.00  0.00     0.031 C 
ATOM     45  C   UNL A   1      37.395  31.545  31.478  1.00  0.00     0.029 A 
ATOM     46  N   UNL A   1      39.517  30.855  31.630  1.00  0.00    -0.354 N 
ATOM     47  C   UNL A   1      41.308  28.458  28.525  1.00  0.00     0.074 A 
ATOM     48  C   UNL A   1      40.375  28.216  27.445  1.00  0.00     0.031 C 
ATOM     49  C   UNL A   1      37.858  31.927  32.679  1.00  0.00     0.029 A 
ATOM     50  C   UNL A   1      39.239  31.477  32.825  1.00  0.00     0.049 A 
ATOM     51  H   UNL A   1      40.394  30.462  31.419  1.00  0.00     0.167 HD
ATOM     52  C   UNL A   1      42.573  27.979  28.559  1.00  0.00     0.034 A 
ATOM     53  C   UNL A   1      40.009  31.665  33.914  1.00  0.00     0.034 A 
ATOM     54  C   UNL A   1      43.522  28.273  29.599  1.00  0.00     0.049 A 
ATOM     55  C   UNL A   1      41.434  31.179  33.899  1.00  0.00     0.074 A 
ATOM     56  C   UNL A   1      44.856  27.919  29.673  1.00  0.00     0.029 A 
ATOM     57  N   UNL A   1      43.236  28.997  30.746  1.00  0.00    -0.354 N 
ATOM     58  N   UNL A   1      42.078  30.551  32.946  1.00  0.00    -0.248 NA
ATOM     59  C   UNL A   1      42.247  31.461  35.090  1.00  0.00     0.031 C 
ATOM     60  C   UNL A   1      45.378  28.428  30.867  1.00  0.00     0.029 A 
ATOM     61  C   UNL A   1      44.367  29.099  31.536  1.00  0.00     0.049 A 
ATOM     62  H   UNL A   1      42.356  29.381  30.967  1.00  0.00     0.167 HD
ATOM     63  C   UNL A   1      43.378  30.387  33.409  1.00  0.00     0.074 A 
ATOM     64  C   UNL A   1      43.436  31.001  34.719  1.00  0.00     0.031 C 
ATOM     65  C   UNL A   1      44.425  29.766  32.811  1.00  0.00     0.034 A 
BRANCH  52  66
ATOM     66  C   UNL A   1      43.032  27.144  27.393  1.00  0.00     0.023 A 
ATOM     67  C   UNL A   1      43.684  27.773  26.314  1.00  0.00     0.012 A 
ATOM     68  C   UNL A   1      42.865  25.747  27.381  1.00  0.00     0.148 A 
ATOM     69  C   UNL A   1      44.137  27.029  25.225  1.00  0.00     0.002 A 
ATOM     70  C   UNL A   1      43.351  25.006  26.308  1.00  0.00     0.091 A 
ATOM     71  F   UNL A   1      42.217  25.168  28.402  1.00  0.00    -0.205 F 
ATOM     72  C   UNL A   1      43.979  25.646  25.227  1.00  0.00     0.022 A 
BRANCH  70  73
ATOM     73  S   UNL A   1      43.247  23.213  26.260  1.00  0.00     0.127 S 
ATOM     74  O   UNL A   1      44.589  22.826  26.690  1.00  0.00    -0.237 OA
ATOM     75  O   UNL A   1      42.192  22.932  27.235  1.00  0.00    -0.237 OA
ATOM     76  O   UNL A   1      42.899  22.878  24.886  1.00  0.00    -0.744 OA
ENDBRANCH  70  73
ENDBRANCH  52  66
BRANCH  53  77
ATOM     77  C   UNL A   1      39.471  32.430  35.074  1.00  0.00     0.023 A 
ATOM     78  C   UNL A   1      39.528  33.836  35.051  1.00  0.00     0.012 A 
ATOM     79  C   UNL A   1      38.856  31.784  36.163  1.00  0.00     0.148 A 
ATOM     80  C   UNL A   1      39.001  34.587  36.101  1.00  0.00     0.002 A 
ATOM     81  C   UNL A   1      38.287  32.539  37.183  1.00  0.00     0.091 A 
ATOM     82  F   UNL A   1      38.827  30.444  36.176  1.00  0.00    -0.205 F 
ATOM     83  C   UNL A   1      38.370  33.940  37.160  1.00  0.00     0.022 A 
BRANCH  81  84
ATOM     84  S   UNL A   1      37.338  31.785  38.509  1.00  0.00     0.127 S 
ATOM     85  O   UNL A   1      38.251  31.913  39.642  1.00  0.00    -0.237 OA
ATOM     86  O   UNL A   1      36.155  32.644  38.571  1.00  0.00    -0.237 OA
ATOM     87  O   UNL A   1      37.063  30.426  38.059  1.00  0.00    -0.744 OA
ENDBRANCH  81  84
ENDBRANCH  53  77
BRANCH  65  88
ATOM     88  C   UNL A   1      45.732  29.726  33.557  1.00  0.00     0.023 A 
ATOM     89  C   UNL A   1      46.602  30.830  33.482  1.00  0.00     0.012 A 
ATOM     90  C   UNL A   1      46.059  28.640  34.391  1.00  0.00     0.148 A 
ATOM     91  C   UNL A   1      47.791  30.845  34.211  1.00  0.00     0.002 A 
ATOM     92  C   UNL A   1      47.227  28.679  35.145  1.00  0.00     0.091 A 
ATOM     93  F   UNL A   1      45.228  27.587  34.430  1.00  0.00    -0.205 F 
ATOM     94  C   UNL A   1      48.097  29.777  35.051  1.00  0.00     0.022 A 
BRANCH  92  95
ATOM     95  S   UNL A   1      47.647  27.379  36.313  1.00  0.00     0.127 S 
ATOM     96  O   UNL A   1      47.912  26.251  35.423  1.00  0.00    -0.237 OA
ATOM     97  O   UNL A   1      48.832  27.921  36.978  1.00  0.00    -0.237 OA
ATOM     98  O   UNL A   1      46.485  27.242  37.180  1.00  0.00    -0.744 OA
ENDBRANCH  92  95
ENDBRANCH  65  88
ENDBRANCH  39  40
ENDBRANCH  31  34
ENDBRANCH  29  30
ENDBRANCH  28  29
ENDBRANCH  27  28
ENDBRANCH   1  27
TORSDOF 19
ENDMDL
MODEL 3
REMARK VINA RESULT:     -11.1      5.213     11.486
REMARK SMILES Cc1cc(S(=O)(=O)Nc2ccc(F)c(F)c2)sc1C(=O)NCCCCCCNC(=O)c1ccc(-c2c3nc(c(-c4cccc(S(=O)(=O)[O-])c4F)c4ccc([nH]4)c(-c4cccc(S(=O)(=O)[O-])c4F)c4nc(c(-c5cccc(S(=O)(=O)[O-])c5F)c5ccc2[nH]5)C=C4)C=C3)cc1
REMARK SMILES IDX 24 1 23 2 22 3 21 4 19 5 20 6 18 8 1 9 2 10 3 11 4 12 17 13
REMARK SMILES IDX 5 14 6 15 7 16 8 17 9 19 10 20 16 21 11 22 14 23 12 24 15 25
REMARK SMILES IDX 13 26 25 27 26 28 27 29 28 30 29 31 30 33 31 34 32 35 93 36
REMARK SMILES IDX 33 37 92 38 34 39 35 40 36 41 86 42 37 43 91 44 85 45 87 46
REMARK SMILES IDX 38 47 90 48 84 49 83 50 39 52 71 53 51 54 70 55 52 56 55 57
REMARK SMILES IDX 69 58 88 59 53 60 54 61 68 63 89 64 56 65 40 66 41 67 49 68
REMARK SMILES IDX 42 69 44 70 50 71 43 72 45 73 46 74 47 75 48 76 72 77 73 78
REMARK SMILES IDX 81 79 74 80 76 81 82 82 75 83 77 84 78 85 79 86 80 87 57 88
REMARK SMILES IDX 58 89 66 90 59 91 61 92 67 93 60 94 62 95 63 96 64 97 65 98
REMARK H PARENT 21 7 8 18 28 32 87 51 55 62
REMARK Flexibility Score: inf
ROOT
ATOM      1  C   UNL A   1      43.045  23.405  28.339  1.00  0.00     0.002 C 
ENDROOT
BRANCH   1   2
ATOM      2  C   UNL A   1      44.231  23.592  29.294  1.00  0.00     0.021 C 
BRANCH   2   3
ATOM      3  C   UNL A   1      43.917  24.451  30.523  1.00  0.00     0.116 C 
BRANCH   3   4
ATOM      4  N   UNL A   1      45.143  24.849  31.170  1.00  0.00    -0.351 N 
ATOM      5  C   UNL A   1      45.415  25.545  32.315  1.00  0.00     0.261 C 
ATOM      6  O   UNL A   1      46.624  25.645  32.560  1.00  0.00    -0.268 OA
ATOM      7  H   UNL A   1      45.951  24.560  30.687  1.00  0.00     0.163 HD
BRANCH   5   8
ATOM      8  C   UNL A   1      44.404  26.122  33.201  1.00  0.00     0.096 A 
ATOM      9  C   UNL A   1      43.357  24.279  34.723  1.00  0.00     0.046 C 
ATOM     10  C   UNL A   1      43.487  25.647  34.139  1.00  0.00    -0.026 A 
ATOM     11  C   UNL A   1      42.500  26.659  34.446  1.00  0.00     0.038 A 
ATOM     12  C   UNL A   1      42.698  27.847  33.776  1.00  0.00     0.141 A 
ATOM     13  S   UNL A   1      44.212  27.835  33.010  1.00  0.00    -0.116 S 
BRANCH  12  14
ATOM     14  S   UNL A   1      41.732  29.333  33.638  1.00  0.00     0.271 S 
ATOM     15  O   UNL A   1      42.645  30.323  33.102  1.00  0.00    -0.200 OA
ATOM     16  O   UNL A   1      40.523  28.984  32.925  1.00  0.00    -0.200 OA
BRANCH  14  17
ATOM     17  N   UNL A   1      41.276  29.923  35.176  1.00  0.00    -0.279 N 
ATOM     18  H   UNL A   1      41.668  29.554  36.000  1.00  0.00     0.180 HD
BRANCH  17  19
ATOM     19  C   UNL A   1      40.306  30.971  35.222  1.00  0.00     0.052 A 
ATOM     20  C   UNL A   1      38.957  30.604  35.299  1.00  0.00     0.030 A 
ATOM     21  C   UNL A   1      40.669  32.314  35.142  1.00  0.00     0.069 A 
ATOM     22  C   UNL A   1      37.963  31.584  35.281  1.00  0.00     0.044 A 
ATOM     23  C   UNL A   1      39.669  33.285  35.135  1.00  0.00     0.160 A 
ATOM     24  C   UNL A   1      38.327  32.923  35.200  1.00  0.00     0.158 A 
ATOM     25  F   UNL A   1      40.011  34.579  35.062  1.00  0.00    -0.204 F 
ATOM     26  F   UNL A   1      37.373  33.866  35.194  1.00  0.00    -0.204 F 
ENDBRANCH  17  19
ENDBRANCH  14  17
ENDBRANCH  12  14
ENDBRANCH   5   8
ENDBRANCH   3   4
ENDBRANCH   2   3
ENDBRANCH   1   2
BRANCH   1  27
ATOM     27  C   UNL A   1      42.076  22.279  28.716  1.00  0.00     0.002 C 
BRANCH  27  28
ATOM     28  C   UNL A   1      41.699  21.323  27.580  1.00  0.00     0.021 C 
BRANCH  28  29
ATOM     29  C   UNL A   1      41.465  21.987  26.224  1.00  0.00     0.116 C 
BRANCH  29  30
ATOM     30  N   UNL A   1      40.054  22.027  25.875  1.00  0.00    -0.352 N 
ATOM     31  C   UNL A   1      39.102  22.963  26.197  1.00  0.00     0.251 C 
ATOM     32  H   UNL A   1      39.735  21.272  25.329  1.00  0.00     0.163 HD
ATOM     33  O   UNL A   1      37.916  22.719  25.995  1.00  0.00    -0.269 OA
BRANCH  31  34
ATOM     34  C   UNL A   1      39.500  24.259  26.792  1.00  0.00     0.039 A 
ATOM     35  C   UNL A   1      39.251  24.485  28.150  1.00  0.00     0.014 A 
ATOM     36  C   UNL A   1      40.074  25.264  26.009  1.00  0.00     0.014 A 
ATOM     37  C   UNL A   1      39.621  25.699  28.733  1.00  0.00     0.010 A 
ATOM     38  C   UNL A   1      40.490  26.454  26.603  1.00  0.00     0.010 A 
ATOM     39  C   UNL A   1      40.260  26.688  27.967  1.00  0.00    -0.014 A 
BRANCH  39  40
ATOM     40  C   UNL A   1      40.697  27.971  28.572  1.00  0.00     0.031 A 
ATOM     41  C   UNL A   1      42.160  28.252  28.780  1.00  0.00     0.074 A 
ATOM     42  C   UNL A   1      39.774  28.844  29.020  1.00  0.00     0.049 A 
ATOM     43  N   UNL A   1      42.729  29.283  29.348  1.00  0.00    -0.248 NA
ATOM     44  C   UNL A   1      43.108  27.227  28.311  1.00  0.00     0.031 C 
ATOM     45  C   UNL A   1      38.325  28.652  28.947  1.00  0.00     0.029 A 
ATOM     46  N   UNL A   1      39.918  30.054  29.651  1.00  0.00    -0.354 N 
ATOM     47  C   UNL A   1      44.093  29.018  29.340  1.00  0.00     0.074 A 
ATOM     48  C   UNL A   1      44.266  27.716  28.731  1.00  0.00     0.031 C 
ATOM     49  C   UNL A   1      37.713  29.704  29.516  1.00  0.00     0.029 A 
ATOM     50  C   UNL A   1      38.725  30.636  30.007  1.00  0.00     0.049 A 
ATOM     51  H   UNL A   1      40.794  30.467  29.831  1.00  0.00     0.167 HD
ATOM     52  C   UNL A   1      45.112  29.799  29.771  1.00  0.00     0.034 A 
ATOM     53  C   UNL A   1      38.471  31.790  30.655  1.00  0.00     0.034 A 
ATOM     54  C   UNL A   1      44.944  31.119  30.315  1.00  0.00     0.049 A 
ATOM     55  C   UNL A   1      39.621  32.671  31.063  1.00  0.00     0.074 A 
ATOM     56  C   UNL A   1      45.919  32.028  30.685  1.00  0.00     0.029 A 
ATOM     57  N   UNL A   1      43.720  31.720  30.564  1.00  0.00    -0.354 N 
ATOM     58  N   UNL A   1      40.907  32.475  30.894  1.00  0.00    -0.248 NA
ATOM     59  C   UNL A   1      39.288  33.945  31.714  1.00  0.00     0.031 C 
ATOM     60  C   UNL A   1      45.283  33.181  31.160  1.00  0.00     0.029 A 
ATOM     61  C   UNL A   1      43.913  32.988  31.085  1.00  0.00     0.049 A 
ATOM     62  H   UNL A   1      42.843  31.306  30.396  1.00  0.00     0.167 HD
ATOM     63  C   UNL A   1      41.533  33.612  31.391  1.00  0.00     0.074 A 
ATOM     64  C   UNL A   1      40.486  34.501  31.848  1.00  0.00     0.031 C 
ATOM     65  C   UNL A   1      42.859  33.886  31.480  1.00  0.00     0.034 A 
BRANCH  52  66
ATOM     66  C   UNL A   1      46.511  29.273  29.596  1.00  0.00     0.023 A 
ATOM     67  C   UNL A   1      47.065  28.452  30.599  1.00  0.00     0.012 A 
ATOM     68  C   UNL A   1      47.257  29.545  28.434  1.00  0.00     0.148 A 
ATOM     69  C   UNL A   1      48.352  27.933  30.462  1.00  0.00     0.002 A 
ATOM     70  C   UNL A   1      48.527  28.995  28.288  1.00  0.00     0.091 A 
ATOM     71  F   UNL A   1      46.726  30.351  27.503  1.00  0.00    -0.205 F 
ATOM     72  C   UNL A   1      49.078  28.196  29.304  1.00  0.00     0.022 A 
BRANCH  70  73
ATOM     73  S   UNL A   1      49.505  29.231  26.800  1.00  0.00     0.127 S 
ATOM     74  O   UNL A   1      48.671  28.580  25.791  1.00  0.00    -0.237 OA
ATOM     75  O   UNL A   1      49.564  30.690  26.689  1.00  0.00    -0.237 OA
ATOM     76  O   UNL A   1      50.788  28.596  27.069  1.00  0.00    -0.744 OA
ENDBRANCH  70  73
ENDBRANCH  52  66
BRANCH  53  77
ATOM     77  C   UNL A   1      37.061  32.219  30.871  1.00  0.00     0.023 A 
ATOM     78  C   UNL A   1      36.494  32.084  32.153  1.00  0.00     0.012 A 
ATOM     79  C   UNL A   1      36.303  32.809  29.842  1.00  0.00     0.148 A 
ATOM     80  C   UNL A   1      35.190  32.509  32.402  1.00  0.00     0.002 A 
ATOM     81  C   UNL A   1      35.021  33.277  30.110  1.00  0.00     0.091 A 
ATOM     82  F   UNL A   1      36.853  32.913  28.624  1.00  0.00    -0.205 F 
ATOM     83  C   UNL A   1      34.458  33.116  31.385  1.00  0.00     0.022 A 
BRANCH  81  84
ATOM     84  S   UNL A   1      34.069  34.192  28.891  1.00  0.00     0.127 S 
ATOM     85  O   UNL A   1      33.780  33.160  27.898  1.00  0.00    -0.237 OA
ATOM     86  O   UNL A   1      32.913  34.636  29.671  1.00  0.00    -0.237 OA
ATOM     87  O   UNL A   1      34.942  35.274  28.455  1.00  0.00    -0.744 OA
ENDBRANCH  81  84
ENDBRANCH  53  77
BRANCH  65  88
ATOM     88  C   UNL A   1      43.260  35.206  32.082  1.00  0.00     0.023 A 
ATOM     89  C   UNL A   1      43.526  36.298  31.234  1.00  0.00     0.012 A 
ATOM     90  C   UNL A   1      43.293  35.387  33.478  1.00  0.00     0.148 A 
ATOM     91  C   UNL A   1      43.841  37.547  31.766  1.00  0.00     0.002 A 
ATOM     92  C   UNL A   1      43.569  36.646  34.001  1.00  0.00     0.091 A 
ATOM     93  F   UNL A   1      43.059  34.329  34.269  1.00  0.00    -0.205 F 
ATOM     94  C   UNL A   1      43.850  37.724  33.148  1.00  0.00     0.022 A 
BRANCH  92  95
ATOM     95  S   UNL A   1      43.516  36.971  35.768  1.00  0.00     0.127 S 
ATOM     96  O   UNL A   1      43.891  38.382  35.825  1.00  0.00    -0.237 OA
ATOM     97  O   UNL A   1      42.116  36.699  36.099  1.00  0.00    -0.237 OA
ATOM     98  O   UNL A   1      44.463  36.040  36.366  1.00  0.00    -0.744 OA
ENDBRANCH  92  95
ENDBRANCH  65  88
ENDBRANCH  39  40
ENDBRANCH  31  34
ENDBRANCH  29  30
ENDBRANCH  28  29
ENDBRANCH  27  28
ENDBRANCH   1  27
TORSDOF 19
ENDMDL
