MODEL 1
REMARK VINA RESULT:     -11.9      0.000      0.000
REMARK SMILES CC(C)c1cc2c(cc1Cl)C=C(C(=O)NCCCCCCNC(=O)c1ccc(-c3c4nc(c(-c5cccc(S(=O)(=O)[O-])c5F)c5ccc([nH]5)c(-c5cccc(S(=O)(=O)[O-])c5F)c5nc(c(-c6cccc(S(=O)(=O)[O-])c6F)c6ccc3[nH]6)C=C5)C=C4)cc1)[C@@H](C(F)(F)F)O2
REMARK SMILES IDX 19 1 18 2 17 3 16 4 15 5 13 6 14 7 12 9 4 10 5 11 9 12 6 13
REMARK SMILES IDX 8 14 10 15 7 16 93 17 11 18 88 19 2 20 1 21 3 22 89 23 90 24
REMARK SMILES IDX 91 25 92 26 20 27 21 28 22 29 23 30 24 32 25 33 26 34 87 35
REMARK SMILES IDX 27 36 86 37 28 38 29 39 30 40 80 41 31 42 85 43 79 44 81 45
REMARK SMILES IDX 32 46 84 47 78 48 77 49 33 51 65 52 45 53 64 54 46 55 49 56
REMARK SMILES IDX 63 57 82 58 47 59 48 60 62 62 83 63 50 64 34 65 35 66 43 67
REMARK SMILES IDX 36 68 38 69 44 70 37 71 39 72 40 73 41 74 42 75 66 76 67 77
REMARK SMILES IDX 75 78 68 79 70 80 76 81 69 82 71 83 72 84 73 85 74 86 51 87
REMARK SMILES IDX 52 88 60 89 53 90 55 91 61 92 54 93 56 94 57 95 58 96 59 97
REMARK H PARENT 15 8 22 31 81 50 49 61
REMARK Flexibility Score: inf
ROOT
ATOM      1  C   UNL A   1      34.576  30.882  27.998  1.00  0.00     0.002 C 
ENDROOT
BRANCH   1   2
ATOM      2  C   UNL A   1      34.298  29.784  26.963  1.00  0.00     0.002 C 
BRANCH   2   3
ATOM      3  C   UNL A   1      33.118  28.856  27.275  1.00  0.00     0.021 C 
BRANCH   3   4
ATOM      4  C   UNL A   1      31.783  29.308  26.689  1.00  0.00     0.116 C 
BRANCH   4   5
ATOM      5  N   UNL A   1      31.816  29.367  25.239  1.00  0.00    -0.352 N 
ATOM      6  C   UNL A   1      31.943  28.494  24.213  1.00  0.00     0.251 C 
ATOM      7  O   UNL A   1      31.885  28.999  23.086  1.00  0.00    -0.270 OA
ATOM      8  H   UNL A   1      31.720  30.292  24.914  1.00  0.00     0.163 HD
BRANCH   6   9
ATOM      9  C   UNL A   1      32.144  27.018  24.345  1.00  0.00     0.067 C 
ATOM     10  C   UNL A   1      34.191  22.365  24.286  1.00  0.00    -0.023 A 
ATOM     11  C   UNL A   1      32.997  22.938  24.773  1.00  0.00     0.052 A 
ATOM     12  C   UNL A   1      35.110  23.232  23.668  1.00  0.00     0.045 A 
ATOM     13  C   UNL A   1      32.726  24.297  24.641  1.00  0.00     0.128 A 
ATOM     14  C   UNL A   1      34.821  24.602  23.525  1.00  0.00     0.032 A 
ATOM     15  Cl  UNL A   1      36.660  22.737  23.094  1.00  0.00    -0.084 Cl
ATOM     16  C   UNL A   1      33.632  25.140  24.017  1.00  0.00     0.019 A 
ATOM     17  O   UNL A   1      31.570  24.733  25.209  1.00  0.00    -0.475 OA
ATOM     18  C   UNL A   1      33.348  26.567  23.942  1.00  0.00     0.025 C 
ATOM     19  C   UNL A   1      31.097  26.055  24.840  1.00  0.00     0.314 C 
BRANCH  10  20
ATOM     20  C   UNL A   1      34.356  20.875  24.562  1.00  0.00     0.014 C 
ATOM     21  C   UNL A   1      35.715  20.374  25.053  1.00  0.00     0.012 C 
ATOM     22  C   UNL A   1      33.238  20.386  25.488  1.00  0.00     0.012 C 
ENDBRANCH  10  20
BRANCH  19  23
ATOM     23  C   UNL A   1      29.925  25.890  23.858  1.00  0.00     0.429 C 
ATOM     24  F   UNL A   1      30.149  26.603  22.727  1.00  0.00    -0.167 F 
ATOM     25  F   UNL A   1      29.742  24.607  23.473  1.00  0.00    -0.167 F 
ATOM     26  F   UNL A   1      28.754  26.318  24.383  1.00  0.00    -0.167 F 
ENDBRANCH  19  23
ENDBRANCH   6   9
ENDBRANCH   4   5
ENDBRANCH   3   4
ENDBRANCH   2   3
ENDBRANCH   1   2
BRANCH   1  27
ATOM     27  C   UNL A   1      34.263  32.313  27.557  1.00  0.00     0.021 C 
BRANCH  27  28
ATOM     28  C   UNL A   1      32.788  32.693  27.585  1.00  0.00     0.116 C 
BRANCH  28  29
ATOM     29  N   UNL A   1      32.577  34.110  27.830  1.00  0.00    -0.352 N 
ATOM     30  C   UNL A   1      33.189  34.927  28.751  1.00  0.00     0.251 C 
ATOM     31  H   UNL A   1      31.904  34.544  27.258  1.00  0.00     0.163 HD
ATOM     32  O   UNL A   1      32.788  36.074  28.917  1.00  0.00    -0.269 OA
BRANCH  30  33
ATOM     33  C   UNL A   1      34.307  34.397  29.563  1.00  0.00     0.039 A 
ATOM     34  C   UNL A   1      35.632  34.593  29.162  1.00  0.00     0.014 A 
ATOM     35  C   UNL A   1      34.024  33.670  30.722  1.00  0.00     0.014 A 
ATOM     36  C   UNL A   1      36.658  33.935  29.831  1.00  0.00     0.010 A 
ATOM     37  C   UNL A   1      35.064  33.070  31.436  1.00  0.00     0.010 A 
ATOM     38  C   UNL A   1      36.386  33.159  30.971  1.00  0.00    -0.014 A 
BRANCH  38  39
ATOM     39  C   UNL A   1      37.500  32.461  31.663  1.00  0.00     0.031 A 
ATOM     40  C   UNL A   1      38.239  31.331  30.996  1.00  0.00     0.074 A 
ATOM     41  C   UNL A   1      37.872  32.874  32.890  1.00  0.00     0.049 A 
ATOM     42  N   UNL A   1      39.251  30.635  31.447  1.00  0.00    -0.248 NA
ATOM     43  C   UNL A   1      37.790  30.928  29.652  1.00  0.00     0.031 C 
ATOM     44  C   UNL A   1      37.219  33.943  33.649  1.00  0.00     0.029 A 
ATOM     45  N   UNL A   1      38.892  32.460  33.707  1.00  0.00    -0.354 N 
ATOM     46  C   UNL A   1      39.533  29.690  30.468  1.00  0.00     0.074 A 
ATOM     47  C   UNL A   1      38.586  29.898  29.395  1.00  0.00     0.031 C 
ATOM     48  C   UNL A   1      37.879  34.129  34.801  1.00  0.00     0.029 A 
ATOM     49  C   UNL A   1      38.972  33.165  34.884  1.00  0.00     0.049 A 
ATOM     50  H   UNL A   1      39.508  31.729  33.473  1.00  0.00     0.167 HD
ATOM     51  C   UNL A   1      40.507  28.752  30.454  1.00  0.00     0.034 A 
ATOM     52  C   UNL A   1      39.825  33.050  35.921  1.00  0.00     0.034 A 
ATOM     53  C   UNL A   1      41.486  28.579  31.494  1.00  0.00     0.049 A 
ATOM     54  C   UNL A   1      40.910  32.016  35.870  1.00  0.00     0.074 A 
ATOM     55  C   UNL A   1      42.536  27.680  31.543  1.00  0.00     0.029 A 
ATOM     56  N   UNL A   1      41.540  29.324  32.661  1.00  0.00    -0.354 N 
ATOM     57  N   UNL A   1      41.204  31.184  34.901  1.00  0.00    -0.248 NA
ATOM     58  C   UNL A   1      41.788  31.910  37.044  1.00  0.00     0.031 C 
ATOM     59  C   UNL A   1      43.229  27.882  32.739  1.00  0.00     0.029 A 
ATOM     60  C   UNL A   1      42.609  28.907  33.436  1.00  0.00     0.049 A 
ATOM     61  H   UNL A   1      40.913  30.042  32.903  1.00  0.00     0.167 HD
ATOM     62  C   UNL A   1      42.303  30.460  35.343  1.00  0.00     0.074 A 
ATOM     63  C   UNL A   1      42.639  30.966  36.659  1.00  0.00     0.031 C 
ATOM     64  C   UNL A   1      42.958  29.450  34.721  1.00  0.00     0.034 A 
BRANCH  51  65
ATOM     65  C   UNL A   1      40.615  27.862  29.246  1.00  0.00     0.023 A 
ATOM     66  C   UNL A   1      39.754  26.752  29.136  1.00  0.00     0.012 A 
ATOM     67  C   UNL A   1      41.484  28.176  28.184  1.00  0.00     0.148 A 
ATOM     68  C   UNL A   1      39.764  25.961  27.989  1.00  0.00     0.002 A 
ATOM     69  C   UNL A   1      41.469  27.398  27.032  1.00  0.00     0.091 A 
ATOM     70  F   UNL A   1      42.303  29.230  28.320  1.00  0.00    -0.205 F 
ATOM     71  C   UNL A   1      40.612  26.289  26.935  1.00  0.00     0.022 A 
BRANCH  69  72
ATOM     72  S   UNL A   1      42.485  27.764  25.596  1.00  0.00     0.127 S 
ATOM     73  O   UNL A   1      41.913  29.034  25.149  1.00  0.00    -0.237 OA
ATOM     74  O   UNL A   1      43.821  27.870  26.183  1.00  0.00    -0.237 OA
ATOM     75  O   UNL A   1      42.307  26.647  24.680  1.00  0.00    -0.744 OA
ENDBRANCH  69  72
ENDBRANCH  51  65
BRANCH  52  76
ATOM     76  C   UNL A   1      39.703  33.994  37.064  1.00  0.00     0.023 A 
ATOM     77  C   UNL A   1      40.072  35.340  36.885  1.00  0.00     0.012 A 
ATOM     78  C   UNL A   1      39.133  33.588  38.286  1.00  0.00     0.148 A 
ATOM     79  C   UNL A   1      39.875  36.269  37.906  1.00  0.00     0.002 A 
ATOM     80  C   UNL A   1      38.897  34.527  39.282  1.00  0.00     0.091 A 
ATOM     81  F   UNL A   1      38.798  32.298  38.430  1.00  0.00    -0.205 F 
ATOM     82  C   UNL A   1      39.276  35.866  39.098  1.00  0.00     0.022 A 
BRANCH  80  83
ATOM     83  S   UNL A   1      38.020  34.130  40.798  1.00  0.00     0.127 S 
ATOM     84  O   UNL A   1      36.872  33.383  40.291  1.00  0.00    -0.237 OA
ATOM     85  O   UNL A   1      39.012  33.328  41.515  1.00  0.00    -0.237 OA
ATOM     86  O   UNL A   1      37.711  35.409  41.423  1.00  0.00    -0.744 OA
ENDBRANCH  80  83
ENDBRANCH  52  76
BRANCH  64  87
ATOM     87  C   UNL A   1      44.107  28.808  35.444  1.00  0.00     0.023 A 
ATOM     88  C   UNL A   1      45.400  29.341  35.283  1.00  0.00     0.012 A 
ATOM     89  C   UNL A   1      43.891  27.768  36.368  1.00  0.00     0.148 A 
ATOM     90  C   UNL A   1      46.467  28.844  36.028  1.00  0.00     0.002 A 
ATOM     91  C   UNL A   1      44.955  27.297  37.129  1.00  0.00     0.091 A 
ATOM     92  F   UNL A   1      42.652  27.273  36.493  1.00  0.00    -0.205 F 
ATOM     93  C   UNL A   1      46.243  27.831  36.959  1.00  0.00     0.022 A 
BRANCH  91  94
ATOM     94  S   UNL A   1      44.754  26.045  38.403  1.00  0.00     0.127 S 
ATOM     95  O   UNL A   1      46.131  25.867  38.863  1.00  0.00    -0.237 OA
ATOM     96  O   UNL A   1      43.871  26.713  39.357  1.00  0.00    -0.237 OA
ATOM     97  O   UNL A   1      44.167  24.887  37.741  1.00  0.00    -0.744 OA
ENDBRANCH  91  94
ENDBRANCH  64  87
ENDBRANCH  38  39
ENDBRANCH  30  33
ENDBRANCH  28  29
ENDBRANCH  27  28
ENDBRANCH   1  27
TORSDOF 18
ENDMDL
MODEL 2
REMARK VINA RESULT:     -11.5      1.371      7.763
REMARK SMILES CC(C)c1cc2c(cc1Cl)C=C(C(=O)NCCCCCCNC(=O)c1ccc(-c3c4nc(c(-c5cccc(S(=O)(=O)[O-])c5F)c5ccc([nH]5)c(-c5cccc(S(=O)(=O)[O-])c5F)c5nc(c(-c6cccc(S(=O)(=O)[O-])c6F)c6ccc3[nH]6)C=C5)C=C4)cc1)[C@@H](C(F)(F)F)O2
REMARK SMILES IDX 19 1 18 2 17 3 16 4 15 5 13 6 14 7 12 9 4 10 5 11 9 12 6 13
REMARK SMILES IDX 8 14 10 15 7 16 93 17 11 18 88 19 2 20 1 21 3 22 89 23 90 24
REMARK SMILES IDX 91 25 92 26 20 27 21 28 22 29 23 30 24 32 25 33 26 34 87 35
REMARK SMILES IDX 27 36 86 37 28 38 29 39 30 40 80 41 31 42 85 43 79 44 81 45
REMARK SMILES IDX 32 46 84 47 78 48 77 49 33 51 65 52 45 53 64 54 46 55 49 56
REMARK SMILES IDX 63 57 82 58 47 59 48 60 62 62 83 63 50 64 34 65 35 66 43 67
REMARK SMILES IDX 36 68 38 69 44 70 37 71 39 72 40 73 41 74 42 75 66 76 67 77
REMARK SMILES IDX 75 78 68 79 70 80 76 81 69 82 71 83 72 84 73 85 74 86 51 87
REMARK SMILES IDX 52 88 60 89 53 90 55 91 61 92 54 93 56 94 57 95 58 96 59 97
REMARK H PARENT 15 8 22 31 81 50 49 61
REMARK Flexibility Score: inf
ROOT
ATOM      1  C   UNL A   1      34.988  32.408  28.054  1.00  0.00     0.002 C 
ENDROOT
BRANCH   1   2
ATOM      2  C   UNL A   1      34.622  30.957  28.394  1.00  0.00     0.002 C 
BRANCH   2   3
ATOM      3  C   UNL A   1      35.319  29.879  27.556  1.00  0.00     0.021 C 
BRANCH   3   4
ATOM      4  C   UNL A   1      34.379  29.032  26.702  1.00  0.00     0.116 C 
BRANCH   4   5
ATOM      5  N   UNL A   1      33.079  28.859  27.327  1.00  0.00    -0.352 N 
ATOM      6  C   UNL A   1      32.069  27.960  27.283  1.00  0.00     0.251 C 
ATOM      7  O   UNL A   1      31.120  28.202  28.037  1.00  0.00    -0.270 OA
ATOM      8  H   UNL A   1      32.879  29.594  27.951  1.00  0.00     0.163 HD
BRANCH   6   9
ATOM      9  C   UNL A   1      32.024  26.743  26.416  1.00  0.00     0.067 C 
ATOM     10  C   UNL A   1      33.041  22.223  24.321  1.00  0.00    -0.023 A 
ATOM     11  C   UNL A   1      32.005  23.176  24.217  1.00  0.00     0.052 A 
ATOM     12  C   UNL A   1      34.081  22.507  25.224  1.00  0.00     0.045 A 
ATOM     13  C   UNL A   1      32.009  24.352  24.961  1.00  0.00     0.128 A 
ATOM     14  C   UNL A   1      34.085  23.706  25.962  1.00  0.00     0.032 A 
ATOM     15  Cl  UNL A   1      35.384  21.426  25.559  1.00  0.00    -0.084 Cl
ATOM     16  C   UNL A   1      33.046  24.629  25.838  1.00  0.00     0.019 A 
ATOM     17  O   UNL A   1      30.921  25.155  24.815  1.00  0.00    -0.475 OA
ATOM     18  C   UNL A   1      32.997  25.841  26.645  1.00  0.00     0.025 C 
ATOM     19  C   UNL A   1      31.016  26.513  25.320  1.00  0.00     0.314 C 
BRANCH  10  20
ATOM     20  C   UNL A   1      32.855  20.966  23.479  1.00  0.00     0.014 C 
ATOM     21  C   UNL A   1      32.428  19.679  24.184  1.00  0.00     0.012 C 
ATOM     22  C   UNL A   1      31.929  21.261  22.294  1.00  0.00     0.012 C 
ENDBRANCH  10  20
BRANCH  19  23
ATOM     23  C   UNL A   1      31.208  27.459  24.124  1.00  0.00     0.429 C 
ATOM     24  F   UNL A   1      30.703  26.906  22.994  1.00  0.00    -0.167 F 
ATOM     25  F   UNL A   1      30.576  28.643  24.286  1.00  0.00    -0.167 F 
ATOM     26  F   UNL A   1      32.513  27.735  23.893  1.00  0.00    -0.167 F 
ENDBRANCH  19  23
ENDBRANCH   6   9
ENDBRANCH   4   5
ENDBRANCH   3   4
ENDBRANCH   2   3
ENDBRANCH   1   2
BRANCH   1  27
ATOM     27  C   UNL A   1      33.815  33.380  27.914  1.00  0.00     0.021 C 
BRANCH  27  28
ATOM     28  C   UNL A   1      34.095  34.806  28.369  1.00  0.00     0.116 C 
BRANCH  28  29
ATOM     29  N   UNL A   1      33.135  35.283  29.350  1.00  0.00    -0.352 N 
ATOM     30  C   UNL A   1      33.142  35.118  30.715  1.00  0.00     0.251 C 
ATOM     31  H   UNL A   1      32.377  35.795  28.988  1.00  0.00     0.163 HD
ATOM     32  O   UNL A   1      32.173  35.470  31.381  1.00  0.00    -0.269 OA
BRANCH  30  33
ATOM     33  C   UNL A   1      34.308  34.479  31.365  1.00  0.00     0.039 A 
ATOM     34  C   UNL A   1      35.456  35.221  31.653  1.00  0.00     0.014 A 
ATOM     35  C   UNL A   1      34.261  33.113  31.659  1.00  0.00     0.014 A 
ATOM     36  C   UNL A   1      36.605  34.570  32.091  1.00  0.00     0.010 A 
ATOM     37  C   UNL A   1      35.395  32.475  32.169  1.00  0.00     0.010 A 
ATOM     38  C   UNL A   1      36.590  33.189  32.347  1.00  0.00    -0.014 A 
BRANCH  38  39
ATOM     39  C   UNL A   1      37.833  32.518  32.806  1.00  0.00     0.031 A 
ATOM     40  C   UNL A   1      38.447  32.851  34.140  1.00  0.00     0.074 A 
ATOM     41  C   UNL A   1      38.393  31.571  32.028  1.00  0.00     0.049 A 
ATOM     42  N   UNL A   1      39.511  32.340  34.703  1.00  0.00    -0.248 NA
ATOM     43  C   UNL A   1      37.786  33.891  34.948  1.00  0.00     0.031 C 
ATOM     44  C   UNL A   1      37.905  31.175  30.705  1.00  0.00     0.029 A 
ATOM     45  N   UNL A   1      39.480  30.762  32.237  1.00  0.00    -0.354 N 
ATOM     46  C   UNL A   1      39.672  33.016  35.906  1.00  0.00     0.074 A 
ATOM     47  C   UNL A   1      38.597  33.979  35.995  1.00  0.00     0.031 C 
ATOM     48  C   UNL A   1      38.663  30.172  30.239  1.00  0.00     0.029 A 
ATOM     49  C   UNL A   1      39.716  29.883  31.207  1.00  0.00     0.049 A 
ATOM     50  H   UNL A   1      40.038  30.806  33.048  1.00  0.00     0.167 HD
ATOM     51  C   UNL A   1      40.615  32.835  36.859  1.00  0.00     0.034 A 
ATOM     52  C   UNL A   1      40.675  28.949  31.051  1.00  0.00     0.034 A 
ATOM     53  C   UNL A   1      41.652  31.841  36.799  1.00  0.00     0.049 A 
ATOM     54  C   UNL A   1      41.695  28.754  32.133  1.00  0.00     0.074 A 
ATOM     55  C   UNL A   1      42.625  31.559  37.741  1.00  0.00     0.029 A 
ATOM     56  N   UNL A   1      41.845  30.961  35.745  1.00  0.00    -0.354 N 
ATOM     57  N   UNL A   1      41.782  29.355  33.295  1.00  0.00    -0.248 NA
ATOM     58  C   UNL A   1      42.740  27.748  31.893  1.00  0.00     0.031 C 
ATOM     59  C   UNL A   1      43.408  30.506  37.259  1.00  0.00     0.029 A 
ATOM     60  C   UNL A   1      42.921  30.133  36.016  1.00  0.00     0.049 A 
ATOM     61  H   UNL A   1      41.300  30.930  34.927  1.00  0.00     0.167 HD
ATOM     62  C   UNL A   1      42.885  28.798  33.929  1.00  0.00     0.074 A 
ATOM     63  C   UNL A   1      43.422  27.793  33.032  1.00  0.00     0.031 C 
ATOM     64  C   UNL A   1      43.416  29.109  35.135  1.00  0.00     0.034 A 
BRANCH  51  65
ATOM     65  C   UNL A   1      40.546  33.692  38.093  1.00  0.00     0.023 A 
ATOM     66  C   UNL A   1      41.402  34.805  38.201  1.00  0.00     0.012 A 
ATOM     67  C   UNL A   1      39.577  33.460  39.088  1.00  0.00     0.148 A 
ATOM     68  C   UNL A   1      41.301  35.672  39.288  1.00  0.00     0.002 A 
ATOM     69  C   UNL A   1      39.465  34.343  40.156  1.00  0.00     0.091 A 
ATOM     70  F   UNL A   1      38.784  32.385  38.968  1.00  0.00    -0.205 F 
ATOM     71  C   UNL A   1      40.328  35.447  40.258  1.00  0.00     0.022 A 
BRANCH  69  72
ATOM     72  S   UNL A   1      38.211  34.175  41.432  1.00  0.00     0.127 S 
ATOM     73  O   UNL A   1      37.146  33.483  40.707  1.00  0.00    -0.237 OA
ATOM     74  O   UNL A   1      38.898  33.358  42.432  1.00  0.00    -0.237 OA
ATOM     75  O   UNL A   1      37.890  35.528  41.864  1.00  0.00    -0.744 OA
ENDBRANCH  69  72
ENDBRANCH  51  65
BRANCH  52  76
ATOM     76  C   UNL A   1      40.660  28.097  29.833  1.00  0.00     0.023 A 
ATOM     77  C   UNL A   1      39.682  27.093  29.710  1.00  0.00     0.012 A 
ATOM     78  C   UNL A   1      41.542  28.341  28.762  1.00  0.00     0.148 A 
ATOM     79  C   UNL A   1      39.580  26.344  28.538  1.00  0.00     0.002 A 
ATOM     80  C   UNL A   1      41.405  27.623  27.580  1.00  0.00     0.091 A 
ATOM     81  F   UNL A   1      42.468  29.298  28.910  1.00  0.00    -0.205 F 
ATOM     82  C   UNL A   1      40.432  26.618  27.469  1.00  0.00     0.022 A 
BRANCH  80  83
ATOM     83  S   UNL A   1      42.370  27.988  26.110  1.00  0.00     0.127 S 
ATOM     84  O   UNL A   1      43.726  27.687  26.561  1.00  0.00    -0.237 OA
ATOM     85  O   UNL A   1      41.814  27.038  25.145  1.00  0.00    -0.237 OA
ATOM     86  O   UNL A   1      42.106  29.387  25.801  1.00  0.00    -0.744 OA
ENDBRANCH  80  83
ENDBRANCH  52  76
BRANCH  64  87
ATOM     87  C   UNL A   1      44.647  28.368  35.573  1.00  0.00     0.023 A 
ATOM     88  C   UNL A   1      45.912  28.919  35.297  1.00  0.00     0.012 A 
ATOM     89  C   UNL A   1      44.549  27.202  36.356  1.00  0.00     0.148 A 
ATOM     90  C   UNL A   1      47.067  28.317  35.791  1.00  0.00     0.002 A 
ATOM     91  C   UNL A   1      45.703  26.623  36.870  1.00  0.00     0.091 A 
ATOM     92  F   UNL A   1      43.331  26.694  36.594  1.00  0.00    -0.205 F 
ATOM     93  C   UNL A   1      46.963  27.177  36.586  1.00  0.00     0.022 A 
BRANCH  91  94
ATOM     94  S   UNL A   1      45.668  25.197  37.962  1.00  0.00     0.127 S 
ATOM     95  O   UNL A   1      44.714  25.628  38.983  1.00  0.00    -0.237 OA
ATOM     96  O   UNL A   1      45.180  24.141  37.076  1.00  0.00    -0.237 OA
ATOM     97  O   UNL A   1      47.036  25.013  38.429  1.00  0.00    -0.744 OA
ENDBRANCH  91  94
ENDBRANCH  64  87
ENDBRANCH  38  39
ENDBRANCH  30  33
ENDBRANCH  28  29
ENDBRANCH  27  28
ENDBRANCH   1  27
TORSDOF 18
ENDMDL
MODEL 3
REMARK VINA RESULT:     -11.5      2.663      8.446
REMARK SMILES CC(C)c1cc2c(cc1Cl)C=C(C(=O)NCCCCCCNC(=O)c1ccc(-c3c4nc(c(-c5cccc(S(=O)(=O)[O-])c5F)c5ccc([nH]5)c(-c5cccc(S(=O)(=O)[O-])c5F)c5nc(c(-c6cccc(S(=O)(=O)[O-])c6F)c6ccc3[nH]6)C=C5)C=C4)cc1)[C@@H](C(F)(F)F)O2
REMARK SMILES IDX 19 1 18 2 17 3 16 4 15 5 13 6 14 7 12 9 4 10 5 11 9 12 6 13
REMARK SMILES IDX 8 14 10 15 7 16 93 17 11 18 88 19 2 20 1 21 3 22 89 23 90 24
REMARK SMILES IDX 91 25 92 26 20 27 21 28 22 29 23 30 24 32 25 33 26 34 87 35
REMARK SMILES IDX 27 36 86 37 28 38 29 39 30 40 80 41 31 42 85 43 79 44 81 45
REMARK SMILES IDX 32 46 84 47 78 48 77 49 33 51 65 52 45 53 64 54 46 55 49 56
REMARK SMILES IDX 63 57 82 58 47 59 48 60 62 62 83 63 50 64 34 65 35 66 43 67
REMARK SMILES IDX 36 68 38 69 44 70 37 71 39 72 40 73 41 74 42 75 66 76 67 77
REMARK SMILES IDX 75 78 68 79 70 80 76 81 69 82 71 83 72 84 73 85 74 86 51 87
REMARK SMILES IDX 52 88 60 89 53 90 55 91 61 92 54 93 56 94 57 95 58 96 59 97
REMARK H PARENT 15 8 22 31 81 50 49 61
REMARK Flexibility Score: inf
ROOT
ATOM      1  C   UNL A   1      34.628  28.746  26.905  1.00  0.00     0.002 C 
ENDROOT
BRANCH   1   2
ATOM      2  C   UNL A   1      33.750  27.894  25.978  1.00  0.00     0.002 C 
BRANCH   2   3
ATOM      3  C   UNL A   1      33.392  26.497  26.496  1.00  0.00     0.021 C 
BRANCH   3   4
ATOM      4  C   UNL A   1      34.308  25.382  25.997  1.00  0.00     0.116 C 
BRANCH   4   5
ATOM      5  N   UNL A   1      33.588  24.391  25.217  1.00  0.00    -0.352 N 
ATOM      6  C   UNL A   1      32.600  24.384  24.292  1.00  0.00     0.251 C 
ATOM      7  O   UNL A   1      32.304  23.267  23.852  1.00  0.00    -0.270 OA
ATOM      8  H   UNL A   1      33.903  23.479  25.414  1.00  0.00     0.163 HD
BRANCH   6   9
ATOM      9  C   UNL A   1      31.870  25.587  23.789  1.00  0.00     0.067 C 
ATOM     10  C   UNL A   1      28.259  29.037  22.830  1.00  0.00    -0.023 A 
ATOM     11  C   UNL A   1      29.653  28.948  22.625  1.00  0.00     0.052 A 
ATOM     12  C   UNL A   1      27.639  27.952  23.475  1.00  0.00     0.045 A 
ATOM     13  C   UNL A   1      30.387  27.835  23.027  1.00  0.00     0.128 A 
ATOM     14  C   UNL A   1      28.385  26.824  23.865  1.00  0.00     0.032 A 
ATOM     15  Cl  UNL A   1      25.966  27.916  23.897  1.00  0.00    -0.084 Cl
ATOM     16  C   UNL A   1      29.762  26.765  23.649  1.00  0.00     0.019 A 
ATOM     17  O   UNL A   1      31.730  27.902  22.828  1.00  0.00    -0.475 OA
ATOM     18  C   UNL A   1      30.562  25.638  24.109  1.00  0.00     0.025 C 
ATOM     19  C   UNL A   1      32.488  26.668  22.942  1.00  0.00     0.314 C 
BRANCH  10  20
ATOM     20  C   UNL A   1      27.619  30.345  22.382  1.00  0.00     0.014 C 
ATOM     21  C   UNL A   1      27.648  31.533  23.343  1.00  0.00     0.012 C 
ATOM     22  C   UNL A   1      28.165  30.752  21.009  1.00  0.00     0.012 C 
ENDBRANCH  10  20
BRANCH  19  23
ATOM     23  C   UNL A   1      32.842  26.189  21.525  1.00  0.00     0.429 C 
ATOM     24  F   UNL A   1      31.715  25.952  20.808  1.00  0.00    -0.167 F 
ATOM     25  F   UNL A   1      33.556  27.101  20.827  1.00  0.00    -0.167 F 
ATOM     26  F   UNL A   1      33.564  25.045  21.537  1.00  0.00    -0.167 F 
ENDBRANCH  19  23
ENDBRANCH   6   9
ENDBRANCH   4   5
ENDBRANCH   3   4
ENDBRANCH   2   3
ENDBRANCH   1   2
BRANCH   1  27
ATOM     27  C   UNL A   1      34.424  30.259  26.818  1.00  0.00     0.021 C 
BRANCH  27  28
ATOM     28  C   UNL A   1      33.061  30.759  27.281  1.00  0.00     0.116 C 
BRANCH  28  29
ATOM     29  N   UNL A   1      32.954  32.207  27.255  1.00  0.00    -0.352 N 
ATOM     30  C   UNL A   1      33.731  33.141  27.900  1.00  0.00     0.251 C 
ATOM     31  H   UNL A   1      32.227  32.570  26.700  1.00  0.00     0.163 HD
ATOM     32  O   UNL A   1      33.412  34.325  27.879  1.00  0.00    -0.269 OA
BRANCH  30  33
ATOM     33  C   UNL A   1      34.927  32.699  28.650  1.00  0.00     0.039 A 
ATOM     34  C   UNL A   1      36.209  32.936  28.145  1.00  0.00     0.014 A 
ATOM     35  C   UNL A   1      34.762  32.012  29.855  1.00  0.00     0.014 A 
ATOM     36  C   UNL A   1      37.310  32.355  28.765  1.00  0.00     0.010 A 
ATOM     37  C   UNL A   1      35.879  31.492  30.516  1.00  0.00     0.010 A 
ATOM     38  C   UNL A   1      37.158  31.620  29.952  1.00  0.00    -0.014 A 
BRANCH  38  39
ATOM     39  C   UNL A   1      38.351  31.003  30.589  1.00  0.00     0.031 A 
ATOM     40  C   UNL A   1      38.742  31.350  32.001  1.00  0.00     0.074 A 
ATOM     41  C   UNL A   1      39.066  30.094  29.898  1.00  0.00     0.049 A 
ATOM     42  N   UNL A   1      39.734  30.883  32.714  1.00  0.00    -0.248 NA
ATOM     43  C   UNL A   1      37.918  32.346  32.706  1.00  0.00     0.031 C 
ATOM     44  C   UNL A   1      38.800  29.692  28.515  1.00  0.00     0.029 A 
ATOM     45  N   UNL A   1      40.148  29.336  30.264  1.00  0.00    -0.354 N 
ATOM     46  C   UNL A   1      39.680  31.552  33.931  1.00  0.00     0.074 A 
ATOM     47  C   UNL A   1      38.558  32.461  33.863  1.00  0.00     0.031 C 
ATOM     48  C   UNL A   1      39.667  28.732  28.163  1.00  0.00     0.029 A 
ATOM     49  C   UNL A   1      40.578  28.482  29.276  1.00  0.00     0.049 A 
ATOM     50  H   UNL A   1      40.576  29.397  31.148  1.00  0.00     0.167 HD
ATOM     51  C   UNL A   1      40.479  31.405  35.013  1.00  0.00     0.034 A 
ATOM     52  C   UNL A   1      41.594  27.597  29.260  1.00  0.00     0.034 A 
ATOM     53  C   UNL A   1      41.561  30.462  35.103  1.00  0.00     0.049 A 
ATOM     54  C   UNL A   1      42.450  27.438  30.481  1.00  0.00     0.074 A 
ATOM     55  C   UNL A   1      42.396  30.216  36.179  1.00  0.00     0.029 A 
ATOM     56  N   UNL A   1      41.952  29.606  34.086  1.00  0.00    -0.354 N 
ATOM     57  N   UNL A   1      42.334  28.029  31.646  1.00  0.00    -0.248 NA
ATOM     58  C   UNL A   1      43.567  26.487  30.395  1.00  0.00     0.031 C 
ATOM     59  C   UNL A   1      43.293  29.207  35.813  1.00  0.00     0.029 A 
ATOM     60  C   UNL A   1      43.015  28.827  34.510  1.00  0.00     0.049 A 
ATOM     61  H   UNL A   1      41.537  29.559  33.196  1.00  0.00     0.167 HD
ATOM     62  C   UNL A   1      43.356  27.517  32.434  1.00  0.00     0.074 A 
ATOM     63  C   UNL A   1      44.069  26.551  31.623  1.00  0.00     0.031 C 
ATOM     64  C   UNL A   1      43.686  27.839  33.708  1.00  0.00     0.034 A 
BRANCH  51  65
ATOM     65  C   UNL A   1      40.185  32.242  36.227  1.00  0.00     0.023 A 
ATOM     66  C   UNL A   1      40.947  33.405  36.457  1.00  0.00     0.012 A 
ATOM     67  C   UNL A   1      39.103  31.940  37.076  1.00  0.00     0.148 A 
ATOM     68  C   UNL A   1      40.640  34.252  37.521  1.00  0.00     0.002 A 
ATOM     69  C   UNL A   1      38.788  32.803  38.119  1.00  0.00     0.091 A 
ATOM     70  F   UNL A   1      38.403  30.820  36.844  1.00  0.00    -0.205 F 
ATOM     71  C   UNL A   1      39.558  33.957  38.344  1.00  0.00     0.022 A 
BRANCH  69  72
ATOM     72  S   UNL A   1      37.381  32.545  39.207  1.00  0.00     0.127 S 
ATOM     73  O   UNL A   1      37.551  33.633  40.169  1.00  0.00    -0.237 OA
ATOM     74  O   UNL A   1      36.251  32.710  38.293  1.00  0.00    -0.237 OA
ATOM     75  O   UNL A   1      37.535  31.204  39.753  1.00  0.00    -0.744 OA
ENDBRANCH  69  72
ENDBRANCH  51  65
BRANCH  52  76
ATOM     76  C   UNL A   1      41.803  26.760  28.050  1.00  0.00     0.023 A 
ATOM     77  C   UNL A   1      42.639  27.234  27.022  1.00  0.00     0.012 A 
ATOM     78  C   UNL A   1      41.260  25.463  27.959  1.00  0.00     0.148 A 
ATOM     79  C   UNL A   1      42.934  26.429  25.921  1.00  0.00     0.002 A 
ATOM     80  C   UNL A   1      41.593  24.651  26.883  1.00  0.00     0.091 A 
ATOM     81  F   UNL A   1      40.460  25.041  28.948  1.00  0.00    -0.205 F 
ATOM     82  C   UNL A   1      42.422  25.134  25.858  1.00  0.00     0.022 A 
BRANCH  80  83
ATOM     83  S   UNL A   1      41.086  22.931  26.775  1.00  0.00     0.127 S 
ATOM     84  O   UNL A   1      41.866  22.461  25.633  1.00  0.00    -0.237 OA
ATOM     85  O   UNL A   1      41.517  22.411  28.074  1.00  0.00    -0.237 OA
ATOM     86  O   UNL A   1      39.643  22.955  26.583  1.00  0.00    -0.744 OA
ENDBRANCH  80  83
ENDBRANCH  52  76
BRANCH  64  87
ATOM     87  C   UNL A   1      44.873  27.152  34.321  1.00  0.00     0.023 A 
ATOM     88  C   UNL A   1      46.133  27.776  34.257  1.00  0.00     0.012 A 
ATOM     89  C   UNL A   1      44.719  25.963  35.059  1.00  0.00     0.148 A 
ATOM     90  C   UNL A   1      47.229  27.223  34.916  1.00  0.00     0.002 A 
ATOM     91  C   UNL A   1      45.810  25.432  35.737  1.00  0.00     0.091 A 
ATOM     92  F   UNL A   1      43.509  25.385  35.093  1.00  0.00    -0.205 F 
ATOM     93  C   UNL A   1      47.065  26.059  35.665  1.00  0.00     0.022 A 
BRANCH  91  94
ATOM     94  S   UNL A   1      45.685  23.978  36.785  1.00  0.00     0.127 S 
ATOM     95  O   UNL A   1      44.716  24.417  37.788  1.00  0.00    -0.237 OA
ATOM     96  O   UNL A   1      45.186  22.967  35.854  1.00  0.00    -0.237 OA
ATOM     97  O   UNL A   1      47.029  23.728  37.289  1.00  0.00    -0.744 OA
ENDBRANCH  91  94
ENDBRANCH  64  87
ENDBRANCH  38  39
ENDBRANCH  30  33
ENDBRANCH  28  29
ENDBRANCH  27  28
ENDBRANCH   1  27
TORSDOF 18
ENDMDL
