MODEL 1
REMARK VINA RESULT:     -11.4      0.000      0.000
REMARK SMILES CC(C)n1ccc(C[C@@H](C(=O)NCCCCCCNC(=O)c2ccc(-c3c4nc(c(-c5cccc(S(=O)(=O)[O-])c5F)c5ccc([nH]5)c(-c5cccc(S(=O)(=O)[O-])c5F)c5nc(c(-c6cccc(S(=O)(=O)[O-])c6F)c6ccc3[nH]6)C=C5)C=C4)cc2)c2cccc(Cl)c2)n1
REMARK SMILES IDX 15 1 14 2 13 3 12 4 10 5 11 6 9 8 8 9 7 10 4 11 5 12 92 13
REMARK SMILES IDX 6 14 2 15 1 16 3 17 85 18 86 19 91 20 87 21 89 22 88 23
REMARK SMILES IDX 90 24 16 25 17 26 18 27 19 28 20 29 21 31 22 32 23 33 84 34
REMARK SMILES IDX 24 35 83 36 25 37 26 38 27 39 77 40 28 41 82 42 76 43 78 44
REMARK SMILES IDX 29 45 81 46 75 47 74 48 30 50 62 51 42 52 61 53 43 54 46 55
REMARK SMILES IDX 60 56 79 57 44 58 45 59 59 61 80 62 47 63 31 64 32 65 40 66
REMARK SMILES IDX 33 67 35 68 41 69 34 70 36 71 37 72 38 73 39 74 63 75 64 76
REMARK SMILES IDX 72 77 65 78 67 79 73 80 66 81 68 82 69 83 70 84 71 85 48 86
REMARK SMILES IDX 49 87 57 88 50 89 52 90 58 91 51 92 53 93 54 94 55 95 56 96
REMARK H PARENT 12 7 19 30 78 49 46 60
REMARK Flexibility Score: inf
ROOT
ATOM      1  C   UNL A   1      34.395  27.617  26.015  1.00  0.00     0.002 C 
ENDROOT
BRANCH   1   2
ATOM      2  C   UNL A   1      33.557  26.372  25.708  1.00  0.00     0.021 C 
BRANCH   2   3
ATOM      3  C   UNL A   1      34.093  25.467  24.588  1.00  0.00     0.116 C 
BRANCH   3   4
ATOM      4  N   UNL A   1      33.802  26.064  23.297  1.00  0.00    -0.356 N 
ATOM      5  C   UNL A   1      32.893  25.604  22.381  1.00  0.00     0.227 C 
ATOM      6  O   UNL A   1      33.280  25.597  21.209  1.00  0.00    -0.274 OA
ATOM      7  H   UNL A   1      34.304  26.876  23.058  1.00  0.00     0.163 HD
BRANCH   5   8
ATOM      8  C   UNL A   1      31.456  25.214  22.806  1.00  0.00     0.114 C 
BRANCH   8   9
ATOM      9  C   UNL A   1      30.794  26.322  23.653  1.00  0.00     0.076 C 
BRANCH   9  10
ATOM     10  C   UNL A   1      30.387  27.589  22.985  1.00  0.00     0.064 A 
ATOM     11  N   UNL A   1      29.171  29.239  22.395  1.00  0.00    -0.270 N 
ATOM     12  C   UNL A   1      30.455  29.612  22.106  1.00  0.00     0.109 A 
ATOM     13  N   UNL A   1      29.105  27.980  22.910  1.00  0.00    -0.178 NA
ATOM     14  C   UNL A   1      31.264  28.572  22.483  1.00  0.00     0.045 A 
BRANCH  11  15
ATOM     15  C   UNL A   1      27.962  30.052  22.233  1.00  0.00     0.101 C 
ATOM     16  C   UNL A   1      27.626  30.881  23.482  1.00  0.00     0.033 C 
ATOM     17  C   UNL A   1      28.037  31.008  21.035  1.00  0.00     0.033 C 
ENDBRANCH  11  15
ENDBRANCH   9  10
ENDBRANCH   8   9
BRANCH   8  18
ATOM     18  C   UNL A   1      31.380  23.902  23.657  1.00  0.00    -0.034 A 
ATOM     19  C   UNL A   1      30.816  23.958  24.949  1.00  0.00     0.004 A 
ATOM     20  C   UNL A   1      31.962  22.679  23.273  1.00  0.00     0.025 A 
ATOM     21  C   UNL A   1      30.926  22.887  25.847  1.00  0.00     0.002 A 
ATOM     22  C   UNL A   1      32.061  21.607  24.168  1.00  0.00     0.041 A 
ATOM     23  C   UNL A   1      31.567  21.715  25.463  1.00  0.00     0.020 A 
ATOM     24  Cl  UNL A   1      32.838  20.148  23.679  1.00  0.00    -0.084 Cl
ENDBRANCH   8  18
ENDBRANCH   5   8
ENDBRANCH   3   4
ENDBRANCH   2   3
ENDBRANCH   1   2
BRANCH   1  25
ATOM     25  C   UNL A   1      33.733  28.649  26.933  1.00  0.00     0.002 C 
BRANCH  25  26
ATOM     26  C   UNL A   1      34.511  29.955  27.153  1.00  0.00     0.021 C 
BRANCH  26  27
ATOM     27  C   UNL A   1      35.554  29.887  28.264  1.00  0.00     0.116 C 
BRANCH  27  28
ATOM     28  N   UNL A   1      35.345  30.910  29.278  1.00  0.00    -0.352 N 
ATOM     29  C   UNL A   1      36.013  31.088  30.470  1.00  0.00     0.251 C 
ATOM     30  H   UNL A   1      34.633  31.561  29.086  1.00  0.00     0.163 HD
ATOM     31  O   UNL A   1      35.503  31.755  31.358  1.00  0.00    -0.269 OA
BRANCH  29  32
ATOM     32  C   UNL A   1      37.344  30.475  30.675  1.00  0.00     0.039 A 
ATOM     33  C   UNL A   1      37.450  29.082  30.766  1.00  0.00     0.014 A 
ATOM     34  C   UNL A   1      38.473  31.279  30.841  1.00  0.00     0.014 A 
ATOM     35  C   UNL A   1      38.697  28.501  30.975  1.00  0.00     0.010 A 
ATOM     36  C   UNL A   1      39.721  30.703  30.977  1.00  0.00     0.010 A 
ATOM     37  C   UNL A   1      39.834  29.316  31.070  1.00  0.00    -0.014 A 
BRANCH  37  38
ATOM     38  C   UNL A   1      41.166  28.706  31.040  1.00  0.00     0.031 A 
ATOM     39  C   UNL A   1      41.779  28.585  32.395  1.00  0.00     0.074 A 
ATOM     40  C   UNL A   1      41.669  28.088  29.948  1.00  0.00     0.049 A 
ATOM     41  N   UNL A   1      42.875  29.113  32.832  1.00  0.00    -0.248 NA
ATOM     42  C   UNL A   1      40.981  27.935  33.449  1.00  0.00     0.031 C 
ATOM     43  C   UNL A   1      40.982  27.896  28.666  1.00  0.00     0.029 A 
ATOM     44  N   UNL A   1      42.812  27.353  29.793  1.00  0.00    -0.354 N 
ATOM     45  C   UNL A   1      43.026  28.623  34.133  1.00  0.00     0.074 A 
ATOM     46  C   UNL A   1      41.738  28.133  34.527  1.00  0.00     0.031 C 
ATOM     47  C   UNL A   1      41.580  26.898  27.981  1.00  0.00     0.029 A 
ATOM     48  C   UNL A   1      42.764  26.475  28.706  1.00  0.00     0.049 A 
ATOM     49  H   UNL A   1      43.593  27.434  30.387  1.00  0.00     0.167 HD
ATOM     50  C   UNL A   1      44.264  28.355  34.634  1.00  0.00     0.034 A 
ATOM     51  C   UNL A   1      43.588  25.427  28.449  1.00  0.00     0.034 A 
ATOM     52  C   UNL A   1      45.280  29.019  33.855  1.00  0.00     0.049 A 
ATOM     53  C   UNL A   1      44.812  25.623  29.249  1.00  0.00     0.074 A 
ATOM     54  C   UNL A   1      45.581  30.321  33.515  1.00  0.00     0.029 A 
ATOM     55  N   UNL A   1      45.954  28.213  32.975  1.00  0.00    -0.354 N 
ATOM     56  N   UNL A   1      45.683  26.564  29.023  1.00  0.00    -0.248 NA
ATOM     57  C   UNL A   1      44.910  24.974  30.546  1.00  0.00     0.031 C 
ATOM     58  C   UNL A   1      46.140  30.246  32.204  1.00  0.00     0.029 A 
ATOM     59  C   UNL A   1      46.219  28.903  31.831  1.00  0.00     0.049 A 
ATOM     60  H   UNL A   1      46.207  27.277  33.144  1.00  0.00     0.167 HD
ATOM     61  C   UNL A   1      46.091  26.949  30.290  1.00  0.00     0.074 A 
ATOM     62  C   UNL A   1      45.725  25.835  31.158  1.00  0.00     0.031 C 
ATOM     63  C   UNL A   1      46.387  28.256  30.547  1.00  0.00     0.034 A 
BRANCH  50  64
ATOM     64  C   UNL A   1      44.616  27.125  35.472  1.00  0.00     0.023 A 
ATOM     65  C   UNL A   1      45.473  27.342  36.581  1.00  0.00     0.012 A 
ATOM     66  C   UNL A   1      44.440  25.779  35.073  1.00  0.00     0.148 A 
ATOM     67  C   UNL A   1      46.196  26.301  37.176  1.00  0.00     0.002 A 
ATOM     68  C   UNL A   1      45.108  24.738  35.711  1.00  0.00     0.091 A 
ATOM     69  F   UNL A   1      43.715  25.479  33.997  1.00  0.00    -0.205 F 
ATOM     70  C   UNL A   1      46.018  24.996  36.736  1.00  0.00     0.022 A 
BRANCH  68  71
ATOM     71  S   UNL A   1      44.884  23.024  35.208  1.00  0.00     0.127 S 
ATOM     72  O   UNL A   1      45.571  22.314  36.282  1.00  0.00    -0.237 OA
ATOM     73  O   UNL A   1      43.426  22.905  35.213  1.00  0.00    -0.237 OA
ATOM     74  O   UNL A   1      45.488  22.912  33.885  1.00  0.00    -0.744 OA
ENDBRANCH  68  71
ENDBRANCH  50  64
BRANCH  51  75
ATOM     75  C   UNL A   1      43.352  24.154  27.725  1.00  0.00     0.023 A 
ATOM     76  C   UNL A   1      42.065  23.575  27.736  1.00  0.00     0.012 A 
ATOM     77  C   UNL A   1      44.290  23.662  26.793  1.00  0.00     0.148 A 
ATOM     78  C   UNL A   1      41.711  22.575  26.822  1.00  0.00     0.002 A 
ATOM     79  C   UNL A   1      43.938  22.660  25.892  1.00  0.00     0.091 A 
ATOM     80  F   UNL A   1      45.495  24.243  26.723  1.00  0.00    -0.205 F 
ATOM     81  C   UNL A   1      42.644  22.124  25.893  1.00  0.00     0.022 A 
BRANCH  79  82
ATOM     82  S   UNL A   1      45.083  22.051  24.647  1.00  0.00     0.127 S 
ATOM     83  O   UNL A   1      46.240  21.673  25.459  1.00  0.00    -0.237 OA
ATOM     84  O   UNL A   1      44.340  20.929  24.079  1.00  0.00    -0.237 OA
ATOM     85  O   UNL A   1      45.323  23.171  23.747  1.00  0.00    -0.744 OA
ENDBRANCH  79  82
ENDBRANCH  51  75
BRANCH  63  86
ATOM     86  C   UNL A   1      46.714  29.147  29.381  1.00  0.00     0.023 A 
ATOM     87  C   UNL A   1      47.982  29.197  28.769  1.00  0.00     0.012 A 
ATOM     88  C   UNL A   1      45.653  29.872  28.812  1.00  0.00     0.148 A 
ATOM     89  C   UNL A   1      48.192  29.982  27.631  1.00  0.00     0.002 A 
ATOM     90  C   UNL A   1      45.852  30.606  27.652  1.00  0.00     0.091 A 
ATOM     91  F   UNL A   1      44.454  29.823  29.413  1.00  0.00    -0.205 F 
ATOM     92  C   UNL A   1      47.123  30.674  27.064  1.00  0.00     0.022 A 
BRANCH  90  93
ATOM     93  S   UNL A   1      44.477  31.403  26.824  1.00  0.00     0.127 S 
ATOM     94  O   UNL A   1      45.122  31.982  25.648  1.00  0.00    -0.237 OA
ATOM     95  O   UNL A   1      43.581  30.280  26.542  1.00  0.00    -0.237 OA
ATOM     96  O   UNL A   1      43.939  32.358  27.786  1.00  0.00    -0.744 OA
ENDBRANCH  90  93
ENDBRANCH  63  86
ENDBRANCH  37  38
ENDBRANCH  29  32
ENDBRANCH  27  28
ENDBRANCH  26  27
ENDBRANCH  25  26
ENDBRANCH   1  25
TORSDOF 20
ENDMDL
MODEL 2
REMARK VINA RESULT:     -11.4      3.056      7.530
REMARK SMILES CC(C)n1ccc(C[C@@H](C(=O)NCCCCCCNC(=O)c2ccc(-c3c4nc(c(-c5cccc(S(=O)(=O)[O-])c5F)c5ccc([nH]5)c(-c5cccc(S(=O)(=O)[O-])c5F)c5nc(c(-c6cccc(S(=O)(=O)[O-])c6F)c6ccc3[nH]6)C=C5)C=C4)cc2)c2cccc(Cl)c2)n1
REMARK SMILES IDX 15 1 14 2 13 3 12 4 10 5 11 6 9 8 8 9 7 10 4 11 5 12 92 13
REMARK SMILES IDX 6 14 2 15 1 16 3 17 85 18 86 19 91 20 87 21 89 22 88 23
REMARK SMILES IDX 90 24 16 25 17 26 18 27 19 28 20 29 21 31 22 32 23 33 84 34
REMARK SMILES IDX 24 35 83 36 25 37 26 38 27 39 77 40 28 41 82 42 76 43 78 44
REMARK SMILES IDX 29 45 81 46 75 47 74 48 30 50 62 51 42 52 61 53 43 54 46 55
REMARK SMILES IDX 60 56 79 57 44 58 45 59 59 61 80 62 47 63 31 64 32 65 40 66
REMARK SMILES IDX 33 67 35 68 41 69 34 70 36 71 37 72 38 73 39 74 63 75 64 76
REMARK SMILES IDX 72 77 65 78 67 79 73 80 66 81 68 82 69 83 70 84 71 85 48 86
REMARK SMILES IDX 49 87 57 88 50 89 52 90 58 91 51 92 53 93 54 94 55 95 56 96
REMARK H PARENT 12 7 19 30 78 49 46 60
REMARK Flexibility Score: inf
ROOT
ATOM      1  C   UNL A   1      37.183  21.432  24.542  1.00  0.00     0.002 C 
ENDROOT
BRANCH   1   2
ATOM      2  C   UNL A   1      37.638  22.644  25.360  1.00  0.00     0.021 C 
BRANCH   2   3
ATOM      3  C   UNL A   1      36.549  23.327  26.201  1.00  0.00     0.116 C 
BRANCH   3   4
ATOM      4  N   UNL A   1      35.637  22.326  26.723  1.00  0.00    -0.356 N 
ATOM      5  C   UNL A   1      34.288  22.261  26.488  1.00  0.00     0.227 C 
ATOM      6  O   UNL A   1      33.590  22.018  27.477  1.00  0.00    -0.274 OA
ATOM      7  H   UNL A   1      36.023  21.628  27.300  1.00  0.00     0.163 HD
BRANCH   5   8
ATOM      8  C   UNL A   1      33.718  22.394  25.055  1.00  0.00     0.114 C 
BRANCH   8   9
ATOM      9  C   UNL A   1      32.393  23.185  25.041  1.00  0.00     0.076 C 
BRANCH   9  10
ATOM     10  C   UNL A   1      32.443  24.665  24.874  1.00  0.00     0.064 A 
ATOM     11  N   UNL A   1      31.778  26.687  24.751  1.00  0.00    -0.270 N 
ATOM     12  C   UNL A   1      33.132  26.761  24.932  1.00  0.00     0.109 A 
ATOM     13  N   UNL A   1      31.336  25.401  24.682  1.00  0.00    -0.178 NA
ATOM     14  C   UNL A   1      33.589  25.472  25.022  1.00  0.00     0.045 A 
BRANCH  11  15
ATOM     15  C   UNL A   1      30.841  27.812  24.670  1.00  0.00     0.101 C 
ATOM     16  C   UNL A   1      31.541  29.179  24.692  1.00  0.00     0.033 C 
ATOM     17  C   UNL A   1      29.945  27.758  23.425  1.00  0.00     0.033 C 
ENDBRANCH  11  15
ENDBRANCH   9  10
ENDBRANCH   8   9
BRANCH   8  18
ATOM     18  C   UNL A   1      33.421  21.022  24.361  1.00  0.00    -0.034 A 
ATOM     19  C   UNL A   1      32.581  20.999  23.227  1.00  0.00     0.004 A 
ATOM     20  C   UNL A   1      33.830  19.776  24.871  1.00  0.00     0.025 A 
ATOM     21  C   UNL A   1      32.089  19.797  22.700  1.00  0.00     0.002 A 
ATOM     22  C   UNL A   1      33.345  18.576  24.337  1.00  0.00     0.041 A 
ATOM     23  C   UNL A   1      32.456  18.582  23.268  1.00  0.00     0.020 A 
ATOM     24  Cl  UNL A   1      33.821  17.072  25.032  1.00  0.00    -0.084 Cl
ENDBRANCH   8  18
ENDBRANCH   5   8
ENDBRANCH   3   4
ENDBRANCH   2   3
ENDBRANCH   1   2
BRANCH   1  25
ATOM     25  C   UNL A   1      37.886  20.111  24.873  1.00  0.00     0.002 C 
BRANCH  25  26
ATOM     26  C   UNL A   1      39.365  20.214  25.272  1.00  0.00     0.021 C 
BRANCH  26  27
ATOM     27  C   UNL A   1      39.881  19.032  26.088  1.00  0.00     0.116 C 
BRANCH  27  28
ATOM     28  N   UNL A   1      41.257  18.693  25.756  1.00  0.00    -0.352 N 
ATOM     29  C   UNL A   1      42.354  19.523  25.689  1.00  0.00     0.251 C 
ATOM     30  H   UNL A   1      41.424  17.745  25.552  1.00  0.00     0.163 HD
ATOM     31  O   UNL A   1      43.345  19.170  25.066  1.00  0.00    -0.269 OA
BRANCH  29  32
ATOM     32  C   UNL A   1      42.337  20.836  26.370  1.00  0.00     0.039 A 
ATOM     33  C   UNL A   1      41.918  20.910  27.704  1.00  0.00     0.014 A 
ATOM     34  C   UNL A   1      42.673  21.997  25.672  1.00  0.00     0.014 A 
ATOM     35  C   UNL A   1      41.885  22.146  28.345  1.00  0.00     0.010 A 
ATOM     36  C   UNL A   1      42.710  23.214  26.326  1.00  0.00     0.010 A 
ATOM     37  C   UNL A   1      42.292  23.296  27.654  1.00  0.00    -0.014 A 
BRANCH  37  38
ATOM     38  C   UNL A   1      42.495  24.547  28.388  1.00  0.00     0.031 A 
ATOM     39  C   UNL A   1      41.426  25.554  28.127  1.00  0.00     0.074 A 
ATOM     40  C   UNL A   1      43.400  24.678  29.385  1.00  0.00     0.049 A 
ATOM     41  N   UNL A   1      41.540  26.735  27.614  1.00  0.00    -0.248 NA
ATOM     42  C   UNL A   1      40.027  25.122  28.298  1.00  0.00     0.031 C 
ATOM     43  C   UNL A   1      44.275  23.622  29.907  1.00  0.00     0.029 A 
ATOM     44  N   UNL A   1      43.616  25.710  30.256  1.00  0.00    -0.354 N 
ATOM     45  C   UNL A   1      40.255  27.283  27.663  1.00  0.00     0.074 A 
ATOM     46  C   UNL A   1      39.357  26.181  27.845  1.00  0.00     0.031 C 
ATOM     47  C   UNL A   1      44.712  23.969  31.136  1.00  0.00     0.029 A 
ATOM     48  C   UNL A   1      44.265  25.318  31.430  1.00  0.00     0.049 A 
ATOM     49  H   UNL A   1      43.343  26.638  30.074  1.00  0.00     0.167 HD
ATOM     50  C   UNL A   1      40.077  28.614  27.893  1.00  0.00     0.034 A 
ATOM     51  C   UNL A   1      44.369  26.013  32.592  1.00  0.00     0.034 A 
ATOM     52  C   UNL A   1      41.298  29.338  27.643  1.00  0.00     0.049 A 
ATOM     53  C   UNL A   1      44.083  27.427  32.286  1.00  0.00     0.074 A 
ATOM     54  C   UNL A   1      42.143  29.526  26.569  1.00  0.00     0.029 A 
ATOM     55  N   UNL A   1      41.999  29.697  28.765  1.00  0.00    -0.354 N 
ATOM     56  N   UNL A   1      44.866  28.189  31.578  1.00  0.00    -0.248 NA
ATOM     57  C   UNL A   1      42.730  27.923  32.480  1.00  0.00     0.031 C 
ATOM     58  C   UNL A   1      43.448  29.645  27.133  1.00  0.00     0.029 A 
ATOM     59  C   UNL A   1      43.336  29.594  28.525  1.00  0.00     0.049 A 
ATOM     60  H   UNL A   1      41.597  29.984  29.616  1.00  0.00     0.167 HD
ATOM     61  C   UNL A   1      43.991  28.976  30.848  1.00  0.00     0.074 A 
ATOM     62  C   UNL A   1      42.723  28.894  31.565  1.00  0.00     0.031 C 
ATOM     63  C   UNL A   1      44.303  29.346  29.573  1.00  0.00     0.034 A 
BRANCH  50  64
ATOM     64  C   UNL A   1      39.005  29.204  28.810  1.00  0.00     0.023 A 
ATOM     65  C   UNL A   1      38.255  30.288  28.289  1.00  0.00     0.012 A 
ATOM     66  C   UNL A   1      38.911  28.994  30.207  1.00  0.00     0.148 A 
ATOM     67  C   UNL A   1      37.554  31.172  29.117  1.00  0.00     0.002 A 
ATOM     68  C   UNL A   1      38.157  29.835  31.019  1.00  0.00     0.091 A 
ATOM     69  F   UNL A   1      39.636  28.049  30.802  1.00  0.00    -0.205 F 
ATOM     70  C   UNL A   1      37.509  30.950  30.486  1.00  0.00     0.022 A 
BRANCH  68  71
ATOM     71  S   UNL A   1      38.032  29.569  32.796  1.00  0.00     0.127 S 
ATOM     72  O   UNL A   1      39.429  29.683  33.204  1.00  0.00    -0.237 OA
ATOM     73  O   UNL A   1      37.171  30.680  33.199  1.00  0.00    -0.237 OA
ATOM     74  O   UNL A   1      37.428  28.252  32.962  1.00  0.00    -0.744 OA
ENDBRANCH  68  71
ENDBRANCH  50  64
BRANCH  51  75
ATOM     75  C   UNL A   1      44.503  25.553  33.996  1.00  0.00     0.023 A 
ATOM     76  C   UNL A   1      43.343  25.339  34.772  1.00  0.00     0.012 A 
ATOM     77  C   UNL A   1      45.727  25.048  34.483  1.00  0.00     0.148 A 
ATOM     78  C   UNL A   1      43.394  24.609  35.966  1.00  0.00     0.002 A 
ATOM     79  C   UNL A   1      45.775  24.331  35.677  1.00  0.00     0.091 A 
ATOM     80  F   UNL A   1      46.827  25.184  33.731  1.00  0.00    -0.205 F 
ATOM     81  C   UNL A   1      44.608  24.096  36.414  1.00  0.00     0.022 A 
BRANCH  79  82
ATOM     82  S   UNL A   1      47.303  23.616  36.300  1.00  0.00     0.127 S 
ATOM     83  O   UNL A   1      47.472  22.454  35.427  1.00  0.00    -0.237 OA
ATOM     84  O   UNL A   1      48.257  24.699  36.070  1.00  0.00    -0.237 OA
ATOM     85  O   UNL A   1      47.045  23.286  37.695  1.00  0.00    -0.744 OA
ENDBRANCH  79  82
ENDBRANCH  51  75
BRANCH  63  86
ATOM     86  C   UNL A   1      45.748  29.296  29.158  1.00  0.00     0.023 A 
ATOM     87  C   UNL A   1      46.672  30.327  29.423  1.00  0.00     0.012 A 
ATOM     88  C   UNL A   1      46.208  28.100  28.582  1.00  0.00     0.148 A 
ATOM     89  C   UNL A   1      48.021  30.176  29.089  1.00  0.00     0.002 A 
ATOM     90  C   UNL A   1      47.556  27.933  28.303  1.00  0.00     0.091 A 
ATOM     91  F   UNL A   1      45.313  27.132  28.326  1.00  0.00    -0.205 F 
ATOM     92  C   UNL A   1      48.465  28.973  28.542  1.00  0.00     0.022 A 
BRANCH  90  93
ATOM     93  S   UNL A   1      48.183  26.358  27.720  1.00  0.00     0.127 S 
ATOM     94  O   UNL A   1      49.620  26.609  27.648  1.00  0.00    -0.237 OA
ATOM     95  O   UNL A   1      47.774  25.440  28.785  1.00  0.00    -0.237 OA
ATOM     96  O   UNL A   1      47.518  26.116  26.446  1.00  0.00    -0.744 OA
ENDBRANCH  90  93
ENDBRANCH  63  86
ENDBRANCH  37  38
ENDBRANCH  29  32
ENDBRANCH  27  28
ENDBRANCH  26  27
ENDBRANCH  25  26
ENDBRANCH   1  25
TORSDOF 20
ENDMDL
MODEL 3
REMARK VINA RESULT:     -11.2      1.711      2.031
REMARK SMILES CC(C)n1ccc(C[C@@H](C(=O)NCCCCCCNC(=O)c2ccc(-c3c4nc(c(-c5cccc(S(=O)(=O)[O-])c5F)c5ccc([nH]5)c(-c5cccc(S(=O)(=O)[O-])c5F)c5nc(c(-c6cccc(S(=O)(=O)[O-])c6F)c6ccc3[nH]6)C=C5)C=C4)cc2)c2cccc(Cl)c2)n1
REMARK SMILES IDX 15 1 14 2 13 3 12 4 10 5 11 6 9 8 8 9 7 10 4 11 5 12 92 13
REMARK SMILES IDX 6 14 2 15 1 16 3 17 85 18 86 19 91 20 87 21 89 22 88 23
REMARK SMILES IDX 90 24 16 25 17 26 18 27 19 28 20 29 21 31 22 32 23 33 84 34
REMARK SMILES IDX 24 35 83 36 25 37 26 38 27 39 77 40 28 41 82 42 76 43 78 44
REMARK SMILES IDX 29 45 81 46 75 47 74 48 30 50 62 51 42 52 61 53 43 54 46 55
REMARK SMILES IDX 60 56 79 57 44 58 45 59 59 61 80 62 47 63 31 64 32 65 40 66
REMARK SMILES IDX 33 67 35 68 41 69 34 70 36 71 37 72 38 73 39 74 63 75 64 76
REMARK SMILES IDX 72 77 65 78 67 79 73 80 66 81 68 82 69 83 70 84 71 85 48 86
REMARK SMILES IDX 49 87 57 88 50 89 52 90 58 91 51 92 53 93 54 94 55 95 56 96
REMARK H PARENT 12 7 19 30 78 49 46 60
REMARK Flexibility Score: inf
ROOT
ATOM      1  C   UNL A   1      34.002  27.660  25.488  1.00  0.00     0.002 C 
ENDROOT
BRANCH   1   2
ATOM      2  C   UNL A   1      33.858  26.147  25.670  1.00  0.00     0.021 C 
BRANCH   2   3
ATOM      3  C   UNL A   1      34.107  25.298  24.413  1.00  0.00     0.116 C 
BRANCH   3   4
ATOM      4  N   UNL A   1      33.784  26.074  23.229  1.00  0.00    -0.356 N 
ATOM      5  C   UNL A   1      32.808  25.782  22.312  1.00  0.00     0.227 C 
ATOM      6  O   UNL A   1      33.137  25.913  21.130  1.00  0.00    -0.274 OA
ATOM      7  H   UNL A   1      34.316  26.887  23.070  1.00  0.00     0.163 HD
BRANCH   5   8
ATOM      8  C   UNL A   1      31.375  25.405  22.763  1.00  0.00     0.114 C 
BRANCH   8   9
ATOM      9  C   UNL A   1      30.724  26.534  23.591  1.00  0.00     0.076 C 
BRANCH   9  10
ATOM     10  C   UNL A   1      30.366  27.808  22.909  1.00  0.00     0.064 A 
ATOM     11  N   UNL A   1      29.217  29.503  22.310  1.00  0.00    -0.270 N 
ATOM     12  C   UNL A   1      30.512  29.813  21.996  1.00  0.00     0.109 A 
ATOM     13  N   UNL A   1      29.101  28.256  22.847  1.00  0.00    -0.178 NA
ATOM     14  C   UNL A   1      31.278  28.742  22.377  1.00  0.00     0.045 A 
BRANCH  11  15
ATOM     15  C   UNL A   1      28.044  30.368  22.154  1.00  0.00     0.101 C 
ATOM     16  C   UNL A   1      27.410  30.765  23.496  1.00  0.00     0.033 C 
ATOM     17  C   UNL A   1      28.346  31.654  21.373  1.00  0.00     0.033 C 
ENDBRANCH  11  15
ENDBRANCH   9  10
ENDBRANCH   8   9
BRANCH   8  18
ATOM     18  C   UNL A   1      31.307  24.114  23.645  1.00  0.00    -0.034 A 
ATOM     19  C   UNL A   1      30.760  24.203  24.943  1.00  0.00     0.004 A 
ATOM     20  C   UNL A   1      31.879  22.880  23.283  1.00  0.00     0.025 A 
ATOM     21  C   UNL A   1      30.878  23.153  25.865  1.00  0.00     0.002 A 
ATOM     22  C   UNL A   1      31.987  21.829  24.202  1.00  0.00     0.041 A 
ATOM     23  C   UNL A   1      31.510  21.969  25.500  1.00  0.00     0.020 A 
ATOM     24  Cl  UNL A   1      32.752  20.356  23.737  1.00  0.00    -0.084 Cl
ENDBRANCH   8  18
ENDBRANCH   5   8
ENDBRANCH   3   4
ENDBRANCH   2   3
ENDBRANCH   1   2
BRANCH   1  25
ATOM     25  C   UNL A   1      33.124  28.522  26.402  1.00  0.00     0.002 C 
BRANCH  25  26
ATOM     26  C   UNL A   1      33.595  29.966  26.626  1.00  0.00     0.021 C 
BRANCH  26  27
ATOM     27  C   UNL A   1      34.786  30.101  27.569  1.00  0.00     0.116 C 
BRANCH  27  28
ATOM     28  N   UNL A   1      34.701  31.295  28.396  1.00  0.00    -0.352 N 
ATOM     29  C   UNL A   1      35.464  31.640  29.490  1.00  0.00     0.251 C 
ATOM     30  H   UNL A   1      34.005  31.943  28.139  1.00  0.00     0.163 HD
ATOM     31  O   UNL A   1      35.053  32.481  30.277  1.00  0.00    -0.269 OA
BRANCH  29  32
ATOM     32  C   UNL A   1      36.778  30.998  29.712  1.00  0.00     0.039 A 
ATOM     33  C   UNL A   1      36.837  29.615  29.922  1.00  0.00     0.014 A 
ATOM     34  C   UNL A   1      37.940  31.770  29.776  1.00  0.00     0.014 A 
ATOM     35  C   UNL A   1      38.070  29.007  30.147  1.00  0.00     0.010 A 
ATOM     36  C   UNL A   1      39.170  31.161  29.928  1.00  0.00     0.010 A 
ATOM     37  C   UNL A   1      39.237  29.784  30.139  1.00  0.00    -0.014 A 
BRANCH  37  38
ATOM     38  C   UNL A   1      40.545  29.124  30.127  1.00  0.00     0.031 A 
ATOM     39  C   UNL A   1      41.073  28.856  31.496  1.00  0.00     0.074 A 
ATOM     40  C   UNL A   1      41.089  28.587  29.012  1.00  0.00     0.049 A 
ATOM     41  N   UNL A   1      42.159  29.296  32.040  1.00  0.00    -0.248 NA
ATOM     42  C   UNL A   1      40.190  28.147  32.440  1.00  0.00     0.031 C 
ATOM     43  C   UNL A   1      40.472  28.540  27.681  1.00  0.00     0.029 A 
ATOM     44  N   UNL A   1      42.211  27.821  28.852  1.00  0.00    -0.354 N 
ATOM     45  C   UNL A   1      42.215  28.684  33.296  1.00  0.00     0.074 A 
ATOM     46  C   UNL A   1      40.889  28.215  33.572  1.00  0.00     0.031 C 
ATOM     47  C   UNL A   1      41.072  27.584  26.941  1.00  0.00     0.029 A 
ATOM     48  C   UNL A   1      42.195  27.049  27.688  1.00  0.00     0.049 A 
ATOM     49  H   UNL A   1      42.958  27.816  29.494  1.00  0.00     0.167 HD
ATOM     50  C   UNL A   1      43.411  28.320  33.838  1.00  0.00     0.034 A 
ATOM     51  C   UNL A   1      42.994  25.994  27.381  1.00  0.00     0.034 A 
ATOM     52  C   UNL A   1      44.494  29.009  33.182  1.00  0.00     0.049 A 
ATOM     53  C   UNL A   1      44.175  26.065  28.262  1.00  0.00     0.074 A 
ATOM     54  C   UNL A   1      44.863  30.322  32.981  1.00  0.00     0.029 A 
ATOM     55  N   UNL A   1      45.189  28.258  32.269  1.00  0.00    -0.354 N 
ATOM     56  N   UNL A   1      45.091  26.985  28.173  1.00  0.00    -0.248 NA
ATOM     57  C   UNL A   1      44.172  25.298  29.497  1.00  0.00     0.031 C 
ATOM     58  C   UNL A   1      45.495  30.343  31.701  1.00  0.00     0.029 A 
ATOM     59  C   UNL A   1      45.546  29.037  31.210  1.00  0.00     0.049 A 
ATOM     60  H   UNL A   1      45.397  27.301  32.364  1.00  0.00     0.167 HD
ATOM     61  C   UNL A   1      45.438  27.237  29.490  1.00  0.00     0.074 A 
ATOM     62  C   UNL A   1      44.981  26.066  30.230  1.00  0.00     0.031 C 
ATOM     63  C   UNL A   1      45.766  28.502  29.883  1.00  0.00     0.034 A 
BRANCH  50  64
ATOM     64  C   UNL A   1      43.668  27.006  34.577  1.00  0.00     0.023 A 
ATOM     65  C   UNL A   1      42.743  25.958  34.340  1.00  0.00     0.012 A 
ATOM     66  C   UNL A   1      44.525  26.843  35.691  1.00  0.00     0.148 A 
ATOM     67  C   UNL A   1      42.603  24.878  35.220  1.00  0.00     0.002 A 
ATOM     68  C   UNL A   1      44.429  25.733  36.526  1.00  0.00     0.091 A 
ATOM     69  F   UNL A   1      45.376  27.805  36.040  1.00  0.00    -0.205 F 
ATOM     70  C   UNL A   1      43.443  24.768  36.319  1.00  0.00     0.022 A 
BRANCH  68  71
ATOM     71  S   UNL A   1      45.521  25.520  37.942  1.00  0.00     0.127 S 
ATOM     72  O   UNL A   1      45.525  26.865  38.509  1.00  0.00    -0.237 OA
ATOM     73  O   UNL A   1      44.797  24.516  38.721  1.00  0.00    -0.237 OA
ATOM     74  O   UNL A   1      46.793  25.055  37.401  1.00  0.00    -0.744 OA
ENDBRANCH  68  71
ENDBRANCH  50  64
BRANCH  51  75
ATOM     75  C   UNL A   1      42.754  24.803  26.530  1.00  0.00     0.023 A 
ATOM     76  C   UNL A   1      43.706  24.443  25.552  1.00  0.00     0.012 A 
ATOM     77  C   UNL A   1      41.756  23.861  26.860  1.00  0.00     0.148 A 
ATOM     78  C   UNL A   1      43.692  23.175  24.958  1.00  0.00     0.002 A 
ATOM     79  C   UNL A   1      41.740  22.604  26.260  1.00  0.00     0.091 A 
ATOM     80  F   UNL A   1      40.884  24.159  27.831  1.00  0.00    -0.205 F 
ATOM     81  C   UNL A   1      42.716  22.251  25.320  1.00  0.00     0.022 A 
BRANCH  79  82
ATOM     82  S   UNL A   1      40.526  21.353  26.699  1.00  0.00     0.127 S 
ATOM     83  O   UNL A   1      39.286  21.943  26.192  1.00  0.00    -0.237 OA
ATOM     84  O   UNL A   1      41.004  20.194  25.951  1.00  0.00    -0.237 OA
ATOM     85  O   UNL A   1      40.584  21.237  28.151  1.00  0.00    -0.744 OA
ENDBRANCH  79  82
ENDBRANCH  51  75
BRANCH  63  86
ATOM     86  C   UNL A   1      46.193  29.480  28.824  1.00  0.00     0.023 A 
ATOM     87  C   UNL A   1      47.495  29.529  28.287  1.00  0.00     0.012 A 
ATOM     88  C   UNL A   1      45.196  30.302  28.272  1.00  0.00     0.148 A 
ATOM     89  C   UNL A   1      47.800  30.404  27.240  1.00  0.00     0.002 A 
ATOM     90  C   UNL A   1      45.490  31.129  27.198  1.00  0.00     0.091 A 
ATOM     91  F   UNL A   1      43.964  30.252  28.802  1.00  0.00    -0.205 F 
ATOM     92  C   UNL A   1      46.793  31.193  26.686  1.00  0.00     0.022 A 
BRANCH  90  93
ATOM     93  S   UNL A   1      44.196  32.060  26.378  1.00  0.00     0.127 S 
ATOM     94  O   UNL A   1      44.901  32.611  25.223  1.00  0.00    -0.237 OA
ATOM     95  O   UNL A   1      43.212  31.024  26.058  1.00  0.00    -0.237 OA
ATOM     96  O   UNL A   1      43.729  33.033  27.358  1.00  0.00    -0.744 OA
ENDBRANCH  90  93
ENDBRANCH  63  86
ENDBRANCH  37  38
ENDBRANCH  29  32
ENDBRANCH  27  28
ENDBRANCH  26  27
ENDBRANCH  25  26
ENDBRANCH   1  25
TORSDOF 20
ENDMDL
