MODEL 1
REMARK VINA RESULT:     -11.4      0.000      0.000
REMARK SMILES Cn1ncc(C(=O)NCCCCCCNC(=O)c2ccc(-c3c4nc(c(-c5cccc(S(=O)(=O)[O-])c5F)c5ccc([nH]5)c(-c5cccc(S(=O)(=O)[O-])c5F)c5nc(c(-c6cccc(S(=O)(=O)[O-])c6F)c6ccc3[nH]6)C=C5)C=C4)cc2)c1C(=O)NCC1CC[NH+](Cc2ccccc2)CC1
REMARK SMILES IDX 10 1 9 2 8 3 6 4 7 5 5 7 1 8 2 9 3 10 81 11 4 12 82 13 83 14
REMARK SMILES IDX 84 15 85 17 86 18 87 19 98 20 88 21 97 22 89 23 90 25 91 26
REMARK SMILES IDX 92 27 96 28 93 29 95 30 94 31 11 32 12 33 13 34 14 35 15 36
REMARK SMILES IDX 16 37 17 39 18 40 19 41 80 42 20 43 79 44 21 45 22 46 23 47
REMARK SMILES IDX 73 48 24 49 78 50 72 51 74 52 25 53 77 54 71 55 70 56 26 58
REMARK SMILES IDX 58 59 38 60 57 61 39 62 42 63 56 64 75 65 40 66 41 67 55 69
REMARK SMILES IDX 76 70 43 71 27 72 28 73 36 74 29 75 31 76 37 77 30 78 32 79
REMARK SMILES IDX 33 80 34 81 35 82 59 83 60 84 68 85 61 86 63 87 69 88 62 89
REMARK SMILES IDX 64 90 65 91 66 92 67 93 44 94 45 95 53 96 46 97 48 98 54 99
REMARK SMILES IDX 47 100 49 101 50 102 51 103 52 104
REMARK H PARENT 8 6 84 16 89 24 15 38 74 57 42 68
REMARK Flexibility Score: inf
ROOT
ATOM      1  C   UNL A   1      33.420  29.873  27.039  1.00  0.00     0.021 C 
ENDROOT
BRANCH   1   2
ATOM      2  C   UNL A   1      33.097  28.423  26.704  1.00  0.00     0.116 C 
BRANCH   2   3
ATOM      3  N   UNL A   1      33.629  27.979  25.442  1.00  0.00    -0.352 N 
ATOM      4  C   UNL A   1      33.069  27.696  24.226  1.00  0.00     0.255 C 
ATOM      5  O   UNL A   1      33.877  27.304  23.375  1.00  0.00    -0.269 OA
ATOM      6  H   UNL A   1      34.605  27.850  25.458  1.00  0.00     0.163 HD
BRANCH   4   7
ATOM      7  C   UNL A   1      31.648  27.745  23.888  1.00  0.00     0.090 A 
ATOM      8  C   UNL A   1      28.076  27.227  23.636  1.00  0.00     0.174 C 
ATOM      9  N   UNL A   1      29.466  27.606  23.586  1.00  0.00    -0.262 N 
ATOM     10  N   UNL A   1      29.723  28.909  23.390  1.00  0.00    -0.180 NA
ATOM     11  C   UNL A   1      30.583  26.833  23.832  1.00  0.00     0.138 A 
ATOM     12  C   UNL A   1      31.030  28.994  23.605  1.00  0.00     0.149 A 
BRANCH  11  13
ATOM     13  C   UNL A   1      30.561  25.421  24.126  1.00  0.00     0.270 C 
ATOM     14  O   UNL A   1      30.319  24.570  23.272  1.00  0.00    -0.268 OA
ATOM     15  N   UNL A   1      30.512  25.055  25.456  1.00  0.00    -0.350 N 
ATOM     16  H   UNL A   1      29.624  25.015  25.878  1.00  0.00     0.163 HD
BRANCH  15  17
ATOM     17  C   UNL A   1      31.658  24.724  26.291  1.00  0.00     0.120 C 
BRANCH  17  18
ATOM     18  C   UNL A   1      31.655  23.314  26.927  1.00  0.00     0.019 C 
ATOM     19  C   UNL A   1      33.040  22.805  27.360  1.00  0.00     0.067 C 
ATOM     20  C   UNL A   1      30.957  22.226  26.097  1.00  0.00     0.067 C 
ATOM     21  C   UNL A   1      33.847  22.158  26.221  1.00  0.00     0.262 C 
ATOM     22  C   UNL A   1      31.825  21.679  24.963  1.00  0.00     0.262 C 
ATOM     23  N   UNL A   1      33.062  21.144  25.519  1.00  0.00    -0.331 N 
ATOM     24  H   UNL A   1      32.784  20.491  26.251  1.00  0.00     0.348 HD
BRANCH  23  25
ATOM     25  C   UNL A   1      33.812  20.276  24.604  1.00  0.00     0.299 C 
BRANCH  25  26
ATOM     26  C   UNL A   1      33.713  18.771  24.767  1.00  0.00     0.006 A 
ATOM     27  C   UNL A   1      32.655  18.180  25.475  1.00  0.00     0.009 A 
ATOM     28  C   UNL A   1      34.733  17.938  24.311  1.00  0.00     0.009 A 
ATOM     29  C   UNL A   1      32.630  16.800  25.717  1.00  0.00     0.001 A 
ATOM     30  C   UNL A   1      34.705  16.558  24.546  1.00  0.00     0.001 A 
ATOM     31  C   UNL A   1      33.655  15.988  25.249  1.00  0.00     0.000 A 
ENDBRANCH  25  26
ENDBRANCH  23  25
ENDBRANCH  17  18
ENDBRANCH  15  17
ENDBRANCH  11  13
ENDBRANCH   4   7
ENDBRANCH   2   3
ENDBRANCH   1   2
BRANCH   1  32
ATOM     32  C   UNL A   1      34.772  30.209  27.660  1.00  0.00     0.002 C 
BRANCH  32  33
ATOM     33  C   UNL A   1      35.004  31.676  28.001  1.00  0.00     0.002 C 
BRANCH  33  34
ATOM     34  C   UNL A   1      33.759  32.564  27.970  1.00  0.00     0.021 C 
BRANCH  34  35
ATOM     35  C   UNL A   1      34.012  34.070  27.976  1.00  0.00     0.116 C 
BRANCH  35  36
ATOM     36  N   UNL A   1      33.255  34.763  29.001  1.00  0.00    -0.352 N 
ATOM     37  C   UNL A   1      33.444  34.732  30.360  1.00  0.00     0.251 C 
ATOM     38  H   UNL A   1      32.514  35.326  28.681  1.00  0.00     0.163 HD
ATOM     39  O   UNL A   1      32.630  35.240  31.119  1.00  0.00    -0.269 OA
BRANCH  37  40
ATOM     40  C   UNL A   1      34.641  34.048  30.892  1.00  0.00     0.039 A 
ATOM     41  C   UNL A   1      34.473  32.913  31.683  1.00  0.00     0.014 A 
ATOM     42  C   UNL A   1      35.922  34.508  30.566  1.00  0.00     0.014 A 
ATOM     43  C   UNL A   1      35.596  32.210  32.123  1.00  0.00     0.010 A 
ATOM     44  C   UNL A   1      37.035  33.765  30.945  1.00  0.00     0.010 A 
ATOM     45  C   UNL A   1      36.885  32.619  31.740  1.00  0.00    -0.014 A 
BRANCH  45  46
ATOM     46  C   UNL A   1      38.086  31.865  32.181  1.00  0.00     0.031 A 
ATOM     47  C   UNL A   1      38.771  32.228  33.471  1.00  0.00     0.074 A 
ATOM     48  C   UNL A   1      38.596  30.897  31.395  1.00  0.00     0.049 A 
ATOM     49  N   UNL A   1      39.839  31.703  34.013  1.00  0.00    -0.248 NA
ATOM     50  C   UNL A   1      38.197  33.345  34.242  1.00  0.00     0.031 C 
ATOM     51  C   UNL A   1      38.068  30.505  30.086  1.00  0.00     0.029 A 
ATOM     52  N   UNL A   1      39.685  30.081  31.570  1.00  0.00    -0.354 N 
ATOM     53  C   UNL A   1      40.084  32.443  35.164  1.00  0.00     0.074 A 
ATOM     54  C   UNL A   1      39.075  33.478  35.224  1.00  0.00     0.031 C 
ATOM     55  C   UNL A   1      38.829  29.520  29.582  1.00  0.00     0.029 A 
ATOM     56  C   UNL A   1      39.913  29.229  30.515  1.00  0.00     0.049 A 
ATOM     57  H   UNL A   1      40.250  30.104  32.376  1.00  0.00     0.167 HD
ATOM     58  C   UNL A   1      41.041  32.260  36.104  1.00  0.00     0.034 A 
ATOM     59  C   UNL A   1      40.887  28.318  30.321  1.00  0.00     0.034 A 
ATOM     60  C   UNL A   1      42.014  31.202  36.063  1.00  0.00     0.049 A 
ATOM     61  C   UNL A   1      41.915  28.106  31.400  1.00  0.00     0.074 A 
ATOM     62  C   UNL A   1      42.968  30.876  37.009  1.00  0.00     0.029 A 
ATOM     63  N   UNL A   1      42.165  30.306  35.016  1.00  0.00    -0.354 N 
ATOM     64  N   UNL A   1      42.031  28.710  32.558  1.00  0.00    -0.248 NA
ATOM     65  C   UNL A   1      42.925  27.064  31.161  1.00  0.00     0.031 C 
ATOM     66  C   UNL A   1      43.715  29.797  36.522  1.00  0.00     0.029 A 
ATOM     67  C   UNL A   1      43.204  29.433  35.286  1.00  0.00     0.049 A 
ATOM     68  H   UNL A   1      41.613  30.292  34.200  1.00  0.00     0.167 HD
ATOM     69  C   UNL A   1      43.100  28.097  33.201  1.00  0.00     0.074 A 
ATOM     70  C   UNL A   1      43.584  27.061  32.312  1.00  0.00     0.031 C 
ATOM     71  C   UNL A   1      43.641  28.375  34.414  1.00  0.00     0.034 A 
BRANCH  58  72
ATOM     72  C   UNL A   1      41.052  33.195  37.284  1.00  0.00     0.023 A 
ATOM     73  C   UNL A   1      40.220  32.931  38.391  1.00  0.00     0.012 A 
ATOM     74  C   UNL A   1      41.923  34.302  37.325  1.00  0.00     0.148 A 
ATOM     75  C   UNL A   1      40.227  33.772  39.504  1.00  0.00     0.002 A 
ATOM     76  C   UNL A   1      41.960  35.107  38.457  1.00  0.00     0.091 A 
ATOM     77  F   UNL A   1      42.692  34.549  36.255  1.00  0.00    -0.205 F 
ATOM     78  C   UNL A   1      41.105  34.852  39.540  1.00  0.00     0.022 A 
BRANCH  76  79
ATOM     79  S   UNL A   1      43.110  36.476  38.635  1.00  0.00     0.127 S 
ATOM     80  O   UNL A   1      44.394  35.778  38.688  1.00  0.00    -0.237 OA
ATOM     81  O   UNL A   1      42.878  37.234  37.405  1.00  0.00    -0.237 OA
ATOM     82  O   UNL A   1      42.724  37.168  39.856  1.00  0.00    -0.744 OA
ENDBRANCH  76  79
ENDBRANCH  58  72
BRANCH  59  83
ATOM     83  C   UNL A   1      40.898  27.491  29.081  1.00  0.00     0.023 A 
ATOM     84  C   UNL A   1      39.961  26.449  28.933  1.00  0.00     0.012 A 
ATOM     85  C   UNL A   1      41.812  27.744  28.041  1.00  0.00     0.148 A 
ATOM     86  C   UNL A   1      39.957  25.654  27.787  1.00  0.00     0.002 A 
ATOM     87  C   UNL A   1      41.766  26.984  26.878  1.00  0.00     0.091 A 
ATOM     88  F   UNL A   1      42.704  28.733  28.206  1.00  0.00    -0.205 F 
ATOM     89  C   UNL A   1      40.852  25.927  26.756  1.00  0.00     0.022 A 
BRANCH  87  90
ATOM     90  S   UNL A   1      42.792  27.350  25.451  1.00  0.00     0.127 S 
ATOM     91  O   UNL A   1      44.103  27.543  26.066  1.00  0.00    -0.237 OA
ATOM     92  O   UNL A   1      42.656  26.127  24.660  1.00  0.00    -0.237 OA
ATOM     93  O   UNL A   1      42.202  28.531  24.835  1.00  0.00    -0.744 OA
ENDBRANCH  87  90
ENDBRANCH  59  83
BRANCH  71  94
ATOM     94  C   UNL A   1      44.797  27.525  34.875  1.00  0.00     0.023 A 
ATOM     95  C   UNL A   1      46.117  28.000  34.737  1.00  0.00     0.012 A 
ATOM     96  C   UNL A   1      44.569  26.291  35.516  1.00  0.00     0.148 A 
ATOM     97  C   UNL A   1      47.193  27.244  35.200  1.00  0.00     0.002 A 
ATOM     98  C   UNL A   1      45.642  25.568  36.020  1.00  0.00     0.091 A 
ATOM     99  F   UNL A   1      43.307  25.850  35.621  1.00  0.00    -0.205 F 
ATOM    100  C   UNL A   1      46.956  26.036  35.851  1.00  0.00     0.022 A 
BRANCH  98 101
ATOM    101  S   UNL A   1      45.426  24.053  36.959  1.00  0.00     0.127 S 
ATOM    102  O   UNL A   1      46.810  23.629  37.165  1.00  0.00    -0.237 OA
ATOM    103  O   UNL A   1      44.748  24.530  38.165  1.00  0.00    -0.237 OA
ATOM    104  O   UNL A   1      44.621  23.173  36.123  1.00  0.00    -0.744 OA
ENDBRANCH  98 101
ENDBRANCH  71  94
ENDBRANCH  45  46
ENDBRANCH  37  40
ENDBRANCH  35  36
ENDBRANCH  34  35
ENDBRANCH  33  34
ENDBRANCH  32  33
ENDBRANCH   1  32
TORSDOF 21
ENDMDL
MODEL 2
REMARK VINA RESULT:     -11.4      1.814      7.380
REMARK SMILES Cn1ncc(C(=O)NCCCCCCNC(=O)c2ccc(-c3c4nc(c(-c5cccc(S(=O)(=O)[O-])c5F)c5ccc([nH]5)c(-c5cccc(S(=O)(=O)[O-])c5F)c5nc(c(-c6cccc(S(=O)(=O)[O-])c6F)c6ccc3[nH]6)C=C5)C=C4)cc2)c1C(=O)NCC1CC[NH+](Cc2ccccc2)CC1
REMARK SMILES IDX 10 1 9 2 8 3 6 4 7 5 5 7 1 8 2 9 3 10 81 11 4 12 82 13 83 14
REMARK SMILES IDX 84 15 85 17 86 18 87 19 98 20 88 21 97 22 89 23 90 25 91 26
REMARK SMILES IDX 92 27 96 28 93 29 95 30 94 31 11 32 12 33 13 34 14 35 15 36
REMARK SMILES IDX 16 37 17 39 18 40 19 41 80 42 20 43 79 44 21 45 22 46 23 47
REMARK SMILES IDX 73 48 24 49 78 50 72 51 74 52 25 53 77 54 71 55 70 56 26 58
REMARK SMILES IDX 58 59 38 60 57 61 39 62 42 63 56 64 75 65 40 66 41 67 55 69
REMARK SMILES IDX 76 70 43 71 27 72 28 73 36 74 29 75 31 76 37 77 30 78 32 79
REMARK SMILES IDX 33 80 34 81 35 82 59 83 60 84 68 85 61 86 63 87 69 88 62 89
REMARK SMILES IDX 64 90 65 91 66 92 67 93 44 94 45 95 53 96 46 97 48 98 54 99
REMARK SMILES IDX 47 100 49 101 50 102 51 103 52 104
REMARK H PARENT 8 6 84 16 89 24 15 38 74 57 42 68
REMARK Flexibility Score: inf
ROOT
ATOM      1  C   UNL A   1      34.793  29.224  27.223  1.00  0.00     0.021 C 
ENDROOT
BRANCH   1   2
ATOM      2  C   UNL A   1      33.620  29.073  26.264  1.00  0.00     0.116 C 
BRANCH   2   3
ATOM      3  N   UNL A   1      33.992  29.082  24.874  1.00  0.00    -0.352 N 
ATOM      4  C   UNL A   1      33.327  28.788  23.714  1.00  0.00     0.255 C 
ATOM      5  O   UNL A   1      34.019  28.892  22.694  1.00  0.00    -0.269 OA
ATOM      6  H   UNL A   1      34.926  29.358  24.726  1.00  0.00     0.163 HD
BRANCH   4   7
ATOM      7  C   UNL A   1      31.952  28.310  23.595  1.00  0.00     0.090 A 
ATOM      8  C   UNL A   1      28.828  26.499  23.829  1.00  0.00     0.174 C 
ATOM      9  N   UNL A   1      29.953  27.372  23.607  1.00  0.00    -0.262 N 
ATOM     10  N   UNL A   1      29.680  28.681  23.490  1.00  0.00    -0.180 NA
ATOM     11  C   UNL A   1      31.300  27.067  23.617  1.00  0.00     0.138 A 
ATOM     12  C   UNL A   1      30.881  29.244  23.516  1.00  0.00     0.149 A 
BRANCH  11  13
ATOM     13  C   UNL A   1      31.846  25.743  23.787  1.00  0.00     0.270 C 
ATOM     14  O   UNL A   1      31.666  24.843  22.970  1.00  0.00    -0.268 OA
ATOM     15  N   UNL A   1      32.317  25.412  25.042  1.00  0.00    -0.350 N 
ATOM     16  H   UNL A   1      31.660  25.074  25.693  1.00  0.00     0.163 HD
BRANCH  15  17
ATOM     17  C   UNL A   1      33.698  25.519  25.488  1.00  0.00     0.120 C 
BRANCH  17  18
ATOM     18  C   UNL A   1      34.389  24.195  25.895  1.00  0.00     0.019 C 
ATOM     19  C   UNL A   1      34.943  23.376  24.718  1.00  0.00     0.067 C 
ATOM     20  C   UNL A   1      33.554  23.275  26.798  1.00  0.00     0.067 C 
ATOM     21  C   UNL A   1      33.894  22.480  24.037  1.00  0.00     0.262 C 
ATOM     22  C   UNL A   1      32.510  22.460  26.033  1.00  0.00     0.262 C 
ATOM     23  N   UNL A   1      33.177  21.661  25.013  1.00  0.00    -0.331 N 
ATOM     24  H   UNL A   1      33.912  21.143  25.495  1.00  0.00     0.348 HD
BRANCH  23  25
ATOM     25  C   UNL A   1      32.356  20.579  24.458  1.00  0.00     0.299 C 
BRANCH  25  26
ATOM     26  C   UNL A   1      33.030  19.293  24.016  1.00  0.00     0.006 A 
ATOM     27  C   UNL A   1      32.440  18.448  23.065  1.00  0.00     0.009 A 
ATOM     28  C   UNL A   1      34.205  18.859  24.629  1.00  0.00     0.009 A 
ATOM     29  C   UNL A   1      33.013  17.209  22.745  1.00  0.00     0.001 A 
ATOM     30  C   UNL A   1      34.782  17.626  24.306  1.00  0.00     0.001 A 
ATOM     31  C   UNL A   1      34.187  16.799  23.365  1.00  0.00     0.000 A 
ENDBRANCH  25  26
ENDBRANCH  23  25
ENDBRANCH  17  18
ENDBRANCH  15  17
ENDBRANCH  11  13
ENDBRANCH   4   7
ENDBRANCH   2   3
ENDBRANCH   1   2
BRANCH   1  32
ATOM     32  C   UNL A   1      35.325  30.620  27.533  1.00  0.00     0.002 C 
BRANCH  32  33
ATOM     33  C   UNL A   1      34.468  31.468  28.466  1.00  0.00     0.002 C 
BRANCH  33  34
ATOM     34  C   UNL A   1      33.426  32.353  27.781  1.00  0.00     0.021 C 
BRANCH  34  35
ATOM     35  C   UNL A   1      33.805  33.823  27.612  1.00  0.00     0.116 C 
BRANCH  35  36
ATOM     36  N   UNL A   1      33.036  34.703  28.470  1.00  0.00    -0.352 N 
ATOM     37  C   UNL A   1      33.199  34.930  29.815  1.00  0.00     0.251 C 
ATOM     38  H   UNL A   1      32.307  35.201  28.034  1.00  0.00     0.163 HD
ATOM     39  O   UNL A   1      32.376  35.579  30.446  1.00  0.00    -0.269 OA
BRANCH  37  40
ATOM     40  C   UNL A   1      34.378  34.351  30.491  1.00  0.00     0.039 A 
ATOM     41  C   UNL A   1      34.181  33.415  31.505  1.00  0.00     0.014 A 
ATOM     42  C   UNL A   1      35.670  34.704  30.086  1.00  0.00     0.014 A 
ATOM     43  C   UNL A   1      35.286  32.800  32.095  1.00  0.00     0.010 A 
ATOM     44  C   UNL A   1      36.765  34.037  30.625  1.00  0.00     0.010 A 
ATOM     45  C   UNL A   1      36.586  33.091  31.646  1.00  0.00    -0.014 A 
BRANCH  45  46
ATOM     46  C   UNL A   1      37.768  32.424  32.249  1.00  0.00     0.031 A 
ATOM     47  C   UNL A   1      38.445  31.292  31.524  1.00  0.00     0.074 A 
ATOM     48  C   UNL A   1      38.194  32.793  33.472  1.00  0.00     0.049 A 
ATOM     49  N   UNL A   1      39.474  30.574  31.894  1.00  0.00    -0.248 NA
ATOM     50  C   UNL A   1      37.878  30.897  30.223  1.00  0.00     0.031 C 
ATOM     51  C   UNL A   1      37.574  33.824  34.308  1.00  0.00     0.029 A 
ATOM     52  N   UNL A   1      39.237  32.330  34.236  1.00  0.00    -0.354 N 
ATOM     53  C   UNL A   1      39.655  29.626  30.895  1.00  0.00     0.074 A 
ATOM     54  C   UNL A   1      38.608  29.834  29.919  1.00  0.00     0.031 C 
ATOM     55  C   UNL A   1      38.252  33.919  35.464  1.00  0.00     0.029 A 
ATOM     56  C   UNL A   1      39.335  32.942  35.465  1.00  0.00     0.049 A 
ATOM     57  H   UNL A   1      39.854  31.627  33.933  1.00  0.00     0.167 HD
ATOM     58  C   UNL A   1      40.623  28.686  30.781  1.00  0.00     0.034 A 
ATOM     59  C   UNL A   1      40.200  32.734  36.477  1.00  0.00     0.034 A 
ATOM     60  C   UNL A   1      41.687  28.511  31.732  1.00  0.00     0.049 A 
ATOM     61  C   UNL A   1      41.291  31.711  36.309  1.00  0.00     0.074 A 
ATOM     62  C   UNL A   1      42.767  27.650  31.663  1.00  0.00     0.029 A 
ATOM     63  N   UNL A   1      41.802  29.204  32.928  1.00  0.00    -0.354 N 
ATOM     64  N   UNL A   1      41.542  30.935  35.282  1.00  0.00    -0.248 NA
ATOM     65  C   UNL A   1      42.240  31.561  37.422  1.00  0.00     0.031 C 
ATOM     66  C   UNL A   1      43.521  27.802  32.833  1.00  0.00     0.029 A 
ATOM     67  C   UNL A   1      42.927  28.781  33.613  1.00  0.00     0.049 A 
ATOM     68  H   UNL A   1      41.175  29.895  33.243  1.00  0.00     0.167 HD
ATOM     69  C   UNL A   1      42.696  30.232  35.609  1.00  0.00     0.074 A 
ATOM     70  C   UNL A   1      43.106  30.691  36.921  1.00  0.00     0.031 C 
ATOM     71  C   UNL A   1      43.351  29.283  34.894  1.00  0.00     0.034 A 
BRANCH  58  72
ATOM     72  C   UNL A   1      40.604  27.805  29.560  1.00  0.00     0.023 A 
ATOM     73  C   UNL A   1      39.690  26.733  29.488  1.00  0.00     0.012 A 
ATOM     74  C   UNL A   1      41.445  28.068  28.462  1.00  0.00     0.148 A 
ATOM     75  C   UNL A   1      39.639  25.916  28.359  1.00  0.00     0.002 A 
ATOM     76  C   UNL A   1      41.356  27.280  27.321  1.00  0.00     0.091 A 
ATOM     77  F   UNL A   1      42.322  29.078  28.557  1.00  0.00    -0.205 F 
ATOM     78  C   UNL A   1      40.464  26.197  27.273  1.00  0.00     0.022 A 
BRANCH  76  79
ATOM     79  S   UNL A   1      42.317  27.606  25.839  1.00  0.00     0.127 S 
ATOM     80  O   UNL A   1      43.685  27.485  26.342  1.00  0.00    -0.237 OA
ATOM     81  O   UNL A   1      41.895  26.520  24.954  1.00  0.00    -0.237 OA
ATOM     82  O   UNL A   1      41.930  28.937  25.394  1.00  0.00    -0.744 OA
ENDBRANCH  76  79
ENDBRANCH  58  72
BRANCH  59  83
ATOM     83  C   UNL A   1      40.108  33.557  37.716  1.00  0.00     0.023 A 
ATOM     84  C   UNL A   1      40.927  34.696  37.855  1.00  0.00     0.012 A 
ATOM     85  C   UNL A   1      39.202  33.235  38.744  1.00  0.00     0.148 A 
ATOM     86  C   UNL A   1      40.868  35.478  39.009  1.00  0.00     0.002 A 
ATOM     87  C   UNL A   1      39.109  34.049  39.866  1.00  0.00     0.091 A 
ATOM     88  F   UNL A   1      38.439  32.141  38.597  1.00  0.00    -0.205 F 
ATOM     89  C   UNL A   1      39.953  35.161  40.009  1.00  0.00     0.022 A 
BRANCH  87  90
ATOM     90  S   UNL A   1      37.870  33.791  41.140  1.00  0.00     0.127 S 
ATOM     91  O   UNL A   1      37.616  35.157  41.591  1.00  0.00    -0.237 OA
ATOM     92  O   UNL A   1      36.779  33.179  40.381  1.00  0.00    -0.237 OA
ATOM     93  O   UNL A   1      38.490  32.906  42.117  1.00  0.00    -0.744 OA
ENDBRANCH  87  90
ENDBRANCH  59  83
BRANCH  71  94
ATOM     94  C   UNL A   1      44.604  28.697  35.492  1.00  0.00     0.023 A 
ATOM     95  C   UNL A   1      45.854  29.289  35.222  1.00  0.00     0.012 A 
ATOM     96  C   UNL A   1      44.530  27.609  36.384  1.00  0.00     0.148 A 
ATOM     97  C   UNL A   1      47.016  28.783  35.804  1.00  0.00     0.002 A 
ATOM     98  C   UNL A   1      45.685  27.144  37.000  1.00  0.00     0.091 A 
ATOM     99  F   UNL A   1      43.333  27.050  36.613  1.00  0.00    -0.205 F 
ATOM    100  C   UNL A   1      46.930  27.721  36.701  1.00  0.00     0.022 A 
BRANCH  98 101
ATOM    101  S   UNL A   1      45.659  25.847  38.242  1.00  0.00     0.127 S 
ATOM    102  O   UNL A   1      45.203  24.697  37.462  1.00  0.00    -0.237 OA
ATOM    103  O   UNL A   1      47.062  25.786  38.656  1.00  0.00    -0.237 OA
ATOM    104  O   UNL A   1      44.743  26.302  39.279  1.00  0.00    -0.744 OA
ENDBRANCH  98 101
ENDBRANCH  71  94
ENDBRANCH  45  46
ENDBRANCH  37  40
ENDBRANCH  35  36
ENDBRANCH  34  35
ENDBRANCH  33  34
ENDBRANCH  32  33
ENDBRANCH   1  32
TORSDOF 21
ENDMDL
MODEL 3
REMARK VINA RESULT:     -11.1      2.103      3.084
REMARK SMILES Cn1ncc(C(=O)NCCCCCCNC(=O)c2ccc(-c3c4nc(c(-c5cccc(S(=O)(=O)[O-])c5F)c5ccc([nH]5)c(-c5cccc(S(=O)(=O)[O-])c5F)c5nc(c(-c6cccc(S(=O)(=O)[O-])c6F)c6ccc3[nH]6)C=C5)C=C4)cc2)c1C(=O)NCC1CC[NH+](Cc2ccccc2)CC1
REMARK SMILES IDX 10 1 9 2 8 3 6 4 7 5 5 7 1 8 2 9 3 10 81 11 4 12 82 13 83 14
REMARK SMILES IDX 84 15 85 17 86 18 87 19 98 20 88 21 97 22 89 23 90 25 91 26
REMARK SMILES IDX 92 27 96 28 93 29 95 30 94 31 11 32 12 33 13 34 14 35 15 36
REMARK SMILES IDX 16 37 17 39 18 40 19 41 80 42 20 43 79 44 21 45 22 46 23 47
REMARK SMILES IDX 73 48 24 49 78 50 72 51 74 52 25 53 77 54 71 55 70 56 26 58
REMARK SMILES IDX 58 59 38 60 57 61 39 62 42 63 56 64 75 65 40 66 41 67 55 69
REMARK SMILES IDX 76 70 43 71 27 72 28 73 36 74 29 75 31 76 37 77 30 78 32 79
REMARK SMILES IDX 33 80 34 81 35 82 59 83 60 84 68 85 61 86 63 87 69 88 62 89
REMARK SMILES IDX 64 90 65 91 66 92 67 93 44 94 45 95 53 96 46 97 48 98 54 99
REMARK SMILES IDX 47 100 49 101 50 102 51 103 52 104
REMARK H PARENT 8 6 84 16 89 24 15 38 74 57 42 68
REMARK Flexibility Score: inf
ROOT
ATOM      1  C   UNL A   1      35.140  29.481  27.126  1.00  0.00     0.021 C 
ENDROOT
BRANCH   1   2
ATOM      2  C   UNL A   1      33.739  29.190  26.603  1.00  0.00     0.116 C 
BRANCH   2   3
ATOM      3  N   UNL A   1      33.606  29.325  25.176  1.00  0.00    -0.352 N 
ATOM      4  C   UNL A   1      32.924  28.623  24.219  1.00  0.00     0.255 C 
ATOM      5  O   UNL A   1      33.090  29.045  23.068  1.00  0.00    -0.269 OA
ATOM      6  H   UNL A   1      34.115  30.084  24.810  1.00  0.00     0.163 HD
BRANCH   4   7
ATOM      7  C   UNL A   1      32.116  27.424  24.427  1.00  0.00     0.090 A 
ATOM      8  C   UNL A   1      30.755  24.243  25.487  1.00  0.00     0.174 C 
ATOM      9  N   UNL A   1      31.102  25.532  24.942  1.00  0.00    -0.262 N 
ATOM     10  N   UNL A   1      30.084  26.375  24.707  1.00  0.00    -0.180 NA
ATOM     11  C   UNL A   1      32.354  26.076  24.737  1.00  0.00     0.138 A 
ATOM     12  C   UNL A   1      30.697  27.519  24.430  1.00  0.00     0.149 A 
BRANCH  11  13
ATOM     13  C   UNL A   1      33.601  25.391  24.975  1.00  0.00     0.270 C 
ATOM     14  O   UNL A   1      34.406  25.759  25.827  1.00  0.00    -0.268 OA
ATOM     15  N   UNL A   1      34.020  24.494  24.013  1.00  0.00    -0.350 N 
ATOM     16  H   UNL A   1      34.525  24.857  23.250  1.00  0.00     0.163 HD
BRANCH  15  17
ATOM     17  C   UNL A   1      33.780  23.058  24.026  1.00  0.00     0.120 C 
BRANCH  17  18
ATOM     18  C   UNL A   1      35.003  22.159  23.721  1.00  0.00     0.019 C 
ATOM     19  C   UNL A   1      35.388  21.198  24.857  1.00  0.00     0.067 C 
ATOM     20  C   UNL A   1      36.259  22.906  23.247  1.00  0.00     0.067 C 
ATOM     21  C   UNL A   1      36.278  21.837  25.937  1.00  0.00     0.262 C 
ATOM     22  C   UNL A   1      37.051  23.543  24.389  1.00  0.00     0.262 C 
ATOM     23  N   UNL A   1      37.433  22.511  25.345  1.00  0.00    -0.331 N 
ATOM     24  H   UNL A   1      37.899  21.782  24.803  1.00  0.00     0.348 HD
BRANCH  23  25
ATOM     25  C   UNL A   1      38.487  22.913  26.283  1.00  0.00     0.299 C 
BRANCH  25  26
ATOM     26  C   UNL A   1      39.631  21.957  26.563  1.00  0.00     0.006 A 
ATOM     27  C   UNL A   1      39.711  20.707  25.931  1.00  0.00     0.009 A 
ATOM     28  C   UNL A   1      40.578  22.249  27.543  1.00  0.00     0.009 A 
ATOM     29  C   UNL A   1      40.707  19.785  26.277  1.00  0.00     0.001 A 
ATOM     30  C   UNL A   1      41.579  21.331  27.885  1.00  0.00     0.001 A 
ATOM     31  C   UNL A   1      41.644  20.099  27.253  1.00  0.00     0.000 A 
ENDBRANCH  25  26
ENDBRANCH  23  25
ENDBRANCH  17  18
ENDBRANCH  15  17
ENDBRANCH  11  13
ENDBRANCH   4   7
ENDBRANCH   2   3
ENDBRANCH   1   2
BRANCH   1  32
ATOM     32  C   UNL A   1      35.490  30.900  27.564  1.00  0.00     0.002 C 
BRANCH  32  33
ATOM     33  C   UNL A   1      34.541  31.541  28.569  1.00  0.00     0.002 C 
BRANCH  33  34
ATOM     34  C   UNL A   1      33.506  32.499  27.979  1.00  0.00     0.021 C 
BRANCH  34  35
ATOM     35  C   UNL A   1      33.900  33.974  27.953  1.00  0.00     0.116 C 
BRANCH  35  36
ATOM     36  N   UNL A   1      33.180  34.765  28.932  1.00  0.00    -0.352 N 
ATOM     37  C   UNL A   1      33.405  34.848  30.285  1.00  0.00     0.251 C 
ATOM     38  H   UNL A   1      32.438  35.310  28.584  1.00  0.00     0.163 HD
ATOM     39  O   UNL A   1      32.620  35.433  31.017  1.00  0.00    -0.269 OA
BRANCH  37  40
ATOM     40  C   UNL A   1      34.607  34.193  30.842  1.00  0.00     0.039 A 
ATOM     41  C   UNL A   1      34.445  33.125  31.723  1.00  0.00     0.014 A 
ATOM     42  C   UNL A   1      35.885  34.612  30.454  1.00  0.00     0.014 A 
ATOM     43  C   UNL A   1      35.570  32.446  32.192  1.00  0.00     0.010 A 
ATOM     44  C   UNL A   1      36.999  33.888  30.866  1.00  0.00     0.010 A 
ATOM     45  C   UNL A   1      36.854  32.809  31.751  1.00  0.00    -0.014 A 
BRANCH  45  46
ATOM     46  C   UNL A   1      38.058  32.077  32.224  1.00  0.00     0.031 A 
ATOM     47  C   UNL A   1      38.707  32.459  33.527  1.00  0.00     0.074 A 
ATOM     48  C   UNL A   1      38.601  31.113  31.456  1.00  0.00     0.049 A 
ATOM     49  N   UNL A   1      39.771  31.955  34.096  1.00  0.00    -0.248 NA
ATOM     50  C   UNL A   1      38.098  33.571  34.277  1.00  0.00     0.031 C 
ATOM     51  C   UNL A   1      38.109  30.705  30.138  1.00  0.00     0.029 A 
ATOM     52  N   UNL A   1      39.699  30.316  31.661  1.00  0.00    -0.354 N 
ATOM     53  C   UNL A   1      39.978  32.705  35.247  1.00  0.00     0.074 A 
ATOM     54  C   UNL A   1      38.951  33.725  35.279  1.00  0.00     0.031 C 
ATOM     55  C   UNL A   1      38.897  29.729  29.658  1.00  0.00     0.029 A 
ATOM     56  C   UNL A   1      39.964  29.461  30.616  1.00  0.00     0.049 A 
ATOM     57  H   UNL A   1      40.245  30.353  32.479  1.00  0.00     0.167 HD
ATOM     58  C   UNL A   1      40.916  32.544  36.210  1.00  0.00     0.034 A 
ATOM     59  C   UNL A   1      40.957  28.565  30.450  1.00  0.00     0.034 A 
ATOM     60  C   UNL A   1      41.907  31.502  36.197  1.00  0.00     0.049 A 
ATOM     61  C   UNL A   1      41.964  28.377  31.553  1.00  0.00     0.074 A 
ATOM     62  C   UNL A   1      42.844  31.197  37.168  1.00  0.00     0.029 A 
ATOM     63  N   UNL A   1      42.096  30.602  35.160  1.00  0.00    -0.354 N 
ATOM     64  N   UNL A   1      42.044  28.989  32.710  1.00  0.00    -0.248 NA
ATOM     65  C   UNL A   1      42.995  27.350  31.345  1.00  0.00     0.031 C 
ATOM     66  C   UNL A   1      43.619  30.128  36.704  1.00  0.00     0.029 A 
ATOM     67  C   UNL A   1      43.142  29.748  35.460  1.00  0.00     0.049 A 
ATOM     68  H   UNL A   1      41.563  30.575  34.332  1.00  0.00     0.167 HD
ATOM     69  C   UNL A   1      43.108  28.398  33.381  1.00  0.00     0.074 A 
ATOM     70  C   UNL A   1      43.629  27.364  32.509  1.00  0.00     0.031 C 
ATOM     71  C   UNL A   1      43.617  28.692  34.604  1.00  0.00     0.034 A 
BRANCH  58  72
ATOM     72  C   UNL A   1      40.885  33.487  37.384  1.00  0.00     0.023 A 
ATOM     73  C   UNL A   1      41.681  34.651  37.364  1.00  0.00     0.012 A 
ATOM     74  C   UNL A   1      40.030  33.255  38.479  1.00  0.00     0.148 A 
ATOM     75  C   UNL A   1      41.653  35.550  38.431  1.00  0.00     0.002 A 
ATOM     76  C   UNL A   1      39.972  34.179  39.515  1.00  0.00     0.091 A 
ATOM     77  F   UNL A   1      39.296  32.133  38.490  1.00  0.00    -0.205 F 
ATOM     78  C   UNL A   1      40.791  35.318  39.499  1.00  0.00     0.022 A 
BRANCH  76  79
ATOM     79  S   UNL A   1      38.838  34.014  40.899  1.00  0.00     0.127 S 
ATOM     80  O   UNL A   1      38.856  35.365  41.457  1.00  0.00    -0.237 OA
ATOM     81  O   UNL A   1      37.589  33.647  40.230  1.00  0.00    -0.237 OA
ATOM     82  O   UNL A   1      39.396  32.976  41.754  1.00  0.00    -0.744 OA
ENDBRANCH  76  79
ENDBRANCH  58  72
BRANCH  59  83
ATOM     83  C   UNL A   1      41.010  27.731  29.216  1.00  0.00     0.023 A 
ATOM     84  C   UNL A   1      40.219  26.568  29.131  1.00  0.00     0.012 A 
ATOM     85  C   UNL A   1      41.817  28.094  28.122  1.00  0.00     0.148 A 
ATOM     86  C   UNL A   1      40.258  25.764  27.991  1.00  0.00     0.002 A 
ATOM     87  C   UNL A   1      41.808  27.319  26.968  1.00  0.00     0.091 A 
ATOM     88  F   UNL A   1      42.570  29.199  28.228  1.00  0.00    -0.205 F 
ATOM     89  C   UNL A   1      41.044  26.144  26.907  1.00  0.00     0.022 A 
BRANCH  87  90
ATOM     90  S   UNL A   1      42.687  27.805  25.479  1.00  0.00     0.127 S 
ATOM     91  O   UNL A   1      42.534  26.618  24.641  1.00  0.00    -0.237 OA
ATOM     92  O   UNL A   1      41.921  28.972  25.043  1.00  0.00    -0.237 OA
ATOM     93  O   UNL A   1      44.047  28.106  25.906  1.00  0.00    -0.744 OA
ENDBRANCH  87  90
ENDBRANCH  59  83
BRANCH  71  94
ATOM     94  C   UNL A   1      44.776  27.864  35.096  1.00  0.00     0.023 A 
ATOM     95  C   UNL A   1      46.094  28.329  34.923  1.00  0.00     0.012 A 
ATOM     96  C   UNL A   1      44.551  26.664  35.800  1.00  0.00     0.148 A 
ATOM     97  C   UNL A   1      47.174  27.595  35.413  1.00  0.00     0.002 A 
ATOM     98  C   UNL A   1      45.628  25.965  36.330  1.00  0.00     0.091 A 
ATOM     99  F   UNL A   1      43.290  26.231  35.938  1.00  0.00    -0.205 F 
ATOM    100  C   UNL A   1      46.940  26.421  36.126  1.00  0.00     0.022 A 
BRANCH  98 101
ATOM    101  S   UNL A   1      45.418  24.498  37.345  1.00  0.00     0.127 S 
ATOM    102  O   UNL A   1      44.558  24.998  38.417  1.00  0.00    -0.237 OA
ATOM    103  O   UNL A   1      44.764  23.572  36.419  1.00  0.00    -0.237 OA
ATOM    104  O   UNL A   1      46.757  24.097  37.754  1.00  0.00    -0.744 OA
ENDBRANCH  98 101
ENDBRANCH  71  94
ENDBRANCH  45  46
ENDBRANCH  37  40
ENDBRANCH  35  36
ENDBRANCH  34  35
ENDBRANCH  33  34
ENDBRANCH  32  33
ENDBRANCH   1  32
TORSDOF 21
ENDMDL
