MODEL 1
REMARK VINA RESULT:     -12.4      0.000      0.000
REMARK SMILES Cc1ccc(Nc2c(C)cccc2Cl)c(CC(=O)NCCCCCCNC(=O)c2ccc(-c3c4nc(c(-c5cccc(S(=O)(=O)[O-])c5F)c5ccc([nH]5)c(-c5cccc(S(=O)(=O)[O-])c5F)c5nc(c(-c6cccc(S(=O)(=O)[O-])c6F)c6ccc3[nH]6)C=C5)C=C4)cc2)c1
REMARK SMILES IDX 22 1 21 2 20 3 19 4 17 5 18 6 16 8 15 9 1 10 2 11 3 12 92 13
REMARK SMILES IDX 4 14 5 15 6 16 7 18 8 19 13 20 9 21 10 22 12 23 14 24 11 25
REMARK SMILES IDX 23 26 24 27 25 28 26 29 27 30 28 32 29 33 30 34 91 35 31 36
REMARK SMILES IDX 90 37 32 38 33 39 34 40 84 41 35 42 89 43 83 44 85 45 36 46
REMARK SMILES IDX 88 47 82 48 81 49 37 51 69 52 49 53 68 54 50 55 53 56 67 57
REMARK SMILES IDX 86 58 51 59 52 60 66 62 87 63 54 64 38 65 39 66 47 67 40 68
REMARK SMILES IDX 42 69 48 70 41 71 43 72 44 73 45 74 46 75 70 76 71 77 79 78
REMARK SMILES IDX 72 79 74 80 80 81 73 82 75 83 76 84 77 85 78 86 55 87 56 88
REMARK SMILES IDX 64 89 57 90 59 91 65 92 58 93 60 94 61 95 62 96 63 97
REMARK H PARENT 19 7 6 17 26 31 85 50 53 61
REMARK Flexibility Score: inf
ROOT
ATOM      1  C   UNL A   1      32.290  29.166  25.984  1.00  0.00     0.002 C 
ENDROOT
BRANCH   1   2
ATOM      2  C   UNL A   1      31.793  27.983  26.825  1.00  0.00     0.021 C 
BRANCH   2   3
ATOM      3  C   UNL A   1      30.896  26.994  26.077  1.00  0.00     0.116 C 
BRANCH   3   4
ATOM      4  N   UNL A   1      30.846  25.702  26.729  1.00  0.00    -0.356 N 
ATOM      5  C   UNL A   1      31.786  24.718  26.743  1.00  0.00     0.224 C 
ATOM      6  O   UNL A   1      31.508  23.645  27.285  1.00  0.00    -0.275 OA
ATOM      7  H   UNL A   1      30.020  25.508  27.228  1.00  0.00     0.163 HD
BRANCH   5   8
ATOM      8  C   UNL A   1      33.149  24.937  26.108  1.00  0.00     0.137 C 
BRANCH   8   9
ATOM      9  C   UNL A   1      33.252  24.456  24.677  1.00  0.00    -0.015 A 
ATOM     10  C   UNL A   1      32.229  25.821  21.247  1.00  0.00     0.044 C 
ATOM     11  C   UNL A   1      32.771  24.922  22.317  1.00  0.00    -0.051 A 
ATOM     12  C   UNL A   1      33.255  23.659  21.989  1.00  0.00     0.005 A 
ATOM     13  C   UNL A   1      32.797  25.321  23.656  1.00  0.00     0.009 A 
ATOM     14  C   UNL A   1      33.753  22.813  22.984  1.00  0.00     0.026 A 
ATOM     15  C   UNL A   1      33.762  23.186  24.338  1.00  0.00     0.042 A 
BRANCH  15  16
ATOM     16  N   UNL A   1      34.326  22.341  25.322  1.00  0.00    -0.354 N 
ATOM     17  H   UNL A   1      33.799  22.237  26.147  1.00  0.00     0.167 HD
BRANCH  16  18
ATOM     18  C   UNL A   1      35.548  21.626  25.280  1.00  0.00     0.060 A 
ATOM     19  C   UNL A   1      36.793  22.269  25.444  1.00  0.00    -0.026 A 
ATOM     20  C   UNL A   1      35.535  20.246  24.977  1.00  0.00     0.064 A 
ATOM     21  C   UNL A   1      36.914  23.722  25.823  1.00  0.00     0.046 C 
ATOM     22  C   UNL A   1      37.979  21.541  25.246  1.00  0.00     0.005 A 
ATOM     23  C   UNL A   1      36.722  19.532  24.801  1.00  0.00     0.023 A 
ATOM     24  Cl  UNL A   1      34.040  19.390  24.790  1.00  0.00    -0.082 Cl
ATOM     25  C   UNL A   1      37.944  20.184  24.923  1.00  0.00     0.002 A 
ENDBRANCH  16  18
ENDBRANCH  15  16
ENDBRANCH   8   9
ENDBRANCH   5   8
ENDBRANCH   3   4
ENDBRANCH   2   3
ENDBRANCH   1   2
BRANCH   1  26
ATOM     26  C   UNL A   1      31.769  30.553  26.388  1.00  0.00     0.002 C 
BRANCH  26  27
ATOM     27  C   UNL A   1      32.756  31.445  27.142  1.00  0.00     0.021 C 
BRANCH  27  28
ATOM     28  C   UNL A   1      34.122  30.818  27.363  1.00  0.00     0.116 C 
BRANCH  28  29
ATOM     29  N   UNL A   1      35.134  31.789  27.733  1.00  0.00    -0.352 N 
ATOM     30  C   UNL A   1      36.367  31.613  28.323  1.00  0.00     0.251 C 
ATOM     31  H   UNL A   1      34.903  32.725  27.529  1.00  0.00     0.163 HD
ATOM     32  O   UNL A   1      36.945  32.611  28.755  1.00  0.00    -0.269 OA
BRANCH  30  33
ATOM     33  C   UNL A   1      37.052  30.293  28.285  1.00  0.00     0.039 A 
ATOM     34  C   UNL A   1      36.946  29.485  29.427  1.00  0.00     0.014 A 
ATOM     35  C   UNL A   1      37.969  29.960  27.293  1.00  0.00     0.014 A 
ATOM     36  C   UNL A   1      37.936  28.547  29.708  1.00  0.00     0.010 A 
ATOM     37  C   UNL A   1      38.992  29.091  27.598  1.00  0.00     0.010 A 
ATOM     38  C   UNL A   1      39.021  28.460  28.846  1.00  0.00    -0.014 A 
BRANCH  38  39
ATOM     39  C   UNL A   1      40.304  27.868  29.177  1.00  0.00     0.031 A 
ATOM     40  C   UNL A   1      40.610  26.481  28.792  1.00  0.00     0.074 A 
ATOM     41  C   UNL A   1      41.296  28.714  29.549  1.00  0.00     0.049 A 
ATOM     42  N   UNL A   1      41.725  25.902  29.076  1.00  0.00    -0.248 NA
ATOM     43  C   UNL A   1      39.678  25.617  28.071  1.00  0.00     0.031 C 
ATOM     44  C   UNL A   1      42.735  28.504  29.442  1.00  0.00     0.029 A 
ATOM     45  N   UNL A   1      41.188  29.879  30.316  1.00  0.00    -0.354 N 
ATOM     46  C   UNL A   1      41.797  24.768  28.309  1.00  0.00     0.074 A 
ATOM     47  C   UNL A   1      40.456  24.556  27.824  1.00  0.00     0.031 C 
ATOM     48  C   UNL A   1      43.353  29.295  30.332  1.00  0.00     0.029 A 
ATOM     49  C   UNL A   1      42.315  29.877  31.161  1.00  0.00     0.049 A 
ATOM     50  H   UNL A   1      40.476  30.558  30.273  1.00  0.00     0.167 HD
ATOM     51  C   UNL A   1      43.024  24.235  28.065  1.00  0.00     0.034 A 
ATOM     52  C   UNL A   1      42.221  29.735  32.519  1.00  0.00     0.034 A 
ATOM     53  C   UNL A   1      44.036  24.791  28.976  1.00  0.00     0.049 A 
ATOM     54  C   UNL A   1      42.942  28.500  33.059  1.00  0.00     0.074 A 
ATOM     55  C   UNL A   1      45.119  25.644  28.863  1.00  0.00     0.029 A 
ATOM     56  N   UNL A   1      43.829  24.623  30.336  1.00  0.00    -0.354 N 
ATOM     57  N   UNL A   1      43.672  27.684  32.348  1.00  0.00    -0.248 NA
ATOM     58  C   UNL A   1      42.808  28.046  34.444  1.00  0.00     0.031 C 
ATOM     59  C   UNL A   1      45.498  26.049  30.186  1.00  0.00     0.029 A 
ATOM     60  C   UNL A   1      44.676  25.404  31.096  1.00  0.00     0.049 A 
ATOM     61  H   UNL A   1      43.154  24.016  30.716  1.00  0.00     0.167 HD
ATOM     62  C   UNL A   1      43.934  26.550  33.077  1.00  0.00     0.074 A 
ATOM     63  C   UNL A   1      43.417  26.849  34.402  1.00  0.00     0.031 C 
ATOM     64  C   UNL A   1      44.480  25.414  32.541  1.00  0.00     0.034 A 
BRANCH  51  65
ATOM     65  C   UNL A   1      43.359  23.278  26.942  1.00  0.00     0.023 A 
ATOM     66  C   UNL A   1      44.067  23.802  25.837  1.00  0.00     0.012 A 
ATOM     67  C   UNL A   1      42.939  21.929  26.830  1.00  0.00     0.148 A 
ATOM     68  C   UNL A   1      44.341  23.043  24.694  1.00  0.00     0.002 A 
ATOM     69  C   UNL A   1      43.276  21.149  25.719  1.00  0.00     0.091 A 
ATOM     70  F   UNL A   1      42.116  21.402  27.742  1.00  0.00    -0.205 F 
ATOM     71  C   UNL A   1      43.963  21.709  24.641  1.00  0.00     0.022 A 
BRANCH  69  72
ATOM     72  S   UNL A   1      42.859  19.399  25.615  1.00  0.00     0.127 S 
ATOM     73  O   UNL A   1      41.399  19.435  25.535  1.00  0.00    -0.237 OA
ATOM     74  O   UNL A   1      43.525  18.985  24.379  1.00  0.00    -0.237 OA
ATOM     75  O   UNL A   1      43.403  18.784  26.820  1.00  0.00    -0.744 OA
ENDBRANCH  69  72
ENDBRANCH  51  65
BRANCH  52  76
ATOM     76  C   UNL A   1      40.961  30.311  33.081  1.00  0.00     0.023 A 
ATOM     77  C   UNL A   1      39.757  29.618  32.805  1.00  0.00     0.012 A 
ATOM     78  C   UNL A   1      40.978  31.238  34.138  1.00  0.00     0.148 A 
ATOM     79  C   UNL A   1      38.650  29.740  33.645  1.00  0.00     0.002 A 
ATOM     80  C   UNL A   1      39.863  31.366  34.963  1.00  0.00     0.091 A 
ATOM     81  F   UNL A   1      42.104  31.922  34.376  1.00  0.00    -0.205 F 
ATOM     82  C   UNL A   1      38.715  30.587  34.745  1.00  0.00     0.022 A 
BRANCH  80  83
ATOM     83  S   UNL A   1      39.886  32.426  36.415  1.00  0.00     0.127 S 
ATOM     84  O   UNL A   1      38.545  32.212  36.951  1.00  0.00    -0.237 OA
ATOM     85  O   UNL A   1      40.969  31.848  37.209  1.00  0.00    -0.237 OA
ATOM     86  O   UNL A   1      40.172  33.757  35.901  1.00  0.00    -0.744 OA
ENDBRANCH  80  83
ENDBRANCH  52  76
BRANCH  64  87
ATOM     87  C   UNL A   1      44.835  24.191  33.370  1.00  0.00     0.023 A 
ATOM     88  C   UNL A   1      43.839  23.251  33.710  1.00  0.00     0.012 A 
ATOM     89  C   UNL A   1      46.114  24.004  33.956  1.00  0.00     0.148 A 
ATOM     90  C   UNL A   1      44.111  22.152  34.531  1.00  0.00     0.002 A 
ATOM     91  C   UNL A   1      46.354  22.963  34.849  1.00  0.00     0.091 A 
ATOM     92  F   UNL A   1      47.126  24.811  33.617  1.00  0.00    -0.205 F 
ATOM     93  C   UNL A   1      45.363  22.017  35.115  1.00  0.00     0.022 A 
BRANCH  91  94
ATOM     94  S   UNL A   1      47.881  22.833  35.794  1.00  0.00     0.127 S 
ATOM     95  O   UNL A   1      47.913  24.124  36.485  1.00  0.00    -0.237 OA
ATOM     96  O   UNL A   1      47.603  21.687  36.657  1.00  0.00    -0.237 OA
ATOM     97  O   UNL A   1      48.946  22.648  34.818  1.00  0.00    -0.744 OA
ENDBRANCH  91  94
ENDBRANCH  64  87
ENDBRANCH  38  39
ENDBRANCH  30  33
ENDBRANCH  28  29
ENDBRANCH  27  28
ENDBRANCH  26  27
ENDBRANCH   1  26
TORSDOF 19
ENDMDL
MODEL 2
REMARK VINA RESULT:     -11.5      2.327      3.415
REMARK SMILES Cc1ccc(Nc2c(C)cccc2Cl)c(CC(=O)NCCCCCCNC(=O)c2ccc(-c3c4nc(c(-c5cccc(S(=O)(=O)[O-])c5F)c5ccc([nH]5)c(-c5cccc(S(=O)(=O)[O-])c5F)c5nc(c(-c6cccc(S(=O)(=O)[O-])c6F)c6ccc3[nH]6)C=C5)C=C4)cc2)c1
REMARK SMILES IDX 22 1 21 2 20 3 19 4 17 5 18 6 16 8 15 9 1 10 2 11 3 12 92 13
REMARK SMILES IDX 4 14 5 15 6 16 7 18 8 19 13 20 9 21 10 22 12 23 14 24 11 25
REMARK SMILES IDX 23 26 24 27 25 28 26 29 27 30 28 32 29 33 30 34 91 35 31 36
REMARK SMILES IDX 90 37 32 38 33 39 34 40 84 41 35 42 89 43 83 44 85 45 36 46
REMARK SMILES IDX 88 47 82 48 81 49 37 51 69 52 49 53 68 54 50 55 53 56 67 57
REMARK SMILES IDX 86 58 51 59 52 60 66 62 87 63 54 64 38 65 39 66 47 67 40 68
REMARK SMILES IDX 42 69 48 70 41 71 43 72 44 73 45 74 46 75 70 76 71 77 79 78
REMARK SMILES IDX 72 79 74 80 80 81 73 82 75 83 76 84 77 85 78 86 55 87 56 88
REMARK SMILES IDX 64 89 57 90 59 91 65 92 58 93 60 94 61 95 62 96 63 97
REMARK H PARENT 19 7 6 17 26 31 85 50 53 61
REMARK Flexibility Score: inf
ROOT
ATOM      1  C   UNL A   1      33.603  28.226  26.219  1.00  0.00     0.002 C 
ENDROOT
BRANCH   1   2
ATOM      2  C   UNL A   1      32.217  28.069  26.859  1.00  0.00     0.021 C 
BRANCH   2   3
ATOM      3  C   UNL A   1      31.244  27.185  26.076  1.00  0.00     0.116 C 
BRANCH   3   4
ATOM      4  N   UNL A   1      31.023  25.909  26.724  1.00  0.00    -0.356 N 
ATOM      5  C   UNL A   1      31.819  24.805  26.724  1.00  0.00     0.224 C 
ATOM      6  O   UNL A   1      31.401  23.778  27.265  1.00  0.00    -0.275 OA
ATOM      7  H   UNL A   1      30.184  25.829  27.232  1.00  0.00     0.163 HD
BRANCH   5   8
ATOM      8  C   UNL A   1      33.191  24.836  26.073  1.00  0.00     0.137 C 
BRANCH   8   9
ATOM      9  C   UNL A   1      33.202  24.396  24.625  1.00  0.00    -0.015 A 
ATOM     10  C   UNL A   1      32.026  25.888  21.298  1.00  0.00     0.044 C 
ATOM     11  C   UNL A   1      32.603  24.944  22.311  1.00  0.00    -0.051 A 
ATOM     12  C   UNL A   1      33.036  23.681  21.919  1.00  0.00     0.005 A 
ATOM     13  C   UNL A   1      32.714  25.302  23.656  1.00  0.00     0.009 A 
ATOM     14  C   UNL A   1      33.568  22.794  22.860  1.00  0.00     0.026 A 
ATOM     15  C   UNL A   1      33.661  23.125  24.222  1.00  0.00     0.042 A 
BRANCH  15  16
ATOM     16  N   UNL A   1      34.257  22.238  25.147  1.00  0.00    -0.354 N 
ATOM     17  H   UNL A   1      33.792  22.147  26.011  1.00  0.00     0.167 HD
BRANCH  16  18
ATOM     18  C   UNL A   1      35.434  21.464  25.000  1.00  0.00     0.060 A 
ATOM     19  C   UNL A   1      35.388  20.061  24.852  1.00  0.00    -0.026 A 
ATOM     20  C   UNL A   1      36.695  22.093  25.093  1.00  0.00     0.064 A 
ATOM     21  C   UNL A   1      34.098  19.302  24.687  1.00  0.00     0.046 C 
ATOM     22  C   UNL A   1      36.587  19.327  24.859  1.00  0.00     0.005 A 
ATOM     23  C   UNL A   1      37.877  21.351  25.080  1.00  0.00     0.023 A 
ATOM     24  Cl  UNL A   1      36.821  23.814  25.248  1.00  0.00    -0.082 Cl
ATOM     25  C   UNL A   1      37.821  19.965  24.976  1.00  0.00     0.002 A 
ENDBRANCH  16  18
ENDBRANCH  15  16
ENDBRANCH   8   9
ENDBRANCH   5   8
ENDBRANCH   3   4
ENDBRANCH   2   3
ENDBRANCH   1   2
BRANCH   1  26
ATOM     26  C   UNL A   1      34.582  29.165  26.940  1.00  0.00     0.002 C 
BRANCH  26  27
ATOM     27  C   UNL A   1      33.970  30.425  27.555  1.00  0.00     0.021 C 
BRANCH  27  28
ATOM     28  C   UNL A   1      34.983  31.495  27.924  1.00  0.00     0.116 C 
BRANCH  28  29
ATOM     29  N   UNL A   1      34.365  32.764  28.257  1.00  0.00    -0.352 N 
ATOM     30  C   UNL A   1      34.648  33.657  29.268  1.00  0.00     0.251 C 
ATOM     31  H   UNL A   1      33.624  33.030  27.665  1.00  0.00     0.163 HD
ATOM     32  O   UNL A   1      33.830  34.550  29.491  1.00  0.00    -0.269 OA
BRANCH  30  33
ATOM     33  C   UNL A   1      35.970  33.647  29.950  1.00  0.00     0.039 A 
ATOM     34  C   UNL A   1      37.088  34.006  29.181  1.00  0.00     0.014 A 
ATOM     35  C   UNL A   1      36.157  33.068  31.201  1.00  0.00     0.014 A 
ATOM     36  C   UNL A   1      38.349  33.525  29.524  1.00  0.00     0.010 A 
ATOM     37  C   UNL A   1      37.384  32.525  31.507  1.00  0.00     0.010 A 
ATOM     38  C   UNL A   1      38.452  32.675  30.616  1.00  0.00    -0.014 A 
BRANCH  38  39
ATOM     39  C   UNL A   1      39.561  31.773  30.870  1.00  0.00     0.031 A 
ATOM     40  C   UNL A   1      39.620  30.456  30.217  1.00  0.00     0.074 A 
ATOM     41  C   UNL A   1      40.665  32.303  31.453  1.00  0.00     0.049 A 
ATOM     42  N   UNL A   1      40.571  29.612  30.421  1.00  0.00    -0.248 NA
ATOM     43  C   UNL A   1      38.600  29.965  29.293  1.00  0.00     0.031 C 
ATOM     44  C   UNL A   1      42.039  31.821  31.365  1.00  0.00     0.029 A 
ATOM     45  N   UNL A   1      40.724  33.292  32.440  1.00  0.00    -0.354 N 
ATOM     46  C   UNL A   1      40.483  28.660  29.438  1.00  0.00     0.074 A 
ATOM     47  C   UNL A   1      39.172  28.834  28.863  1.00  0.00     0.031 C 
ATOM     48  C   UNL A   1      42.723  32.275  32.426  1.00  0.00     0.029 A 
ATOM     49  C   UNL A   1      41.753  32.888  33.314  1.00  0.00     0.049 A 
ATOM     50  H   UNL A   1      40.166  34.100  32.510  1.00  0.00     0.167 HD
ATOM     51  C   UNL A   1      41.597  27.940  29.140  1.00  0.00     0.034 A 
ATOM     52  C   UNL A   1      41.519  32.506  34.607  1.00  0.00     0.034 A 
ATOM     53  C   UNL A   1      42.618  28.083  30.190  1.00  0.00     0.049 A 
ATOM     54  C   UNL A   1      41.934  31.066  34.907  1.00  0.00     0.074 A 
ATOM     55  C   UNL A   1      43.854  28.694  30.304  1.00  0.00     0.029 A 
ATOM     56  N   UNL A   1      42.268  27.699  31.474  1.00  0.00    -0.354 N 
ATOM     57  N   UNL A   1      42.547  30.270  34.073  1.00  0.00    -0.248 NA
ATOM     58  C   UNL A   1      41.597  30.389  36.160  1.00  0.00     0.031 C 
ATOM     59  C   UNL A   1      44.192  28.743  31.697  1.00  0.00     0.029 A 
ATOM     60  C   UNL A   1      43.185  28.121  32.416  1.00  0.00     0.049 A 
ATOM     61  H   UNL A   1      41.457  27.184  31.690  1.00  0.00     0.167 HD
ATOM     62  C   UNL A   1      42.517  28.986  34.560  1.00  0.00     0.074 A 
ATOM     63  C   UNL A   1      41.959  29.122  35.895  1.00  0.00     0.031 C 
ATOM     64  C   UNL A   1      42.873  27.889  33.822  1.00  0.00     0.034 A 
BRANCH  51  65
ATOM     65  C   UNL A   1      41.832  27.172  27.857  1.00  0.00     0.023 A 
ATOM     66  C   UNL A   1      41.859  27.917  26.657  1.00  0.00     0.012 A 
ATOM     67  C   UNL A   1      41.916  25.764  27.721  1.00  0.00     0.148 A 
ATOM     68  C   UNL A   1      41.962  27.308  25.400  1.00  0.00     0.002 A 
ATOM     69  C   UNL A   1      42.092  25.162  26.472  1.00  0.00     0.091 A 
ATOM     70  F   UNL A   1      41.721  24.972  28.780  1.00  0.00    -0.205 F 
ATOM     71  C   UNL A   1      42.099  25.931  25.307  1.00  0.00     0.022 A 
BRANCH  69  72
ATOM     72  S   UNL A   1      42.327  23.384  26.291  1.00  0.00     0.127 S 
ATOM     73  O   UNL A   1      40.958  22.881  26.393  1.00  0.00    -0.237 OA
ATOM     74  O   UNL A   1      42.916  23.274  24.955  1.00  0.00    -0.237 OA
ATOM     75  O   UNL A   1      43.221  22.985  27.371  1.00  0.00    -0.744 OA
ENDBRANCH  69  72
ENDBRANCH  51  65
BRANCH  52  76
ATOM     76  C   UNL A   1      40.354  33.213  35.222  1.00  0.00     0.023 A 
ATOM     77  C   UNL A   1      39.089  32.584  35.114  1.00  0.00     0.012 A 
ATOM     78  C   UNL A   1      40.525  34.220  36.188  1.00  0.00     0.148 A 
ATOM     79  C   UNL A   1      38.073  32.851  36.034  1.00  0.00     0.002 A 
ATOM     80  C   UNL A   1      39.501  34.493  37.092  1.00  0.00     0.091 A 
ATOM     81  F   UNL A   1      41.708  34.842  36.266  1.00  0.00    -0.205 F 
ATOM     82  C   UNL A   1      38.292  33.780  37.044  1.00  0.00     0.022 A 
BRANCH  80  83
ATOM     83  S   UNL A   1      39.723  35.665  38.437  1.00  0.00     0.127 S 
ATOM     84  O   UNL A   1      39.797  36.929  37.710  1.00  0.00    -0.237 OA
ATOM     85  O   UNL A   1      38.507  35.475  39.225  1.00  0.00    -0.237 OA
ATOM     86  O   UNL A   1      40.940  35.235  39.110  1.00  0.00    -0.744 OA
ENDBRANCH  80  83
ENDBRANCH  52  76
BRANCH  64  87
ATOM     87  C   UNL A   1      42.909  26.480  34.391  1.00  0.00     0.023 A 
ATOM     88  C   UNL A   1      41.748  25.915  34.960  1.00  0.00     0.012 A 
ATOM     89  C   UNL A   1      44.108  25.732  34.515  1.00  0.00     0.148 A 
ATOM     90  C   UNL A   1      41.759  24.651  35.559  1.00  0.00     0.002 A 
ATOM     91  C   UNL A   1      44.135  24.518  35.197  1.00  0.00     0.091 A 
ATOM     92  F   UNL A   1      45.230  26.170  33.933  1.00  0.00    -0.205 F 
ATOM     93  C   UNL A   1      42.956  23.960  35.694  1.00  0.00     0.022 A 
BRANCH  91  94
ATOM     94  S   UNL A   1      45.669  23.659  35.583  1.00  0.00     0.127 S 
ATOM     95  O   UNL A   1      46.459  24.727  36.202  1.00  0.00    -0.237 OA
ATOM     96  O   UNL A   1      45.211  22.626  36.509  1.00  0.00    -0.237 OA
ATOM     97  O   UNL A   1      46.197  23.182  34.313  1.00  0.00    -0.744 OA
ENDBRANCH  91  94
ENDBRANCH  64  87
ENDBRANCH  38  39
ENDBRANCH  30  33
ENDBRANCH  28  29
ENDBRANCH  27  28
ENDBRANCH  26  27
ENDBRANCH   1  26
TORSDOF 19
ENDMDL
MODEL 3
REMARK VINA RESULT:     -11.3      2.279      3.558
REMARK SMILES Cc1ccc(Nc2c(C)cccc2Cl)c(CC(=O)NCCCCCCNC(=O)c2ccc(-c3c4nc(c(-c5cccc(S(=O)(=O)[O-])c5F)c5ccc([nH]5)c(-c5cccc(S(=O)(=O)[O-])c5F)c5nc(c(-c6cccc(S(=O)(=O)[O-])c6F)c6ccc3[nH]6)C=C5)C=C4)cc2)c1
REMARK SMILES IDX 22 1 21 2 20 3 19 4 17 5 18 6 16 8 15 9 1 10 2 11 3 12 92 13
REMARK SMILES IDX 4 14 5 15 6 16 7 18 8 19 13 20 9 21 10 22 12 23 14 24 11 25
REMARK SMILES IDX 23 26 24 27 25 28 26 29 27 30 28 32 29 33 30 34 91 35 31 36
REMARK SMILES IDX 90 37 32 38 33 39 34 40 84 41 35 42 89 43 83 44 85 45 36 46
REMARK SMILES IDX 88 47 82 48 81 49 37 51 69 52 49 53 68 54 50 55 53 56 67 57
REMARK SMILES IDX 86 58 51 59 52 60 66 62 87 63 54 64 38 65 39 66 47 67 40 68
REMARK SMILES IDX 42 69 48 70 41 71 43 72 44 73 45 74 46 75 70 76 71 77 79 78
REMARK SMILES IDX 72 79 74 80 80 81 73 82 75 83 76 84 77 85 78 86 55 87 56 88
REMARK SMILES IDX 64 89 57 90 59 91 65 92 58 93 60 94 61 95 62 96 63 97
REMARK H PARENT 19 7 6 17 26 31 85 50 53 61
REMARK Flexibility Score: inf
ROOT
ATOM      1  C   UNL A   1      32.400  28.409  27.628  1.00  0.00     0.002 C 
ENDROOT
BRANCH   1   2
ATOM      2  C   UNL A   1      31.338  28.102  26.564  1.00  0.00     0.021 C 
BRANCH   2   3
ATOM      3  C   UNL A   1      31.559  26.799  25.791  1.00  0.00     0.116 C 
BRANCH   3   4
ATOM      4  N   UNL A   1      31.500  25.637  26.653  1.00  0.00    -0.356 N 
ATOM      5  C   UNL A   1      31.970  24.381  26.423  1.00  0.00     0.224 C 
ATOM      6  O   UNL A   1      31.735  23.501  27.256  1.00  0.00    -0.275 OA
ATOM      7  H   UNL A   1      31.061  25.774  27.523  1.00  0.00     0.163 HD
BRANCH   5   8
ATOM      8  C   UNL A   1      32.769  24.068  25.169  1.00  0.00     0.137 C 
BRANCH   8   9
ATOM      9  C   UNL A   1      34.021  23.254  25.417  1.00  0.00    -0.015 A 
ATOM     10  C   UNL A   1      37.704  24.037  26.120  1.00  0.00     0.044 C 
ATOM     11  C   UNL A   1      36.432  23.285  25.866  1.00  0.00    -0.051 A 
ATOM     12  C   UNL A   1      36.448  21.897  25.770  1.00  0.00     0.005 A 
ATOM     13  C   UNL A   1      35.213  23.951  25.714  1.00  0.00     0.009 A 
ATOM     14  C   UNL A   1      35.266  21.192  25.525  1.00  0.00     0.026 A 
ATOM     15  C   UNL A   1      34.037  21.846  25.343  1.00  0.00     0.042 A 
BRANCH  15  16
ATOM     16  N   UNL A   1      32.843  21.112  25.156  1.00  0.00    -0.354 N 
ATOM     17  H   UNL A   1      32.098  21.350  25.754  1.00  0.00     0.167 HD
BRANCH  16  18
ATOM     18  C   UNL A   1      32.576  20.078  24.225  1.00  0.00     0.060 A 
ATOM     19  C   UNL A   1      32.667  18.716  24.579  1.00  0.00    -0.026 A 
ATOM     20  C   UNL A   1      32.297  20.410  22.880  1.00  0.00     0.064 A 
ATOM     21  C   UNL A   1      32.903  18.258  25.995  1.00  0.00     0.046 C 
ATOM     22  C   UNL A   1      32.537  17.732  23.583  1.00  0.00     0.005 A 
ATOM     23  C   UNL A   1      32.153  19.421  21.906  1.00  0.00     0.023 A 
ATOM     24  Cl  UNL A   1      32.146  22.063  22.384  1.00  0.00    -0.082 Cl
ATOM     25  C   UNL A   1      32.287  18.081  22.256  1.00  0.00     0.002 A 
ENDBRANCH  16  18
ENDBRANCH  15  16
ENDBRANCH   8   9
ENDBRANCH   5   8
ENDBRANCH   3   4
ENDBRANCH   2   3
ENDBRANCH   1   2
BRANCH   1  26
ATOM     26  C   UNL A   1      33.830  28.633  27.115  1.00  0.00     0.002 C 
BRANCH  26  27
ATOM     27  C   UNL A   1      34.725  29.510  27.993  1.00  0.00     0.021 C 
BRANCH  27  28
ATOM     28  C   UNL A   1      35.213  30.780  27.317  1.00  0.00     0.116 C 
BRANCH  28  29
ATOM     29  N   UNL A   1      34.455  31.953  27.710  1.00  0.00    -0.352 N 
ATOM     30  C   UNL A   1      34.557  32.748  28.831  1.00  0.00     0.251 C 
ATOM     31  H   UNL A   1      33.754  32.224  27.074  1.00  0.00     0.163 HD
ATOM     32  O   UNL A   1      33.646  33.545  29.056  1.00  0.00    -0.269 OA
BRANCH  30  33
ATOM     33  C   UNL A   1      35.803  32.766  29.644  1.00  0.00     0.039 A 
ATOM     34  C   UNL A   1      36.947  33.319  29.049  1.00  0.00     0.014 A 
ATOM     35  C   UNL A   1      35.927  32.049  30.830  1.00  0.00     0.014 A 
ATOM     36  C   UNL A   1      38.212  32.911  29.464  1.00  0.00     0.010 A 
ATOM     37  C   UNL A   1      37.168  31.581  31.198  1.00  0.00     0.010 A 
ATOM     38  C   UNL A   1      38.296  31.939  30.452  1.00  0.00    -0.014 A 
BRANCH  38  39
ATOM     39  C   UNL A   1      39.461  31.113  30.713  1.00  0.00     0.031 A 
ATOM     40  C   UNL A   1      39.579  29.774  30.114  1.00  0.00     0.074 A 
ATOM     41  C   UNL A   1      40.546  31.729  31.243  1.00  0.00     0.049 A 
ATOM     42  N   UNL A   1      40.583  28.995  30.327  1.00  0.00    -0.248 NA
ATOM     43  C   UNL A   1      38.568  29.188  29.239  1.00  0.00     0.031 C 
ATOM     44  C   UNL A   1      41.943  31.323  31.138  1.00  0.00     0.029 A 
ATOM     45  N   UNL A   1      40.572  32.762  32.187  1.00  0.00    -0.354 N 
ATOM     46  C   UNL A   1      40.526  27.999  29.387  1.00  0.00     0.074 A 
ATOM     47  C   UNL A   1      39.193  28.073  28.840  1.00  0.00     0.031 C 
ATOM     48  C   UNL A   1      42.625  31.860  32.161  1.00  0.00     0.029 A 
ATOM     49  C   UNL A   1      41.644  32.454  33.048  1.00  0.00     0.049 A 
ATOM     50  H   UNL A   1      39.970  33.539  32.238  1.00  0.00     0.167 HD
ATOM     51  C   UNL A   1      41.672  27.331  29.089  1.00  0.00     0.034 A 
ATOM     52  C   UNL A   1      41.463  32.115  34.362  1.00  0.00     0.034 A 
ATOM     53  C   UNL A   1      42.709  27.576  30.105  1.00  0.00     0.049 A 
ATOM     54  C   UNL A   1      41.969  30.716  34.710  1.00  0.00     0.074 A 
ATOM     55  C   UNL A   1      43.909  28.261  30.160  1.00  0.00     0.029 A 
ATOM     56  N   UNL A   1      42.412  27.229  31.412  1.00  0.00    -0.354 N 
ATOM     57  N   UNL A   1      42.606  29.921  33.893  1.00  0.00    -0.248 NA
ATOM     58  C   UNL A   1      41.702  30.075  35.999  1.00  0.00     0.031 C 
ATOM     59  C   UNL A   1      44.278  28.389  31.540  1.00  0.00     0.029 A 
ATOM     60  C   UNL A   1      43.326  27.742  32.311  1.00  0.00     0.049 A 
ATOM     61  H   UNL A   1      41.638  26.679  31.671  1.00  0.00     0.167 HD
ATOM     62  C   UNL A   1      42.663  28.659  34.434  1.00  0.00     0.074 A 
ATOM     63  C   UNL A   1      42.130  28.821  35.776  1.00  0.00     0.031 C 
ATOM     64  C   UNL A   1      43.062  27.553  33.733  1.00  0.00     0.034 A 
BRANCH  51  65
ATOM     65  C   UNL A   1      41.919  26.523  27.833  1.00  0.00     0.023 A 
ATOM     66  C   UNL A   1      42.098  27.242  26.630  1.00  0.00     0.012 A 
ATOM     67  C   UNL A   1      41.879  25.112  27.718  1.00  0.00     0.148 A 
ATOM     68  C   UNL A   1      42.228  26.605  25.390  1.00  0.00     0.002 A 
ATOM     69  C   UNL A   1      42.081  24.474  26.489  1.00  0.00     0.091 A 
ATOM     70  F   UNL A   1      41.538  24.359  28.769  1.00  0.00    -0.205 F 
ATOM     71  C   UNL A   1      42.239  25.220  25.320  1.00  0.00     0.022 A 
BRANCH  69  72
ATOM     72  S   UNL A   1      42.158  22.679  26.343  1.00  0.00     0.127 S 
ATOM     73  O   UNL A   1      43.066  22.321  27.432  1.00  0.00    -0.237 OA
ATOM     74  O   UNL A   1      40.765  22.282  26.558  1.00  0.00    -0.237 OA
ATOM     75  O   UNL A   1      42.655  22.407  25.000  1.00  0.00    -0.744 OA
ENDBRANCH  69  72
ENDBRANCH  51  65
BRANCH  52  76
ATOM     76  C   UNL A   1      40.275  32.781  34.979  1.00  0.00     0.023 A 
ATOM     77  C   UNL A   1      39.031  32.114  34.861  1.00  0.00     0.012 A 
ATOM     78  C   UNL A   1      40.412  33.785  35.953  1.00  0.00     0.148 A 
ATOM     79  C   UNL A   1      38.004  32.342  35.779  1.00  0.00     0.002 A 
ATOM     80  C   UNL A   1      39.376  34.019  36.855  1.00  0.00     0.091 A 
ATOM     81  F   UNL A   1      41.575  34.443  36.040  1.00  0.00    -0.205 F 
ATOM     82  C   UNL A   1      38.191  33.269  36.797  1.00  0.00     0.022 A 
BRANCH  80  83
ATOM     83  S   UNL A   1      39.558  35.187  38.210  1.00  0.00     0.127 S 
ATOM     84  O   UNL A   1      39.280  36.453  37.540  1.00  0.00    -0.237 OA
ATOM     85  O   UNL A   1      38.527  34.744  39.147  1.00  0.00    -0.237 OA
ATOM     86  O   UNL A   1      40.919  34.994  38.689  1.00  0.00    -0.744 OA
ENDBRANCH  80  83
ENDBRANCH  52  76
BRANCH  64  87
ATOM     87  C   UNL A   1      43.194  26.175  34.359  1.00  0.00     0.023 A 
ATOM     88  C   UNL A   1      42.056  25.517  34.871  1.00  0.00     0.012 A 
ATOM     89  C   UNL A   1      44.448  25.553  34.592  1.00  0.00     0.148 A 
ATOM     90  C   UNL A   1      42.146  24.280  35.519  1.00  0.00     0.002 A 
ATOM     91  C   UNL A   1      44.544  24.371  35.322  1.00  0.00     0.091 A 
ATOM     92  F   UNL A   1      45.561  26.080  34.069  1.00  0.00    -0.205 F 
ATOM     93  C   UNL A   1      43.391  23.715  35.761  1.00  0.00     0.022 A 
BRANCH  91  94
ATOM     94  S   UNL A   1      46.122  23.681  35.844  1.00  0.00     0.127 S 
ATOM     95  O   UNL A   1      45.703  22.723  36.871  1.00  0.00    -0.237 OA
ATOM     96  O   UNL A   1      46.610  23.074  34.608  1.00  0.00    -0.237 OA
ATOM     97  O   UNL A   1      46.904  24.800  36.352  1.00  0.00    -0.744 OA
ENDBRANCH  91  94
ENDBRANCH  64  87
ENDBRANCH  38  39
ENDBRANCH  30  33
ENDBRANCH  28  29
ENDBRANCH  27  28
ENDBRANCH  26  27
ENDBRANCH   1  26
TORSDOF 19
ENDMDL
