MODEL 1
REMARK VINA RESULT:     -12.9      0.000      0.000
REMARK SMILES O=C(NCCCCCCNC(=O)c1cc(-c2cccc(C(F)(F)F)c2)nc2c(F)cccc12)c1ccc(-c2c3nc(c(-c4cccc(S(=O)(=O)[O-])c4F)c4ccc([nH]4)c(-c4cccc(S(=O)(=O)[O-])c4F)c4nc(c(-c5cccc(S(=O)(=O)[O-])c5F)c5ccc2[nH]5)C=C4)C=C3)cc1
REMARK SMILES IDX 6 1 5 2 4 3 3 4 1 5 2 6 34 8 35 9 96 10 36 11 95 12 37 13
REMARK SMILES IDX 38 14 39 15 89 16 40 17 94 18 88 19 90 20 41 21 93 22 87 23
REMARK SMILES IDX 86 24 42 26 74 27 54 28 73 29 55 30 58 31 72 32 91 33 56 34
REMARK SMILES IDX 57 35 71 37 92 38 59 39 43 40 44 41 52 42 45 43 47 44 53 45
REMARK SMILES IDX 46 46 48 47 49 48 50 49 51 50 75 51 76 52 84 53 77 54 79 55
REMARK SMILES IDX 85 56 78 57 80 58 81 59 82 60 83 61 60 62 61 63 69 64 62 65
REMARK SMILES IDX 64 66 70 67 63 68 65 69 66 70 67 71 68 72 7 73 8 74 9 75
REMARK SMILES IDX 10 76 11 77 12 79 13 80 14 81 33 82 15 83 27 84 32 85 26 86
REMARK SMILES IDX 28 87 31 88 29 89 30 90 16 91 17 92 25 93 18 94 20 95 19 96
REMARK SMILES IDX 21 97 22 98 23 99 24 100
REMARK H PARENT 3 7 90 25 58 36 10 78
REMARK Flexibility Score: inf
ROOT
ATOM      1  C   UNL A   1      31.512  29.539  25.112  1.00  0.00     0.002 C 
ENDROOT
BRANCH   1   2
ATOM      2  C   UNL A   1      31.294  30.896  25.781  1.00  0.00     0.021 C 
BRANCH   2   3
ATOM      3  C   UNL A   1      32.335  31.300  26.818  1.00  0.00     0.116 C 
BRANCH   3   4
ATOM      4  N   UNL A   1      32.308  32.717  27.136  1.00  0.00    -0.352 N 
ATOM      5  O   UNL A   1      32.954  34.633  28.130  1.00  0.00    -0.269 OA
ATOM      6  C   UNL A   1      33.204  33.458  27.871  1.00  0.00     0.251 C 
ATOM      7  H   UNL A   1      31.540  33.217  26.775  1.00  0.00     0.163 HD
BRANCH   6   8
ATOM      8  C   UNL A   1      34.444  32.828  28.381  1.00  0.00     0.039 A 
ATOM      9  C   UNL A   1      34.413  31.572  28.993  1.00  0.00     0.014 A 
ATOM     10  C   UNL A   1      35.656  33.514  28.259  1.00  0.00     0.014 A 
ATOM     11  C   UNL A   1      35.553  31.083  29.624  1.00  0.00     0.010 A 
ATOM     12  C   UNL A   1      36.820  32.979  28.819  1.00  0.00     0.010 A 
ATOM     13  C   UNL A   1      36.770  31.780  29.547  1.00  0.00    -0.014 A 
BRANCH  13  14
ATOM     14  C   UNL A   1      37.977  31.212  30.204  1.00  0.00     0.031 A 
ATOM     15  C   UNL A   1      38.341  31.568  31.622  1.00  0.00     0.074 A 
ATOM     16  C   UNL A   1      38.745  30.346  29.512  1.00  0.00     0.049 A 
ATOM     17  N   UNL A   1      39.313  31.098  32.362  1.00  0.00    -0.248 NA
ATOM     18  C   UNL A   1      37.517  32.582  32.297  1.00  0.00     0.031 C 
ATOM     19  C   UNL A   1      38.529  29.964  28.115  1.00  0.00     0.029 A 
ATOM     20  N   UNL A   1      39.851  29.625  29.887  1.00  0.00    -0.354 N 
ATOM     21  C   UNL A   1      39.249  31.789  33.567  1.00  0.00     0.074 A 
ATOM     22  C   UNL A   1      38.142  32.715  33.459  1.00  0.00     0.031 C 
ATOM     23  C   UNL A   1      39.443  29.048  27.763  1.00  0.00     0.029 A 
ATOM     24  C   UNL A   1      40.335  28.808  28.892  1.00  0.00     0.049 A 
ATOM     25  H   UNL A   1      40.258  29.686  30.781  1.00  0.00     0.167 HD
ATOM     26  C   UNL A   1      40.027  31.652  34.667  1.00  0.00     0.034 A 
ATOM     27  C   UNL A   1      41.379  27.956  28.887  1.00  0.00     0.034 A 
ATOM     28  C   UNL A   1      41.093  30.692  34.793  1.00  0.00     0.049 A 
ATOM     29  C   UNL A   1      42.187  27.786  30.141  1.00  0.00     0.074 A 
ATOM     30  C   UNL A   1      41.882  30.422  35.897  1.00  0.00     0.029 A 
ATOM     31  N   UNL A   1      41.521  29.847  33.780  1.00  0.00    -0.354 N 
ATOM     32  N   UNL A   1      42.014  28.341  31.315  1.00  0.00    -0.248 NA
ATOM     33  C   UNL A   1      43.319  26.849  30.077  1.00  0.00     0.031 C 
ATOM     34  C   UNL A   1      42.796  29.421  35.548  1.00  0.00     0.029 A 
ATOM     35  C   UNL A   1      42.569  29.061  34.230  1.00  0.00     0.049 A 
ATOM     36  H   UNL A   1      41.138  29.812  32.874  1.00  0.00     0.167 HD
ATOM     37  C   UNL A   1      42.996  27.804  32.138  1.00  0.00     0.074 A 
ATOM     38  C   UNL A   1      43.744  26.858  31.333  1.00  0.00     0.031 C 
ATOM     39  C   UNL A   1      43.269  28.084  33.436  1.00  0.00     0.034 A 
BRANCH  26  40
ATOM     40  C   UNL A   1      39.729  32.531  35.854  1.00  0.00     0.023 A 
ATOM     41  C   UNL A   1      40.327  33.804  35.942  1.00  0.00     0.012 A 
ATOM     42  C   UNL A   1      38.805  32.133  36.840  1.00  0.00     0.148 A 
ATOM     43  C   UNL A   1      40.030  34.658  37.005  1.00  0.00     0.002 A 
ATOM     44  C   UNL A   1      38.486  33.003  37.878  1.00  0.00     0.091 A 
ATOM     45  F   UNL A   1      38.263  30.909  36.755  1.00  0.00    -0.205 F 
ATOM     46  C   UNL A   1      39.103  34.261  37.967  1.00  0.00     0.022 A 
BRANCH  44  47
ATOM     47  S   UNL A   1      37.250  32.605  39.121  1.00  0.00     0.127 S 
ATOM     48  O   UNL A   1      36.012  32.723  38.354  1.00  0.00    -0.237 OA
ATOM     49  O   UNL A   1      37.609  31.234  39.489  1.00  0.00    -0.237 OA
ATOM     50  O   UNL A   1      37.431  33.581  40.186  1.00  0.00    -0.744 OA
ENDBRANCH  44  47
ENDBRANCH  26  40
BRANCH  27  51
ATOM     51  C   UNL A   1      41.657  27.141  27.672  1.00  0.00     0.023 A 
ATOM     52  C   UNL A   1      42.262  27.752  26.557  1.00  0.00     0.012 A 
ATOM     53  C   UNL A   1      41.382  25.761  27.633  1.00  0.00     0.148 A 
ATOM     54  C   UNL A   1      42.571  27.008  25.418  1.00  0.00     0.002 A 
ATOM     55  C   UNL A   1      41.745  25.014  26.519  1.00  0.00     0.091 A 
ATOM     56  F   UNL A   1      40.786  25.201  28.695  1.00  0.00    -0.205 F 
ATOM     57  C   UNL A   1      42.327  25.637  25.405  1.00  0.00     0.022 A 
BRANCH  55  58
ATOM     58  S   UNL A   1      41.598  23.224  26.486  1.00  0.00     0.127 S 
ATOM     59  O   UNL A   1      42.316  22.887  25.260  1.00  0.00    -0.237 OA
ATOM     60  O   UNL A   1      42.277  22.837  27.724  1.00  0.00    -0.237 OA
ATOM     61  O   UNL A   1      40.166  22.956  26.485  1.00  0.00    -0.744 OA
ENDBRANCH  55  58
ENDBRANCH  27  51
BRANCH  39  62
ATOM     62  C   UNL A   1      44.411  27.345  34.078  1.00  0.00     0.023 A 
ATOM     63  C   UNL A   1      45.724  27.836  33.933  1.00  0.00     0.012 A 
ATOM     64  C   UNL A   1      44.182  26.204  34.871  1.00  0.00     0.148 A 
ATOM     65  C   UNL A   1      46.796  27.182  34.541  1.00  0.00     0.002 A 
ATOM     66  C   UNL A   1      45.250  25.584  35.510  1.00  0.00     0.091 A 
ATOM     67  F   UNL A   1      42.929  25.738  34.978  1.00  0.00    -0.205 F 
ATOM     68  C   UNL A   1      46.557  26.066  35.338  1.00  0.00     0.022 A 
BRANCH  66  69
ATOM     69  S   UNL A   1      45.011  24.194  36.623  1.00  0.00     0.127 S 
ATOM     70  O   UNL A   1      46.370  23.959  37.105  1.00  0.00    -0.237 OA
ATOM     71  O   UNL A   1      44.095  24.743  37.625  1.00  0.00    -0.237 OA
ATOM     72  O   UNL A   1      44.437  23.133  35.806  1.00  0.00    -0.744 OA
ENDBRANCH  66  69
ENDBRANCH  39  62
ENDBRANCH  13  14
ENDBRANCH   6   8
ENDBRANCH   3   4
ENDBRANCH   2   3
ENDBRANCH   1   2
BRANCH   1  73
ATOM     73  C   UNL A   1      32.955  29.194  24.736  1.00  0.00     0.002 C 
BRANCH  73  74
ATOM     74  C   UNL A   1      33.238  28.966  23.248  1.00  0.00     0.021 C 
BRANCH  74  75
ATOM     75  C   UNL A   1      34.105  27.757  22.913  1.00  0.00     0.116 C 
BRANCH  75  76
ATOM     76  N   UNL A   1      33.737  27.123  21.659  1.00  0.00    -0.352 N 
ATOM     77  C   UNL A   1      33.076  25.937  21.463  1.00  0.00     0.252 C 
ATOM     78  H   UNL A   1      33.995  27.608  20.843  1.00  0.00     0.163 HD
ATOM     79  O   UNL A   1      32.853  25.519  20.332  1.00  0.00    -0.269 OA
BRANCH  77  80
ATOM     80  C   UNL A   1      32.687  25.120  22.627  1.00  0.00     0.051 A 
ATOM     81  C   UNL A   1      33.515  24.034  22.904  1.00  0.00     0.043 A 
ATOM     82  C   UNL A   1      31.560  25.409  23.424  1.00  0.00     0.016 A 
ATOM     83  C   UNL A   1      33.221  23.260  24.007  1.00  0.00     0.072 A 
ATOM     84  C   UNL A   1      31.375  24.595  24.557  1.00  0.00     0.107 A 
ATOM     85  C   UNL A   1      30.634  26.452  23.155  1.00  0.00     0.011 A 
ATOM     86  N   UNL A   1      32.180  23.541  24.824  1.00  0.00    -0.245 NA
ATOM     87  C   UNL A   1      30.319  24.915  25.416  1.00  0.00     0.149 A 
ATOM     88  C   UNL A   1      29.591  26.738  24.030  1.00  0.00     0.004 A 
ATOM     89  F   UNL A   1      30.126  24.188  26.530  1.00  0.00    -0.205 F 
ATOM     90  C   UNL A   1      29.444  25.974  25.177  1.00  0.00     0.041 A 
BRANCH  83  91
ATOM     91  C   UNL A   1      33.996  22.060  24.343  1.00  0.00     0.001 A 
ATOM     92  C   UNL A   1      35.342  22.139  24.734  1.00  0.00     0.010 A 
ATOM     93  C   UNL A   1      33.405  20.787  24.248  1.00  0.00     0.023 A 
ATOM     94  C   UNL A   1      36.078  20.986  25.012  1.00  0.00     0.001 A 
ATOM     95  C   UNL A   1      34.139  19.616  24.505  1.00  0.00     0.056 A 
ATOM     96  C   UNL A   1      35.483  19.731  24.890  1.00  0.00     0.013 A 
BRANCH  95  97
ATOM     97  C   UNL A   1      33.511  18.255  24.351  1.00  0.00     0.416 C 
ATOM     98  F   UNL A   1      34.023  17.569  23.289  1.00  0.00    -0.166 F 
ATOM     99  F   UNL A   1      33.713  17.456  25.436  1.00  0.00    -0.166 F 
ATOM    100  F   UNL A   1      32.164  18.284  24.153  1.00  0.00    -0.166 F 
ENDBRANCH  95  97
ENDBRANCH  83  91
ENDBRANCH  77  80
ENDBRANCH  75  76
ENDBRANCH  74  75
ENDBRANCH  73  74
ENDBRANCH   1  73
TORSDOF 18
ENDMDL
MODEL 2
REMARK VINA RESULT:     -12.7      2.120      2.872
REMARK SMILES O=C(NCCCCCCNC(=O)c1cc(-c2cccc(C(F)(F)F)c2)nc2c(F)cccc12)c1ccc(-c2c3nc(c(-c4cccc(S(=O)(=O)[O-])c4F)c4ccc([nH]4)c(-c4cccc(S(=O)(=O)[O-])c4F)c4nc(c(-c5cccc(S(=O)(=O)[O-])c5F)c5ccc2[nH]5)C=C4)C=C3)cc1
REMARK SMILES IDX 6 1 5 2 4 3 3 4 1 5 2 6 34 8 35 9 96 10 36 11 95 12 37 13
REMARK SMILES IDX 38 14 39 15 89 16 40 17 94 18 88 19 90 20 41 21 93 22 87 23
REMARK SMILES IDX 86 24 42 26 74 27 54 28 73 29 55 30 58 31 72 32 91 33 56 34
REMARK SMILES IDX 57 35 71 37 92 38 59 39 43 40 44 41 52 42 45 43 47 44 53 45
REMARK SMILES IDX 46 46 48 47 49 48 50 49 51 50 75 51 76 52 84 53 77 54 79 55
REMARK SMILES IDX 85 56 78 57 80 58 81 59 82 60 83 61 60 62 61 63 69 64 62 65
REMARK SMILES IDX 64 66 70 67 63 68 65 69 66 70 67 71 68 72 7 73 8 74 9 75
REMARK SMILES IDX 10 76 11 77 12 79 13 80 14 81 33 82 15 83 27 84 32 85 26 86
REMARK SMILES IDX 28 87 31 88 29 89 30 90 16 91 17 92 25 93 18 94 20 95 19 96
REMARK SMILES IDX 21 97 22 98 23 99 24 100
REMARK H PARENT 3 7 90 25 58 36 10 78
REMARK Flexibility Score: inf
ROOT
ATOM      1  C   UNL A   1      31.240  28.725  24.493  1.00  0.00     0.002 C 
ENDROOT
BRANCH   1   2
ATOM      2  C   UNL A   1      32.723  28.991  24.236  1.00  0.00     0.021 C 
BRANCH   2   3
ATOM      3  C   UNL A   1      33.529  29.471  25.437  1.00  0.00     0.116 C 
BRANCH   3   4
ATOM      4  N   UNL A   1      33.003  30.686  26.034  1.00  0.00    -0.352 N 
ATOM      5  O   UNL A   1      32.841  32.361  27.532  1.00  0.00    -0.269 OA
ATOM      6  C   UNL A   1      33.490  31.414  27.094  1.00  0.00     0.251 C 
ATOM      7  H   UNL A   1      32.179  31.036  25.622  1.00  0.00     0.163 HD
BRANCH   6   8
ATOM      8  C   UNL A   1      34.774  31.031  27.727  1.00  0.00     0.039 A 
ATOM      9  C   UNL A   1      35.003  29.719  28.150  1.00  0.00     0.014 A 
ATOM     10  C   UNL A   1      35.758  32.006  27.915  1.00  0.00     0.014 A 
ATOM     11  C   UNL A   1      36.136  29.424  28.904  1.00  0.00     0.010 A 
ATOM     12  C   UNL A   1      36.936  31.685  28.597  1.00  0.00     0.010 A 
ATOM     13  C   UNL A   1      37.116  30.403  29.138  1.00  0.00    -0.014 A 
BRANCH  13  14
ATOM     14  C   UNL A   1      38.331  30.045  29.917  1.00  0.00     0.031 A 
ATOM     15  C   UNL A   1      38.548  30.561  31.315  1.00  0.00     0.074 A 
ATOM     16  C   UNL A   1      39.242  29.224  29.357  1.00  0.00     0.049 A 
ATOM     17  N   UNL A   1      39.513  30.279  32.154  1.00  0.00    -0.248 NA
ATOM     18  C   UNL A   1      37.565  31.521  31.841  1.00  0.00     0.031 C 
ATOM     19  C   UNL A   1      39.172  28.701  27.991  1.00  0.00     0.029 A 
ATOM     20  N   UNL A   1      40.394  28.678  29.864  1.00  0.00    -0.354 N 
ATOM     21  C   UNL A   1      39.282  31.057  33.283  1.00  0.00     0.074 A 
ATOM     22  C   UNL A   1      38.086  31.828  33.023  1.00  0.00     0.031 C 
ATOM     23  C   UNL A   1      40.210  27.877  27.782  1.00  0.00     0.029 A 
ATOM     24  C   UNL A   1      41.041  27.845  28.980  1.00  0.00     0.049 A 
ATOM     25  H   UNL A   1      40.726  28.865  30.771  1.00  0.00     0.167 HD
ATOM     26  C   UNL A   1      39.990  31.110  34.437  1.00  0.00     0.034 A 
ATOM     27  C   UNL A   1      42.174  27.130  29.118  1.00  0.00     0.034 A 
ATOM     28  C   UNL A   1      41.149  30.302  34.716  1.00  0.00     0.049 A 
ATOM     29  C   UNL A   1      42.905  27.167  30.429  1.00  0.00     0.074 A 
ATOM     30  C   UNL A   1      41.883  30.225  35.886  1.00  0.00     0.029 A 
ATOM     31  N   UNL A   1      41.744  29.433  33.814  1.00  0.00    -0.354 N 
ATOM     32  N   UNL A   1      42.585  27.795  31.534  1.00  0.00    -0.248 NA
ATOM     33  C   UNL A   1      44.140  26.374  30.522  1.00  0.00     0.031 C 
ATOM     34  C   UNL A   1      42.930  29.318  35.689  1.00  0.00     0.029 A 
ATOM     35  C   UNL A   1      42.841  28.822  34.398  1.00  0.00     0.049 A 
ATOM     36  H   UNL A   1      41.434  29.275  32.894  1.00  0.00     0.167 HD
ATOM     37  C   UNL A   1      43.561  27.454  32.462  1.00  0.00     0.074 A 
ATOM     38  C   UNL A   1      44.470  26.542  31.796  1.00  0.00     0.031 C 
ATOM     39  C   UNL A   1      43.705  27.874  33.742  1.00  0.00     0.034 A 
BRANCH  26  40
ATOM     40  C   UNL A   1      39.507  32.043  35.516  1.00  0.00     0.023 A 
ATOM     41  C   UNL A   1      38.610  31.567  36.495  1.00  0.00     0.012 A 
ATOM     42  C   UNL A   1      39.993  33.362  35.609  1.00  0.00     0.148 A 
ATOM     43  C   UNL A   1      38.185  32.396  37.533  1.00  0.00     0.002 A 
ATOM     44  C   UNL A   1      39.592  34.172  36.668  1.00  0.00     0.091 A 
ATOM     45  F   UNL A   1      40.826  33.807  34.658  1.00  0.00    -0.205 F 
ATOM     46  C   UNL A   1      38.683  33.693  37.625  1.00  0.00     0.022 A 
BRANCH  44  47
ATOM     47  S   UNL A   1      40.238  35.832  36.906  1.00  0.00     0.127 S 
ATOM     48  O   UNL A   1      39.680  36.534  35.753  1.00  0.00    -0.237 OA
ATOM     49  O   UNL A   1      39.653  36.213  38.193  1.00  0.00    -0.237 OA
ATOM     50  O   UNL A   1      41.688  35.693  36.922  1.00  0.00    -0.744 OA
ENDBRANCH  44  47
ENDBRANCH  26  40
BRANCH  27  51
ATOM     51  C   UNL A   1      42.632  26.255  28.003  1.00  0.00     0.023 A 
ATOM     52  C   UNL A   1      43.691  26.685  27.181  1.00  0.00     0.012 A 
ATOM     53  C   UNL A   1      42.068  24.983  27.788  1.00  0.00     0.148 A 
ATOM     54  C   UNL A   1      44.169  25.872  26.153  1.00  0.00     0.002 A 
ATOM     55  C   UNL A   1      42.587  24.154  26.800  1.00  0.00     0.091 A 
ATOM     56  F   UNL A   1      41.046  24.600  28.567  1.00  0.00    -0.205 F 
ATOM     57  C   UNL A   1      43.627  24.602  25.972  1.00  0.00     0.022 A 
BRANCH  55  58
ATOM     58  S   UNL A   1      42.043  22.453  26.604  1.00  0.00     0.127 S 
ATOM     59  O   UNL A   1      40.615  22.622  26.357  1.00  0.00    -0.237 OA
ATOM     60  O   UNL A   1      42.822  22.014  25.445  1.00  0.00    -0.237 OA
ATOM     61  O   UNL A   1      42.405  21.788  27.849  1.00  0.00    -0.744 OA
ENDBRANCH  55  58
ENDBRANCH  27  51
BRANCH  39  62
ATOM     62  C   UNL A   1      44.877  27.339  34.519  1.00  0.00     0.023 A 
ATOM     63  C   UNL A   1      46.087  28.060  34.537  1.00  0.00     0.012 A 
ATOM     64  C   UNL A   1      44.765  26.156  35.276  1.00  0.00     0.148 A 
ATOM     65  C   UNL A   1      47.178  27.596  35.270  1.00  0.00     0.002 A 
ATOM     66  C   UNL A   1      45.843  25.724  36.040  1.00  0.00     0.091 A 
ATOM     67  F   UNL A   1      43.614  25.470  35.228  1.00  0.00    -0.205 F 
ATOM     68  C   UNL A   1      47.052  26.437  36.031  1.00  0.00     0.022 A 
BRANCH  66  69
ATOM     69  S   UNL A   1      45.728  24.288  37.114  1.00  0.00     0.127 S 
ATOM     70  O   UNL A   1      47.113  24.130  37.553  1.00  0.00    -0.237 OA
ATOM     71  O   UNL A   1      44.806  24.743  38.156  1.00  0.00    -0.237 OA
ATOM     72  O   UNL A   1      45.203  23.216  36.278  1.00  0.00    -0.744 OA
ENDBRANCH  66  69
ENDBRANCH  39  62
ENDBRANCH  13  14
ENDBRANCH   6   8
ENDBRANCH   3   4
ENDBRANCH   2   3
ENDBRANCH   1   2
BRANCH   1  73
ATOM     73  C   UNL A   1      30.677  27.421  23.922  1.00  0.00     0.002 C 
BRANCH  73  74
ATOM     74  C   UNL A   1      29.718  26.639  24.824  1.00  0.00     0.021 C 
BRANCH  74  75
ATOM     75  C   UNL A   1      29.771  25.121  24.692  1.00  0.00     0.116 C 
BRANCH  75  76
ATOM     76  N   UNL A   1      29.652  24.435  25.968  1.00  0.00    -0.352 N 
ATOM     77  C   UNL A   1      30.495  23.505  26.520  1.00  0.00     0.252 C 
ATOM     78  H   UNL A   1      28.863  24.669  26.507  1.00  0.00     0.163 HD
ATOM     79  O   UNL A   1      30.248  22.996  27.607  1.00  0.00    -0.269 OA
BRANCH  77  80
ATOM     80  C   UNL A   1      31.682  23.060  25.765  1.00  0.00     0.051 A 
ATOM     81  C   UNL A   1      31.591  21.794  25.191  1.00  0.00     0.043 A 
ATOM     82  C   UNL A   1      32.838  23.856  25.616  1.00  0.00     0.016 A 
ATOM     83  C   UNL A   1      32.657  21.346  24.439  1.00  0.00     0.072 A 
ATOM     84  C   UNL A   1      33.848  23.335  24.786  1.00  0.00     0.107 A 
ATOM     85  C   UNL A   1      33.025  25.121  26.235  1.00  0.00     0.011 A 
ATOM     86  N   UNL A   1      33.757  22.104  24.231  1.00  0.00    -0.245 NA
ATOM     87  C   UNL A   1      34.965  24.140  24.547  1.00  0.00     0.149 A 
ATOM     88  C   UNL A   1      34.154  25.893  25.976  1.00  0.00     0.004 A 
ATOM     89  F   UNL A   1      35.938  23.699  23.731  1.00  0.00    -0.205 F 
ATOM     90  C   UNL A   1      35.121  25.405  25.113  1.00  0.00     0.041 A 
BRANCH  83  91
ATOM     91  C   UNL A   1      32.681  20.002  23.849  1.00  0.00     0.001 A 
ATOM     92  C   UNL A   1      32.256  19.769  22.532  1.00  0.00     0.010 A 
ATOM     93  C   UNL A   1      33.108  18.902  24.614  1.00  0.00     0.023 A 
ATOM     94  C   UNL A   1      32.245  18.480  21.998  1.00  0.00     0.001 A 
ATOM     95  C   UNL A   1      33.085  17.596  24.097  1.00  0.00     0.056 A 
ATOM     96  C   UNL A   1      32.651  17.398  22.778  1.00  0.00     0.013 A 
BRANCH  95  97
ATOM     97  C   UNL A   1      33.497  16.417  24.941  1.00  0.00     0.416 C 
ATOM     98  F   UNL A   1      32.637  15.366  24.812  1.00  0.00    -0.166 F 
ATOM     99  F   UNL A   1      34.724  15.930  24.603  1.00  0.00    -0.166 F 
ATOM    100  F   UNL A   1      33.554  16.683  26.275  1.00  0.00    -0.166 F 
ENDBRANCH  95  97
ENDBRANCH  83  91
ENDBRANCH  77  80
ENDBRANCH  75  76
ENDBRANCH  74  75
ENDBRANCH  73  74
ENDBRANCH   1  73
TORSDOF 18
ENDMDL
MODEL 3
REMARK VINA RESULT:     -12.6      2.892      3.855
REMARK SMILES O=C(NCCCCCCNC(=O)c1cc(-c2cccc(C(F)(F)F)c2)nc2c(F)cccc12)c1ccc(-c2c3nc(c(-c4cccc(S(=O)(=O)[O-])c4F)c4ccc([nH]4)c(-c4cccc(S(=O)(=O)[O-])c4F)c4nc(c(-c5cccc(S(=O)(=O)[O-])c5F)c5ccc2[nH]5)C=C4)C=C3)cc1
REMARK SMILES IDX 6 1 5 2 4 3 3 4 1 5 2 6 34 8 35 9 96 10 36 11 95 12 37 13
REMARK SMILES IDX 38 14 39 15 89 16 40 17 94 18 88 19 90 20 41 21 93 22 87 23
REMARK SMILES IDX 86 24 42 26 74 27 54 28 73 29 55 30 58 31 72 32 91 33 56 34
REMARK SMILES IDX 57 35 71 37 92 38 59 39 43 40 44 41 52 42 45 43 47 44 53 45
REMARK SMILES IDX 46 46 48 47 49 48 50 49 51 50 75 51 76 52 84 53 77 54 79 55
REMARK SMILES IDX 85 56 78 57 80 58 81 59 82 60 83 61 60 62 61 63 69 64 62 65
REMARK SMILES IDX 64 66 70 67 63 68 65 69 66 70 67 71 68 72 7 73 8 74 9 75
REMARK SMILES IDX 10 76 11 77 12 79 13 80 14 81 33 82 15 83 27 84 32 85 26 86
REMARK SMILES IDX 28 87 31 88 29 89 30 90 16 91 17 92 25 93 18 94 20 95 19 96
REMARK SMILES IDX 21 97 22 98 23 99 24 100
REMARK H PARENT 3 7 90 25 58 36 10 78
REMARK Flexibility Score: inf
ROOT
ATOM      1  C   UNL A   1      34.744  32.054  28.865  1.00  0.00     0.002 C 
ENDROOT
BRANCH   1   2
ATOM      2  C   UNL A   1      33.682  33.024  28.351  1.00  0.00     0.021 C 
BRANCH   2   3
ATOM      3  C   UNL A   1      33.912  34.495  28.679  1.00  0.00     0.116 C 
BRANCH   3   4
ATOM      4  N   UNL A   1      33.088  34.975  29.774  1.00  0.00    -0.352 N 
ATOM      5  O   UNL A   1      32.417  35.228  31.910  1.00  0.00    -0.269 OA
ATOM      6  C   UNL A   1      33.288  34.852  31.129  1.00  0.00     0.251 C 
ATOM      7  H   UNL A   1      32.270  35.455  29.509  1.00  0.00     0.163 HD
BRANCH   6   8
ATOM      8  C   UNL A   1      34.532  34.231  31.641  1.00  0.00     0.039 A 
ATOM      9  C   UNL A   1      35.773  34.845  31.451  1.00  0.00     0.014 A 
ATOM     10  C   UNL A   1      34.457  33.005  32.307  1.00  0.00     0.014 A 
ATOM     11  C   UNL A   1      36.940  34.159  31.776  1.00  0.00     0.010 A 
ATOM     12  C   UNL A   1      35.628  32.357  32.712  1.00  0.00     0.010 A 
ATOM     13  C   UNL A   1      36.883  32.907  32.408  1.00  0.00    -0.014 A 
BRANCH  13  14
ATOM     14  C   UNL A   1      38.149  32.217  32.774  1.00  0.00     0.031 A 
ATOM     15  C   UNL A   1      38.862  32.516  34.066  1.00  0.00     0.074 A 
ATOM     16  C   UNL A   1      38.650  31.291  31.930  1.00  0.00     0.049 A 
ATOM     17  N   UNL A   1      39.930  31.946  34.566  1.00  0.00    -0.248 NA
ATOM     18  C   UNL A   1      38.317  33.596  34.904  1.00  0.00     0.031 C 
ATOM     19  C   UNL A   1      38.081  30.951  30.624  1.00  0.00     0.029 A 
ATOM     20  N   UNL A   1      39.737  30.463  32.045  1.00  0.00    -0.354 N 
ATOM     21  C   UNL A   1      40.212  32.623  35.746  1.00  0.00     0.074 A 
ATOM     22  C   UNL A   1      39.204  33.652  35.890  1.00  0.00     0.031 C 
ATOM     23  C   UNL A   1      38.797  29.957  30.078  1.00  0.00     0.029 A 
ATOM     24  C   UNL A   1      39.899  29.618  30.972  1.00  0.00     0.049 A 
ATOM     25  H   UNL A   1      40.344  30.473  32.821  1.00  0.00     0.167 HD
ATOM     26  C   UNL A   1      41.206  32.397  36.638  1.00  0.00     0.034 A 
ATOM     27  C   UNL A   1      40.826  28.671  30.734  1.00  0.00     0.034 A 
ATOM     28  C   UNL A   1      42.175  31.338  36.522  1.00  0.00     0.049 A 
ATOM     29  C   UNL A   1      41.882  28.406  31.768  1.00  0.00     0.074 A 
ATOM     30  C   UNL A   1      43.167  30.979  37.416  1.00  0.00     0.029 A 
ATOM     31  N   UNL A   1      42.275  30.471  35.446  1.00  0.00    -0.354 N 
ATOM     32  N   UNL A   1      42.039  28.959  32.946  1.00  0.00    -0.248 NA
ATOM     33  C   UNL A   1      42.873  27.367  31.453  1.00  0.00     0.031 C 
ATOM     34  C   UNL A   1      43.876  29.900  36.875  1.00  0.00     0.029 A 
ATOM     35  C   UNL A   1      43.317  29.582  35.648  1.00  0.00     0.049 A 
ATOM     36  H   UNL A   1      41.692  30.485  34.653  1.00  0.00     0.167 HD
ATOM     37  C   UNL A   1      43.128  28.319  33.524  1.00  0.00     0.074 A 
ATOM     38  C   UNL A   1      43.576  27.318  32.576  1.00  0.00     0.031 C 
ATOM     39  C   UNL A   1      43.718  28.554  34.721  1.00  0.00     0.034 A 
BRANCH  26  40
ATOM     40  C   UNL A   1      41.275  33.283  37.855  1.00  0.00     0.023 A 
ATOM     41  C   UNL A   1      40.533  32.943  39.004  1.00  0.00     0.012 A 
ATOM     42  C   UNL A   1      42.126  34.405  37.890  1.00  0.00     0.148 A 
ATOM     43  C   UNL A   1      40.615  33.719  40.160  1.00  0.00     0.002 A 
ATOM     44  C   UNL A   1      42.231  35.154  39.059  1.00  0.00     0.091 A 
ATOM     45  F   UNL A   1      42.807  34.729  36.781  1.00  0.00    -0.205 F 
ATOM     46  C   UNL A   1      41.472  34.818  40.190  1.00  0.00     0.022 A 
BRANCH  44  47
ATOM     47  S   UNL A   1      43.363  36.542  39.210  1.00  0.00     0.127 S 
ATOM     48  O   UNL A   1      42.805  37.484  38.243  1.00  0.00    -0.237 OA
ATOM     49  O   UNL A   1      43.190  36.934  40.611  1.00  0.00    -0.237 OA
ATOM     50  O   UNL A   1      44.682  36.014  38.892  1.00  0.00    -0.744 OA
ENDBRANCH  44  47
ENDBRANCH  26  40
BRANCH  27  51
ATOM     51  C   UNL A   1      40.737  27.850  29.494  1.00  0.00     0.023 A 
ATOM     52  C   UNL A   1      39.729  26.873  29.385  1.00  0.00     0.012 A 
ATOM     53  C   UNL A   1      41.602  28.067  28.405  1.00  0.00     0.148 A 
ATOM     54  C   UNL A   1      39.594  26.115  28.222  1.00  0.00     0.002 A 
ATOM     55  C   UNL A   1      41.427  27.350  27.227  1.00  0.00     0.091 A 
ATOM     56  F   UNL A   1      42.570  28.986  28.534  1.00  0.00    -0.205 F 
ATOM     57  C   UNL A   1      40.433  26.363  27.138  1.00  0.00     0.022 A 
BRANCH  55  58
ATOM     58  S   UNL A   1      42.368  27.715  25.742  1.00  0.00     0.127 S 
ATOM     59  O   UNL A   1      43.741  27.627  26.228  1.00  0.00    -0.237 OA
ATOM     60  O   UNL A   1      41.960  26.633  24.845  1.00  0.00    -0.237 OA
ATOM     61  O   UNL A   1      41.922  29.037  25.319  1.00  0.00    -0.744 OA
ENDBRANCH  55  58
ENDBRANCH  27  51
BRANCH  39  62
ATOM     62  C   UNL A   1      44.901  27.701  35.089  1.00  0.00     0.023 A 
ATOM     63  C   UNL A   1      46.204  28.169  34.825  1.00  0.00     0.012 A 
ATOM     64  C   UNL A   1      44.730  26.467  35.746  1.00  0.00     0.148 A 
ATOM     65  C   UNL A   1      47.316  27.407  35.180  1.00  0.00     0.002 A 
ATOM     66  C   UNL A   1      45.844  25.734  36.136  1.00  0.00     0.091 A 
ATOM     67  F   UNL A   1      43.482  26.026  35.967  1.00  0.00    -0.205 F 
ATOM     68  C   UNL A   1      47.137  26.197  35.845  1.00  0.00     0.022 A 
BRANCH  66  69
ATOM     69  S   UNL A   1      45.696  24.209  37.075  1.00  0.00     0.127 S 
ATOM     70  O   UNL A   1      47.096  23.842  37.274  1.00  0.00    -0.237 OA
ATOM     71  O   UNL A   1      45.002  24.649  38.287  1.00  0.00    -0.237 OA
ATOM     72  O   UNL A   1      44.918  23.308  36.235  1.00  0.00    -0.744 OA
ENDBRANCH  66  69
ENDBRANCH  39  62
ENDBRANCH  13  14
ENDBRANCH   6   8
ENDBRANCH   3   4
ENDBRANCH   2   3
ENDBRANCH   1   2
BRANCH   1  73
ATOM     73  C   UNL A   1      35.552  31.308  27.800  1.00  0.00     0.002 C 
BRANCH  73  74
ATOM     74  C   UNL A   1      35.465  29.779  27.823  1.00  0.00     0.021 C 
BRANCH  74  75
ATOM     75  C   UNL A   1      34.368  29.162  26.962  1.00  0.00     0.116 C 
BRANCH  75  76
ATOM     76  N   UNL A   1      33.148  28.893  27.704  1.00  0.00    -0.352 N 
ATOM     77  C   UNL A   1      32.108  28.064  27.367  1.00  0.00     0.252 C 
ATOM     78  H   UNL A   1      33.055  29.368  28.560  1.00  0.00     0.163 HD
ATOM     79  O   UNL A   1      31.127  27.955  28.095  1.00  0.00    -0.269 OA
BRANCH  77  80
ATOM     80  C   UNL A   1      32.140  27.342  26.082  1.00  0.00     0.051 A 
ATOM     81  C   UNL A   1      32.706  26.070  26.119  1.00  0.00     0.043 A 
ATOM     82  C   UNL A   1      31.627  27.886  24.885  1.00  0.00     0.016 A 
ATOM     83  C   UNL A   1      32.725  25.334  24.952  1.00  0.00     0.072 A 
ATOM     84  C   UNL A   1      31.642  27.038  23.761  1.00  0.00     0.107 A 
ATOM     85  C   UNL A   1      31.106  29.201  24.761  1.00  0.00     0.011 A 
ATOM     86  N   UNL A   1      32.193  25.803  23.801  1.00  0.00    -0.245 NA
ATOM     87  C   UNL A   1      31.057  27.516  22.586  1.00  0.00     0.149 A 
ATOM     88  C   UNL A   1      30.536  29.645  23.571  1.00  0.00     0.004 A 
ATOM     89  F   UNL A   1      31.015  26.728  21.497  1.00  0.00    -0.205 F 
ATOM     90  C   UNL A   1      30.497  28.789  22.482  1.00  0.00     0.041 A 
BRANCH  83  91
ATOM     91  C   UNL A   1      33.356  24.011  24.878  1.00  0.00     0.001 A 
ATOM     92  C   UNL A   1      32.702  22.857  25.335  1.00  0.00     0.010 A 
ATOM     93  C   UNL A   1      34.660  23.878  24.368  1.00  0.00     0.023 A 
ATOM     94  C   UNL A   1      33.331  21.611  25.296  1.00  0.00     0.001 A 
ATOM     95  C   UNL A   1      35.314  22.635  24.339  1.00  0.00     0.056 A 
ATOM     96  C   UNL A   1      34.632  21.502  24.807  1.00  0.00     0.013 A 
BRANCH  95  97
ATOM     97  C   UNL A   1      36.729  22.511  23.836  1.00  0.00     0.416 C 
ATOM     98  F   UNL A   1      37.277  21.299  24.138  1.00  0.00    -0.166 F 
ATOM     99  F   UNL A   1      36.820  22.628  22.482  1.00  0.00    -0.166 F 
ATOM    100  F   UNL A   1      37.584  23.438  24.350  1.00  0.00    -0.166 F 
ENDBRANCH  95  97
ENDBRANCH  83  91
ENDBRANCH  77  80
ENDBRANCH  75  76
ENDBRANCH  74  75
ENDBRANCH  73  74
ENDBRANCH   1  73
TORSDOF 18
ENDMDL
