MODEL 1
REMARK VINA RESULT:     -12.0      0.000      0.000
REMARK SMILES Cc1cc(C)c2c(c1)C=C(C(=O)NCCCCCCNC(=O)c1ccc(-c3c4nc(c(-c5cccc(S(=O)(=O)[O-])c5F)c5ccc([nH]5)c(-c5cccc(S(=O)(=O)[O-])c5F)c5nc(c(-c6cccc(S(=O)(=O)[O-])c6F)c6ccc3[nH]6)C=C5)C=C4)cc1)[C@@H](C(F)(F)F)O2
REMARK SMILES IDX 17 1 16 2 15 3 14 4 13 5 11 6 12 7 10 9 1 10 2 11 3 12 8 13
REMARK SMILES IDX 4 14 7 15 5 16 6 17 9 18 91 19 86 20 87 21 88 22 89 23 90 24
REMARK SMILES IDX 18 25 19 26 20 27 21 28 22 30 23 31 24 32 85 33 25 34 84 35
REMARK SMILES IDX 26 36 27 37 28 38 78 39 29 40 83 41 77 42 79 43 30 44 82 45
REMARK SMILES IDX 76 46 75 47 31 49 63 50 43 51 62 52 44 53 47 54 61 55 80 56
REMARK SMILES IDX 45 57 46 58 60 60 81 61 48 62 32 63 33 64 41 65 34 66 36 67
REMARK SMILES IDX 42 68 35 69 37 70 38 71 39 72 40 73 64 74 65 75 73 76 66 77
REMARK SMILES IDX 68 78 74 79 67 80 69 81 70 82 71 83 72 84 49 85 50 86 58 87
REMARK SMILES IDX 51 88 53 89 59 90 52 91 54 92 55 93 56 94 57 95
REMARK H PARENT 13 8 20 29 79 48 47 59
REMARK Flexibility Score: inf
ROOT
ATOM      1  C   UNL A   1      31.561  28.249  26.584  1.00  0.00     0.002 C 
ENDROOT
BRANCH   1   2
ATOM      2  C   UNL A   1      31.069  27.041  25.778  1.00  0.00     0.002 C 
BRANCH   2   3
ATOM      3  C   UNL A   1      30.878  27.289  24.280  1.00  0.00     0.021 C 
BRANCH   3   4
ATOM      4  C   UNL A   1      30.700  26.015  23.460  1.00  0.00     0.116 C 
BRANCH   4   5
ATOM      5  N   UNL A   1      31.594  25.980  22.316  1.00  0.00    -0.352 N 
ATOM      6  C   UNL A   1      32.672  25.263  21.921  1.00  0.00     0.251 C 
ATOM      7  O   UNL A   1      33.125  25.566  20.811  1.00  0.00    -0.270 OA
ATOM      8  H   UNL A   1      31.350  26.661  21.648  1.00  0.00     0.163 HD
BRANCH   6   9
ATOM      9  C   UNL A   1      33.324  24.174  22.710  1.00  0.00     0.067 C 
ATOM     10  C   UNL A   1      32.330  18.342  24.514  1.00  0.00     0.044 C 
ATOM     11  C   UNL A   1      33.108  19.610  24.323  1.00  0.00    -0.050 A 
ATOM     12  C   UNL A   1      34.385  19.752  24.883  1.00  0.00     0.010 A 
ATOM     13  C   UNL A   1      32.544  20.681  23.616  1.00  0.00     0.015 A 
ATOM     14  C   UNL A   1      35.109  20.940  24.724  1.00  0.00    -0.008 A 
ATOM     15  C   UNL A   1      33.252  21.876  23.456  1.00  0.00     0.018 A 
ATOM     16  C   UNL A   1      36.482  21.086  25.318  1.00  0.00     0.048 C 
ATOM     17  C   UNL A   1      34.525  21.997  24.016  1.00  0.00     0.130 A 
ATOM     18  C   UNL A   1      32.697  22.984  22.686  1.00  0.00     0.025 C 
ATOM     19  O   UNL A   1      35.277  23.126  23.861  1.00  0.00    -0.475 OA
ATOM     20  C   UNL A   1      34.571  24.348  23.531  1.00  0.00     0.314 C 
BRANCH  20  21
ATOM     21  C   UNL A   1      34.324  25.154  24.819  1.00  0.00     0.429 C 
ATOM     22  F   UNL A   1      34.231  26.477  24.543  1.00  0.00    -0.167 F 
ATOM     23  F   UNL A   1      33.166  24.808  25.432  1.00  0.00    -0.167 F 
ATOM     24  F   UNL A   1      35.311  24.993  25.730  1.00  0.00    -0.167 F 
ENDBRANCH  20  21
ENDBRANCH   6   9
ENDBRANCH   4   5
ENDBRANCH   3   4
ENDBRANCH   2   3
ENDBRANCH   1   2
BRANCH   1  25
ATOM     25  C   UNL A   1      33.006  28.162  27.091  1.00  0.00     0.021 C 
BRANCH  25  26
ATOM     26  C   UNL A   1      33.984  29.111  26.405  1.00  0.00     0.116 C 
BRANCH  26  27
ATOM     27  N   UNL A   1      33.920  30.446  26.973  1.00  0.00    -0.352 N 
ATOM     28  C   UNL A   1      34.714  31.026  27.924  1.00  0.00     0.251 C 
ATOM     29  H   UNL A   1      33.198  31.018  26.624  1.00  0.00     0.163 HD
ATOM     30  O   UNL A   1      34.357  32.079  28.456  1.00  0.00    -0.269 OA
BRANCH  28  31
ATOM     31  C   UNL A   1      35.999  30.405  28.307  1.00  0.00     0.039 A 
ATOM     32  C   UNL A   1      36.065  29.662  29.490  1.00  0.00     0.014 A 
ATOM     33  C   UNL A   1      37.152  30.614  27.544  1.00  0.00     0.014 A 
ATOM     34  C   UNL A   1      37.282  29.111  29.898  1.00  0.00     0.010 A 
ATOM     35  C   UNL A   1      38.351  30.017  27.920  1.00  0.00     0.010 A 
ATOM     36  C   UNL A   1      38.433  29.283  29.113  1.00  0.00    -0.014 A 
BRANCH  36  37
ATOM     37  C   UNL A   1      39.751  28.760  29.546  1.00  0.00     0.031 A 
ATOM     38  C   UNL A   1      40.514  29.479  30.625  1.00  0.00     0.074 A 
ATOM     39  C   UNL A   1      40.290  27.693  28.927  1.00  0.00     0.049 A 
ATOM     40  N   UNL A   1      41.724  29.259  31.068  1.00  0.00    -0.248 NA
ATOM     41  C   UNL A   1      39.832  30.610  31.277  1.00  0.00     0.031 C 
ATOM     42  C   UNL A   1      39.660  26.936  27.845  1.00  0.00     0.029 A 
ATOM     43  N   UNL A   1      41.504  27.078  29.103  1.00  0.00    -0.354 N 
ATOM     44  C   UNL A   1      41.962  30.241  32.022  1.00  0.00     0.074 A 
ATOM     45  C   UNL A   1      40.783  31.077  32.074  1.00  0.00     0.031 C 
ATOM     46  C   UNL A   1      40.493  25.960  27.451  1.00  0.00     0.029 A 
ATOM     47  C   UNL A   1      41.727  26.042  28.228  1.00  0.00     0.049 A 
ATOM     48  H   UNL A   1      42.153  27.353  29.789  1.00  0.00     0.167 HD
ATOM     49  C   UNL A   1      43.050  30.411  32.809  1.00  0.00     0.034 A 
ATOM     50  C   UNL A   1      42.810  25.255  28.063  1.00  0.00     0.034 A 
ATOM     51  C   UNL A   1      44.201  29.548  32.787  1.00  0.00     0.049 A 
ATOM     52  C   UNL A   1      44.004  25.462  28.957  1.00  0.00     0.074 A 
ATOM     53  C   UNL A   1      45.330  29.602  33.585  1.00  0.00     0.029 A 
ATOM     54  N   UNL A   1      44.367  28.473  31.928  1.00  0.00    -0.354 N 
ATOM     55  N   UNL A   1      44.169  26.324  29.930  1.00  0.00    -0.248 NA
ATOM     56  C   UNL A   1      45.154  24.569  28.744  1.00  0.00     0.031 C 
ATOM     57  C   UNL A   1      46.186  28.565  33.198  1.00  0.00     0.029 A 
ATOM     58  C   UNL A   1      45.584  27.858  32.170  1.00  0.00     0.049 A 
ATOM     59  H   UNL A   1      43.717  28.190  31.245  1.00  0.00     0.167 HD
ATOM     60  C   UNL A   1      45.429  26.068  30.459  1.00  0.00     0.074 A 
ATOM     61  C   UNL A   1      45.970  24.946  29.720  1.00  0.00     0.031 C 
ATOM     62  C   UNL A   1      46.091  26.717  31.449  1.00  0.00     0.034 A 
BRANCH  49  63
ATOM     63  C   UNL A   1      43.023  31.538  33.808  1.00  0.00     0.023 A 
ATOM     64  C   UNL A   1      43.504  32.808  33.428  1.00  0.00     0.012 A 
ATOM     65  C   UNL A   1      42.466  31.366  35.090  1.00  0.00     0.148 A 
ATOM     66  C   UNL A   1      43.458  33.881  34.316  1.00  0.00     0.002 A 
ATOM     67  C   UNL A   1      42.384  32.453  35.955  1.00  0.00     0.091 A 
ATOM     68  F   UNL A   1      42.034  30.147  35.442  1.00  0.00    -0.205 F 
ATOM     69  C   UNL A   1      42.888  33.707  35.574  1.00  0.00     0.022 A 
BRANCH  67  70
ATOM     70  S   UNL A   1      41.600  32.353  37.569  1.00  0.00     0.127 S 
ATOM     71  O   UNL A   1      41.728  33.731  38.044  1.00  0.00    -0.237 OA
ATOM     72  O   UNL A   1      40.236  31.953  37.222  1.00  0.00    -0.237 OA
ATOM     73  O   UNL A   1      42.353  31.362  38.323  1.00  0.00    -0.744 OA
ENDBRANCH  67  70
ENDBRANCH  49  63
BRANCH  50  74
ATOM     74  C   UNL A   1      42.781  24.157  27.056  1.00  0.00     0.023 A 
ATOM     75  C   UNL A   1      43.461  24.331  25.834  1.00  0.00     0.012 A 
ATOM     76  C   UNL A   1      42.135  22.932  27.313  1.00  0.00     0.148 A 
ATOM     77  C   UNL A   1      43.480  23.316  24.879  1.00  0.00     0.002 A 
ATOM     78  C   UNL A   1      42.206  21.904  26.380  1.00  0.00     0.091 A 
ATOM     79  F   UNL A   1      41.481  22.791  28.474  1.00  0.00    -0.205 F 
ATOM     80  C   UNL A   1      42.863  22.098  25.156  1.00  0.00     0.022 A 
BRANCH  78  81
ATOM     81  S   UNL A   1      41.562  20.258  26.709  1.00  0.00     0.127 S 
ATOM     82  O   UNL A   1      40.145  20.532  26.941  1.00  0.00    -0.237 OA
ATOM     83  O   UNL A   1      41.856  19.564  25.452  1.00  0.00    -0.237 OA
ATOM     84  O   UNL A   1      42.307  19.765  27.855  1.00  0.00    -0.744 OA
ENDBRANCH  78  81
ENDBRANCH  50  74
BRANCH  62  85
ATOM     85  C   UNL A   1      47.480  26.241  31.789  1.00  0.00     0.023 A 
ATOM     86  C   UNL A   1      47.661  25.360  32.874  1.00  0.00     0.012 A 
ATOM     87  C   UNL A   1      48.588  26.595  30.995  1.00  0.00     0.148 A 
ATOM     88  C   UNL A   1      48.927  24.864  33.182  1.00  0.00     0.002 A 
ATOM     89  C   UNL A   1      49.839  26.058  31.279  1.00  0.00     0.091 A 
ATOM     90  F   UNL A   1      48.402  27.449  29.978  1.00  0.00    -0.205 F 
ATOM     91  C   UNL A   1      50.012  25.203  32.378  1.00  0.00     0.022 A 
BRANCH  89  92
ATOM     92  S   UNL A   1      51.270  26.360  30.233  1.00  0.00     0.127 S 
ATOM     93  O   UNL A   1      51.317  27.821  30.208  1.00  0.00    -0.237 OA
ATOM     94  O   UNL A   1      52.352  25.729  30.992  1.00  0.00    -0.237 OA
ATOM     95  O   UNL A   1      50.975  25.716  28.961  1.00  0.00    -0.744 OA
ENDBRANCH  89  92
ENDBRANCH  62  85
ENDBRANCH  36  37
ENDBRANCH  28  31
ENDBRANCH  26  27
ENDBRANCH  25  26
ENDBRANCH   1  25
TORSDOF 17
ENDMDL
MODEL 2
REMARK VINA RESULT:     -11.8      4.369      7.646
REMARK SMILES Cc1cc(C)c2c(c1)C=C(C(=O)NCCCCCCNC(=O)c1ccc(-c3c4nc(c(-c5cccc(S(=O)(=O)[O-])c5F)c5ccc([nH]5)c(-c5cccc(S(=O)(=O)[O-])c5F)c5nc(c(-c6cccc(S(=O)(=O)[O-])c6F)c6ccc3[nH]6)C=C5)C=C4)cc1)[C@@H](C(F)(F)F)O2
REMARK SMILES IDX 17 1 16 2 15 3 14 4 13 5 11 6 12 7 10 9 1 10 2 11 3 12 8 13
REMARK SMILES IDX 4 14 7 15 5 16 6 17 9 18 91 19 86 20 87 21 88 22 89 23 90 24
REMARK SMILES IDX 18 25 19 26 20 27 21 28 22 30 23 31 24 32 85 33 25 34 84 35
REMARK SMILES IDX 26 36 27 37 28 38 78 39 29 40 83 41 77 42 79 43 30 44 82 45
REMARK SMILES IDX 76 46 75 47 31 49 63 50 43 51 62 52 44 53 47 54 61 55 80 56
REMARK SMILES IDX 45 57 46 58 60 60 81 61 48 62 32 63 33 64 41 65 34 66 36 67
REMARK SMILES IDX 42 68 35 69 37 70 38 71 39 72 40 73 64 74 65 75 73 76 66 77
REMARK SMILES IDX 68 78 74 79 67 80 69 81 70 82 71 83 72 84 49 85 50 86 58 87
REMARK SMILES IDX 51 88 53 89 59 90 52 91 54 92 55 93 56 94 57 95
REMARK H PARENT 13 8 20 29 79 48 47 59
REMARK Flexibility Score: inf
ROOT
ATOM      1  C   UNL A   1      34.914  22.324  23.809  1.00  0.00     0.002 C 
ENDROOT
BRANCH   1   2
ATOM      2  C   UNL A   1      34.222  21.345  24.766  1.00  0.00     0.002 C 
BRANCH   2   3
ATOM      3  C   UNL A   1      32.751  21.056  24.453  1.00  0.00     0.021 C 
BRANCH   3   4
ATOM      4  C   UNL A   1      31.881  22.306  24.366  1.00  0.00     0.116 C 
BRANCH   4   5
ATOM      5  N   UNL A   1      31.141  22.534  25.595  1.00  0.00    -0.352 N 
ATOM      6  C   UNL A   1      30.712  23.600  26.311  1.00  0.00     0.251 C 
ATOM      7  O   UNL A   1      30.064  23.321  27.327  1.00  0.00    -0.270 OA
ATOM      8  H   UNL A   1      30.880  21.685  26.021  1.00  0.00     0.163 HD
BRANCH   6   9
ATOM      9  C   UNL A   1      30.962  25.031  25.967  1.00  0.00     0.067 C 
ATOM     10  C   UNL A   1      28.938  29.434  22.123  1.00  0.00     0.044 C 
ATOM     11  C   UNL A   1      29.720  28.858  23.265  1.00  0.00    -0.050 A 
ATOM     12  C   UNL A   1      30.652  29.643  23.957  1.00  0.00     0.010 A 
ATOM     13  C   UNL A   1      29.553  27.513  23.624  1.00  0.00     0.015 A 
ATOM     14  C   UNL A   1      31.398  29.106  25.013  1.00  0.00    -0.008 A 
ATOM     15  C   UNL A   1      30.297  26.961  24.671  1.00  0.00     0.018 A 
ATOM     16  C   UNL A   1      32.390  29.954  25.760  1.00  0.00     0.048 C 
ATOM     17  C   UNL A   1      31.216  27.760  25.352  1.00  0.00     0.130 A 
ATOM     18  C   UNL A   1      30.104  25.575  25.084  1.00  0.00     0.025 C 
ATOM     19  O   UNL A   1      31.943  27.286  26.406  1.00  0.00    -0.475 OA
ATOM     20  C   UNL A   1      32.104  25.849  26.502  1.00  0.00     0.314 C 
BRANCH  20  21
ATOM     21  C   UNL A   1      33.457  25.449  25.885  1.00  0.00     0.429 C 
ATOM     22  F   UNL A   1      34.367  26.439  26.049  1.00  0.00    -0.167 F 
ATOM     23  F   UNL A   1      33.984  24.344  26.465  1.00  0.00    -0.167 F 
ATOM     24  F   UNL A   1      33.367  25.189  24.560  1.00  0.00    -0.167 F 
ENDBRANCH  20  21
ENDBRANCH   6   9
ENDBRANCH   4   5
ENDBRANCH   3   4
ENDBRANCH   2   3
ENDBRANCH   1   2
BRANCH   1  25
ATOM     25  C   UNL A   1      36.369  22.664  24.150  1.00  0.00     0.021 C 
BRANCH  25  26
ATOM     26  C   UNL A   1      36.739  22.494  25.621  1.00  0.00     0.116 C 
BRANCH  26  27
ATOM     27  N   UNL A   1      37.684  21.408  25.812  1.00  0.00    -0.352 N 
ATOM     28  C   UNL A   1      39.012  21.457  26.135  1.00  0.00     0.251 C 
ATOM     29  H   UNL A   1      37.316  20.503  25.689  1.00  0.00     0.163 HD
ATOM     30  O   UNL A   1      39.707  20.446  26.011  1.00  0.00    -0.269 OA
BRANCH  28  31
ATOM     31  C   UNL A   1      39.615  22.708  26.639  1.00  0.00     0.039 A 
ATOM     32  C   UNL A   1      39.190  23.928  26.103  1.00  0.00     0.014 A 
ATOM     33  C   UNL A   1      40.645  22.677  27.584  1.00  0.00     0.014 A 
ATOM     34  C   UNL A   1      39.784  25.119  26.529  1.00  0.00     0.010 A 
ATOM     35  C   UNL A   1      41.197  23.867  28.050  1.00  0.00     0.010 A 
ATOM     36  C   UNL A   1      40.790  25.095  27.508  1.00  0.00    -0.014 A 
BRANCH  36  37
ATOM     37  C   UNL A   1      41.480  26.335  27.939  1.00  0.00     0.031 A 
ATOM     38  C   UNL A   1      40.703  27.398  28.667  1.00  0.00     0.074 A 
ATOM     39  C   UNL A   1      42.771  26.535  27.618  1.00  0.00     0.049 A 
ATOM     40  N   UNL A   1      41.081  28.596  29.028  1.00  0.00    -0.248 NA
ATOM     41  C   UNL A   1      39.308  27.078  29.015  1.00  0.00     0.031 C 
ATOM     42  C   UNL A   1      43.616  25.593  26.885  1.00  0.00     0.029 A 
ATOM     43  N   UNL A   1      43.590  27.613  27.844  1.00  0.00    -0.354 N 
ATOM     44  C   UNL A   1      39.967  29.185  29.613  1.00  0.00     0.074 A 
ATOM     45  C   UNL A   1      38.888  28.225  29.532  1.00  0.00     0.031 C 
ATOM     46  C   UNL A   1      44.834  26.133  26.719  1.00  0.00     0.029 A 
ATOM     47  C   UNL A   1      44.846  27.472  27.303  1.00  0.00     0.049 A 
ATOM     48  H   UNL A   1      43.306  28.411  28.345  1.00  0.00     0.167 HD
ATOM     49  C   UNL A   1      39.859  30.402  30.195  1.00  0.00     0.034 A 
ATOM     50  C   UNL A   1      45.886  28.330  27.272  1.00  0.00     0.034 A 
ATOM     51  C   UNL A   1      40.947  31.335  30.315  1.00  0.00     0.049 A 
ATOM     52  C   UNL A   1      45.741  29.675  27.933  1.00  0.00     0.074 A 
ATOM     53  C   UNL A   1      40.955  32.570  30.939  1.00  0.00     0.029 A 
ATOM     54  N   UNL A   1      42.221  31.134  29.806  1.00  0.00    -0.354 N 
ATOM     55  N   UNL A   1      44.715  30.172  28.580  1.00  0.00    -0.248 NA
ATOM     56  C   UNL A   1      46.908  30.569  27.881  1.00  0.00     0.031 C 
ATOM     57  C   UNL A   1      42.233  33.122  30.795  1.00  0.00     0.029 A 
ATOM     58  C   UNL A   1      43.024  32.224  30.095  1.00  0.00     0.049 A 
ATOM     59  H   UNL A   1      42.512  30.334  29.312  1.00  0.00     0.167 HD
ATOM     60  C   UNL A   1      45.115  31.426  29.028  1.00  0.00     0.074 A 
ATOM     61  C   UNL A   1      46.492  31.596  28.609  1.00  0.00     0.031 C 
ATOM     62  C   UNL A   1      44.403  32.362  29.703  1.00  0.00     0.034 A 
BRANCH  49  63
ATOM     63  C   UNL A   1      38.533  30.771  30.806  1.00  0.00     0.023 A 
ATOM     64  C   UNL A   1      38.309  30.514  32.175  1.00  0.00     0.012 A 
ATOM     65  C   UNL A   1      37.538  31.428  30.057  1.00  0.00     0.148 A 
ATOM     66  C   UNL A   1      37.107  30.878  32.780  1.00  0.00     0.002 A 
ATOM     67  C   UNL A   1      36.360  31.827  30.678  1.00  0.00     0.091 A 
ATOM     68  F   UNL A   1      37.760  31.645  28.752  1.00  0.00    -0.205 F 
ATOM     69  C   UNL A   1      36.139  31.544  32.036  1.00  0.00     0.022 A 
BRANCH  67  70
ATOM     70  S   UNL A   1      35.079  32.758  29.828  1.00  0.00     0.127 S 
ATOM     71  O   UNL A   1      34.760  31.868  28.711  1.00  0.00    -0.237 OA
ATOM     72  O   UNL A   1      34.037  32.849  30.851  1.00  0.00    -0.237 OA
ATOM     73  O   UNL A   1      35.683  34.029  29.458  1.00  0.00    -0.744 OA
ENDBRANCH  67  70
ENDBRANCH  49  63
BRANCH  50  74
ATOM     74  C   UNL A   1      47.174  27.911  26.650  1.00  0.00     0.023 A 
ATOM     75  C   UNL A   1      48.211  27.438  27.479  1.00  0.00     0.012 A 
ATOM     76  C   UNL A   1      47.364  27.928  25.255  1.00  0.00     0.148 A 
ATOM     77  C   UNL A   1      49.421  27.012  26.931  1.00  0.00     0.002 A 
ATOM     78  C   UNL A   1      48.550  27.449  24.712  1.00  0.00     0.091 A 
ATOM     79  F   UNL A   1      46.371  28.395  24.485  1.00  0.00    -0.205 F 
ATOM     80  C   UNL A   1      49.586  27.005  25.548  1.00  0.00     0.022 A 
BRANCH  78  81
ATOM     81  S   UNL A   1      48.798  27.272  22.941  1.00  0.00     0.127 S 
ATOM     82  O   UNL A   1      50.252  27.379  22.830  1.00  0.00    -0.237 OA
ATOM     83  O   UNL A   1      48.261  25.931  22.695  1.00  0.00    -0.237 OA
ATOM     84  O   UNL A   1      48.037  28.347  22.327  1.00  0.00    -0.744 OA
ENDBRANCH  78  81
ENDBRANCH  50  74
BRANCH  62  85
ATOM     85  C   UNL A   1      45.092  33.664  30.025  1.00  0.00     0.023 A 
ATOM     86  C   UNL A   1      45.818  33.782  31.227  1.00  0.00     0.012 A 
ATOM     87  C   UNL A   1      45.090  34.736  29.111  1.00  0.00     0.148 A 
ATOM     88  C   UNL A   1      46.505  34.957  31.529  1.00  0.00     0.002 A 
ATOM     89  C   UNL A   1      45.818  35.887  29.397  1.00  0.00     0.091 A 
ATOM     90  F   UNL A   1      44.379  34.615  27.981  1.00  0.00    -0.205 F 
ATOM     91  C   UNL A   1      46.515  36.003  30.610  1.00  0.00     0.022 A 
BRANCH  89  92
ATOM     92  S   UNL A   1      45.969  37.240  28.224  1.00  0.00     0.127 S 
ATOM     93  O   UNL A   1      44.630  37.824  28.270  1.00  0.00    -0.237 OA
ATOM     94  O   UNL A   1      47.015  38.066  28.831  1.00  0.00    -0.237 OA
ATOM     95  O   UNL A   1      46.348  36.627  26.959  1.00  0.00    -0.744 OA
ENDBRANCH  89  92
ENDBRANCH  62  85
ENDBRANCH  36  37
ENDBRANCH  28  31
ENDBRANCH  26  27
ENDBRANCH  25  26
ENDBRANCH   1  25
TORSDOF 17
ENDMDL
MODEL 3
REMARK VINA RESULT:     -11.7      1.955      2.362
REMARK SMILES Cc1cc(C)c2c(c1)C=C(C(=O)NCCCCCCNC(=O)c1ccc(-c3c4nc(c(-c5cccc(S(=O)(=O)[O-])c5F)c5ccc([nH]5)c(-c5cccc(S(=O)(=O)[O-])c5F)c5nc(c(-c6cccc(S(=O)(=O)[O-])c6F)c6ccc3[nH]6)C=C5)C=C4)cc1)[C@@H](C(F)(F)F)O2
REMARK SMILES IDX 17 1 16 2 15 3 14 4 13 5 11 6 12 7 10 9 1 10 2 11 3 12 8 13
REMARK SMILES IDX 4 14 7 15 5 16 6 17 9 18 91 19 86 20 87 21 88 22 89 23 90 24
REMARK SMILES IDX 18 25 19 26 20 27 21 28 22 30 23 31 24 32 85 33 25 34 84 35
REMARK SMILES IDX 26 36 27 37 28 38 78 39 29 40 83 41 77 42 79 43 30 44 82 45
REMARK SMILES IDX 76 46 75 47 31 49 63 50 43 51 62 52 44 53 47 54 61 55 80 56
REMARK SMILES IDX 45 57 46 58 60 60 81 61 48 62 32 63 33 64 41 65 34 66 36 67
REMARK SMILES IDX 42 68 35 69 37 70 38 71 39 72 40 73 64 74 65 75 73 76 66 77
REMARK SMILES IDX 68 78 74 79 67 80 69 81 70 82 71 83 72 84 49 85 50 86 58 87
REMARK SMILES IDX 51 88 53 89 59 90 52 91 54 92 55 93 56 94 57 95
REMARK H PARENT 13 8 20 29 79 48 47 59
REMARK Flexibility Score: inf
ROOT
ATOM      1  C   UNL A   1      31.530  28.282  26.416  1.00  0.00     0.002 C 
ENDROOT
BRANCH   1   2
ATOM      2  C   UNL A   1      31.085  27.022  25.661  1.00  0.00     0.002 C 
BRANCH   2   3
ATOM      3  C   UNL A   1      30.707  27.239  24.194  1.00  0.00     0.021 C 
BRANCH   3   4
ATOM      4  C   UNL A   1      30.646  25.952  23.376  1.00  0.00     0.116 C 
BRANCH   4   5
ATOM      5  N   UNL A   1      31.601  25.963  22.281  1.00  0.00    -0.352 N 
ATOM      6  C   UNL A   1      32.715  25.279  21.930  1.00  0.00     0.251 C 
ATOM      7  O   UNL A   1      33.219  25.617  20.853  1.00  0.00    -0.270 OA
ATOM      8  H   UNL A   1      31.378  26.654  21.615  1.00  0.00     0.163 HD
BRANCH   6   9
ATOM      9  C   UNL A   1      33.348  24.187  22.728  1.00  0.00     0.067 C 
ATOM     10  C   UNL A   1      32.282  18.369  24.537  1.00  0.00     0.044 C 
ATOM     11  C   UNL A   1      33.073  19.629  24.351  1.00  0.00    -0.050 A 
ATOM     12  C   UNL A   1      34.345  19.762  24.926  1.00  0.00     0.010 A 
ATOM     13  C   UNL A   1      32.527  20.703  23.635  1.00  0.00     0.015 A 
ATOM     14  C   UNL A   1      35.081  20.943  24.771  1.00  0.00    -0.008 A 
ATOM     15  C   UNL A   1      33.247  21.891  23.480  1.00  0.00     0.018 A 
ATOM     16  C   UNL A   1      36.449  21.078  25.380  1.00  0.00     0.048 C 
ATOM     17  C   UNL A   1      34.514  22.003  24.054  1.00  0.00     0.130 A 
ATOM     18  C   UNL A   1      32.711  23.002  22.701  1.00  0.00     0.025 C 
ATOM     19  O   UNL A   1      35.279  23.124  23.904  1.00  0.00    -0.475 OA
ATOM     20  C   UNL A   1      34.587  24.352  23.563  1.00  0.00     0.314 C 
BRANCH  20  21
ATOM     21  C   UNL A   1      34.332  25.163  24.846  1.00  0.00     0.429 C 
ATOM     22  F   UNL A   1      33.204  24.736  25.464  1.00  0.00    -0.167 F 
ATOM     23  F   UNL A   1      35.334  25.035  25.748  1.00  0.00    -0.167 F 
ATOM     24  F   UNL A   1      34.191  26.487  24.604  1.00  0.00    -0.167 F 
ENDBRANCH  20  21
ENDBRANCH   6   9
ENDBRANCH   4   5
ENDBRANCH   3   4
ENDBRANCH   2   3
ENDBRANCH   1   2
BRANCH   1  25
ATOM     25  C   UNL A   1      32.861  28.167  27.167  1.00  0.00     0.021 C 
BRANCH  25  26
ATOM     26  C   UNL A   1      34.021  28.929  26.533  1.00  0.00     0.116 C 
BRANCH  26  27
ATOM     27  N   UNL A   1      33.953  30.350  26.829  1.00  0.00    -0.352 N 
ATOM     28  C   UNL A   1      34.699  31.093  27.701  1.00  0.00     0.251 C 
ATOM     29  H   UNL A   1      33.269  30.851  26.329  1.00  0.00     0.163 HD
ATOM     30  O   UNL A   1      34.333  32.233  27.997  1.00  0.00    -0.269 OA
BRANCH  28  31
ATOM     31  C   UNL A   1      35.942  30.544  28.282  1.00  0.00     0.039 A 
ATOM     32  C   UNL A   1      37.155  30.771  27.622  1.00  0.00     0.014 A 
ATOM     33  C   UNL A   1      35.906  29.749  29.431  1.00  0.00     0.014 A 
ATOM     34  C   UNL A   1      38.334  30.217  28.126  1.00  0.00     0.010 A 
ATOM     35  C   UNL A   1      37.089  29.246  29.965  1.00  0.00     0.010 A 
ATOM     36  C   UNL A   1      38.308  29.453  29.303  1.00  0.00    -0.014 A 
BRANCH  36  37
ATOM     37  C   UNL A   1      39.532  28.804  29.832  1.00  0.00     0.031 A 
ATOM     38  C   UNL A   1      40.196  29.368  31.059  1.00  0.00     0.074 A 
ATOM     39  C   UNL A   1      40.083  27.765  29.177  1.00  0.00     0.049 A 
ATOM     40  N   UNL A   1      41.328  29.027  31.615  1.00  0.00    -0.248 NA
ATOM     41  C   UNL A   1      39.503  30.477  31.737  1.00  0.00     0.031 C 
ATOM     42  C   UNL A   1      39.549  27.156  27.958  1.00  0.00     0.029 A 
ATOM     43  N   UNL A   1      41.230  27.057  29.430  1.00  0.00    -0.354 N 
ATOM     44  C   UNL A   1      41.502  29.897  32.685  1.00  0.00     0.074 A 
ATOM     45  C   UNL A   1      40.374  30.803  32.682  1.00  0.00     0.031 C 
ATOM     46  C   UNL A   1      40.369  26.167  27.568  1.00  0.00     0.029 A 
ATOM     47  C   UNL A   1      41.501  26.094  28.488  1.00  0.00     0.049 A 
ATOM     48  H   UNL A   1      41.805  27.223  30.212  1.00  0.00     0.167 HD
ATOM     49  C   UNL A   1      42.493  29.920  33.606  1.00  0.00     0.034 A 
ATOM     50  C   UNL A   1      42.550  25.254  28.373  1.00  0.00     0.034 A 
ATOM     51  C   UNL A   1      43.588  28.988  33.632  1.00  0.00     0.049 A 
ATOM     52  C   UNL A   1      43.636  25.297  29.416  1.00  0.00     0.074 A 
ATOM     53  C   UNL A   1      44.612  28.891  34.558  1.00  0.00     0.029 A 
ATOM     54  N   UNL A   1      43.799  27.989  32.695  1.00  0.00    -0.354 N 
ATOM     55  N   UNL A   1      43.727  26.052  30.483  1.00  0.00    -0.248 NA
ATOM     56  C   UNL A   1      44.751  24.353  29.250  1.00  0.00     0.031 C 
ATOM     57  C   UNL A   1      45.450  27.839  34.172  1.00  0.00     0.029 A 
ATOM     58  C   UNL A   1      44.940  27.273  33.015  1.00  0.00     0.049 A 
ATOM     59  H   UNL A   1      43.222  27.814  31.917  1.00  0.00     0.167 HD
ATOM     60  C   UNL A   1      44.897  25.664  31.127  1.00  0.00     0.074 A 
ATOM     61  C   UNL A   1      45.461  24.581  30.347  1.00  0.00     0.031 C 
ATOM     62  C   UNL A   1      45.468  26.173  32.248  1.00  0.00     0.034 A 
BRANCH  49  63
ATOM     63  C   UNL A   1      42.406  30.949  34.703  1.00  0.00     0.023 A 
ATOM     64  C   UNL A   1      41.775  30.609  35.918  1.00  0.00     0.012 A 
ATOM     65  C   UNL A   1      43.000  32.218  34.566  1.00  0.00     0.148 A 
ATOM     66  C   UNL A   1      41.711  31.525  36.967  1.00  0.00     0.002 A 
ATOM     67  C   UNL A   1      42.970  33.110  35.632  1.00  0.00     0.091 A 
ATOM     68  F   UNL A   1      43.576  32.531  33.396  1.00  0.00    -0.205 F 
ATOM     69  C   UNL A   1      42.318  32.770  36.828  1.00  0.00     0.022 A 
BRANCH  67  70
ATOM     70  S   UNL A   1      43.787  34.711  35.584  1.00  0.00     0.127 S 
ATOM     71  O   UNL A   1      45.175  34.325  35.325  1.00  0.00    -0.237 OA
ATOM     72  O   UNL A   1      43.116  35.362  34.458  1.00  0.00    -0.237 OA
ATOM     73  O   UNL A   1      43.543  35.327  36.879  1.00  0.00    -0.744 OA
ENDBRANCH  67  70
ENDBRANCH  49  63
BRANCH  50  74
ATOM     74  C   UNL A   1      42.584  24.259  27.264  1.00  0.00     0.023 A 
ATOM     75  C   UNL A   1      43.302  24.566  26.091  1.00  0.00     0.012 A 
ATOM     76  C   UNL A   1      41.960  23.001  27.378  1.00  0.00     0.148 A 
ATOM     77  C   UNL A   1      43.379  23.648  25.044  1.00  0.00     0.002 A 
ATOM     78  C   UNL A   1      42.089  22.070  26.354  1.00  0.00     0.091 A 
ATOM     79  F   UNL A   1      41.270  22.734  28.495  1.00  0.00    -0.205 F 
ATOM     80  C   UNL A   1      42.784  22.397  25.179  1.00  0.00     0.022 A 
BRANCH  78  81
ATOM     81  S   UNL A   1      41.476  20.386  26.499  1.00  0.00     0.127 S 
ATOM     82  O   UNL A   1      42.144  19.728  25.377  1.00  0.00    -0.237 OA
ATOM     83  O   UNL A   1      41.972  19.999  27.822  1.00  0.00    -0.237 OA
ATOM     84  O   UNL A   1      40.029  20.484  26.404  1.00  0.00    -0.744 OA
ENDBRANCH  78  81
ENDBRANCH  50  74
BRANCH  62  85
ATOM     85  C   UNL A   1      46.776  25.575  32.697  1.00  0.00     0.023 A 
ATOM     86  C   UNL A   1      47.984  26.125  32.225  1.00  0.00     0.012 A 
ATOM     87  C   UNL A   1      46.815  24.530  33.642  1.00  0.00     0.148 A 
ATOM     88  C   UNL A   1      49.211  25.625  32.661  1.00  0.00     0.002 A 
ATOM     89  C   UNL A   1      48.042  24.069  34.109  1.00  0.00     0.091 A 
ATOM     90  F   UNL A   1      45.657  24.005  34.067  1.00  0.00    -0.205 F 
ATOM     91  C   UNL A   1      49.239  24.607  33.611  1.00  0.00     0.022 A 
BRANCH  89  92
ATOM     92  S   UNL A   1      48.168  22.833  35.407  1.00  0.00     0.127 S 
ATOM     93  O   UNL A   1      49.540  23.031  35.874  1.00  0.00    -0.237 OA
ATOM     94  O   UNL A   1      47.135  23.263  36.352  1.00  0.00    -0.237 OA
ATOM     95  O   UNL A   1      47.899  21.554  34.765  1.00  0.00    -0.744 OA
ENDBRANCH  89  92
ENDBRANCH  62  85
ENDBRANCH  36  37
ENDBRANCH  28  31
ENDBRANCH  26  27
ENDBRANCH  25  26
ENDBRANCH   1  25
TORSDOF 17
ENDMDL
