MODEL 1
REMARK VINA RESULT:     -12.9      0.000      0.000
REMARK SMILES C[C@H]1[C@H](C)CC[C@@]2(C(=O)NCCCCCCNC(=O)c3ccc(-c4c5nc(c(-c6cccc(S(=O)(=O)[O-])c6F)c6ccc([nH]6)c(-c6cccc(S(=O)(=O)[O-])c6F)c6nc(c(-c7cccc(S(=O)(=O)[O-])c7F)c7ccc4[nH]7)C=C6)C=C5)cc3)CC[C@@]3(C)C(=CC[C@@H]4[C@@]5(C)CC[C@H](O)C(C)(C)[C@@H]5CC[C@]43C)[C@H]12
REMARK SMILES IDX 14 1 13 2 12 3 11 4 10 5 8 6 9 7 7 9 1 10 2 11 3 12 105 13
REMARK SMILES IDX 4 14 5 15 87 16 6 17 83 18 85 19 88 20 84 21 86 22 103 23
REMARK SMILES IDX 89 24 90 25 102 26 104 27 91 28 101 29 92 30 93 31 100 32
REMARK SMILES IDX 94 33 97 34 95 35 98 36 99 37 96 38 15 40 16 41 17 42 18 43
REMARK SMILES IDX 19 45 20 46 21 47 82 48 22 49 81 50 23 51 24 52 25 53 75 54
REMARK SMILES IDX 26 55 80 56 74 57 76 58 27 59 79 60 73 61 72 62 28 64 60 65
REMARK SMILES IDX 40 66 59 67 41 68 44 69 58 70 77 71 42 72 43 73 57 75 78 76
REMARK SMILES IDX 45 77 29 78 30 79 38 80 31 81 33 82 39 83 32 84 34 85 35 86
REMARK SMILES IDX 36 87 37 88 61 89 62 90 70 91 63 92 65 93 71 94 64 95 66 96
REMARK SMILES IDX 67 97 68 98 69 99 46 100 47 101 55 102 48 103 50 104 56 105
REMARK SMILES IDX 49 106 51 107 52 108 53 109 54 110
REMARK H PARENT 10 8 96 39 17 44 76 63 44 74
REMARK Flexibility Score: inf
ROOT
ATOM      1  C   UNL A   1      34.028  31.503  28.088  1.00  0.00     0.002 C 
ENDROOT
BRANCH   1   2
ATOM      2  C   UNL A   1      34.964  30.496  27.413  1.00  0.00     0.002 C 
BRANCH   2   3
ATOM      3  C   UNL A   1      34.754  28.992  27.644  1.00  0.00     0.021 C 
BRANCH   3   4
ATOM      4  C   UNL A   1      34.320  28.122  26.460  1.00  0.00     0.116 C 
BRANCH   4   5
ATOM      5  N   UNL A   1      33.960  28.853  25.256  1.00  0.00    -0.356 N 
ATOM      6  C   UNL A   1      32.775  28.921  24.571  1.00  0.00     0.226 C 
ATOM      7  O   UNL A   1      32.907  28.881  23.339  1.00  0.00    -0.274 OA
ATOM      8  H   UNL A   1      34.690  29.389  24.867  1.00  0.00     0.163 HD
BRANCH   6   9
ATOM      9  C   UNL A   1      31.340  29.103  25.215  1.00  0.00     0.056 C 
ATOM     10  C   UNL A   1      28.671  29.194  22.292  1.00  0.00     0.008 C 
ATOM     11  C   UNL A   1      29.836  29.655  23.183  1.00  0.00    -0.003 C 
ATOM     12  C   UNL A   1      29.521  31.049  23.818  1.00  0.00    -0.011 C 
ATOM     13  C   UNL A   1      30.180  28.617  24.290  1.00  0.00     0.034 C 
ATOM     14  C   UNL A   1      29.342  32.185  22.799  1.00  0.00     0.008 C 
ATOM     15  C   UNL A   1      30.548  31.559  24.842  1.00  0.00     0.005 C 
ATOM     16  C   UNL A   1      30.567  27.165  23.920  1.00  0.00    -0.063 C 
ATOM     17  C   UNL A   1      31.163  30.530  25.758  1.00  0.00     0.018 C 
ATOM     18  C   UNL A   1      31.236  28.203  26.508  1.00  0.00     0.018 C 
ATOM     19  C   UNL A   1      30.463  26.113  25.072  1.00  0.00    -0.006 C 
ATOM     20  C   UNL A   1      31.259  26.915  22.787  1.00  0.00    -0.027 C 
ATOM     21  C   UNL A   1      31.206  26.681  26.329  1.00  0.00     0.013 C 
ATOM     22  C   UNL A   1      28.974  25.912  25.448  1.00  0.00     0.017 C 
ATOM     23  C   UNL A   1      31.127  24.685  24.636  1.00  0.00    -0.020 C 
ATOM     24  C   UNL A   1      32.227  25.770  22.640  1.00  0.00     0.032 C 
ATOM     25  C   UNL A   1      32.509  25.079  24.001  1.00  0.00     0.006 C 
ATOM     26  C   UNL A   1      31.295  23.697  25.824  1.00  0.00     0.008 C 
ATOM     27  C   UNL A   1      30.216  23.932  23.615  1.00  0.00     0.012 C 
ATOM     28  C   UNL A   1      33.734  24.081  24.057  1.00  0.00    -0.025 C 
ATOM     29  C   UNL A   1      32.276  22.556  25.523  1.00  0.00     0.005 C 
ATOM     30  C   UNL A   1      33.847  23.345  22.710  1.00  0.00     0.012 C 
ATOM     31  C   UNL A   1      35.032  24.933  24.274  1.00  0.00     0.010 C 
ATOM     32  C   UNL A   1      33.675  23.148  25.322  1.00  0.00     0.003 C 
ATOM     33  C   UNL A   1      36.303  24.106  24.448  1.00  0.00     0.033 C 
ATOM     34  C   UNL A   1      34.885  22.150  25.477  1.00  0.00    -0.006 C 
ATOM     35  C   UNL A   1      36.198  22.999  25.504  1.00  0.00     0.120 C 
ATOM     36  C   UNL A   1      34.932  21.021  24.425  1.00  0.00     0.014 C 
ATOM     37  C   UNL A   1      34.803  21.408  26.843  1.00  0.00     0.014 C 
BRANCH  35  38
ATOM     38  O   UNL A   1      37.354  22.165  25.415  1.00  0.00    -0.393 OA
ATOM     39  H   UNL A   1      37.079  21.235  25.357  1.00  0.00     0.210 HD
ENDBRANCH  35  38
ENDBRANCH   6   9
ENDBRANCH   4   5
ENDBRANCH   3   4
ENDBRANCH   2   3
ENDBRANCH   1   2
BRANCH   1  40
ATOM     40  C   UNL A   1      33.512  32.685  27.269  1.00  0.00     0.021 C 
BRANCH  40  41
ATOM     41  C   UNL A   1      32.324  33.469  27.804  1.00  0.00     0.116 C 
BRANCH  41  42
ATOM     42  N   UNL A   1      32.587  34.880  28.006  1.00  0.00    -0.352 N 
ATOM     43  C   UNL A   1      33.574  35.478  28.751  1.00  0.00     0.251 C 
ATOM     44  H   UNL A   1      31.972  35.495  27.546  1.00  0.00     0.163 HD
ATOM     45  O   UNL A   1      33.585  36.707  28.864  1.00  0.00    -0.269 OA
BRANCH  43  46
ATOM     46  C   UNL A   1      34.602  34.668  29.449  1.00  0.00     0.039 A 
ATOM     47  C   UNL A   1      35.877  34.575  28.881  1.00  0.00     0.014 A 
ATOM     48  C   UNL A   1      34.326  33.996  30.643  1.00  0.00     0.014 A 
ATOM     49  C   UNL A   1      36.882  33.858  29.537  1.00  0.00     0.010 A 
ATOM     50  C   UNL A   1      35.352  33.354  31.337  1.00  0.00     0.010 A 
ATOM     51  C   UNL A   1      36.639  33.267  30.788  1.00  0.00    -0.014 A 
BRANCH  51  52
ATOM     52  C   UNL A   1      37.725  32.566  31.523  1.00  0.00     0.031 A 
ATOM     53  C   UNL A   1      38.448  31.402  30.898  1.00  0.00     0.074 A 
ATOM     54  C   UNL A   1      38.028  32.945  32.781  1.00  0.00     0.049 A 
ATOM     55  N   UNL A   1      39.424  30.678  31.386  1.00  0.00    -0.248 NA
ATOM     56  C   UNL A   1      38.004  30.975  29.561  1.00  0.00     0.031 C 
ATOM     57  C   UNL A   1      37.344  34.001  33.531  1.00  0.00     0.029 A 
ATOM     58  N   UNL A   1      38.974  32.478  33.659  1.00  0.00    -0.354 N 
ATOM     59  C   UNL A   1      39.687  29.699  30.437  1.00  0.00     0.074 A 
ATOM     60  C   UNL A   1      38.743  29.894  29.359  1.00  0.00     0.031 C 
ATOM     61  C   UNL A   1      37.903  34.112  34.746  1.00  0.00     0.029 A 
ATOM     62  C   UNL A   1      38.963  33.117  34.877  1.00  0.00     0.049 A 
ATOM     63  H   UNL A   1      39.602  31.752  33.439  1.00  0.00     0.167 HD
ATOM     64  C   UNL A   1      40.646  28.742  30.444  1.00  0.00     0.034 A 
ATOM     65  C   UNL A   1      39.718  32.924  35.978  1.00  0.00     0.034 A 
ATOM     66  C   UNL A   1      41.605  28.573  31.501  1.00  0.00     0.049 A 
ATOM     67  C   UNL A   1      40.801  31.881  35.944  1.00  0.00     0.074 A 
ATOM     68  C   UNL A   1      42.672  27.694  31.563  1.00  0.00     0.029 A 
ATOM     69  N   UNL A   1      41.607  29.288  32.690  1.00  0.00    -0.354 N 
ATOM     70  N   UNL A   1      41.140  31.075  34.968  1.00  0.00    -0.248 NA
ATOM     71  C   UNL A   1      41.631  31.747  37.151  1.00  0.00     0.031 C 
ATOM     72  C   UNL A   1      43.298  27.852  32.804  1.00  0.00     0.029 A 
ATOM     73  C   UNL A   1      42.646  28.859  33.499  1.00  0.00     0.049 A 
ATOM     74  H   UNL A   1      40.965  29.996  32.924  1.00  0.00     0.167 HD
ATOM     75  C   UNL A   1      42.242  30.362  35.427  1.00  0.00     0.074 A 
ATOM     76  C   UNL A   1      42.527  30.851  36.760  1.00  0.00     0.031 C 
ATOM     77  C   UNL A   1      42.946  29.384  34.806  1.00  0.00     0.034 A 
BRANCH  64  78
ATOM     78  C   UNL A   1      40.735  27.827  29.247  1.00  0.00     0.023 A 
ATOM     79  C   UNL A   1      39.905  26.689  29.174  1.00  0.00     0.012 A 
ATOM     80  C   UNL A   1      41.594  28.124  28.171  1.00  0.00     0.148 A 
ATOM     81  C   UNL A   1      39.956  25.841  28.068  1.00  0.00     0.002 A 
ATOM     82  C   UNL A   1      41.605  27.300  27.050  1.00  0.00     0.091 A 
ATOM     83  F   UNL A   1      42.391  29.198  28.265  1.00  0.00    -0.205 F 
ATOM     84  C   UNL A   1      40.797  26.153  27.003  1.00  0.00     0.022 A 
BRANCH  82  85
ATOM     85  S   UNL A   1      42.591  27.657  25.592  1.00  0.00     0.127 S 
ATOM     86  O   UNL A   1      41.989  28.906  25.127  1.00  0.00    -0.237 OA
ATOM     87  O   UNL A   1      43.932  27.800  26.158  1.00  0.00    -0.237 OA
ATOM     88  O   UNL A   1      42.424  26.516  24.704  1.00  0.00    -0.744 OA
ENDBRANCH  82  85
ENDBRANCH  64  78
BRANCH  65  89
ATOM     89  C   UNL A   1      39.512  33.779  37.182  1.00  0.00     0.023 A 
ATOM     90  C   UNL A   1      39.987  35.105  37.185  1.00  0.00     0.012 A 
ATOM     91  C   UNL A   1      38.828  33.293  38.313  1.00  0.00     0.148 A 
ATOM     92  C   UNL A   1      39.814  35.921  38.304  1.00  0.00     0.002 A 
ATOM     93  C   UNL A   1      38.607  34.129  39.401  1.00  0.00     0.091 A 
ATOM     94  F   UNL A   1      38.394  32.024  38.296  1.00  0.00    -0.205 F 
ATOM     95  C   UNL A   1      39.116  35.437  39.407  1.00  0.00     0.022 A 
BRANCH  93  96
ATOM     96  S   UNL A   1      37.605  33.634  40.807  1.00  0.00     0.127 S 
ATOM     97  O   UNL A   1      37.444  34.898  41.520  1.00  0.00    -0.237 OA
ATOM     98  O   UNL A   1      36.394  33.136  40.152  1.00  0.00    -0.237 OA
ATOM     99  O   UNL A   1      38.375  32.610  41.500  1.00  0.00    -0.744 OA
ENDBRANCH  93  96
ENDBRANCH  65  89
BRANCH  77 100
ATOM    100  C   UNL A   1      44.121  28.794  35.544  1.00  0.00     0.023 A 
ATOM    101  C   UNL A   1      45.410  29.334  35.365  1.00  0.00     0.012 A 
ATOM    102  C   UNL A   1      43.931  27.745  36.466  1.00  0.00     0.148 A 
ATOM    103  C   UNL A   1      46.498  28.814  36.063  1.00  0.00     0.002 A 
ATOM    104  C   UNL A   1      45.011  27.269  37.199  1.00  0.00     0.091 A 
ATOM    105  F   UNL A   1      42.701  27.235  36.610  1.00  0.00    -0.205 F 
ATOM    106  C   UNL A   1      46.298  27.792  36.987  1.00  0.00     0.022 A 
BRANCH 104 107
ATOM    107  S   UNL A   1      44.833  26.025  38.481  1.00  0.00     0.127 S 
ATOM    108  O   UNL A   1      46.218  25.834  38.906  1.00  0.00    -0.237 OA
ATOM    109  O   UNL A   1      43.983  26.707  39.458  1.00  0.00    -0.237 OA
ATOM    110  O   UNL A   1      44.212  24.873  37.841  1.00  0.00    -0.744 OA
ENDBRANCH 104 107
ENDBRANCH  77 100
ENDBRANCH  51  52
ENDBRANCH  43  46
ENDBRANCH  41  42
ENDBRANCH  40  41
ENDBRANCH   1  40
TORSDOF 17
ENDMDL
MODEL 2
REMARK VINA RESULT:     -12.6      1.081      7.233
REMARK SMILES C[C@H]1[C@H](C)CC[C@@]2(C(=O)NCCCCCCNC(=O)c3ccc(-c4c5nc(c(-c6cccc(S(=O)(=O)[O-])c6F)c6ccc([nH]6)c(-c6cccc(S(=O)(=O)[O-])c6F)c6nc(c(-c7cccc(S(=O)(=O)[O-])c7F)c7ccc4[nH]7)C=C6)C=C5)cc3)CC[C@@]3(C)C(=CC[C@@H]4[C@@]5(C)CC[C@H](O)C(C)(C)[C@@H]5CC[C@]43C)[C@H]12
REMARK SMILES IDX 14 1 13 2 12 3 11 4 10 5 8 6 9 7 7 9 1 10 2 11 3 12 105 13
REMARK SMILES IDX 4 14 5 15 87 16 6 17 83 18 85 19 88 20 84 21 86 22 103 23
REMARK SMILES IDX 89 24 90 25 102 26 104 27 91 28 101 29 92 30 93 31 100 32
REMARK SMILES IDX 94 33 97 34 95 35 98 36 99 37 96 38 15 40 16 41 17 42 18 43
REMARK SMILES IDX 19 45 20 46 21 47 82 48 22 49 81 50 23 51 24 52 25 53 75 54
REMARK SMILES IDX 26 55 80 56 74 57 76 58 27 59 79 60 73 61 72 62 28 64 60 65
REMARK SMILES IDX 40 66 59 67 41 68 44 69 58 70 77 71 42 72 43 73 57 75 78 76
REMARK SMILES IDX 45 77 29 78 30 79 38 80 31 81 33 82 39 83 32 84 34 85 35 86
REMARK SMILES IDX 36 87 37 88 61 89 62 90 70 91 63 92 65 93 71 94 64 95 66 96
REMARK SMILES IDX 67 97 68 98 69 99 46 100 47 101 55 102 48 103 50 104 56 105
REMARK SMILES IDX 49 106 51 107 52 108 53 109 54 110
REMARK H PARENT 10 8 96 39 17 44 76 63 44 74
REMARK Flexibility Score: inf
ROOT
ATOM      1  C   UNL A   1      34.353  31.915  28.477  1.00  0.00     0.002 C 
ENDROOT
BRANCH   1   2
ATOM      2  C   UNL A   1      34.880  30.902  27.455  1.00  0.00     0.002 C 
BRANCH   2   3
ATOM      3  C   UNL A   1      34.891  29.407  27.804  1.00  0.00     0.021 C 
BRANCH   3   4
ATOM      4  C   UNL A   1      34.403  28.404  26.754  1.00  0.00     0.116 C 
BRANCH   4   5
ATOM      5  N   UNL A   1      34.034  28.984  25.473  1.00  0.00    -0.356 N 
ATOM      6  C   UNL A   1      32.857  28.927  24.771  1.00  0.00     0.226 C 
ATOM      7  O   UNL A   1      33.011  28.758  23.552  1.00  0.00    -0.274 OA
ATOM      8  H   UNL A   1      34.748  29.503  25.036  1.00  0.00     0.163 HD
BRANCH   6   9
ATOM      9  C   UNL A   1      31.407  29.119  25.375  1.00  0.00     0.056 C 
ATOM     10  C   UNL A   1      28.825  29.259  22.377  1.00  0.00     0.008 C 
ATOM     11  C   UNL A   1      29.968  29.701  23.304  1.00  0.00    -0.003 C 
ATOM     12  C   UNL A   1      29.648  31.094  23.941  1.00  0.00    -0.011 C 
ATOM     13  C   UNL A   1      30.270  28.652  24.413  1.00  0.00     0.034 C 
ATOM     14  C   UNL A   1      29.511  32.239  22.926  1.00  0.00     0.008 C 
ATOM     15  C   UNL A   1      30.650  31.585  24.998  1.00  0.00     0.005 C 
ATOM     16  C   UNL A   1      30.652  27.198  24.043  1.00  0.00    -0.063 C 
ATOM     17  C   UNL A   1      31.229  30.544  25.924  1.00  0.00     0.018 C 
ATOM     18  C   UNL A   1      31.256  28.210  26.657  1.00  0.00     0.018 C 
ATOM     19  C   UNL A   1      30.505  26.139  25.183  1.00  0.00    -0.006 C 
ATOM     20  C   UNL A   1      31.375  26.950  22.929  1.00  0.00    -0.027 C 
ATOM     21  C   UNL A   1      31.216  26.690  26.466  1.00  0.00     0.013 C 
ATOM     22  C   UNL A   1      29.004  25.950  25.514  1.00  0.00     0.017 C 
ATOM     23  C   UNL A   1      31.166  24.708  24.756  1.00  0.00    -0.020 C 
ATOM     24  C   UNL A   1      32.335  25.796  22.801  1.00  0.00     0.032 C 
ATOM     25  C   UNL A   1      32.570  25.092  24.164  1.00  0.00     0.006 C 
ATOM     26  C   UNL A   1      31.290  23.710  25.940  1.00  0.00     0.008 C 
ATOM     27  C   UNL A   1      30.278  23.972  23.703  1.00  0.00     0.012 C 
ATOM     28  C   UNL A   1      33.783  24.082  24.247  1.00  0.00    -0.025 C 
ATOM     29  C   UNL A   1      32.268  22.561  25.659  1.00  0.00     0.005 C 
ATOM     30  C   UNL A   1      33.928  23.355  22.898  1.00  0.00     0.012 C 
ATOM     31  C   UNL A   1      35.082  24.918  24.508  1.00  0.00     0.010 C 
ATOM     32  C   UNL A   1      33.677  23.139  25.503  1.00  0.00     0.003 C 
ATOM     33  C   UNL A   1      36.340  24.077  24.713  1.00  0.00     0.033 C 
ATOM     34  C   UNL A   1      34.873  22.128  25.685  1.00  0.00    -0.006 C 
ATOM     35  C   UNL A   1      36.193  22.963  25.757  1.00  0.00     0.120 C 
ATOM     36  C   UNL A   1      34.939  21.007  24.626  1.00  0.00     0.014 C 
ATOM     37  C   UNL A   1      34.744  21.377  27.043  1.00  0.00     0.014 C 
BRANCH  35  38
ATOM     38  O   UNL A   1      37.343  22.118  25.694  1.00  0.00    -0.393 OA
ATOM     39  H   UNL A   1      38.070  22.524  26.193  1.00  0.00     0.210 HD
ENDBRANCH  35  38
ENDBRANCH   6   9
ENDBRANCH   4   5
ENDBRANCH   3   4
ENDBRANCH   2   3
ENDBRANCH   1   2
BRANCH   1  40
ATOM     40  C   UNL A   1      33.402  33.010  27.998  1.00  0.00     0.021 C 
BRANCH  40  41
ATOM     41  C   UNL A   1      33.746  34.456  28.322  1.00  0.00     0.116 C 
BRANCH  41  42
ATOM     42  N   UNL A   1      33.005  35.005  29.439  1.00  0.00    -0.352 N 
ATOM     43  C   UNL A   1      33.279  34.927  30.783  1.00  0.00     0.251 C 
ATOM     44  H   UNL A   1      32.189  35.503  29.202  1.00  0.00     0.163 HD
ATOM     45  O   UNL A   1      32.475  35.397  31.592  1.00  0.00    -0.269 OA
BRANCH  43  46
ATOM     46  C   UNL A   1      34.507  34.254  31.274  1.00  0.00     0.039 A 
ATOM     47  C   UNL A   1      34.375  33.047  31.967  1.00  0.00     0.014 A 
ATOM     48  C   UNL A   1      35.778  34.798  31.068  1.00  0.00     0.014 A 
ATOM     49  C   UNL A   1      35.514  32.364  32.401  1.00  0.00     0.010 A 
ATOM     50  C   UNL A   1      36.915  34.073  31.427  1.00  0.00     0.010 A 
ATOM     51  C   UNL A   1      36.797  32.854  32.108  1.00  0.00    -0.014 A 
BRANCH  51  52
ATOM     52  C   UNL A   1      38.013  32.093  32.504  1.00  0.00     0.031 A 
ATOM     53  C   UNL A   1      38.734  32.413  33.787  1.00  0.00     0.074 A 
ATOM     54  C   UNL A   1      38.501  31.145  31.680  1.00  0.00     0.049 A 
ATOM     55  N   UNL A   1      39.801  31.851  34.296  1.00  0.00    -0.248 NA
ATOM     56  C   UNL A   1      38.206  33.525  34.595  1.00  0.00     0.031 C 
ATOM     57  C   UNL A   1      37.945  30.799  30.369  1.00  0.00     0.029 A 
ATOM     58  N   UNL A   1      39.583  30.309  31.810  1.00  0.00    -0.354 N 
ATOM     59  C   UNL A   1      40.088  32.556  35.458  1.00  0.00     0.074 A 
ATOM     60  C   UNL A   1      39.108  33.614  35.562  1.00  0.00     0.031 C 
ATOM     61  C   UNL A   1      38.678  29.814  29.825  1.00  0.00     0.029 A 
ATOM     62  C   UNL A   1      39.773  29.479  30.730  1.00  0.00     0.049 A 
ATOM     63  H   UNL A   1      40.168  30.305  32.601  1.00  0.00     0.167 HD
ATOM     64  C   UNL A   1      41.060  32.327  36.374  1.00  0.00     0.034 A 
ATOM     65  C   UNL A   1      40.722  28.552  30.491  1.00  0.00     0.034 A 
ATOM     66  C   UNL A   1      42.012  31.253  36.285  1.00  0.00     0.049 A 
ATOM     67  C   UNL A   1      41.768  28.292  31.542  1.00  0.00     0.074 A 
ATOM     68  C   UNL A   1      42.978  30.882  37.204  1.00  0.00     0.029 A 
ATOM     69  N   UNL A   1      42.129  30.386  35.210  1.00  0.00    -0.354 N 
ATOM     70  N   UNL A   1      41.919  28.862  32.713  1.00  0.00    -0.248 NA
ATOM     71  C   UNL A   1      42.748  27.234  31.256  1.00  0.00     0.031 C 
ATOM     72  C   UNL A   1      43.702  29.812  36.668  1.00  0.00     0.029 A 
ATOM     73  C   UNL A   1      43.161  29.490  35.433  1.00  0.00     0.049 A 
ATOM     74  H   UNL A   1      41.561  30.404  34.406  1.00  0.00     0.167 HD
ATOM     75  C   UNL A   1      42.989  28.212  33.318  1.00  0.00     0.074 A 
ATOM     76  C   UNL A   1      43.430  27.188  32.392  1.00  0.00     0.031 C 
ATOM     77  C   UNL A   1      43.562  28.448  34.523  1.00  0.00     0.034 A 
BRANCH  64  78
ATOM     78  C   UNL A   1      41.117  33.233  37.580  1.00  0.00     0.023 A 
ATOM     79  C   UNL A   1      42.052  34.287  37.619  1.00  0.00     0.012 A 
ATOM     80  C   UNL A   1      40.208  33.078  38.645  1.00  0.00     0.148 A 
ATOM     81  C   UNL A   1      42.109  35.149  38.714  1.00  0.00     0.002 A 
ATOM     82  C   UNL A   1      40.238  33.971  39.712  1.00  0.00     0.091 A 
ATOM     83  F   UNL A   1      39.339  32.058  38.601  1.00  0.00    -0.205 F 
ATOM     84  C   UNL A   1      41.195  34.997  39.754  1.00  0.00     0.022 A 
BRANCH  82  85
ATOM     85  S   UNL A   1      39.054  33.911  41.061  1.00  0.00     0.127 S 
ATOM     86  O   UNL A   1      39.309  35.186  41.732  1.00  0.00    -0.237 OA
ATOM     87  O   UNL A   1      37.780  33.843  40.347  1.00  0.00    -0.237 OA
ATOM     88  O   UNL A   1      39.384  32.723  41.834  1.00  0.00    -0.744 OA
ENDBRANCH  82  85
ENDBRANCH  64  78
BRANCH  65  89
ATOM     89  C   UNL A   1      40.692  27.761  29.227  1.00  0.00     0.023 A 
ATOM     90  C   UNL A   1      39.744  26.731  29.072  1.00  0.00     0.012 A 
ATOM     91  C   UNL A   1      41.580  28.041  28.170  1.00  0.00     0.148 A 
ATOM     92  C   UNL A   1      39.703  25.971  27.902  1.00  0.00     0.002 A 
ATOM     93  C   UNL A   1      41.495  27.321  26.985  1.00  0.00     0.091 A 
ATOM     94  F   UNL A   1      42.482  29.018  28.341  1.00  0.00    -0.205 F 
ATOM     95  C   UNL A   1      40.570  26.273  26.855  1.00  0.00     0.022 A 
BRANCH  93  96
ATOM     96  S   UNL A   1      42.479  27.728  25.539  1.00  0.00     0.127 S 
ATOM     97  O   UNL A   1      43.816  27.855  26.113  1.00  0.00    -0.237 OA
ATOM     98  O   UNL A   1      42.279  26.547  24.697  1.00  0.00    -0.237 OA
ATOM     99  O   UNL A   1      41.903  28.952  25.001  1.00  0.00    -0.744 OA
ENDBRANCH  93  96
ENDBRANCH  65  89
BRANCH  77 100
ATOM    100  C   UNL A   1      44.711  27.564  34.936  1.00  0.00     0.023 A 
ATOM    101  C   UNL A   1      46.038  27.988  34.726  1.00  0.00     0.012 A 
ATOM    102  C   UNL A   1      44.470  26.341  35.593  1.00  0.00     0.148 A 
ATOM    103  C   UNL A   1      47.108  27.190  35.129  1.00  0.00     0.002 A 
ATOM    104  C   UNL A   1      45.541  25.578  36.040  1.00  0.00     0.091 A 
ATOM    105  F   UNL A   1      43.201  25.948  35.769  1.00  0.00    -0.205 F 
ATOM    106  C   UNL A   1      46.861  25.993  35.796  1.00  0.00     0.022 A 
BRANCH 104 107
ATOM    107  S   UNL A   1      45.320  24.073  36.996  1.00  0.00     0.127 S 
ATOM    108  O   UNL A   1      44.644  23.205  36.033  1.00  0.00    -0.237 OA
ATOM    109  O   UNL A   1      46.700  23.692  37.296  1.00  0.00    -0.237 OA
ATOM    110  O   UNL A   1      44.529  24.448  38.160  1.00  0.00    -0.744 OA
ENDBRANCH 104 107
ENDBRANCH  77 100
ENDBRANCH  51  52
ENDBRANCH  43  46
ENDBRANCH  41  42
ENDBRANCH  40  41
ENDBRANCH   1  40
TORSDOF 17
ENDMDL
MODEL 3
REMARK VINA RESULT:     -12.4      6.130     11.670
REMARK SMILES C[C@H]1[C@H](C)CC[C@@]2(C(=O)NCCCCCCNC(=O)c3ccc(-c4c5nc(c(-c6cccc(S(=O)(=O)[O-])c6F)c6ccc([nH]6)c(-c6cccc(S(=O)(=O)[O-])c6F)c6nc(c(-c7cccc(S(=O)(=O)[O-])c7F)c7ccc4[nH]7)C=C6)C=C5)cc3)CC[C@@]3(C)C(=CC[C@@H]4[C@@]5(C)CC[C@H](O)C(C)(C)[C@@H]5CC[C@]43C)[C@H]12
REMARK SMILES IDX 14 1 13 2 12 3 11 4 10 5 8 6 9 7 7 9 1 10 2 11 3 12 105 13
REMARK SMILES IDX 4 14 5 15 87 16 6 17 83 18 85 19 88 20 84 21 86 22 103 23
REMARK SMILES IDX 89 24 90 25 102 26 104 27 91 28 101 29 92 30 93 31 100 32
REMARK SMILES IDX 94 33 97 34 95 35 98 36 99 37 96 38 15 40 16 41 17 42 18 43
REMARK SMILES IDX 19 45 20 46 21 47 82 48 22 49 81 50 23 51 24 52 25 53 75 54
REMARK SMILES IDX 26 55 80 56 74 57 76 58 27 59 79 60 73 61 72 62 28 64 60 65
REMARK SMILES IDX 40 66 59 67 41 68 44 69 58 70 77 71 42 72 43 73 57 75 78 76
REMARK SMILES IDX 45 77 29 78 30 79 38 80 31 81 33 82 39 83 32 84 34 85 35 86
REMARK SMILES IDX 36 87 37 88 61 89 62 90 70 91 63 92 65 93 71 94 64 95 66 96
REMARK SMILES IDX 67 97 68 98 69 99 46 100 47 101 55 102 48 103 50 104 56 105
REMARK SMILES IDX 49 106 51 107 52 108 53 109 54 110
REMARK H PARENT 10 8 96 39 17 44 76 63 44 74
REMARK Flexibility Score: inf
ROOT
ATOM      1  C   UNL A   1      39.579  22.252  26.528  1.00  0.00     0.002 C 
ENDROOT
BRANCH   1   2
ATOM      2  C   UNL A   1      38.523  22.778  25.550  1.00  0.00     0.002 C 
BRANCH   2   3
ATOM      3  C   UNL A   1      37.754  24.065  25.883  1.00  0.00     0.021 C 
BRANCH   3   4
ATOM      4  C   UNL A   1      36.223  24.022  25.898  1.00  0.00     0.116 C 
BRANCH   4   5
ATOM      5  N   UNL A   1      35.646  22.835  26.509  1.00  0.00    -0.356 N 
ATOM      6  C   UNL A   1      34.855  21.850  25.976  1.00  0.00     0.226 C 
ATOM      7  O   UNL A   1      33.927  21.498  26.719  1.00  0.00    -0.274 OA
ATOM      8  H   UNL A   1      35.857  22.720  27.464  1.00  0.00     0.163 HD
BRANCH   6   9
ATOM      9  C   UNL A   1      35.080  21.131  24.583  1.00  0.00     0.056 C 
ATOM     10  C   UNL A   1      32.153  18.518  24.050  1.00  0.00     0.008 C 
ATOM     11  C   UNL A   1      33.416  19.150  24.656  1.00  0.00    -0.003 C 
ATOM     12  C   UNL A   1      34.623  18.158  24.562  1.00  0.00    -0.011 C 
ATOM     13  C   UNL A   1      33.777  20.509  23.990  1.00  0.00     0.034 C 
ATOM     14  C   UNL A   1      34.431  16.850  25.345  1.00  0.00     0.008 C 
ATOM     15  C   UNL A   1      35.981  18.722  25.008  1.00  0.00     0.005 C 
ATOM     16  C   UNL A   1      32.763  21.679  23.982  1.00  0.00    -0.063 C 
ATOM     17  C   UNL A   1      36.270  20.160  24.657  1.00  0.00     0.018 C 
ATOM     18  C   UNL A   1      35.544  22.200  23.518  1.00  0.00     0.018 C 
ATOM     19  C   UNL A   1      33.031  22.812  22.938  1.00  0.00    -0.006 C 
ATOM     20  C   UNL A   1      31.923  21.855  25.025  1.00  0.00    -0.027 C 
ATOM     21  C   UNL A   1      34.529  23.254  23.061  1.00  0.00     0.013 C 
ATOM     22  C   UNL A   1      32.814  22.252  21.511  1.00  0.00     0.017 C 
ATOM     23  C   UNL A   1      32.053  24.096  23.189  1.00  0.00    -0.020 C 
ATOM     24  C   UNL A   1      31.411  23.204  25.461  1.00  0.00     0.032 C 
ATOM     25  C   UNL A   1      32.150  24.359  24.735  1.00  0.00     0.006 C 
ATOM     26  C   UNL A   1      32.457  25.347  22.361  1.00  0.00     0.008 C 
ATOM     27  C   UNL A   1      30.589  23.781  22.748  1.00  0.00     0.012 C 
ATOM     28  C   UNL A   1      31.948  25.815  25.318  1.00  0.00    -0.025 C 
ATOM     29  C   UNL A   1      31.832  26.646  22.889  1.00  0.00     0.005 C 
ATOM     30  C   UNL A   1      30.511  25.951  25.852  1.00  0.00     0.012 C 
ATOM     31  C   UNL A   1      32.946  25.992  26.513  1.00  0.00     0.010 C 
ATOM     32  C   UNL A   1      32.383  26.925  24.291  1.00  0.00     0.003 C 
ATOM     33  C   UNL A   1      32.946  27.388  27.129  1.00  0.00     0.033 C 
ATOM     34  C   UNL A   1      32.255  28.408  24.810  1.00  0.00    -0.006 C 
ATOM     35  C   UNL A   1      33.108  28.527  26.115  1.00  0.00     0.120 C 
ATOM     36  C   UNL A   1      30.806  28.902  25.003  1.00  0.00     0.014 C 
ATOM     37  C   UNL A   1      32.872  29.397  23.779  1.00  0.00     0.014 C 
BRANCH  35  38
ATOM     38  O   UNL A   1      32.869  29.771  26.776  1.00  0.00    -0.393 OA
ATOM     39  H   UNL A   1      32.611  29.604  27.697  1.00  0.00     0.210 HD
ENDBRANCH  35  38
ENDBRANCH   6   9
ENDBRANCH   4   5
ENDBRANCH   3   4
ENDBRANCH   2   3
ENDBRANCH   1   2
BRANCH   1  40
ATOM     40  C   UNL A   1      39.595  20.759  26.853  1.00  0.00     0.021 C 
BRANCH  40  41
ATOM     41  C   UNL A   1      39.751  19.774  25.705  1.00  0.00     0.116 C 
BRANCH  41  42
ATOM     42  N   UNL A   1      40.843  18.836  25.874  1.00  0.00    -0.352 N 
ATOM     43  C   UNL A   1      42.160  19.085  26.177  1.00  0.00     0.251 C 
ATOM     44  H   UNL A   1      40.609  17.888  25.753  1.00  0.00     0.163 HD
ATOM     45  O   UNL A   1      42.962  18.148  26.200  1.00  0.00    -0.269 OA
BRANCH  43  46
ATOM     46  C   UNL A   1      42.635  20.465  26.441  1.00  0.00     0.039 A 
ATOM     47  C   UNL A   1      42.941  21.285  25.351  1.00  0.00     0.014 A 
ATOM     48  C   UNL A   1      42.788  20.957  27.740  1.00  0.00     0.014 A 
ATOM     49  C   UNL A   1      43.346  22.606  25.562  1.00  0.00     0.010 A 
ATOM     50  C   UNL A   1      43.109  22.299  27.947  1.00  0.00     0.010 A 
ATOM     51  C   UNL A   1      43.403  23.136  26.862  1.00  0.00    -0.014 A 
BRANCH  51  52
ATOM     52  C   UNL A   1      43.762  24.563  27.088  1.00  0.00     0.031 A 
ATOM     53  C   UNL A   1      42.777  25.511  27.720  1.00  0.00     0.074 A 
ATOM     54  C   UNL A   1      44.962  25.018  26.676  1.00  0.00     0.049 A 
ATOM     55  N   UNL A   1      42.920  26.781  28.001  1.00  0.00    -0.248 NA
ATOM     56  C   UNL A   1      41.449  24.973  28.059  1.00  0.00     0.031 C 
ATOM     57  C   UNL A   1      45.971  24.223  25.973  1.00  0.00     0.029 A 
ATOM     58  N   UNL A   1      45.531  26.264  26.769  1.00  0.00    -0.354 N 
ATOM     59  C   UNL A   1      41.699  27.199  28.517  1.00  0.00     0.074 A 
ATOM     60  C   UNL A   1      40.812  26.058  28.474  1.00  0.00     0.031 C 
ATOM     61  C   UNL A   1      47.039  24.993  25.715  1.00  0.00     0.029 A 
ATOM     62  C   UNL A   1      46.783  26.344  26.204  1.00  0.00     0.049 A 
ATOM     63  H   UNL A   1      45.086  27.030  27.200  1.00  0.00     0.167 HD
ATOM     64  C   UNL A   1      41.354  28.413  29.010  1.00  0.00     0.034 A 
ATOM     65  C   UNL A   1      47.630  27.387  26.088  1.00  0.00     0.034 A 
ATOM     66  C   UNL A   1      42.249  29.535  29.083  1.00  0.00     0.049 A 
ATOM     67  C   UNL A   1      47.237  28.714  26.679  1.00  0.00     0.074 A 
ATOM     68  C   UNL A   1      42.025  30.780  29.646  1.00  0.00     0.029 A 
ATOM     69  N   UNL A   1      43.535  29.557  28.564  1.00  0.00    -0.354 N 
ATOM     70  N   UNL A   1      46.137  29.041  27.312  1.00  0.00    -0.248 NA
ATOM     71  C   UNL A   1      48.217  29.804  26.573  1.00  0.00     0.031 C 
ATOM     72  C   UNL A   1      43.163  31.565  29.436  1.00  0.00     0.029 A 
ATOM     73  C   UNL A   1      44.112  30.797  28.779  1.00  0.00     0.049 A 
ATOM     74  H   UNL A   1      43.974  28.802  28.111  1.00  0.00     0.167 HD
ATOM     75  C   UNL A   1      46.305  30.362  27.710  1.00  0.00     0.074 A 
ATOM     76  C   UNL A   1      47.624  30.766  27.267  1.00  0.00     0.031 C 
ATOM     77  C   UNL A   1      45.441  31.172  28.371  1.00  0.00     0.034 A 
BRANCH  64  78
ATOM     78  C   UNL A   1      39.956  28.579  29.554  1.00  0.00     0.023 A 
ATOM     79  C   UNL A   1      39.642  28.086  30.837  1.00  0.00     0.012 A 
ATOM     80  C   UNL A   1      38.973  29.273  28.822  1.00  0.00     0.148 A 
ATOM     81  C   UNL A   1      38.362  28.247  31.368  1.00  0.00     0.002 A 
ATOM     82  C   UNL A   1      37.713  29.472  29.378  1.00  0.00     0.091 A 
ATOM     83  F   UNL A   1      39.282  29.718  27.596  1.00  0.00    -0.205 F 
ATOM     84  C   UNL A   1      37.403  28.949  30.643  1.00  0.00     0.022 A 
BRANCH  82  85
ATOM     85  S   UNL A   1      36.432  30.431  28.562  1.00  0.00     0.127 S 
ATOM     86  O   UNL A   1      35.477  30.633  29.651  1.00  0.00    -0.237 OA
ATOM     87  O   UNL A   1      37.161  31.634  28.159  1.00  0.00    -0.237 OA
ATOM     88  O   UNL A   1      35.955  29.610  27.459  1.00  0.00    -0.744 OA
ENDBRANCH  82  85
ENDBRANCH  64  78
BRANCH  65  89
ATOM     89  C   UNL A   1      48.957  27.201  25.435  1.00  0.00     0.023 A 
ATOM     90  C   UNL A   1      50.052  26.748  26.198  1.00  0.00     0.012 A 
ATOM     91  C   UNL A   1      49.134  27.445  24.059  1.00  0.00     0.148 A 
ATOM     92  C   UNL A   1      51.306  26.575  25.611  1.00  0.00     0.002 A 
ATOM     93  C   UNL A   1      50.371  27.215  23.468  1.00  0.00     0.091 A 
ATOM     94  F   UNL A   1      48.084  27.886  23.353  1.00  0.00    -0.205 F 
ATOM     95  C   UNL A   1      51.463  26.798  24.246  1.00  0.00     0.022 A 
BRANCH  93  96
ATOM     96  S   UNL A   1      50.630  27.347  21.696  1.00  0.00     0.127 S 
ATOM     97  O   UNL A   1      52.034  26.967  21.570  1.00  0.00    -0.237 OA
ATOM     98  O   UNL A   1      49.675  26.365  21.179  1.00  0.00    -0.237 OA
ATOM     99  O   UNL A   1      50.315  28.727  21.353  1.00  0.00    -0.744 OA
ENDBRANCH  93  96
ENDBRANCH  65  89
BRANCH  77 100
ATOM    100  C   UNL A   1      45.903  32.571  28.692  1.00  0.00     0.023 A 
ATOM    101  C   UNL A   1      46.684  32.810  29.840  1.00  0.00     0.012 A 
ATOM    102  C   UNL A   1      45.616  33.636  27.815  1.00  0.00     0.148 A 
ATOM    103  C   UNL A   1      47.140  34.095  30.131  1.00  0.00     0.002 A 
ATOM    104  C   UNL A   1      46.119  34.903  28.084  1.00  0.00     0.091 A 
ATOM    105  F   UNL A   1      44.857  33.392  26.738  1.00  0.00    -0.205 F 
ATOM    106  C   UNL A   1      46.868  35.138  29.249  1.00  0.00     0.022 A 
BRANCH 104 107
ATOM    107  S   UNL A   1      45.906  36.284  26.955  1.00  0.00     0.127 S 
ATOM    108  O   UNL A   1      46.549  35.780  25.743  1.00  0.00    -0.237 OA
ATOM    109  O   UNL A   1      44.449  36.393  26.873  1.00  0.00    -0.237 OA
ATOM    110  O   UNL A   1      46.563  37.422  27.583  1.00  0.00    -0.744 OA
ENDBRANCH 104 107
ENDBRANCH  77 100
ENDBRANCH  51  52
ENDBRANCH  43  46
ENDBRANCH  41  42
ENDBRANCH  40  41
ENDBRANCH   1  40
TORSDOF 17
ENDMDL
