MODEL 1
REMARK VINA RESULT:     -11.4      0.000      0.000
REMARK SMILES CC1(C)[C@H](C(=O)NCCCCCCNC(=O)c2ccc(-c3c4nc(c(-c5cccc(S(=O)(=O)[O-])c5F)c5ccc([nH]5)c(-c5cccc(S(=O)(=O)[O-])c5F)c5nc(c(-c6cccc(S(=O)(=O)[O-])c6F)c6ccc3[nH]6)C=C5)C=C4)cc2)[C@@H]1C(=O)Nc1ccc(NC(=O)C2CCC2)cc1
REMARK SMILES IDX 10 1 9 2 8 3 7 4 5 5 6 6 4 8 1 9 2 10 3 11 80 12 81 13 82 14
REMARK SMILES IDX 83 15 84 17 85 18 96 19 86 20 95 21 87 22 88 23 89 24 90 26
REMARK SMILES IDX 91 27 92 28 94 29 93 30 11 31 12 32 13 33 14 34 15 35 16 37
REMARK SMILES IDX 17 38 18 39 79 40 19 41 78 42 20 43 21 44 22 45 72 46 23 47
REMARK SMILES IDX 77 48 71 49 73 50 24 51 76 52 70 53 69 54 25 56 57 57 37 58
REMARK SMILES IDX 56 59 38 60 41 61 55 62 74 63 39 64 40 65 54 67 75 68 42 69
REMARK SMILES IDX 26 70 27 71 35 72 28 73 30 74 36 75 29 76 31 77 32 78 33 79
REMARK SMILES IDX 34 80 58 81 59 82 67 83 60 84 62 85 68 86 61 87 63 88 64 89
REMARK SMILES IDX 65 90 66 91 43 92 44 93 52 94 45 95 47 96 53 97 46 98 48 99
REMARK SMILES IDX 49 100 50 101 51 102
REMARK H PARENT 7 7 83 16 88 25 14 36 73 55 41 66
REMARK Flexibility Score: inf
ROOT
ATOM      1  C   UNL A   1      34.467  24.020  22.729  1.00  0.00     0.002 C 
ENDROOT
BRANCH   1   2
ATOM      2  C   UNL A   1      34.043  25.370  23.329  1.00  0.00     0.021 C 
BRANCH   2   3
ATOM      3  C   UNL A   1      33.775  26.452  22.288  1.00  0.00     0.116 C 
BRANCH   3   4
ATOM      4  N   UNL A   1      32.864  27.447  22.812  1.00  0.00    -0.356 N 
ATOM      5  C   UNL A   1      32.623  28.010  24.027  1.00  0.00     0.224 C 
ATOM      6  O   UNL A   1      31.702  28.831  24.046  1.00  0.00    -0.275 OA
ATOM      7  H   UNL A   1      32.268  27.805  22.115  1.00  0.00     0.163 HD
BRANCH   5   8
ATOM      8  C   UNL A   1      33.322  27.781  25.314  1.00  0.00     0.098 C 
ATOM      9  C   UNL A   1      35.028  28.873  26.889  1.00  0.00     0.013 C 
ATOM     10  C   UNL A   1      33.593  28.795  26.412  1.00  0.00    -0.011 C 
ATOM     11  C   UNL A   1      32.938  30.154  26.396  1.00  0.00     0.013 C 
ATOM     12  C   UNL A   1      32.829  27.482  26.694  1.00  0.00     0.098 C 
BRANCH  12  13
ATOM     13  C   UNL A   1      31.428  27.389  27.150  1.00  0.00     0.228 C 
ATOM     14  O   UNL A   1      30.974  28.229  27.918  1.00  0.00    -0.274 OA
ATOM     15  N   UNL A   1      30.639  26.321  26.775  1.00  0.00    -0.326 N 
ATOM     16  H   UNL A   1      29.842  26.141  27.324  1.00  0.00     0.169 HD
BRANCH  15  17
ATOM     17  C   UNL A   1      30.867  25.470  25.691  1.00  0.00     0.041 A 
ATOM     18  C   UNL A   1      31.601  24.328  25.973  1.00  0.00     0.028 A 
ATOM     19  C   UNL A   1      30.308  25.633  24.426  1.00  0.00     0.028 A 
ATOM     20  C   UNL A   1      31.574  23.267  25.083  1.00  0.00     0.028 A 
ATOM     21  C   UNL A   1      30.487  24.629  23.459  1.00  0.00     0.028 A 
ATOM     22  C   UNL A   1      31.129  23.427  23.789  1.00  0.00     0.041 A 
BRANCH  22  23
ATOM     23  N   UNL A   1      31.289  22.445  22.806  1.00  0.00    -0.326 N 
ATOM     24  C   UNL A   1      31.989  21.254  22.750  1.00  0.00     0.227 C 
ATOM     25  H   UNL A   1      30.797  22.644  21.978  1.00  0.00     0.169 HD
ATOM     26  O   UNL A   1      31.852  20.635  21.676  1.00  0.00    -0.274 OA
BRANCH  24  27
ATOM     27  C   UNL A   1      32.889  20.665  23.870  1.00  0.00     0.079 C 
ATOM     28  C   UNL A   1      32.081  20.220  25.145  1.00  0.00     0.013 C 
ATOM     29  C   UNL A   1      33.472  19.214  23.928  1.00  0.00     0.013 C 
ATOM     30  C   UNL A   1      33.201  19.216  25.435  1.00  0.00     0.002 C 
ENDBRANCH  24  27
ENDBRANCH  22  23
ENDBRANCH  15  17
ENDBRANCH  12  13
ENDBRANCH   5   8
ENDBRANCH   3   4
ENDBRANCH   2   3
ENDBRANCH   1   2
BRANCH   1  31
ATOM     31  C   UNL A   1      35.434  23.187  23.579  1.00  0.00     0.002 C 
BRANCH  31  32
ATOM     32  C   UNL A   1      35.313  23.380  25.093  1.00  0.00     0.021 C 
BRANCH  32  33
ATOM     33  C   UNL A   1      36.588  23.848  25.788  1.00  0.00     0.116 C 
BRANCH  33  34
ATOM     34  N   UNL A   1      37.556  22.779  25.958  1.00  0.00    -0.352 N 
ATOM     35  C   UNL A   1      38.858  22.859  26.385  1.00  0.00     0.251 C 
ATOM     36  H   UNL A   1      37.234  21.875  25.738  1.00  0.00     0.163 HD
ATOM     37  O   UNL A   1      39.583  21.869  26.332  1.00  0.00    -0.269 OA
BRANCH  35  38
ATOM     38  C   UNL A   1      39.388  24.146  26.883  1.00  0.00     0.039 A 
ATOM     39  C   UNL A   1      39.972  25.031  25.975  1.00  0.00     0.014 A 
ATOM     40  C   UNL A   1      39.311  24.478  28.239  1.00  0.00     0.014 A 
ATOM     41  C   UNL A   1      40.438  26.270  26.418  1.00  0.00     0.010 A 
ATOM     42  C   UNL A   1      39.712  25.741  28.667  1.00  0.00     0.010 A 
ATOM     43  C   UNL A   1      40.291  26.645  27.763  1.00  0.00    -0.014 A 
BRANCH  43  44
ATOM     44  C   UNL A   1      40.741  27.977  28.242  1.00  0.00     0.031 A 
ATOM     45  C   UNL A   1      42.207  28.317  28.271  1.00  0.00     0.074 A 
ATOM     46  C   UNL A   1      39.835  28.852  28.721  1.00  0.00     0.049 A 
ATOM     47  N   UNL A   1      42.791  29.411  28.686  1.00  0.00    -0.248 NA
ATOM     48  C   UNL A   1      43.143  27.282  27.799  1.00  0.00     0.031 C 
ATOM     49  C   UNL A   1      38.394  28.607  28.825  1.00  0.00     0.029 A 
ATOM     50  N   UNL A   1      39.994  30.116  29.234  1.00  0.00    -0.354 N 
ATOM     51  C   UNL A   1      44.157  29.184  28.560  1.00  0.00     0.074 A 
ATOM     52  C   UNL A   1      44.317  27.837  28.062  1.00  0.00     0.031 C 
ATOM     53  C   UNL A   1      37.803  29.685  29.365  1.00  0.00     0.029 A 
ATOM     54  C   UNL A   1      38.820  30.687  29.666  1.00  0.00     0.049 A 
ATOM     55  H   UNL A   1      40.866  30.569  29.289  1.00  0.00     0.167 HD
ATOM     56  C   UNL A   1      45.184  30.032  28.807  1.00  0.00     0.034 A 
ATOM     57  C   UNL A   1      38.589  31.885  30.241  1.00  0.00     0.034 A 
ATOM     58  C   UNL A   1      45.017  31.389  29.253  1.00  0.00     0.049 A 
ATOM     59  C   UNL A   1      39.742  32.830  30.445  1.00  0.00     0.074 A 
ATOM     60  C   UNL A   1      45.987  32.357  29.442  1.00  0.00     0.029 A 
ATOM     61  N   UNL A   1      43.803  31.970  29.583  1.00  0.00    -0.354 N 
ATOM     62  N   UNL A   1      41.011  32.658  30.161  1.00  0.00    -0.248 NA
ATOM     63  C   UNL A   1      39.428  34.150  31.009  1.00  0.00     0.031 C 
ATOM     64  C   UNL A   1      45.360  33.520  29.903  1.00  0.00     0.029 A 
ATOM     65  C   UNL A   1      43.996  33.282  29.979  1.00  0.00     0.049 A 
ATOM     66  H   UNL A   1      42.930  31.515  29.542  1.00  0.00     0.167 HD
ATOM     67  C   UNL A   1      41.638  33.857  30.475  1.00  0.00     0.074 A 
ATOM     68  C   UNL A   1      40.606  34.756  30.950  1.00  0.00     0.031 C 
ATOM     69  C   UNL A   1      42.952  34.182  30.393  1.00  0.00     0.034 A 
BRANCH  56  70
ATOM     70  C   UNL A   1      46.581  29.537  28.540  1.00  0.00     0.023 A 
ATOM     71  C   UNL A   1      47.175  29.774  27.284  1.00  0.00     0.012 A 
ATOM     72  C   UNL A   1      47.330  28.894  29.547  1.00  0.00     0.148 A 
ATOM     73  C   UNL A   1      48.476  29.351  27.020  1.00  0.00     0.002 A 
ATOM     74  C   UNL A   1      48.643  28.515  29.290  1.00  0.00     0.091 A 
ATOM     75  F   UNL A   1      46.743  28.658  30.728  1.00  0.00    -0.205 F 
ATOM     76  C   UNL A   1      49.213  28.732  28.024  1.00  0.00     0.022 A 
BRANCH  74  77
ATOM     77  S   UNL A   1      49.703  27.783  30.542  1.00  0.00     0.127 S 
ATOM     78  O   UNL A   1      50.684  27.075  29.721  1.00  0.00    -0.237 OA
ATOM     79  O   UNL A   1      50.225  28.964  31.232  1.00  0.00    -0.237 OA
ATOM     80  O   UNL A   1      48.841  26.937  31.354  1.00  0.00    -0.744 OA
ENDBRANCH  74  77
ENDBRANCH  56  70
BRANCH  57  81
ATOM     81  C   UNL A   1      37.198  32.287  30.591  1.00  0.00     0.023 A 
ATOM     82  C   UNL A   1      36.723  32.069  31.899  1.00  0.00     0.012 A 
ATOM     83  C   UNL A   1      36.353  32.907  29.649  1.00  0.00     0.148 A 
ATOM     84  C   UNL A   1      35.422  32.428  32.254  1.00  0.00     0.002 A 
ATOM     85  C   UNL A   1      35.078  33.313  30.025  1.00  0.00     0.091 A 
ATOM     86  F   UNL A   1      36.818  33.096  28.406  1.00  0.00    -0.205 F 
ATOM     87  C   UNL A   1      34.604  33.058  31.321  1.00  0.00     0.022 A 
BRANCH  85  88
ATOM     88  S   UNL A   1      34.007  34.251  28.929  1.00  0.00     0.127 S 
ATOM     89  O   UNL A   1      33.573  33.225  27.984  1.00  0.00    -0.237 OA
ATOM     90  O   UNL A   1      32.969  34.721  29.848  1.00  0.00    -0.237 OA
ATOM     91  O   UNL A   1      34.841  35.311  28.380  1.00  0.00    -0.744 OA
ENDBRANCH  85  88
ENDBRANCH  57  81
BRANCH  69  92
ATOM     92  C   UNL A   1      43.353  35.580  30.788  1.00  0.00     0.023 A 
ATOM     93  C   UNL A   1      43.765  35.845  32.108  1.00  0.00     0.012 A 
ATOM     94  C   UNL A   1      43.387  36.614  29.831  1.00  0.00     0.148 A 
ATOM     95  C   UNL A   1      44.172  37.126  32.480  1.00  0.00     0.002 A 
ATOM     96  C   UNL A   1      43.841  37.876  30.197  1.00  0.00     0.091 A 
ATOM     97  F   UNL A   1      42.972  36.347  28.585  1.00  0.00    -0.205 F 
ATOM     98  C   UNL A   1      44.222  38.136  31.522  1.00  0.00     0.022 A 
BRANCH  96  99
ATOM     99  S   UNL A   1      44.031  39.207  29.006  1.00  0.00     0.127 S 
ATOM    100  O   UNL A   1      44.949  38.611  28.037  1.00  0.00    -0.237 OA
ATOM    101  O   UNL A   1      42.662  39.388  28.519  1.00  0.00    -0.237 OA
ATOM    102  O   UNL A   1      44.556  40.340  29.755  1.00  0.00    -0.744 OA
ENDBRANCH  96  99
ENDBRANCH  69  92
ENDBRANCH  43  44
ENDBRANCH  35  38
ENDBRANCH  33  34
ENDBRANCH  32  33
ENDBRANCH  31  32
ENDBRANCH   1  31
TORSDOF 20
ENDMDL
MODEL 2
REMARK VINA RESULT:     -11.1      2.685      3.714
REMARK SMILES CC1(C)[C@H](C(=O)NCCCCCCNC(=O)c2ccc(-c3c4nc(c(-c5cccc(S(=O)(=O)[O-])c5F)c5ccc([nH]5)c(-c5cccc(S(=O)(=O)[O-])c5F)c5nc(c(-c6cccc(S(=O)(=O)[O-])c6F)c6ccc3[nH]6)C=C5)C=C4)cc2)[C@@H]1C(=O)Nc1ccc(NC(=O)C2CCC2)cc1
REMARK SMILES IDX 10 1 9 2 8 3 7 4 5 5 6 6 4 8 1 9 2 10 3 11 80 12 81 13 82 14
REMARK SMILES IDX 83 15 84 17 85 18 96 19 86 20 95 21 87 22 88 23 89 24 90 26
REMARK SMILES IDX 91 27 92 28 94 29 93 30 11 31 12 32 13 33 14 34 15 35 16 37
REMARK SMILES IDX 17 38 18 39 79 40 19 41 78 42 20 43 21 44 22 45 72 46 23 47
REMARK SMILES IDX 77 48 71 49 73 50 24 51 76 52 70 53 69 54 25 56 57 57 37 58
REMARK SMILES IDX 56 59 38 60 41 61 55 62 74 63 39 64 40 65 54 67 75 68 42 69
REMARK SMILES IDX 26 70 27 71 35 72 28 73 30 74 36 75 29 76 31 77 32 78 33 79
REMARK SMILES IDX 34 80 58 81 59 82 67 83 60 84 62 85 68 86 61 87 63 88 64 89
REMARK SMILES IDX 65 90 66 91 43 92 44 93 52 94 45 95 47 96 53 97 46 98 48 99
REMARK SMILES IDX 49 100 50 101 51 102
REMARK H PARENT 7 7 83 16 88 25 14 36 73 55 41 66
REMARK Flexibility Score: inf
ROOT
ATOM      1  C   UNL A   1      38.148  23.836  25.440  1.00  0.00     0.002 C 
ENDROOT
BRANCH   1   2
ATOM      2  C   UNL A   1      36.723  23.588  24.919  1.00  0.00     0.021 C 
BRANCH   2   3
ATOM      3  C   UNL A   1      35.646  24.365  25.670  1.00  0.00     0.116 C 
BRANCH   3   4
ATOM      4  N   UNL A   1      34.823  25.114  24.746  1.00  0.00    -0.356 N 
ATOM      5  C   UNL A   1      33.649  25.799  24.814  1.00  0.00     0.224 C 
ATOM      6  O   UNL A   1      33.268  26.286  23.746  1.00  0.00    -0.275 OA
ATOM      7  H   UNL A   1      35.207  25.133  23.840  1.00  0.00     0.163 HD
BRANCH   5   8
ATOM      8  C   UNL A   1      32.782  26.045  25.991  1.00  0.00     0.098 C 
ATOM      9  C   UNL A   1      32.005  27.932  27.546  1.00  0.00     0.013 C 
ATOM     10  C   UNL A   1      31.845  27.219  26.220  1.00  0.00    -0.011 C 
ATOM     11  C   UNL A   1      31.519  28.182  25.107  1.00  0.00     0.013 C 
ATOM     12  C   UNL A   1      31.339  25.759  26.263  1.00  0.00     0.098 C 
BRANCH  12  13
ATOM     13  C   UNL A   1      30.347  25.172  25.341  1.00  0.00     0.228 C 
ATOM     14  O   UNL A   1      29.346  25.805  25.030  1.00  0.00    -0.274 OA
ATOM     15  N   UNL A   1      30.502  23.881  24.877  1.00  0.00    -0.326 N 
ATOM     16  H   UNL A   1      29.698  23.435  24.525  1.00  0.00     0.169 HD
BRANCH  15  17
ATOM     17  C   UNL A   1      31.691  23.149  24.862  1.00  0.00     0.041 A 
ATOM     18  C   UNL A   1      32.088  22.631  26.085  1.00  0.00     0.028 A 
ATOM     19  C   UNL A   1      32.399  22.813  23.711  1.00  0.00     0.028 A 
ATOM     20  C   UNL A   1      33.027  21.613  26.118  1.00  0.00     0.028 A 
ATOM     21  C   UNL A   1      33.498  21.942  23.807  1.00  0.00     0.028 A 
ATOM     22  C   UNL A   1      33.820  21.333  25.027  1.00  0.00     0.041 A 
BRANCH  22  23
ATOM     23  N   UNL A   1      34.917  20.468  25.091  1.00  0.00    -0.326 N 
ATOM     24  C   UNL A   1      35.096  19.127  24.806  1.00  0.00     0.227 C 
ATOM     25  H   UNL A   1      35.738  20.908  25.407  1.00  0.00     0.169 HD
ATOM     26  O   UNL A   1      36.265  18.723  24.972  1.00  0.00    -0.274 OA
BRANCH  24  27
ATOM     27  C   UNL A   1      34.001  18.138  24.321  1.00  0.00     0.079 C 
ATOM     28  C   UNL A   1      34.426  16.628  24.451  1.00  0.00     0.013 C 
ATOM     29  C   UNL A   1      32.735  17.686  25.120  1.00  0.00     0.013 C 
ATOM     30  C   UNL A   1      32.938  16.277  24.556  1.00  0.00     0.002 C 
ENDBRANCH  24  27
ENDBRANCH  22  23
ENDBRANCH  15  17
ENDBRANCH  12  13
ENDBRANCH   5   8
ENDBRANCH   3   4
ENDBRANCH   2   3
ENDBRANCH   1   2
BRANCH   1  31
ATOM     31  C   UNL A   1      38.732  22.734  26.332  1.00  0.00     0.002 C 
BRANCH  31  32
ATOM     32  C   UNL A   1      39.038  21.410  25.628  1.00  0.00     0.021 C 
BRANCH  32  33
ATOM     33  C   UNL A   1      39.457  20.270  26.551  1.00  0.00     0.116 C 
BRANCH  33  34
ATOM     34  N   UNL A   1      40.619  19.552  26.058  1.00  0.00    -0.352 N 
ATOM     35  C   UNL A   1      41.895  20.017  25.862  1.00  0.00     0.251 C 
ATOM     36  H   UNL A   1      40.471  18.604  25.836  1.00  0.00     0.163 HD
ATOM     37  O   UNL A   1      42.726  19.309  25.298  1.00  0.00    -0.269 OA
BRANCH  35  38
ATOM     38  C   UNL A   1      42.257  21.380  26.306  1.00  0.00     0.039 A 
ATOM     39  C   UNL A   1      42.456  22.372  25.344  1.00  0.00     0.014 A 
ATOM     40  C   UNL A   1      42.398  21.678  27.665  1.00  0.00     0.014 A 
ATOM     41  C   UNL A   1      42.753  23.675  25.746  1.00  0.00     0.010 A 
ATOM     42  C   UNL A   1      42.625  22.992  28.066  1.00  0.00     0.010 A 
ATOM     43  C   UNL A   1      42.817  24.002  27.111  1.00  0.00    -0.014 A 
BRANCH  43  44
ATOM     44  C   UNL A   1      43.088  25.393  27.555  1.00  0.00     0.031 A 
ATOM     45  C   UNL A   1      44.496  25.923  27.568  1.00  0.00     0.074 A 
ATOM     46  C   UNL A   1      42.075  26.152  28.017  1.00  0.00     0.049 A 
ATOM     47  N   UNL A   1      44.931  27.095  27.953  1.00  0.00    -0.248 NA
ATOM     48  C   UNL A   1      45.559  25.010  27.117  1.00  0.00     0.031 C 
ATOM     49  C   UNL A   1      40.680  25.721  28.134  1.00  0.00     0.029 A 
ATOM     50  N   UNL A   1      42.067  27.438  28.499  1.00  0.00    -0.354 N 
ATOM     51  C   UNL A   1      46.315  27.048  27.826  1.00  0.00     0.074 A 
ATOM     52  C   UNL A   1      46.651  25.721  27.360  1.00  0.00     0.031 C 
ATOM     53  C   UNL A   1      39.952  26.724  28.651  1.00  0.00     0.029 A 
ATOM     54  C   UNL A   1      40.828  27.860  28.923  1.00  0.00     0.049 A 
ATOM     55  H   UNL A   1      42.871  28.003  28.538  1.00  0.00     0.167 HD
ATOM     56  C   UNL A   1      47.221  28.030  28.047  1.00  0.00     0.034 A 
ATOM     57  C   UNL A   1      40.442  29.030  29.470  1.00  0.00     0.034 A 
ATOM     58  C   UNL A   1      46.877  29.363  28.462  1.00  0.00     0.049 A 
ATOM     59  C   UNL A   1      41.461  30.124  29.646  1.00  0.00     0.074 A 
ATOM     60  C   UNL A   1      47.711  30.455  28.622  1.00  0.00     0.029 A 
ATOM     61  N   UNL A   1      45.598  29.786  28.784  1.00  0.00    -0.354 N 
ATOM     62  N   UNL A   1      42.741  30.114  29.360  1.00  0.00    -0.248 NA
ATOM     63  C   UNL A   1      40.976  31.404  30.179  1.00  0.00     0.031 C 
ATOM     64  C   UNL A   1      46.937  31.536  29.059  1.00  0.00     0.029 A 
ATOM     65  C   UNL A   1      45.617  31.122  29.147  1.00  0.00     0.049 A 
ATOM     66  H   UNL A   1      44.793  29.220  28.758  1.00  0.00     0.167 HD
ATOM     67  C   UNL A   1      43.204  31.393  29.641  1.00  0.00     0.074 A 
ATOM     68  C   UNL A   1      42.064  32.158  30.100  1.00  0.00     0.031 C 
ATOM     69  C   UNL A   1      44.464  31.886  29.545  1.00  0.00     0.034 A 
BRANCH  56  70
ATOM     70  C   UNL A   1      48.671  27.717  27.786  1.00  0.00     0.023 A 
ATOM     71  C   UNL A   1      49.465  27.181  28.821  1.00  0.00     0.012 A 
ATOM     72  C   UNL A   1      49.234  27.892  26.505  1.00  0.00     0.148 A 
ATOM     73  C   UNL A   1      50.802  26.857  28.598  1.00  0.00     0.002 A 
ATOM     74  C   UNL A   1      50.555  27.524  26.279  1.00  0.00     0.091 A 
ATOM     75  F   UNL A   1      48.471  28.421  25.539  1.00  0.00    -0.205 F 
ATOM     76  C   UNL A   1      51.343  27.018  27.326  1.00  0.00     0.022 A 
BRANCH  74  77
ATOM     77  S   UNL A   1      51.323  27.616  24.658  1.00  0.00     0.127 S 
ATOM     78  O   UNL A   1      50.406  26.811  23.851  1.00  0.00    -0.237 OA
ATOM     79  O   UNL A   1      51.280  29.052  24.378  1.00  0.00    -0.237 OA
ATOM     80  O   UNL A   1      52.662  27.068  24.815  1.00  0.00    -0.744 OA
ENDBRANCH  74  77
ENDBRANCH  56  70
BRANCH  57  81
ATOM     81  C   UNL A   1      39.011  29.253  29.817  1.00  0.00     0.023 A 
ATOM     82  C   UNL A   1      38.562  28.965  31.121  1.00  0.00     0.012 A 
ATOM     83  C   UNL A   1      38.099  29.773  28.878  1.00  0.00     0.148 A 
ATOM     84  C   UNL A   1      37.225  29.156  31.473  1.00  0.00     0.002 A 
ATOM     85  C   UNL A   1      36.782  30.015  29.252  1.00  0.00     0.091 A 
ATOM     86  F   UNL A   1      38.541  30.031  27.639  1.00  0.00    -0.205 F 
ATOM     87  C   UNL A   1      36.339  29.690  30.543  1.00  0.00     0.022 A 
BRANCH  85  88
ATOM     88  S   UNL A   1      35.607  30.824  28.160  1.00  0.00     0.127 S 
ATOM     89  O   UNL A   1      34.527  31.166  29.083  1.00  0.00    -0.237 OA
ATOM     90  O   UNL A   1      36.383  31.965  27.671  1.00  0.00    -0.237 OA
ATOM     91  O   UNL A   1      35.282  29.840  27.137  1.00  0.00    -0.744 OA
ENDBRANCH  85  88
ENDBRANCH  57  81
BRANCH  69  92
ATOM     92  C   UNL A   1      44.677  33.334  29.903  1.00  0.00     0.023 A 
ATOM     93  C   UNL A   1      45.037  33.685  31.219  1.00  0.00     0.012 A 
ATOM     94  C   UNL A   1      44.588  34.338  28.919  1.00  0.00     0.148 A 
ATOM     95  C   UNL A   1      45.272  35.017  31.558  1.00  0.00     0.002 A 
ATOM     96  C   UNL A   1      44.872  35.657  29.253  1.00  0.00     0.091 A 
ATOM     97  F   UNL A   1      44.224  33.987  27.677  1.00  0.00    -0.205 F 
ATOM     98  C   UNL A   1      45.202  35.999  30.574  1.00  0.00     0.022 A 
BRANCH  96  99
ATOM     99  S   UNL A   1      44.902  36.970  28.028  1.00  0.00     0.127 S 
ATOM    100  O   UNL A   1      45.594  38.036  28.750  1.00  0.00    -0.237 OA
ATOM    101  O   UNL A   1      45.676  36.367  26.942  1.00  0.00    -0.237 OA
ATOM    102  O   UNL A   1      43.509  37.238  27.696  1.00  0.00    -0.744 OA
ENDBRANCH  96  99
ENDBRANCH  69  92
ENDBRANCH  43  44
ENDBRANCH  35  38
ENDBRANCH  33  34
ENDBRANCH  32  33
ENDBRANCH  31  32
ENDBRANCH   1  31
TORSDOF 20
ENDMDL
MODEL 3
REMARK VINA RESULT:     -11.0      1.870      2.301
REMARK SMILES CC1(C)[C@H](C(=O)NCCCCCCNC(=O)c2ccc(-c3c4nc(c(-c5cccc(S(=O)(=O)[O-])c5F)c5ccc([nH]5)c(-c5cccc(S(=O)(=O)[O-])c5F)c5nc(c(-c6cccc(S(=O)(=O)[O-])c6F)c6ccc3[nH]6)C=C5)C=C4)cc2)[C@@H]1C(=O)Nc1ccc(NC(=O)C2CCC2)cc1
REMARK SMILES IDX 10 1 9 2 8 3 7 4 5 5 6 6 4 8 1 9 2 10 3 11 80 12 81 13 82 14
REMARK SMILES IDX 83 15 84 17 85 18 96 19 86 20 95 21 87 22 88 23 89 24 90 26
REMARK SMILES IDX 91 27 92 28 94 29 93 30 11 31 12 32 13 33 14 34 15 35 16 37
REMARK SMILES IDX 17 38 18 39 79 40 19 41 78 42 20 43 21 44 22 45 72 46 23 47
REMARK SMILES IDX 77 48 71 49 73 50 24 51 76 52 70 53 69 54 25 56 57 57 37 58
REMARK SMILES IDX 56 59 38 60 41 61 55 62 74 63 39 64 40 65 54 67 75 68 42 69
REMARK SMILES IDX 26 70 27 71 35 72 28 73 30 74 36 75 29 76 31 77 32 78 33 79
REMARK SMILES IDX 34 80 58 81 59 82 67 83 60 84 62 85 68 86 61 87 63 88 64 89
REMARK SMILES IDX 65 90 66 91 43 92 44 93 52 94 45 95 47 96 53 97 46 98 48 99
REMARK SMILES IDX 49 100 50 101 51 102
REMARK H PARENT 7 7 83 16 88 25 14 36 73 55 41 66
REMARK Flexibility Score: inf
ROOT
ATOM      1  C   UNL A   1      34.865  23.809  22.705  1.00  0.00     0.002 C 
ENDROOT
BRANCH   1   2
ATOM      2  C   UNL A   1      34.122  25.052  23.221  1.00  0.00     0.021 C 
BRANCH   2   3
ATOM      3  C   UNL A   1      33.688  26.015  22.120  1.00  0.00     0.116 C 
BRANCH   3   4
ATOM      4  N   UNL A   1      32.754  26.991  22.637  1.00  0.00    -0.356 N 
ATOM      5  C   UNL A   1      32.516  27.575  23.843  1.00  0.00     0.224 C 
ATOM      6  O   UNL A   1      31.568  28.365  23.860  1.00  0.00    -0.275 OA
ATOM      7  H   UNL A   1      32.133  27.313  21.944  1.00  0.00     0.163 HD
BRANCH   5   8
ATOM      8  C   UNL A   1      33.245  27.401  25.122  1.00  0.00     0.098 C 
ATOM      9  C   UNL A   1      35.053  28.511  26.565  1.00  0.00     0.013 C 
ATOM     10  C   UNL A   1      33.601  28.473  26.138  1.00  0.00    -0.011 C 
ATOM     11  C   UNL A   1      33.012  29.858  26.044  1.00  0.00     0.013 C 
ATOM     12  C   UNL A   1      32.784  27.222  26.534  1.00  0.00     0.098 C 
BRANCH  12  13
ATOM     13  C   UNL A   1      31.396  27.232  27.037  1.00  0.00     0.228 C 
ATOM     14  O   UNL A   1      30.969  28.206  27.645  1.00  0.00    -0.274 OA
ATOM     15  N   UNL A   1      30.591  26.121  26.889  1.00  0.00    -0.326 N 
ATOM     16  H   UNL A   1      29.808  26.057  27.483  1.00  0.00     0.169 HD
BRANCH  15  17
ATOM     17  C   UNL A   1      30.782  25.080  25.978  1.00  0.00     0.041 A 
ATOM     18  C   UNL A   1      30.151  25.235  24.755  1.00  0.00     0.028 A 
ATOM     19  C   UNL A   1      31.644  24.005  26.177  1.00  0.00     0.028 A 
ATOM     20  C   UNL A   1      30.558  24.464  23.678  1.00  0.00     0.028 A 
ATOM     21  C   UNL A   1      31.870  23.100  25.124  1.00  0.00     0.028 A 
ATOM     22  C   UNL A   1      31.320  23.330  23.856  1.00  0.00     0.041 A 
BRANCH  22  23
ATOM     23  N   UNL A   1      31.565  22.414  22.828  1.00  0.00    -0.326 N 
ATOM     24  C   UNL A   1      31.973  21.093  22.801  1.00  0.00     0.227 C 
ATOM     25  H   UNL A   1      31.414  22.790  21.932  1.00  0.00     0.169 HD
ATOM     26  O   UNL A   1      32.051  20.609  21.654  1.00  0.00    -0.274 OA
BRANCH  24  27
ATOM     27  C   UNL A   1      32.324  20.216  24.033  1.00  0.00     0.079 C 
ATOM     28  C   UNL A   1      32.275  18.672  23.731  1.00  0.00     0.013 C 
ATOM     29  C   UNL A   1      33.758  19.903  24.574  1.00  0.00     0.013 C 
ATOM     30  C   UNL A   1      33.287  18.475  24.863  1.00  0.00     0.002 C 
ENDBRANCH  24  27
ENDBRANCH  22  23
ENDBRANCH  15  17
ENDBRANCH  12  13
ENDBRANCH   5   8
ENDBRANCH   3   4
ENDBRANCH   2   3
ENDBRANCH   1   2
BRANCH   1  31
ATOM     31  C   UNL A   1      35.224  22.760  23.764  1.00  0.00     0.002 C 
BRANCH  31  32
ATOM     32  C   UNL A   1      35.607  23.316  25.138  1.00  0.00     0.021 C 
BRANCH  32  33
ATOM     33  C   UNL A   1      37.030  23.856  25.241  1.00  0.00     0.116 C 
BRANCH  33  34
ATOM     34  N   UNL A   1      37.988  22.836  25.630  1.00  0.00    -0.352 N 
ATOM     35  C   UNL A   1      39.171  22.984  26.309  1.00  0.00     0.251 C 
ATOM     36  H   UNL A   1      37.756  21.915  25.372  1.00  0.00     0.163 HD
ATOM     37  O   UNL A   1      39.933  22.028  26.429  1.00  0.00    -0.269 OA
BRANCH  35  38
ATOM     38  C   UNL A   1      39.535  24.302  26.872  1.00  0.00     0.039 A 
ATOM     39  C   UNL A   1      39.227  24.573  28.207  1.00  0.00     0.014 A 
ATOM     40  C   UNL A   1      40.175  25.266  26.088  1.00  0.00     0.014 A 
ATOM     41  C   UNL A   1      39.603  25.794  28.770  1.00  0.00     0.010 A 
ATOM     42  C   UNL A   1      40.610  26.454  26.669  1.00  0.00     0.010 A 
ATOM     43  C   UNL A   1      40.317  26.736  28.012  1.00  0.00    -0.014 A 
BRANCH  43  44
ATOM     44  C   UNL A   1      40.763  28.021  28.608  1.00  0.00     0.031 A 
ATOM     45  C   UNL A   1      42.230  28.302  28.793  1.00  0.00     0.074 A 
ATOM     46  C   UNL A   1      39.845  28.903  29.049  1.00  0.00     0.049 A 
ATOM     47  N   UNL A   1      42.808  29.349  29.324  1.00  0.00    -0.248 NA
ATOM     48  C   UNL A   1      43.172  27.260  28.352  1.00  0.00     0.031 C 
ATOM     49  C   UNL A   1      38.394  28.708  29.003  1.00  0.00     0.029 A 
ATOM     50  N   UNL A   1      39.996  30.130  29.648  1.00  0.00    -0.354 N 
ATOM     51  C   UNL A   1      44.171  29.077  29.314  1.00  0.00     0.074 A 
ATOM     52  C   UNL A   1      44.333  27.753  28.756  1.00  0.00     0.031 C 
ATOM     53  C   UNL A   1      37.789  29.777  29.547  1.00  0.00     0.029 A 
ATOM     54  C   UNL A   1      38.806  30.721  30.001  1.00  0.00     0.049 A 
ATOM     55  H   UNL A   1      40.873  30.545  29.810  1.00  0.00     0.167 HD
ATOM     56  C   UNL A   1      45.197  29.869  29.705  1.00  0.00     0.034 A 
ATOM     57  C   UNL A   1      38.560  31.893  30.620  1.00  0.00     0.034 A 
ATOM     58  C   UNL A   1      45.034  31.205  30.212  1.00  0.00     0.049 A 
ATOM     59  C   UNL A   1      39.720  32.781  30.986  1.00  0.00     0.074 A 
ATOM     60  C   UNL A   1      46.013  32.123  30.547  1.00  0.00     0.029 A 
ATOM     61  N   UNL A   1      43.813  31.813  30.460  1.00  0.00    -0.354 N 
ATOM     62  N   UNL A   1      41.003  32.576  30.813  1.00  0.00    -0.248 NA
ATOM     63  C   UNL A   1      39.397  34.080  31.594  1.00  0.00     0.031 C 
ATOM     64  C   UNL A   1      45.383  33.282  31.015  1.00  0.00     0.029 A 
ATOM     65  C   UNL A   1      44.012  33.093  30.948  1.00  0.00     0.049 A 
ATOM     66  H   UNL A   1      42.934  31.396  30.311  1.00  0.00     0.167 HD
ATOM     67  C   UNL A   1      41.637  33.731  31.253  1.00  0.00     0.074 A 
ATOM     68  C   UNL A   1      40.595  34.641  31.681  1.00  0.00     0.031 C 
ATOM     69  C   UNL A   1      42.963  34.009  31.315  1.00  0.00     0.034 A 
BRANCH  56  70
ATOM     70  C   UNL A   1      46.597  29.336  29.543  1.00  0.00     0.023 A 
ATOM     71  C   UNL A   1      47.123  28.459  30.513  1.00  0.00     0.012 A 
ATOM     72  C   UNL A   1      47.367  29.649  28.405  1.00  0.00     0.148 A 
ATOM     73  C   UNL A   1      48.405  27.929  30.373  1.00  0.00     0.002 A 
ATOM     74  C   UNL A   1      48.626  29.080  28.250  1.00  0.00     0.091 A 
ATOM     75  F   UNL A   1      46.859  30.500  27.503  1.00  0.00    -0.205 F 
ATOM     76  C   UNL A   1      49.151  28.230  29.238  1.00  0.00     0.022 A 
BRANCH  74  77
ATOM     77  S   UNL A   1      49.634  29.342  26.786  1.00  0.00     0.127 S 
ATOM     78  O   UNL A   1      50.901  28.731  27.188  1.00  0.00    -0.237 OA
ATOM     79  O   UNL A   1      48.895  28.597  25.766  1.00  0.00    -0.237 OA
ATOM     80  O   UNL A   1      49.674  30.782  26.577  1.00  0.00    -0.744 OA
ENDBRANCH  74  77
ENDBRANCH  56  70
BRANCH  57  81
ATOM     81  C   UNL A   1      37.156  32.330  30.860  1.00  0.00     0.023 A 
ATOM     82  C   UNL A   1      36.625  32.261  32.163  1.00  0.00     0.012 A 
ATOM     83  C   UNL A   1      36.355  32.835  29.819  1.00  0.00     0.148 A 
ATOM     84  C   UNL A   1      35.310  32.655  32.418  1.00  0.00     0.002 A 
ATOM     85  C   UNL A   1      35.065  33.278  30.090  1.00  0.00     0.091 A 
ATOM     86  F   UNL A   1      36.873  32.882  28.583  1.00  0.00    -0.205 F 
ATOM     87  C   UNL A   1      34.535  33.172  31.384  1.00  0.00     0.022 A 
BRANCH  85  88
ATOM     88  S   UNL A   1      34.045  34.081  28.848  1.00  0.00     0.127 S 
ATOM     89  O   UNL A   1      34.944  35.118  28.347  1.00  0.00    -0.237 OA
ATOM     90  O   UNL A   1      33.785  32.986  27.913  1.00  0.00    -0.237 OA
ATOM     91  O   UNL A   1      32.864  34.552  29.558  1.00  0.00    -0.744 OA
ENDBRANCH  85  88
ENDBRANCH  57  81
BRANCH  69  92
ATOM     92  C   UNL A   1      43.370  35.367  31.825  1.00  0.00     0.023 A 
ATOM     93  C   UNL A   1      43.632  36.408  30.914  1.00  0.00     0.012 A 
ATOM     94  C   UNL A   1      43.424  35.627  33.209  1.00  0.00     0.148 A 
ATOM     95  C   UNL A   1      43.975  37.681  31.371  1.00  0.00     0.002 A 
ATOM     96  C   UNL A   1      43.719  36.909  33.657  1.00  0.00     0.091 A 
ATOM     97  F   UNL A   1      43.192  34.618  34.060  1.00  0.00    -0.205 F 
ATOM     98  C   UNL A   1      44.006  37.933  32.740  1.00  0.00     0.022 A 
BRANCH  96  99
ATOM     99  S   UNL A   1      43.684  37.346  35.399  1.00  0.00     0.127 S 
ATOM    100  O   UNL A   1      44.779  36.536  35.931  1.00  0.00    -0.237 OA
ATOM    101  O   UNL A   1      43.952  38.785  35.366  1.00  0.00    -0.237 OA
ATOM    102  O   UNL A   1      42.353  36.993  35.872  1.00  0.00    -0.744 OA
ENDBRANCH  96  99
ENDBRANCH  69  92
ENDBRANCH  43  44
ENDBRANCH  35  38
ENDBRANCH  33  34
ENDBRANCH  32  33
ENDBRANCH  31  32
ENDBRANCH   1  31
TORSDOF 20
ENDMDL
