MODEL 1
REMARK VINA RESULT:     -11.0      0.000      0.000
REMARK SMILES N#C/C(=C\c1ccc(-c2cc(C(F)(F)F)ccc2Cl)o1)C(=O)NCCCCCCNC(=O)c1ccc(-c2c3nc(c(-c4cccc(S(=O)(=O)[O-])c4F)c4ccc([nH]4)c(-c4cccc(S(=O)(=O)[O-])c4F)c4nc(c(-c5cccc(S(=O)(=O)[O-])c5F)c5ccc2[nH]5)C=C4)C=C3)cc1
REMARK SMILES IDX 26 1 25 2 24 3 23 4 21 5 22 6 3 8 4 9 2 10 1 11 5 12 6 13
REMARK SMILES IDX 20 14 7 15 8 16 9 17 10 18 18 19 11 20 17 21 19 22 16 23
REMARK SMILES IDX 12 24 13 25 14 26 15 27 27 28 28 29 29 30 30 31 31 32 32 34
REMARK SMILES IDX 33 35 34 36 95 37 35 38 94 39 36 40 37 41 38 42 88 43 39 44
REMARK SMILES IDX 93 45 87 46 89 47 40 48 92 49 86 50 85 51 41 53 73 54 53 55
REMARK SMILES IDX 72 56 54 57 57 58 71 59 90 60 55 61 56 62 70 64 91 65 58 66
REMARK SMILES IDX 42 67 43 68 51 69 44 70 46 71 52 72 45 73 47 74 48 75 49 76
REMARK SMILES IDX 50 77 74 78 75 79 83 80 76 81 78 82 84 83 77 84 79 85 80 86
REMARK SMILES IDX 81 87 82 88 59 89 60 90 68 91 61 92 63 93 69 94 62 95 64 96
REMARK SMILES IDX 65 97 66 98 67 99
REMARK H PARENT 23 7 30 33 89 52 57 63
REMARK Flexibility Score: inf
ROOT
ATOM      1  C   UNL A   1      35.265  21.819  25.995  1.00  0.00     0.002 C 
ENDROOT
BRANCH   1   2
ATOM      2  C   UNL A   1      35.007  20.560  25.174  1.00  0.00     0.021 C 
BRANCH   2   3
ATOM      3  C   UNL A   1      33.578  20.039  25.215  1.00  0.00     0.116 C 
BRANCH   3   4
ATOM      4  N   UNL A   1      32.941  19.981  23.906  1.00  0.00    -0.351 N 
ATOM      5  C   UNL A   1      32.370  20.925  23.100  1.00  0.00     0.262 C 
ATOM      6  O   UNL A   1      31.906  20.547  22.023  1.00  0.00    -0.268 OA
ATOM      7  H   UNL A   1      32.917  19.075  23.523  1.00  0.00     0.163 HD
BRANCH   5   8
ATOM      8  C   UNL A   1      32.244  22.349  23.494  1.00  0.00     0.120 C 
ATOM      9  C   UNL A   1      31.470  22.840  24.497  1.00  0.00     0.072 C 
BRANCH   8  10
ATOM     10  C   UNL A   1      33.353  23.328  23.143  1.00  0.00     0.105 C 
ATOM     11  N   UNL A   1      34.273  24.139  22.852  1.00  0.00    -0.192 NA
ENDBRANCH   8  10
BRANCH   9  12
ATOM     12  C   UNL A   1      31.337  24.242  24.808  1.00  0.00     0.129 A 
ATOM     13  C   UNL A   1      31.571  24.930  25.999  1.00  0.00     0.051 A 
ATOM     14  O   UNL A   1      30.980  25.188  23.865  1.00  0.00    -0.457 OA
ATOM     15  C   UNL A   1      31.301  26.298  25.785  1.00  0.00     0.051 A 
ATOM     16  C   UNL A   1      30.981  26.421  24.454  1.00  0.00     0.136 A 
BRANCH  16  17
ATOM     17  C   UNL A   1      30.669  27.564  23.605  1.00  0.00     0.036 A 
ATOM     18  C   UNL A   1      29.356  28.072  23.590  1.00  0.00     0.026 A 
ATOM     19  C   UNL A   1      31.647  28.222  22.837  1.00  0.00     0.052 A 
ATOM     20  C   UNL A   1      29.021  29.221  22.844  1.00  0.00     0.056 A 
ATOM     21  C   UNL A   1      31.318  29.350  22.076  1.00  0.00     0.022 A 
ATOM     22  Cl  UNL A   1      33.296  27.693  22.767  1.00  0.00    -0.084 Cl
ATOM     23  C   UNL A   1      30.015  29.847  22.082  1.00  0.00     0.014 A 
BRANCH  20  24
ATOM     24  C   UNL A   1      27.617  29.772  22.893  1.00  0.00     0.416 C 
ATOM     25  F   UNL A   1      26.672  28.820  23.103  1.00  0.00    -0.166 F 
ATOM     26  F   UNL A   1      27.463  30.676  23.906  1.00  0.00    -0.166 F 
ATOM     27  F   UNL A   1      27.250  30.436  21.762  1.00  0.00    -0.166 F 
ENDBRANCH  20  24
ENDBRANCH  16  17
ENDBRANCH   9  12
ENDBRANCH   5   8
ENDBRANCH   3   4
ENDBRANCH   2   3
ENDBRANCH   1   2
BRANCH   1  28
ATOM     28  C   UNL A   1      36.375  22.739  25.474  1.00  0.00     0.002 C 
BRANCH  28  29
ATOM     29  C   UNL A   1      37.748  22.090  25.274  1.00  0.00     0.021 C 
BRANCH  29  30
ATOM     30  C   UNL A   1      38.797  22.461  26.315  1.00  0.00     0.116 C 
BRANCH  30  31
ATOM     31  N   UNL A   1      40.101  21.894  26.006  1.00  0.00    -0.352 N 
ATOM     32  C   UNL A   1      41.331  22.508  26.014  1.00  0.00     0.251 C 
ATOM     33  H   UNL A   1      40.103  20.940  25.759  1.00  0.00     0.163 HD
ATOM     34  O   UNL A   1      42.311  21.944  25.551  1.00  0.00    -0.269 OA
BRANCH  32  35
ATOM     35  C   UNL A   1      41.447  23.870  26.577  1.00  0.00     0.039 A 
ATOM     36  C   UNL A   1      41.644  24.029  27.951  1.00  0.00     0.014 A 
ATOM     37  C   UNL A   1      41.379  24.985  25.736  1.00  0.00     0.014 A 
ATOM     38  C   UNL A   1      41.835  25.309  28.479  1.00  0.00     0.010 A 
ATOM     39  C   UNL A   1      41.633  26.249  26.252  1.00  0.00     0.010 A 
ATOM     40  C   UNL A   1      41.859  26.425  27.627  1.00  0.00    -0.014 A 
BRANCH  40  41
ATOM     41  C   UNL A   1      42.118  27.797  28.130  1.00  0.00     0.031 A 
ATOM     42  C   UNL A   1      43.534  28.259  28.328  1.00  0.00     0.074 A 
ATOM     43  C   UNL A   1      41.091  28.559  28.549  1.00  0.00     0.049 A 
ATOM     44  N   UNL A   1      43.977  29.335  28.922  1.00  0.00    -0.248 NA
ATOM     45  C   UNL A   1      44.594  27.368  27.827  1.00  0.00     0.031 C 
ATOM     46  C   UNL A   1      39.678  28.186  28.482  1.00  0.00     0.029 A 
ATOM     47  N   UNL A   1      41.083  29.786  29.167  1.00  0.00    -0.354 N 
ATOM     48  C   UNL A   1      45.361  29.224  28.922  1.00  0.00     0.074 A 
ATOM     49  C   UNL A   1      45.684  27.965  28.286  1.00  0.00     0.031 C 
ATOM     50  C   UNL A   1      38.941  29.148  29.060  1.00  0.00     0.029 A 
ATOM     51  C   UNL A   1      39.830  30.188  29.568  1.00  0.00     0.049 A 
ATOM     52  H   UNL A   1      41.894  30.325  29.309  1.00  0.00     0.167 HD
ATOM     53  C   UNL A   1      46.283  30.100  29.389  1.00  0.00     0.034 A 
ATOM     54  C   UNL A   1      39.442  31.260  30.286  1.00  0.00     0.034 A 
ATOM     55  C   UNL A   1      45.954  31.373  29.968  1.00  0.00     0.049 A 
ATOM     56  C   UNL A   1      40.475  32.257  30.733  1.00  0.00     0.074 A 
ATOM     57  C   UNL A   1      46.811  32.383  30.367  1.00  0.00     0.029 A 
ATOM     58  N   UNL A   1      44.666  31.811  30.237  1.00  0.00    -0.354 N 
ATOM     59  N   UNL A   1      41.777  32.215  30.581  1.00  0.00    -0.248 NA
ATOM     60  C   UNL A   1      39.990  33.464  31.416  1.00  0.00     0.031 C 
ATOM     61  C   UNL A   1      46.040  33.425  30.894  1.00  0.00     0.029 A 
ATOM     62  C   UNL A   1      44.703  33.073  30.802  1.00  0.00     0.049 A 
ATOM     63  H   UNL A   1      43.846  31.298  30.051  1.00  0.00     0.167 HD
ATOM     64  C   UNL A   1      42.263  33.403  31.114  1.00  0.00     0.074 A 
ATOM     65  C   UNL A   1      41.115  34.149  31.586  1.00  0.00     0.031 C 
ATOM     66  C   UNL A   1      43.546  33.829  31.214  1.00  0.00     0.034 A 
BRANCH  53  67
ATOM     67  C   UNL A   1      47.734  29.721  29.250  1.00  0.00     0.023 A 
ATOM     68  C   UNL A   1      48.411  29.137  30.339  1.00  0.00     0.012 A 
ATOM     69  C   UNL A   1      48.421  29.920  28.036  1.00  0.00     0.148 A 
ATOM     70  C   UNL A   1      49.761  28.802  30.242  1.00  0.00     0.002 A 
ATOM     71  C   UNL A   1      49.755  29.539  27.931  1.00  0.00     0.091 A 
ATOM     72  F   UNL A   1      47.772  30.500  27.016  1.00  0.00    -0.205 F 
ATOM     73  C   UNL A   1      50.429  28.995  29.036  1.00  0.00     0.022 A 
BRANCH  71  74
ATOM     74  S   UNL A   1      50.669  29.678  26.392  1.00  0.00     0.127 S 
ATOM     75  O   UNL A   1      49.844  28.883  25.484  1.00  0.00    -0.237 OA
ATOM     76  O   UNL A   1      50.636  31.121  26.137  1.00  0.00    -0.237 OA
ATOM     77  O   UNL A   1      51.997  29.149  26.672  1.00  0.00    -0.744 OA
ENDBRANCH  71  74
ENDBRANCH  53  67
BRANCH  54  78
ATOM     78  C   UNL A   1      37.993  31.462  30.568  1.00  0.00     0.023 A 
ATOM     79  C   UNL A   1      37.456  31.001  31.785  1.00  0.00     0.012 A 
ATOM     80  C   UNL A   1      37.168  32.177  29.678  1.00  0.00     0.148 A 
ATOM     81  C   UNL A   1      36.119  31.236  32.105  1.00  0.00     0.002 A 
ATOM     82  C   UNL A   1      35.852  32.455  30.026  1.00  0.00     0.091 A 
ATOM     83  F   UNL A   1      37.701  32.602  28.522  1.00  0.00    -0.205 F 
ATOM     84  C   UNL A   1      35.321  31.973  31.233  1.00  0.00     0.022 A 
BRANCH  82  85
ATOM     85  S   UNL A   1      34.791  33.512  29.034  1.00  0.00     0.127 S 
ATOM     86  O   UNL A   1      33.707  33.808  29.967  1.00  0.00    -0.237 OA
ATOM     87  O   UNL A   1      35.679  34.637  28.741  1.00  0.00    -0.237 OA
ATOM     88  O   UNL A   1      34.418  32.720  27.869  1.00  0.00    -0.744 OA
ENDBRANCH  82  85
ENDBRANCH  54  78
BRANCH  66  89
ATOM     89  C   UNL A   1      43.794  35.187  31.818  1.00  0.00     0.023 A 
ATOM     90  C   UNL A   1      43.871  36.320  30.986  1.00  0.00     0.012 A 
ATOM     91  C   UNL A   1      43.837  35.348  33.217  1.00  0.00     0.148 A 
ATOM     92  C   UNL A   1      44.006  37.594  31.538  1.00  0.00     0.002 A 
ATOM     93  C   UNL A   1      43.926  36.623  33.761  1.00  0.00     0.091 A 
ATOM     94  F   UNL A   1      43.782  34.253  33.989  1.00  0.00    -0.205 F 
ATOM     95  C   UNL A   1      44.020  37.746  32.923  1.00  0.00     0.022 A 
BRANCH  93  96
ATOM     96  S   UNL A   1      43.850  36.922  35.531  1.00  0.00     0.127 S 
ATOM     97  O   UNL A   1      44.037  38.371  35.596  1.00  0.00    -0.237 OA
ATOM     98  O   UNL A   1      42.500  36.466  35.865  1.00  0.00    -0.237 OA
ATOM     99  O   UNL A   1      44.919  36.128  36.118  1.00  0.00    -0.744 OA
ENDBRANCH  93  96
ENDBRANCH  66  89
ENDBRANCH  40  41
ENDBRANCH  32  35
ENDBRANCH  30  31
ENDBRANCH  29  30
ENDBRANCH  28  29
ENDBRANCH   1  28
TORSDOF 20
ENDMDL
MODEL 2
REMARK VINA RESULT:     -10.9      2.807      3.347
REMARK SMILES N#C/C(=C\c1ccc(-c2cc(C(F)(F)F)ccc2Cl)o1)C(=O)NCCCCCCNC(=O)c1ccc(-c2c3nc(c(-c4cccc(S(=O)(=O)[O-])c4F)c4ccc([nH]4)c(-c4cccc(S(=O)(=O)[O-])c4F)c4nc(c(-c5cccc(S(=O)(=O)[O-])c5F)c5ccc2[nH]5)C=C4)C=C3)cc1
REMARK SMILES IDX 26 1 25 2 24 3 23 4 21 5 22 6 3 8 4 9 2 10 1 11 5 12 6 13
REMARK SMILES IDX 20 14 7 15 8 16 9 17 10 18 18 19 11 20 17 21 19 22 16 23
REMARK SMILES IDX 12 24 13 25 14 26 15 27 27 28 28 29 29 30 30 31 31 32 32 34
REMARK SMILES IDX 33 35 34 36 95 37 35 38 94 39 36 40 37 41 38 42 88 43 39 44
REMARK SMILES IDX 93 45 87 46 89 47 40 48 92 49 86 50 85 51 41 53 73 54 53 55
REMARK SMILES IDX 72 56 54 57 57 58 71 59 90 60 55 61 56 62 70 64 91 65 58 66
REMARK SMILES IDX 42 67 43 68 51 69 44 70 46 71 52 72 45 73 47 74 48 75 49 76
REMARK SMILES IDX 50 77 74 78 75 79 83 80 76 81 78 82 84 83 77 84 79 85 80 86
REMARK SMILES IDX 81 87 82 88 59 89 60 90 68 91 61 92 63 93 69 94 62 95 64 96
REMARK SMILES IDX 65 97 66 98 67 99
REMARK H PARENT 23 7 30 33 89 52 57 63
REMARK Flexibility Score: inf
ROOT
ATOM      1  C   UNL A   1      35.736  22.625  25.830  1.00  0.00     0.002 C 
ENDROOT
BRANCH   1   2
ATOM      2  C   UNL A   1      35.255  21.466  24.963  1.00  0.00     0.021 C 
BRANCH   2   3
ATOM      3  C   UNL A   1      33.829  21.005  25.225  1.00  0.00     0.116 C 
BRANCH   3   4
ATOM      4  N   UNL A   1      33.075  20.726  24.011  1.00  0.00    -0.351 N 
ATOM      5  C   UNL A   1      32.505  21.523  23.059  1.00  0.00     0.262 C 
ATOM      6  O   UNL A   1      31.919  20.966  22.128  1.00  0.00    -0.268 OA
ATOM      7  H   UNL A   1      32.950  19.765  23.841  1.00  0.00     0.163 HD
BRANCH   5   8
ATOM      8  C   UNL A   1      32.519  23.004  23.135  1.00  0.00     0.120 C 
ATOM      9  C   UNL A   1      33.505  23.823  22.684  1.00  0.00     0.072 C 
BRANCH   8  10
ATOM     10  C   UNL A   1      31.209  23.763  23.267  1.00  0.00     0.105 C 
ATOM     11  N   UNL A   1      30.122  24.393  23.377  1.00  0.00    -0.192 NA
ENDBRANCH   8  10
BRANCH   9  12
ATOM     12  C   UNL A   1      33.500  25.257  22.831  1.00  0.00     0.129 A 
ATOM     13  C   UNL A   1      33.503  26.265  21.866  1.00  0.00     0.051 A 
ATOM     14  O   UNL A   1      33.429  25.884  24.061  1.00  0.00    -0.457 OA
ATOM     15  C   UNL A   1      33.487  27.513  22.523  1.00  0.00     0.051 A 
ATOM     16  C   UNL A   1      33.401  27.237  23.866  1.00  0.00     0.136 A 
BRANCH  16  17
ATOM     17  C   UNL A   1      33.282  28.077  25.052  1.00  0.00     0.036 A 
ATOM     18  C   UNL A   1      34.430  28.348  25.820  1.00  0.00     0.026 A 
ATOM     19  C   UNL A   1      32.068  28.680  25.430  1.00  0.00     0.052 A 
ATOM     20  C   UNL A   1      34.382  29.215  26.931  1.00  0.00     0.056 A 
ATOM     21  C   UNL A   1      32.008  29.524  26.545  1.00  0.00     0.022 A 
ATOM     22  Cl  UNL A   1      30.586  28.422  24.570  1.00  0.00    -0.084 Cl
ATOM     23  C   UNL A   1      33.157  29.792  27.288  1.00  0.00     0.014 A 
BRANCH  20  24
ATOM     24  C   UNL A   1      35.643  29.528  27.701  1.00  0.00     0.416 C 
ATOM     25  F   UNL A   1      36.658  28.665  27.445  1.00  0.00    -0.166 F 
ATOM     26  F   UNL A   1      36.126  30.769  27.397  1.00  0.00    -0.166 F 
ATOM     27  F   UNL A   1      35.471  29.532  29.053  1.00  0.00    -0.166 F 
ENDBRANCH  20  24
ENDBRANCH  16  17
ENDBRANCH   9  12
ENDBRANCH   5   8
ENDBRANCH   3   4
ENDBRANCH   2   3
ENDBRANCH   1   2
BRANCH   1  28
ATOM     28  C   UNL A   1      37.168  23.105  25.569  1.00  0.00     0.002 C 
BRANCH  28  29
ATOM     29  C   UNL A   1      38.267  22.045  25.698  1.00  0.00     0.021 C 
BRANCH  29  30
ATOM     30  C   UNL A   1      39.442  22.437  26.586  1.00  0.00     0.116 C 
BRANCH  30  31
ATOM     31  N   UNL A   1      40.718  22.038  26.013  1.00  0.00    -0.352 N 
ATOM     32  C   UNL A   1      41.841  22.802  25.799  1.00  0.00     0.251 C 
ATOM     33  H   UNL A   1      40.788  21.093  25.744  1.00  0.00     0.163 HD
ATOM     34  O   UNL A   1      42.772  22.366  25.138  1.00  0.00    -0.269 OA
BRANCH  32  35
ATOM     35  C   UNL A   1      41.899  24.166  26.366  1.00  0.00     0.039 A 
ATOM     36  C   UNL A   1      42.197  24.331  27.722  1.00  0.00     0.014 A 
ATOM     37  C   UNL A   1      41.676  25.276  25.548  1.00  0.00     0.014 A 
ATOM     38  C   UNL A   1      42.332  25.619  28.247  1.00  0.00     0.010 A 
ATOM     39  C   UNL A   1      41.875  26.554  26.056  1.00  0.00     0.010 A 
ATOM     40  C   UNL A   1      42.200  26.738  27.410  1.00  0.00    -0.014 A 
BRANCH  40  41
ATOM     41  C   UNL A   1      42.394  28.124  27.906  1.00  0.00     0.031 A 
ATOM     42  C   UNL A   1      43.782  28.693  27.993  1.00  0.00     0.074 A 
ATOM     43  C   UNL A   1      41.350  28.802  28.417  1.00  0.00     0.049 A 
ATOM     44  N   UNL A   1      44.189  29.796  28.561  1.00  0.00    -0.248 NA
ATOM     45  C   UNL A   1      44.862  27.889  27.396  1.00  0.00     0.031 C 
ATOM     46  C   UNL A   1      39.969  28.321  28.462  1.00  0.00     0.029 A 
ATOM     47  N   UNL A   1      41.299  30.021  29.048  1.00  0.00    -0.354 N 
ATOM     48  C   UNL A   1      45.573  29.792  28.446  1.00  0.00     0.074 A 
ATOM     49  C   UNL A   1      45.937  28.565  27.770  1.00  0.00     0.031 C 
ATOM     50  C   UNL A   1      39.211  29.220  29.110  1.00  0.00     0.029 A 
ATOM     51  C   UNL A   1      40.056  30.323  29.555  1.00  0.00     0.049 A 
ATOM     52  H   UNL A   1      42.076  30.620  29.129  1.00  0.00     0.167 HD
ATOM     53  C   UNL A   1      46.460  30.734  28.846  1.00  0.00     0.034 A 
ATOM     54  C   UNL A   1      39.648  31.358  30.315  1.00  0.00     0.034 A 
ATOM     55  C   UNL A   1      46.084  31.975  29.466  1.00  0.00     0.049 A 
ATOM     56  C   UNL A   1      40.636  32.429  30.688  1.00  0.00     0.074 A 
ATOM     57  C   UNL A   1      46.892  33.047  29.805  1.00  0.00     0.029 A 
ATOM     58  N   UNL A   1      44.793  32.311  29.844  1.00  0.00    -0.354 N 
ATOM     59  N   UNL A   1      41.920  32.488  30.429  1.00  0.00    -0.248 NA
ATOM     60  C   UNL A   1      40.118  33.591  31.423  1.00  0.00     0.031 C 
ATOM     61  C   UNL A   1      46.089  34.022  30.405  1.00  0.00     0.029 A 
ATOM     62  C   UNL A   1      44.780  33.569  30.419  1.00  0.00     0.049 A 
ATOM     63  H   UNL A   1      44.002  31.737  29.720  1.00  0.00     0.167 HD
ATOM     64  C   UNL A   1      42.357  33.707  30.935  1.00  0.00     0.074 A 
ATOM     65  C   UNL A   1      41.197  34.360  31.508  1.00  0.00     0.031 C 
ATOM     66  C   UNL A   1      43.607  34.231  30.933  1.00  0.00     0.034 A 
BRANCH  53  67
ATOM     67  C   UNL A   1      47.919  30.470  28.584  1.00  0.00     0.023 A 
ATOM     68  C   UNL A   1      48.507  30.926  27.387  1.00  0.00     0.012 A 
ATOM     69  C   UNL A   1      48.715  29.793  29.528  1.00  0.00     0.148 A 
ATOM     70  C   UNL A   1      49.850  30.670  27.110  1.00  0.00     0.002 A 
ATOM     71  C   UNL A   1      50.065  29.583  29.267  1.00  0.00     0.091 A 
ATOM     72  F   UNL A   1      48.137  29.342  30.651  1.00  0.00    -0.205 F 
ATOM     73  C   UNL A   1      50.629  30.007  28.053  1.00  0.00     0.022 A 
BRANCH  71  74
ATOM     74  S   UNL A   1      51.160  28.808  30.461  1.00  0.00     0.127 S 
ATOM     75  O   UNL A   1      51.004  29.686  31.620  1.00  0.00    -0.237 OA
ATOM     76  O   UNL A   1      50.561  27.481  30.620  1.00  0.00    -0.237 OA
ATOM     77  O   UNL A   1      52.478  28.802  29.842  1.00  0.00    -0.744 OA
ENDBRANCH  71  74
ENDBRANCH  53  67
BRANCH  54  78
ATOM     78  C   UNL A   1      38.216  31.445  30.717  1.00  0.00     0.023 A 
ATOM     79  C   UNL A   1      37.794  30.819  31.906  1.00  0.00     0.012 A 
ATOM     80  C   UNL A   1      37.295  32.211  29.977  1.00  0.00     0.148 A 
ATOM     81  C   UNL A   1      36.475  30.942  32.342  1.00  0.00     0.002 A 
ATOM     82  C   UNL A   1      35.997  32.373  30.444  1.00  0.00     0.091 A 
ATOM     83  F   UNL A   1      37.719  32.794  28.846  1.00  0.00    -0.205 F 
ATOM     84  C   UNL A   1      35.581  31.728  31.619  1.00  0.00     0.022 A 
BRANCH  82  85
ATOM     85  S   UNL A   1      34.816  33.477  29.659  1.00  0.00     0.127 S 
ATOM     86  O   UNL A   1      33.998  33.896  30.794  1.00  0.00    -0.237 OA
ATOM     87  O   UNL A   1      35.693  34.513  29.113  1.00  0.00    -0.237 OA
ATOM     88  O   UNL A   1      34.132  32.675  28.653  1.00  0.00    -0.744 OA
ENDBRANCH  82  85
ENDBRANCH  54  78
BRANCH  66  89
ATOM     89  C   UNL A   1      43.799  35.600  31.531  1.00  0.00     0.023 A 
ATOM     90  C   UNL A   1      44.110  35.731  32.898  1.00  0.00     0.012 A 
ATOM     91  C   UNL A   1      43.780  36.746  30.711  1.00  0.00     0.148 A 
ATOM     92  C   UNL A   1      44.382  36.985  33.444  1.00  0.00     0.002 A 
ATOM     93  C   UNL A   1      44.097  37.985  31.252  1.00  0.00     0.091 A 
ATOM     94  F   UNL A   1      43.461  36.600  29.417  1.00  0.00    -0.205 F 
ATOM     95  C   UNL A   1      44.390  38.108  32.620  1.00  0.00     0.022 A 
BRANCH  93  96
ATOM     96  S   UNL A   1      44.227  39.469  30.248  1.00  0.00     0.127 S 
ATOM     97  O   UNL A   1      44.600  40.472  31.245  1.00  0.00    -0.237 OA
ATOM     98  O   UNL A   1      45.294  39.116  29.309  1.00  0.00    -0.237 OA
ATOM     99  O   UNL A   1      42.920  39.655  29.635  1.00  0.00    -0.744 OA
ENDBRANCH  93  96
ENDBRANCH  66  89
ENDBRANCH  40  41
ENDBRANCH  32  35
ENDBRANCH  30  31
ENDBRANCH  29  30
ENDBRANCH  28  29
ENDBRANCH   1  28
TORSDOF 20
ENDMDL
MODEL 3
REMARK VINA RESULT:     -10.6      4.844      9.714
REMARK SMILES N#C/C(=C\c1ccc(-c2cc(C(F)(F)F)ccc2Cl)o1)C(=O)NCCCCCCNC(=O)c1ccc(-c2c3nc(c(-c4cccc(S(=O)(=O)[O-])c4F)c4ccc([nH]4)c(-c4cccc(S(=O)(=O)[O-])c4F)c4nc(c(-c5cccc(S(=O)(=O)[O-])c5F)c5ccc2[nH]5)C=C4)C=C3)cc1
REMARK SMILES IDX 26 1 25 2 24 3 23 4 21 5 22 6 3 8 4 9 2 10 1 11 5 12 6 13
REMARK SMILES IDX 20 14 7 15 8 16 9 17 10 18 18 19 11 20 17 21 19 22 16 23
REMARK SMILES IDX 12 24 13 25 14 26 15 27 27 28 28 29 29 30 30 31 31 32 32 34
REMARK SMILES IDX 33 35 34 36 95 37 35 38 94 39 36 40 37 41 38 42 88 43 39 44
REMARK SMILES IDX 93 45 87 46 89 47 40 48 92 49 86 50 85 51 41 53 73 54 53 55
REMARK SMILES IDX 72 56 54 57 57 58 71 59 90 60 55 61 56 62 70 64 91 65 58 66
REMARK SMILES IDX 42 67 43 68 51 69 44 70 46 71 52 72 45 73 47 74 48 75 49 76
REMARK SMILES IDX 50 77 74 78 75 79 83 80 76 81 78 82 84 83 77 84 79 85 80 86
REMARK SMILES IDX 81 87 82 88 59 89 60 90 68 91 61 92 63 93 69 94 62 95 64 96
REMARK SMILES IDX 65 97 66 98 67 99
REMARK H PARENT 23 7 30 33 89 52 57 63
REMARK Flexibility Score: inf
ROOT
ATOM      1  C   UNL A   1      34.030  28.105  24.817  1.00  0.00     0.002 C 
ENDROOT
BRANCH   1   2
ATOM      2  C   UNL A   1      33.293  29.331  24.289  1.00  0.00     0.021 C 
BRANCH   2   3
ATOM      3  C   UNL A   1      33.026  29.334  22.790  1.00  0.00     0.116 C 
BRANCH   3   4
ATOM      4  N   UNL A   1      31.712  28.821  22.431  1.00  0.00    -0.351 N 
ATOM      5  C   UNL A   1      31.211  27.560  22.270  1.00  0.00     0.262 C 
ATOM      6  O   UNL A   1      30.026  27.455  21.953  1.00  0.00    -0.268 OA
ATOM      7  H   UNL A   1      31.047  29.528  22.271  1.00  0.00     0.163 HD
BRANCH   5   8
ATOM      8  C   UNL A   1      32.044  26.340  22.407  1.00  0.00     0.120 C 
ATOM      9  C   UNL A   1      32.084  25.510  23.482  1.00  0.00     0.072 C 
BRANCH   8  10
ATOM     10  C   UNL A   1      32.550  25.631  21.162  1.00  0.00     0.105 C 
ATOM     11  N   UNL A   1      32.969  25.042  20.129  1.00  0.00    -0.192 NA
ENDBRANCH   8  10
BRANCH   9  12
ATOM     12  C   UNL A   1      32.952  24.364  23.592  1.00  0.00     0.129 A 
ATOM     13  C   UNL A   1      34.321  24.240  23.354  1.00  0.00     0.051 A 
ATOM     14  O   UNL A   1      32.513  23.132  24.042  1.00  0.00    -0.457 OA
ATOM     15  C   UNL A   1      34.700  22.907  23.613  1.00  0.00     0.051 A 
ATOM     16  C   UNL A   1      33.573  22.270  24.071  1.00  0.00     0.136 A 
BRANCH  16  17
ATOM     17  C   UNL A   1      33.319  20.921  24.563  1.00  0.00     0.036 A 
ATOM     18  C   UNL A   1      33.276  19.852  23.648  1.00  0.00     0.026 A 
ATOM     19  C   UNL A   1      33.170  20.633  25.932  1.00  0.00     0.052 A 
ATOM     20  C   UNL A   1      33.109  18.521  24.081  1.00  0.00     0.056 A 
ATOM     21  C   UNL A   1      32.981  19.317  26.368  1.00  0.00     0.022 A 
ATOM     22  Cl  UNL A   1      33.199  21.860  27.156  1.00  0.00    -0.084 Cl
ATOM     23  C   UNL A   1      32.954  18.268  25.450  1.00  0.00     0.014 A 
BRANCH  20  24
ATOM     24  C   UNL A   1      33.124  17.391  23.079  1.00  0.00     0.416 C 
ATOM     25  F   UNL A   1      32.876  16.177  23.634  1.00  0.00    -0.166 F 
ATOM     26  F   UNL A   1      32.172  17.559  22.114  1.00  0.00    -0.166 F 
ATOM     27  F   UNL A   1      34.301  17.274  22.405  1.00  0.00    -0.166 F 
ENDBRANCH  20  24
ENDBRANCH  16  17
ENDBRANCH   9  12
ENDBRANCH   5   8
ENDBRANCH   3   4
ENDBRANCH   2   3
ENDBRANCH   1   2
BRANCH   1  28
ATOM     28  C   UNL A   1      33.882  27.832  26.318  1.00  0.00     0.002 C 
BRANCH  28  29
ATOM     29  C   UNL A   1      33.617  29.056  27.201  1.00  0.00     0.021 C 
BRANCH  29  30
ATOM     30  C   UNL A   1      34.851  29.870  27.567  1.00  0.00     0.116 C 
BRANCH  30  31
ATOM     31  N   UNL A   1      34.514  31.071  28.315  1.00  0.00    -0.352 N 
ATOM     32  C   UNL A   1      35.130  31.592  29.430  1.00  0.00     0.251 C 
ATOM     33  H   UNL A   1      33.742  31.580  27.978  1.00  0.00     0.163 HD
ATOM     34  O   UNL A   1      34.615  32.508  30.053  1.00  0.00    -0.269 OA
BRANCH  32  35
ATOM     35  C   UNL A   1      36.418  31.016  29.872  1.00  0.00     0.039 A 
ATOM     36  C   UNL A   1      36.416  29.920  30.738  1.00  0.00     0.014 A 
ATOM     37  C   UNL A   1      37.622  31.554  29.410  1.00  0.00     0.014 A 
ATOM     38  C   UNL A   1      37.626  29.321  31.097  1.00  0.00     0.010 A 
ATOM     39  C   UNL A   1      38.819  30.918  29.715  1.00  0.00     0.010 A 
ATOM     40  C   UNL A   1      38.834  29.800  30.563  1.00  0.00    -0.014 A 
BRANCH  40  41
ATOM     41  C   UNL A   1      40.139  29.161  30.865  1.00  0.00     0.031 A 
ATOM     42  C   UNL A   1      41.021  29.744  31.933  1.00  0.00     0.074 A 
ATOM     43  C   UNL A   1      40.592  28.163  30.082  1.00  0.00     0.049 A 
ATOM     44  N   UNL A   1      42.261  29.459  32.228  1.00  0.00    -0.248 NA
ATOM     45  C   UNL A   1      40.439  30.822  32.751  1.00  0.00     0.031 C 
ATOM     46  C   UNL A   1      39.859  27.567  28.965  1.00  0.00     0.029 A 
ATOM     47  N   UNL A   1      41.801  27.512  30.074  1.00  0.00    -0.354 N 
ATOM     48  C   UNL A   1      42.630  30.360  33.219  1.00  0.00     0.074 A 
ATOM     49  C   UNL A   1      41.487  31.213  33.461  1.00  0.00     0.031 C 
ATOM     50  C   UNL A   1      40.642  26.659  28.362  1.00  0.00     0.029 A 
ATOM     51  C   UNL A   1      41.941  26.632  29.027  1.00  0.00     0.049 A 
ATOM     52  H   UNL A   1      42.499  27.662  30.751  1.00  0.00     0.167 HD
ATOM     53  C   UNL A   1      43.807  30.454  33.883  1.00  0.00     0.034 A 
ATOM     54  C   UNL A   1      43.003  25.903  28.631  1.00  0.00     0.034 A 
ATOM     55  C   UNL A   1      44.917  29.566  33.675  1.00  0.00     0.049 A 
ATOM     56  C   UNL A   1      44.277  25.971  29.426  1.00  0.00     0.074 A 
ATOM     57  C   UNL A   1      46.109  29.502  34.374  1.00  0.00     0.029 A 
ATOM     58  N   UNL A   1      44.974  28.589  32.692  1.00  0.00    -0.354 N 
ATOM     59  N   UNL A   1      44.556  26.717  30.469  1.00  0.00    -0.248 NA
ATOM     60  C   UNL A   1      45.369  25.076  29.019  1.00  0.00     0.031 C 
ATOM     61  C   UNL A   1      46.895  28.497  33.799  1.00  0.00     0.029 A 
ATOM     62  C   UNL A   1      46.183  27.921  32.759  1.00  0.00     0.049 A 
ATOM     63  H   UNL A   1      44.259  28.401  32.043  1.00  0.00     0.167 HD
ATOM     64  C   UNL A   1      45.839  26.355  30.865  1.00  0.00     0.074 A 
ATOM     65  C   UNL A   1      46.279  25.317  29.956  1.00  0.00     0.031 C 
ATOM     66  C   UNL A   1      46.585  26.849  31.883  1.00  0.00     0.034 A 
BRANCH  53  67
ATOM     67  C   UNL A   1      43.929  31.533  34.927  1.00  0.00     0.023 A 
ATOM     68  C   UNL A   1      44.494  32.778  34.582  1.00  0.00     0.012 A 
ATOM     69  C   UNL A   1      43.465  31.327  36.241  1.00  0.00     0.148 A 
ATOM     70  C   UNL A   1      44.641  33.783  35.538  1.00  0.00     0.002 A 
ATOM     71  C   UNL A   1      43.572  32.350  37.177  1.00  0.00     0.091 A 
ATOM     72  F   UNL A   1      42.954  30.129  36.562  1.00  0.00    -0.205 F 
ATOM     73  C   UNL A   1      44.172  33.571  36.831  1.00  0.00     0.022 A 
BRANCH  71  74
ATOM     74  S   UNL A   1      42.921  32.191  38.843  1.00  0.00     0.127 S 
ATOM     75  O   UNL A   1      43.770  31.136  39.394  1.00  0.00    -0.237 OA
ATOM     76  O   UNL A   1      43.166  33.523  39.403  1.00  0.00    -0.237 OA
ATOM     77  O   UNL A   1      41.513  31.856  38.686  1.00  0.00    -0.744 OA
ENDBRANCH  71  74
ENDBRANCH  53  67
BRANCH  54  78
ATOM     78  C   UNL A   1      42.869  25.005  27.449  1.00  0.00     0.023 A 
ATOM     79  C   UNL A   1      43.411  25.406  26.213  1.00  0.00     0.012 A 
ATOM     80  C   UNL A   1      42.287  23.729  27.565  1.00  0.00     0.148 A 
ATOM     81  C   UNL A   1      43.361  24.557  25.108  1.00  0.00     0.002 A 
ATOM     82  C   UNL A   1      42.288  22.867  26.475  1.00  0.00     0.091 A 
ATOM     83  F   UNL A   1      41.774  23.371  28.751  1.00  0.00    -0.205 F 
ATOM     84  C   UNL A   1      42.812  23.284  25.242  1.00  0.00     0.022 A 
BRANCH  82  85
ATOM     85  S   UNL A   1      41.731  21.162  26.588  1.00  0.00     0.127 S 
ATOM     86  O   UNL A   1      42.324  20.573  25.391  1.00  0.00    -0.237 OA
ATOM     87  O   UNL A   1      42.333  20.734  27.851  1.00  0.00    -0.237 OA
ATOM     88  O   UNL A   1      40.275  21.221  26.605  1.00  0.00    -0.744 OA
ENDBRANCH  82  85
ENDBRANCH  54  78
BRANCH  66  89
ATOM     89  C   UNL A   1      47.949  26.251  32.112  1.00  0.00     0.023 A 
ATOM     90  C   UNL A   1      49.071  26.796  31.459  1.00  0.00     0.012 A 
ATOM     91  C   UNL A   1      48.128  25.223  33.059  1.00  0.00     0.148 A 
ATOM     92  C   UNL A   1      50.351  26.313  31.732  1.00  0.00     0.002 A 
ATOM     93  C   UNL A   1      49.409  24.779  33.359  1.00  0.00     0.091 A 
ATOM     94  F   UNL A   1      47.043  24.706  33.653  1.00  0.00    -0.205 F 
ATOM     95  C   UNL A   1      50.521  25.317  32.691  1.00  0.00     0.022 A 
BRANCH  93  96
ATOM     96  S   UNL A   1      49.732  23.571  34.650  1.00  0.00     0.127 S 
ATOM     97  O   UNL A   1      51.179  23.694  34.817  1.00  0.00    -0.237 OA
ATOM     98  O   UNL A   1      48.942  24.091  35.766  1.00  0.00    -0.237 OA
ATOM     99  O   UNL A   1      49.271  22.293  34.126  1.00  0.00    -0.744 OA
ENDBRANCH  93  96
ENDBRANCH  66  89
ENDBRANCH  40  41
ENDBRANCH  32  35
ENDBRANCH  30  31
ENDBRANCH  29  30
ENDBRANCH  28  29
ENDBRANCH   1  28
TORSDOF 20
ENDMDL
