MODEL 1
REMARK VINA RESULT:     -11.7      0.000      0.000
REMARK SMILES Cc1nc2cc(C(=O)NCCCCCCNC(=O)c3ccc(-c4c5nc(c(-c6cccc(S(=O)(=O)[O-])c6F)c6ccc([nH]6)c(-c6cccc(S(=O)(=O)[O-])c6F)c6nc(c(-c7cccc(S(=O)(=O)[O-])c7F)c7ccc4[nH]7)C=C6)C=C5)cc3)ccc2n1CCC[NH+]1CCOCC1
REMARK SMILES IDX 12 1 11 2 10 3 9 4 7 5 8 6 6 8 1 9 2 10 3 11 85 12 4 13
REMARK SMILES IDX 84 14 5 15 83 16 82 17 86 18 87 19 88 20 89 21 90 22 94 23
REMARK SMILES IDX 91 25 93 26 92 27 13 28 14 29 15 30 16 31 17 32 18 34 19 35
REMARK SMILES IDX 20 36 81 37 21 38 80 39 22 40 23 41 24 42 74 43 25 44 79 45
REMARK SMILES IDX 73 46 75 47 26 48 78 49 72 50 71 51 27 53 59 54 39 55 58 56
REMARK SMILES IDX 40 57 43 58 57 59 76 60 41 61 42 62 56 64 77 65 44 66 28 67
REMARK SMILES IDX 29 68 37 69 30 70 32 71 38 72 31 73 33 74 34 75 35 76 36 77
REMARK SMILES IDX 60 78 61 79 69 80 62 81 64 82 70 83 63 84 65 85 66 86 67 87
REMARK SMILES IDX 68 88 45 89 46 90 54 91 47 92 49 93 55 94 48 95 50 96 51 97
REMARK SMILES IDX 52 98 53 99
REMARK H PARENT 9 7 89 24 16 33 75 52 43 63
REMARK Flexibility Score: inf
ROOT
ATOM      1  C   UNL A   1      37.121  21.858  24.942  1.00  0.00     0.002 C 
ENDROOT
BRANCH   1   2
ATOM      2  C   UNL A   1      35.926  20.920  25.158  1.00  0.00     0.021 C 
BRANCH   2   3
ATOM      3  C   UNL A   1      34.881  21.514  26.104  1.00  0.00     0.116 C 
BRANCH   3   4
ATOM      4  N   UNL A   1      33.589  20.934  25.793  1.00  0.00    -0.352 N 
ATOM      5  C   UNL A   1      32.376  21.499  25.509  1.00  0.00     0.251 C 
ATOM      6  O   UNL A   1      31.398  20.753  25.432  1.00  0.00    -0.269 OA
ATOM      7  H   UNL A   1      33.585  19.950  25.783  1.00  0.00     0.163 HD
BRANCH   5   8
ATOM      8  C   UNL A   1      32.216  22.942  25.187  1.00  0.00     0.042 A 
ATOM      9  C   UNL A   1      31.510  28.530  27.121  1.00  0.00     0.088 C 
ATOM     10  C   UNL A   1      31.582  27.246  26.396  1.00  0.00     0.106 A 
ATOM     11  N   UNL A   1      32.031  26.171  27.015  1.00  0.00    -0.233 NA
ATOM     12  N   UNL A   1      31.239  26.961  25.090  1.00  0.00    -0.328 N 
ATOM     13  C   UNL A   1      32.021  25.167  26.104  1.00  0.00     0.090 A 
ATOM     14  C   UNL A   1      31.619  25.634  24.864  1.00  0.00     0.068 A 
ATOM     15  C   UNL A   1      32.324  23.814  26.280  1.00  0.00     0.044 A 
ATOM     16  C   UNL A   1      31.606  24.810  23.730  1.00  0.00     0.029 A 
ATOM     17  C   UNL A   1      31.945  23.459  23.915  1.00  0.00     0.016 A 
BRANCH  12  18
ATOM     18  C   UNL A   1      30.522  27.687  24.055  1.00  0.00     0.130 C 
BRANCH  18  19
ATOM     19  C   UNL A   1      30.937  29.039  23.436  1.00  0.00     0.083 C 
BRANCH  19  20
ATOM     20  C   UNL A   1      30.390  29.431  22.047  1.00  0.00     0.264 C 
BRANCH  20  21
ATOM     21  N   UNL A   1      29.625  30.649  22.136  1.00  0.00    -0.331 N 
ATOM     22  C   UNL A   1      28.575  30.818  21.125  1.00  0.00     0.291 C 
ATOM     23  C   UNL A   1      29.094  31.018  23.449  1.00  0.00     0.291 C 
ATOM     24  H   UNL A   1      30.379  31.307  21.937  1.00  0.00     0.348 HD
ATOM     25  C   UNL A   1      28.232  32.314  21.079  1.00  0.00     0.221 C 
ATOM     26  C   UNL A   1      28.752  32.516  23.379  1.00  0.00     0.221 C 
ATOM     27  O   UNL A   1      27.770  32.777  22.359  1.00  0.00    -0.370 OA
ENDBRANCH  20  21
ENDBRANCH  19  20
ENDBRANCH  18  19
ENDBRANCH  12  18
ENDBRANCH   5   8
ENDBRANCH   3   4
ENDBRANCH   2   3
ENDBRANCH   1   2
BRANCH   1  28
ATOM     28  C   UNL A   1      38.472  21.253  25.337  1.00  0.00     0.002 C 
BRANCH  28  29
ATOM     29  C   UNL A   1      39.290  22.104  26.315  1.00  0.00     0.021 C 
BRANCH  29  30
ATOM     30  C   UNL A   1      40.667  21.520  26.629  1.00  0.00     0.116 C 
BRANCH  30  31
ATOM     31  N   UNL A   1      41.677  21.877  25.655  1.00  0.00    -0.352 N 
ATOM     32  C   UNL A   1      42.452  22.985  25.446  1.00  0.00     0.251 C 
ATOM     33  H   UNL A   1      41.841  21.165  24.995  1.00  0.00     0.163 HD
ATOM     34  O   UNL A   1      43.244  22.919  24.502  1.00  0.00    -0.269 OA
BRANCH  32  35
ATOM     35  C   UNL A   1      42.357  24.248  26.229  1.00  0.00     0.039 A 
ATOM     36  C   UNL A   1      43.124  24.561  27.352  1.00  0.00     0.014 A 
ATOM     37  C   UNL A   1      41.394  25.178  25.795  1.00  0.00     0.014 A 
ATOM     38  C   UNL A   1      42.871  25.712  28.082  1.00  0.00     0.010 A 
ATOM     39  C   UNL A   1      41.161  26.354  26.501  1.00  0.00     0.010 A 
ATOM     40  C   UNL A   1      41.875  26.598  27.669  1.00  0.00    -0.014 A 
BRANCH  40  41
ATOM     41  C   UNL A   1      41.724  27.829  28.435  1.00  0.00     0.031 A 
ATOM     42  C   UNL A   1      42.757  28.867  28.152  1.00  0.00     0.074 A 
ATOM     43  C   UNL A   1      40.696  28.066  29.271  1.00  0.00     0.049 A 
ATOM     44  N   UNL A   1      43.649  29.352  28.955  1.00  0.00    -0.248 NA
ATOM     45  C   UNL A   1      42.886  29.326  26.760  1.00  0.00     0.031 C 
ATOM     46  C   UNL A   1      39.474  27.277  29.442  1.00  0.00     0.029 A 
ATOM     47  N   UNL A   1      40.479  29.151  30.067  1.00  0.00    -0.354 N 
ATOM     48  C   UNL A   1      44.313  30.336  28.224  1.00  0.00     0.074 A 
ATOM     49  C   UNL A   1      43.913  30.171  26.852  1.00  0.00     0.031 C 
ATOM     50  C   UNL A   1      38.554  28.022  30.095  1.00  0.00     0.029 A 
ATOM     51  C   UNL A   1      39.164  29.273  30.504  1.00  0.00     0.049 A 
ATOM     52  H   UNL A   1      41.188  29.790  30.311  1.00  0.00     0.167 HD
ATOM     53  C   UNL A   1      44.977  31.363  28.822  1.00  0.00     0.034 A 
ATOM     54  C   UNL A   1      38.613  30.364  31.091  1.00  0.00     0.034 A 
ATOM     55  C   UNL A   1      45.266  31.095  30.201  1.00  0.00     0.049 A 
ATOM     56  C   UNL A   1      39.731  31.157  31.654  1.00  0.00     0.074 A 
ATOM     57  C   UNL A   1      46.008  30.159  30.887  1.00  0.00     0.029 A 
ATOM     58  N   UNL A   1      44.450  31.694  31.128  1.00  0.00    -0.354 N 
ATOM     59  N   UNL A   1      40.490  30.756  32.637  1.00  0.00    -0.248 NA
ATOM     60  C   UNL A   1      40.242  32.278  30.885  1.00  0.00     0.031 C 
ATOM     61  C   UNL A   1      45.285  29.926  32.092  1.00  0.00     0.029 A 
ATOM     62  C   UNL A   1      44.162  30.758  32.082  1.00  0.00     0.049 A 
ATOM     63  H   UNL A   1      44.132  32.626  31.110  1.00  0.00     0.167 HD
ATOM     64  C   UNL A   1      41.740  31.283  32.348  1.00  0.00     0.074 A 
ATOM     65  C   UNL A   1      41.496  32.311  31.341  1.00  0.00     0.031 C 
ATOM     66  C   UNL A   1      42.879  30.647  32.743  1.00  0.00     0.034 A 
BRANCH  53  67
ATOM     67  C   UNL A   1      45.060  32.761  28.259  1.00  0.00     0.023 A 
ATOM     68  C   UNL A   1      46.337  33.283  27.960  1.00  0.00     0.012 A 
ATOM     69  C   UNL A   1      43.979  33.672  28.271  1.00  0.00     0.148 A 
ATOM     70  C   UNL A   1      46.532  34.647  27.707  1.00  0.00     0.002 A 
ATOM     71  C   UNL A   1      44.164  35.009  27.941  1.00  0.00     0.091 A 
ATOM     72  F   UNL A   1      42.788  33.287  28.739  1.00  0.00    -0.205 F 
ATOM     73  C   UNL A   1      45.442  35.508  27.683  1.00  0.00     0.022 A 
BRANCH  71  74
ATOM     74  S   UNL A   1      42.772  36.142  27.852  1.00  0.00     0.127 S 
ATOM     75  O   UNL A   1      42.347  36.188  29.252  1.00  0.00    -0.237 OA
ATOM     76  O   UNL A   1      43.415  37.368  27.364  1.00  0.00    -0.237 OA
ATOM     77  O   UNL A   1      41.846  35.542  26.913  1.00  0.00    -0.744 OA
ENDBRANCH  71  74
ENDBRANCH  53  67
BRANCH  54  78
ATOM     78  C   UNL A   1      37.235  30.910  31.008  1.00  0.00     0.023 A 
ATOM     79  C   UNL A   1      36.607  31.368  32.186  1.00  0.00     0.012 A 
ATOM     80  C   UNL A   1      36.647  31.257  29.771  1.00  0.00     0.148 A 
ATOM     81  C   UNL A   1      35.473  32.187  32.135  1.00  0.00     0.002 A 
ATOM     82  C   UNL A   1      35.508  32.059  29.725  1.00  0.00     0.091 A 
ATOM     83  F   UNL A   1      37.254  30.890  28.635  1.00  0.00    -0.205 F 
ATOM     84  C   UNL A   1      34.929  32.541  30.904  1.00  0.00     0.022 A 
BRANCH  82  85
ATOM     85  S   UNL A   1      34.756  32.553  28.168  1.00  0.00     0.127 S 
ATOM     86  O   UNL A   1      35.830  33.324  27.539  1.00  0.00    -0.237 OA
ATOM     87  O   UNL A   1      34.479  31.264  27.542  1.00  0.00    -0.237 OA
ATOM     88  O   UNL A   1      33.589  33.348  28.533  1.00  0.00    -0.744 OA
ENDBRANCH  82  85
ENDBRANCH  54  78
BRANCH  66  89
ATOM     89  C   UNL A   1      42.762  29.521  33.736  1.00  0.00     0.023 A 
ATOM     90  C   UNL A   1      42.295  28.246  33.358  1.00  0.00     0.012 A 
ATOM     91  C   UNL A   1      43.368  29.687  34.993  1.00  0.00     0.148 A 
ATOM     92  C   UNL A   1      42.439  27.152  34.217  1.00  0.00     0.002 A 
ATOM     93  C   UNL A   1      43.550  28.590  35.823  1.00  0.00     0.091 A 
ATOM     94  F   UNL A   1      43.818  30.908  35.319  1.00  0.00    -0.205 F 
ATOM     95  C   UNL A   1      43.083  27.321  35.442  1.00  0.00     0.022 A 
BRANCH  93  96
ATOM     96  S   UNL A   1      44.494  28.698  37.346  1.00  0.00     0.127 S 
ATOM     97  O   UNL A   1      44.229  27.400  37.964  1.00  0.00    -0.237 OA
ATOM     98  O   UNL A   1      45.859  28.871  36.846  1.00  0.00    -0.237 OA
ATOM     99  O   UNL A   1      43.969  29.846  38.073  1.00  0.00    -0.744 OA
ENDBRANCH  93  96
ENDBRANCH  66  89
ENDBRANCH  40  41
ENDBRANCH  32  35
ENDBRANCH  30  31
ENDBRANCH  29  30
ENDBRANCH  28  29
ENDBRANCH   1  28
TORSDOF 20
ENDMDL
MODEL 2
REMARK VINA RESULT:     -11.7      1.500      1.886
REMARK SMILES Cc1nc2cc(C(=O)NCCCCCCNC(=O)c3ccc(-c4c5nc(c(-c6cccc(S(=O)(=O)[O-])c6F)c6ccc([nH]6)c(-c6cccc(S(=O)(=O)[O-])c6F)c6nc(c(-c7cccc(S(=O)(=O)[O-])c7F)c7ccc4[nH]7)C=C6)C=C5)cc3)ccc2n1CCC[NH+]1CCOCC1
REMARK SMILES IDX 12 1 11 2 10 3 9 4 7 5 8 6 6 8 1 9 2 10 3 11 85 12 4 13
REMARK SMILES IDX 84 14 5 15 83 16 82 17 86 18 87 19 88 20 89 21 90 22 94 23
REMARK SMILES IDX 91 25 93 26 92 27 13 28 14 29 15 30 16 31 17 32 18 34 19 35
REMARK SMILES IDX 20 36 81 37 21 38 80 39 22 40 23 41 24 42 74 43 25 44 79 45
REMARK SMILES IDX 73 46 75 47 26 48 78 49 72 50 71 51 27 53 59 54 39 55 58 56
REMARK SMILES IDX 40 57 43 58 57 59 76 60 41 61 42 62 56 64 77 65 44 66 28 67
REMARK SMILES IDX 29 68 37 69 30 70 32 71 38 72 31 73 33 74 34 75 35 76 36 77
REMARK SMILES IDX 60 78 61 79 69 80 62 81 64 82 70 83 63 84 65 85 66 86 67 87
REMARK SMILES IDX 68 88 45 89 46 90 54 91 47 92 49 93 55 94 48 95 50 96 51 97
REMARK SMILES IDX 52 98 53 99
REMARK H PARENT 9 7 89 24 16 33 75 52 43 63
REMARK Flexibility Score: inf
ROOT
ATOM      1  C   UNL A   1      37.965  21.601  24.989  1.00  0.00     0.002 C 
ENDROOT
BRANCH   1   2
ATOM      2  C   UNL A   1      37.010  22.730  24.577  1.00  0.00     0.021 C 
BRANCH   2   3
ATOM      3  C   UNL A   1      35.547  22.281  24.564  1.00  0.00     0.116 C 
BRANCH   3   4
ATOM      4  N   UNL A   1      35.063  22.236  25.929  1.00  0.00    -0.352 N 
ATOM      5  C   UNL A   1      34.325  23.119  26.669  1.00  0.00     0.251 C 
ATOM      6  O   UNL A   1      34.186  22.886  27.871  1.00  0.00    -0.269 OA
ATOM      7  H   UNL A   1      35.310  21.415  26.413  1.00  0.00     0.163 HD
BRANCH   5   8
ATOM      8  C   UNL A   1      33.605  24.271  26.064  1.00  0.00     0.042 A 
ATOM      9  C   UNL A   1      28.519  26.542  23.957  1.00  0.00     0.088 C 
ATOM     10  C   UNL A   1      29.903  26.186  24.327  1.00  0.00     0.106 A 
ATOM     11  N   UNL A   1      30.121  25.162  25.130  1.00  0.00    -0.233 NA
ATOM     12  N   UNL A   1      31.088  26.786  23.953  1.00  0.00    -0.328 N 
ATOM     13  C   UNL A   1      31.462  25.099  25.322  1.00  0.00     0.090 A 
ATOM     14  C   UNL A   1      32.099  26.148  24.679  1.00  0.00     0.068 A 
ATOM     15  C   UNL A   1      32.209  24.148  26.022  1.00  0.00     0.044 A 
ATOM     16  C   UNL A   1      33.480  26.358  24.794  1.00  0.00     0.029 A 
ATOM     17  C   UNL A   1      34.214  25.411  25.528  1.00  0.00     0.016 A 
BRANCH  12  18
ATOM     18  C   UNL A   1      31.443  27.782  22.956  1.00  0.00     0.130 C 
BRANCH  18  19
ATOM     19  C   UNL A   1      30.819  29.186  22.809  1.00  0.00     0.083 C 
BRANCH  19  20
ATOM     20  C   UNL A   1      29.326  29.313  22.436  1.00  0.00     0.264 C 
BRANCH  20  21
ATOM     21  N   UNL A   1      28.990  30.690  22.178  1.00  0.00    -0.331 N 
ATOM     22  C   UNL A   1      27.985  30.915  21.133  1.00  0.00     0.291 C 
ATOM     23  C   UNL A   1      28.686  31.538  23.331  1.00  0.00     0.291 C 
ATOM     24  H   UNL A   1      29.899  30.996  21.828  1.00  0.00     0.348 HD
ATOM     25  C   UNL A   1      28.128  32.376  20.680  1.00  0.00     0.221 C 
ATOM     26  C   UNL A   1      28.829  32.994  22.855  1.00  0.00     0.221 C 
ATOM     27  O   UNL A   1      27.916  33.280  21.779  1.00  0.00    -0.370 OA
ENDBRANCH  20  21
ENDBRANCH  19  20
ENDBRANCH  18  19
ENDBRANCH  12  18
ENDBRANCH   5   8
ENDBRANCH   3   4
ENDBRANCH   2   3
ENDBRANCH   1   2
BRANCH   1  28
ATOM     28  C   UNL A   1      39.060  22.033  25.970  1.00  0.00     0.002 C 
BRANCH  28  29
ATOM     29  C   UNL A   1      39.929  20.887  26.500  1.00  0.00     0.021 C 
BRANCH  29  30
ATOM     30  C   UNL A   1      41.344  21.322  26.885  1.00  0.00     0.116 C 
BRANCH  30  31
ATOM     31  N   UNL A   1      42.105  21.848  25.772  1.00  0.00    -0.352 N 
ATOM     32  C   UNL A   1      42.571  23.090  25.437  1.00  0.00     0.251 C 
ATOM     33  H   UNL A   1      42.338  21.159  25.108  1.00  0.00     0.163 HD
ATOM     34  O   UNL A   1      43.223  23.157  24.391  1.00  0.00    -0.269 OA
BRANCH  32  35
ATOM     35  C   UNL A   1      42.295  24.336  26.203  1.00  0.00     0.039 A 
ATOM     36  C   UNL A   1      41.324  25.284  25.879  1.00  0.00     0.014 A 
ATOM     37  C   UNL A   1      43.107  24.567  27.329  1.00  0.00     0.014 A 
ATOM     38  C   UNL A   1      41.232  26.473  26.588  1.00  0.00     0.010 A 
ATOM     39  C   UNL A   1      42.995  25.740  28.069  1.00  0.00     0.010 A 
ATOM     40  C   UNL A   1      42.082  26.710  27.669  1.00  0.00    -0.014 A 
BRANCH  40  41
ATOM     41  C   UNL A   1      41.870  27.941  28.421  1.00  0.00     0.031 A 
ATOM     42  C   UNL A   1      42.853  29.024  28.127  1.00  0.00     0.074 A 
ATOM     43  C   UNL A   1      40.829  28.139  29.251  1.00  0.00     0.049 A 
ATOM     44  N   UNL A   1      43.718  29.561  28.927  1.00  0.00    -0.248 NA
ATOM     45  C   UNL A   1      42.964  29.473  26.731  1.00  0.00     0.031 C 
ATOM     46  C   UNL A   1      39.646  27.294  29.428  1.00  0.00     0.029 A 
ATOM     47  N   UNL A   1      40.558  29.221  30.033  1.00  0.00    -0.354 N 
ATOM     48  C   UNL A   1      44.336  30.567  28.187  1.00  0.00     0.074 A 
ATOM     49  C   UNL A   1      43.949  30.367  26.815  1.00  0.00     0.031 C 
ATOM     50  C   UNL A   1      38.689  28.001  30.069  1.00  0.00     0.029 A 
ATOM     51  C   UNL A   1      39.237  29.285  30.466  1.00  0.00     0.049 A 
ATOM     52  H   UNL A   1      41.234  29.895  30.271  1.00  0.00     0.167 HD
ATOM     53  C   UNL A   1      44.948  31.632  28.774  1.00  0.00     0.034 A 
ATOM     54  C   UNL A   1      38.633  30.354  31.039  1.00  0.00     0.034 A 
ATOM     55  C   UNL A   1      45.245  31.395  30.157  1.00  0.00     0.049 A 
ATOM     56  C   UNL A   1      39.710  31.207  31.595  1.00  0.00     0.074 A 
ATOM     57  C   UNL A   1      46.030  30.503  30.856  1.00  0.00     0.029 A 
ATOM     58  N   UNL A   1      44.399  31.964  31.074  1.00  0.00    -0.354 N 
ATOM     59  N   UNL A   1      40.484  30.855  32.584  1.00  0.00    -0.248 NA
ATOM     60  C   UNL A   1      40.168  32.342  30.813  1.00  0.00     0.031 C 
ATOM     61  C   UNL A   1      45.314  30.250  32.061  1.00  0.00     0.029 A 
ATOM     62  C   UNL A   1      44.153  31.027  32.039  1.00  0.00     0.049 A 
ATOM     63  H   UNL A   1      44.036  32.879  31.045  1.00  0.00     0.167 HD
ATOM     64  C   UNL A   1      41.708  31.438  32.292  1.00  0.00     0.074 A 
ATOM     65  C   UNL A   1      41.417  32.440  31.272  1.00  0.00     0.031 C 
ATOM     66  C   UNL A   1      42.875  30.861  32.697  1.00  0.00     0.034 A 
BRANCH  53  67
ATOM     67  C   UNL A   1      44.966  33.025  28.194  1.00  0.00     0.023 A 
ATOM     68  C   UNL A   1      43.732  33.690  28.020  1.00  0.00     0.012 A 
ATOM     69  C   UNL A   1      46.097  33.593  27.563  1.00  0.00     0.148 A 
ATOM     70  C   UNL A   1      43.627  34.848  27.239  1.00  0.00     0.002 A 
ATOM     71  C   UNL A   1      46.002  34.786  26.858  1.00  0.00     0.091 A 
ATOM     72  F   UNL A   1      47.247  32.913  27.520  1.00  0.00    -0.205 F 
ATOM     73  C   UNL A   1      44.765  35.405  26.670  1.00  0.00     0.022 A 
BRANCH  71  74
ATOM     74  S   UNL A   1      47.460  35.561  26.149  1.00  0.00     0.127 S 
ATOM     75  O   UNL A   1      46.923  36.858  25.729  1.00  0.00    -0.237 OA
ATOM     76  O   UNL A   1      48.361  35.616  27.307  1.00  0.00    -0.237 OA
ATOM     77  O   UNL A   1      47.898  34.670  25.096  1.00  0.00    -0.744 OA
ENDBRANCH  71  74
ENDBRANCH  53  67
BRANCH  54  78
ATOM     78  C   UNL A   1      37.230  30.833  30.945  1.00  0.00     0.023 A 
ATOM     79  C   UNL A   1      36.541  31.172  32.129  1.00  0.00     0.012 A 
ATOM     80  C   UNL A   1      36.663  31.236  29.715  1.00  0.00     0.148 A 
ATOM     81  C   UNL A   1      35.367  31.933  32.095  1.00  0.00     0.002 A 
ATOM     82  C   UNL A   1      35.484  31.978  29.686  1.00  0.00     0.091 A 
ATOM     83  F   UNL A   1      37.325  30.983  28.579  1.00  0.00    -0.205 F 
ATOM     84  C   UNL A   1      34.843  32.345  30.874  1.00  0.00     0.022 A 
BRANCH  82  85
ATOM     85  S   UNL A   1      34.755  32.543  28.141  1.00  0.00     0.127 S 
ATOM     86  O   UNL A   1      34.429  31.280  27.476  1.00  0.00    -0.237 OA
ATOM     87  O   UNL A   1      33.600  33.303  28.611  1.00  0.00    -0.237 OA
ATOM     88  O   UNL A   1      35.798  33.313  27.475  1.00  0.00    -0.744 OA
ENDBRANCH  82  85
ENDBRANCH  54  78
BRANCH  66  89
ATOM     89  C   UNL A   1      42.809  29.743  33.704  1.00  0.00     0.023 A 
ATOM     90  C   UNL A   1      42.440  28.434  33.333  1.00  0.00     0.012 A 
ATOM     91  C   UNL A   1      43.370  29.966  34.973  1.00  0.00     0.148 A 
ATOM     92  C   UNL A   1      42.635  27.364  34.211  1.00  0.00     0.002 A 
ATOM     93  C   UNL A   1      43.604  28.895  35.823  1.00  0.00     0.091 A 
ATOM     94  F   UNL A   1      43.727  31.219  35.292  1.00  0.00    -0.205 F 
ATOM     95  C   UNL A   1      43.234  27.592  35.449  1.00  0.00     0.022 A 
BRANCH  93  96
ATOM     96  S   UNL A   1      44.499  29.086  37.367  1.00  0.00     0.127 S 
ATOM     97  O   UNL A   1      44.353  27.764  37.972  1.00  0.00    -0.237 OA
ATOM     98  O   UNL A   1      45.851  29.400  36.899  1.00  0.00    -0.237 OA
ATOM     99  O   UNL A   1      43.845  30.170  38.088  1.00  0.00    -0.744 OA
ENDBRANCH  93  96
ENDBRANCH  66  89
ENDBRANCH  40  41
ENDBRANCH  32  35
ENDBRANCH  30  31
ENDBRANCH  29  30
ENDBRANCH  28  29
ENDBRANCH   1  28
TORSDOF 20
ENDMDL
MODEL 3
REMARK VINA RESULT:     -11.6      3.340      9.130
REMARK SMILES Cc1nc2cc(C(=O)NCCCCCCNC(=O)c3ccc(-c4c5nc(c(-c6cccc(S(=O)(=O)[O-])c6F)c6ccc([nH]6)c(-c6cccc(S(=O)(=O)[O-])c6F)c6nc(c(-c7cccc(S(=O)(=O)[O-])c7F)c7ccc4[nH]7)C=C6)C=C5)cc3)ccc2n1CCC[NH+]1CCOCC1
REMARK SMILES IDX 12 1 11 2 10 3 9 4 7 5 8 6 6 8 1 9 2 10 3 11 85 12 4 13
REMARK SMILES IDX 84 14 5 15 83 16 82 17 86 18 87 19 88 20 89 21 90 22 94 23
REMARK SMILES IDX 91 25 93 26 92 27 13 28 14 29 15 30 16 31 17 32 18 34 19 35
REMARK SMILES IDX 20 36 81 37 21 38 80 39 22 40 23 41 24 42 74 43 25 44 79 45
REMARK SMILES IDX 73 46 75 47 26 48 78 49 72 50 71 51 27 53 59 54 39 55 58 56
REMARK SMILES IDX 40 57 43 58 57 59 76 60 41 61 42 62 56 64 77 65 44 66 28 67
REMARK SMILES IDX 29 68 37 69 30 70 32 71 38 72 31 73 33 74 34 75 35 76 36 77
REMARK SMILES IDX 60 78 61 79 69 80 62 81 64 82 70 83 63 84 65 85 66 86 67 87
REMARK SMILES IDX 68 88 45 89 46 90 54 91 47 92 49 93 55 94 48 95 50 96 51 97
REMARK SMILES IDX 52 98 53 99
REMARK H PARENT 9 7 89 24 16 33 75 52 43 63
REMARK Flexibility Score: inf
ROOT
ATOM      1  C   UNL A   1      30.894  29.676  24.631  1.00  0.00     0.002 C 
ENDROOT
BRANCH   1   2
ATOM      2  C   UNL A   1      31.702  28.960  23.539  1.00  0.00     0.021 C 
BRANCH   2   3
ATOM      3  C   UNL A   1      30.815  28.424  22.414  1.00  0.00     0.116 C 
BRANCH   3   4
ATOM      4  N   UNL A   1      29.533  28.046  22.973  1.00  0.00    -0.352 N 
ATOM      5  C   UNL A   1      29.124  26.934  23.658  1.00  0.00     0.251 C 
ATOM      6  O   UNL A   1      27.920  26.808  23.884  1.00  0.00    -0.269 OA
ATOM      7  H   UNL A   1      28.824  28.714  22.835  1.00  0.00     0.163 HD
BRANCH   5   8
ATOM      8  C   UNL A   1      30.077  25.944  24.227  1.00  0.00     0.042 A 
ATOM      9  C   UNL A   1      32.716  20.621  23.821  1.00  0.00     0.088 C 
ATOM     10  C   UNL A   1      32.136  21.925  24.196  1.00  0.00     0.106 A 
ATOM     11  N   UNL A   1      31.531  22.659  23.281  1.00  0.00    -0.233 NA
ATOM     12  N   UNL A   1      32.121  22.552  25.426  1.00  0.00    -0.328 N 
ATOM     13  C   UNL A   1      31.140  23.802  23.897  1.00  0.00     0.090 A 
ATOM     14  C   UNL A   1      31.566  23.819  25.215  1.00  0.00     0.068 A 
ATOM     15  C   UNL A   1      30.390  24.865  23.388  1.00  0.00     0.044 A 
ATOM     16  C   UNL A   1      31.363  24.930  26.045  1.00  0.00     0.029 A 
ATOM     17  C   UNL A   1      30.635  26.006  25.509  1.00  0.00     0.016 A 
BRANCH  12  18
ATOM     18  C   UNL A   1      32.443  22.128  26.777  1.00  0.00     0.130 C 
BRANCH  18  19
ATOM     19  C   UNL A   1      33.858  21.891  27.347  1.00  0.00     0.083 C 
BRANCH  19  20
ATOM     20  C   UNL A   1      34.964  22.932  27.074  1.00  0.00     0.264 C 
BRANCH  20  21
ATOM     21  N   UNL A   1      35.508  22.748  25.752  1.00  0.00    -0.331 N 
ATOM     22  C   UNL A   1      35.312  23.866  24.822  1.00  0.00     0.291 C 
ATOM     23  C   UNL A   1      36.888  22.272  25.650  1.00  0.00     0.291 C 
ATOM     24  H   UNL A   1      34.915  21.972  25.459  1.00  0.00     0.348 HD
ATOM     25  C   UNL A   1      35.503  23.309  23.404  1.00  0.00     0.221 C 
ATOM     26  C   UNL A   1      37.059  21.725  24.223  1.00  0.00     0.221 C 
ATOM     27  O   UNL A   1      36.818  22.750  23.241  1.00  0.00    -0.370 OA
ENDBRANCH  20  21
ENDBRANCH  19  20
ENDBRANCH  18  19
ENDBRANCH  12  18
ENDBRANCH   5   8
ENDBRANCH   3   4
ENDBRANCH   2   3
ENDBRANCH   1   2
BRANCH   1  28
ATOM     28  C   UNL A   1      31.749  30.263  25.760  1.00  0.00     0.002 C 
BRANCH  28  29
ATOM     29  C   UNL A   1      33.168  29.692  25.847  1.00  0.00     0.021 C 
BRANCH  29  30
ATOM     30  C   UNL A   1      33.690  29.572  27.279  1.00  0.00     0.116 C 
BRANCH  30  31
ATOM     31  N   UNL A   1      33.850  30.850  27.940  1.00  0.00    -0.352 N 
ATOM     32  C   UNL A   1      34.902  31.491  28.535  1.00  0.00     0.251 C 
ATOM     33  H   UNL A   1      33.017  31.373  27.969  1.00  0.00     0.163 HD
ATOM     34  O   UNL A   1      34.664  32.616  28.984  1.00  0.00    -0.269 OA
BRANCH  32  35
ATOM     35  C   UNL A   1      36.259  30.907  28.720  1.00  0.00     0.039 A 
ATOM     36  C   UNL A   1      37.388  31.608  29.145  1.00  0.00     0.014 A 
ATOM     37  C   UNL A   1      36.396  29.540  28.414  1.00  0.00     0.014 A 
ATOM     38  C   UNL A   1      38.634  30.998  29.165  1.00  0.00     0.010 A 
ATOM     39  C   UNL A   1      37.635  28.911  28.470  1.00  0.00     0.010 A 
ATOM     40  C   UNL A   1      38.760  29.655  28.807  1.00  0.00    -0.014 A 
BRANCH  40  41
ATOM     41  C   UNL A   1      40.083  29.058  28.936  1.00  0.00     0.031 A 
ATOM     42  C   UNL A   1      40.592  28.974  30.336  1.00  0.00     0.074 A 
ATOM     43  C   UNL A   1      40.772  28.539  27.902  1.00  0.00     0.049 A 
ATOM     44  N   UNL A   1      41.623  29.564  30.852  1.00  0.00    -0.248 NA
ATOM     45  C   UNL A   1      39.771  28.236  31.307  1.00  0.00     0.031 C 
ATOM     46  C   UNL A   1      40.299  28.294  26.538  1.00  0.00     0.029 A 
ATOM     47  N   UNL A   1      42.024  28.002  27.897  1.00  0.00    -0.354 N 
ATOM     48  C   UNL A   1      41.702  29.098  32.163  1.00  0.00     0.074 A 
ATOM     49  C   UNL A   1      40.464  28.414  32.432  1.00  0.00     0.031 C 
ATOM     50  C   UNL A   1      41.154  27.452  25.917  1.00  0.00     0.029 A 
ATOM     51  C   UNL A   1      42.294  27.213  26.784  1.00  0.00     0.049 A 
ATOM     52  H   UNL A   1      42.679  28.158  28.616  1.00  0.00     0.167 HD
ATOM     53  C   UNL A   1      42.864  29.110  32.871  1.00  0.00     0.034 A 
ATOM     54  C   UNL A   1      43.345  26.371  26.634  1.00  0.00     0.034 A 
ATOM     55  C   UNL A   1      43.837  29.999  32.306  1.00  0.00     0.049 A 
ATOM     56  C   UNL A   1      44.393  26.823  27.579  1.00  0.00     0.074 A 
ATOM     57  C   UNL A   1      43.914  31.355  32.074  1.00  0.00     0.029 A 
ATOM     58  N   UNL A   1      44.836  29.424  31.563  1.00  0.00    -0.354 N 
ATOM     59  N   UNL A   1      45.025  27.959  27.481  1.00  0.00    -0.248 NA
ATOM     60  C   UNL A   1      44.504  26.152  28.863  1.00  0.00     0.031 C 
ATOM     61  C   UNL A   1      44.652  31.481  30.862  1.00  0.00     0.029 A 
ATOM     62  C   UNL A   1      45.008  30.195  30.446  1.00  0.00     0.049 A 
ATOM     63  H   UNL A   1      45.338  28.609  31.790  1.00  0.00     0.167 HD
ATOM     64  C   UNL A   1      45.252  28.345  28.794  1.00  0.00     0.074 A 
ATOM     65  C   UNL A   1      45.031  27.140  29.587  1.00  0.00     0.031 C 
ATOM     66  C   UNL A   1      45.320  29.663  29.137  1.00  0.00     0.034 A 
BRANCH  53  67
ATOM     67  C   UNL A   1      43.254  28.056  33.878  1.00  0.00     0.023 A 
ATOM     68  C   UNL A   1      43.467  28.458  35.215  1.00  0.00     0.012 A 
ATOM     69  C   UNL A   1      43.686  26.757  33.521  1.00  0.00     0.148 A 
ATOM     70  C   UNL A   1      44.097  27.618  36.142  1.00  0.00     0.002 A 
ATOM     71  C   UNL A   1      44.237  25.899  34.465  1.00  0.00     0.091 A 
ATOM     72  F   UNL A   1      43.699  26.390  32.236  1.00  0.00    -0.205 F 
ATOM     73  C   UNL A   1      44.469  26.332  35.770  1.00  0.00     0.022 A 
BRANCH  71  74
ATOM     74  S   UNL A   1      44.685  24.214  34.032  1.00  0.00     0.127 S 
ATOM     75  O   UNL A   1      45.815  24.438  33.128  1.00  0.00    -0.237 OA
ATOM     76  O   UNL A   1      45.048  23.656  35.341  1.00  0.00    -0.237 OA
ATOM     77  O   UNL A   1      43.493  23.635  33.449  1.00  0.00    -0.744 OA
ENDBRANCH  71  74
ENDBRANCH  53  67
BRANCH  54  78
ATOM     78  C   UNL A   1      43.444  25.070  25.925  1.00  0.00     0.023 A 
ATOM     79  C   UNL A   1      44.546  24.834  25.075  1.00  0.00     0.012 A 
ATOM     80  C   UNL A   1      42.644  23.963  26.288  1.00  0.00     0.148 A 
ATOM     81  C   UNL A   1      44.876  23.541  24.653  1.00  0.00     0.002 A 
ATOM     82  C   UNL A   1      42.966  22.680  25.850  1.00  0.00     0.091 A 
ATOM     83  F   UNL A   1      41.628  24.145  27.141  1.00  0.00    -0.205 F 
ATOM     84  C   UNL A   1      44.092  22.462  25.048  1.00  0.00     0.022 A 
BRANCH  82  85
ATOM     85  S   UNL A   1      41.994  21.243  26.325  1.00  0.00     0.127 S 
ATOM     86  O   UNL A   1      42.271  21.144  27.759  1.00  0.00    -0.237 OA
ATOM     87  O   UNL A   1      40.639  21.669  25.991  1.00  0.00    -0.237 OA
ATOM     88  O   UNL A   1      42.526  20.135  25.540  1.00  0.00    -0.744 OA
ENDBRANCH  82  85
ENDBRANCH  54  78
BRANCH  66  89
ATOM     89  C   UNL A   1      45.430  30.684  28.036  1.00  0.00     0.023 A 
ATOM     90  C   UNL A   1      44.289  31.288  27.470  1.00  0.00     0.012 A 
ATOM     91  C   UNL A   1      46.700  31.216  27.757  1.00  0.00     0.148 A 
ATOM     92  C   UNL A   1      44.413  32.410  26.646  1.00  0.00     0.002 A 
ATOM     93  C   UNL A   1      46.815  32.358  26.976  1.00  0.00     0.091 A 
ATOM     94  F   UNL A   1      47.767  30.632  28.322  1.00  0.00    -0.205 F 
ATOM     95  C   UNL A   1      45.675  32.956  26.414  1.00  0.00     0.022 A 
BRANCH  93  96
ATOM     96  S   UNL A   1      48.383  33.200  26.751  1.00  0.00     0.127 S 
ATOM     97  O   UNL A   1      49.271  32.102  26.373  1.00  0.00    -0.237 OA
ATOM     98  O   UNL A   1      48.074  34.137  25.668  1.00  0.00    -0.237 OA
ATOM     99  O   UNL A   1      48.695  33.835  28.024  1.00  0.00    -0.744 OA
ENDBRANCH  93  96
ENDBRANCH  66  89
ENDBRANCH  40  41
ENDBRANCH  32  35
ENDBRANCH  30  31
ENDBRANCH  29  30
ENDBRANCH  28  29
ENDBRANCH   1  28
TORSDOF 20
ENDMDL
