MODEL 1
REMARK VINA RESULT:     -11.7      0.000      0.000
REMARK SMILES O=C(NCCCCCCNC(=O)c1cc2ncoc2cn1)c1ccc(-c2c3nc(c(-c4cccc(S(=O)(=O)[O-])c4F)c4ccc([nH]4)c(-c4cccc(S(=O)(=O)[O-])c4F)c4nc(c(-c5cccc(S(=O)(=O)[O-])c5F)c5ccc2[nH]5)C=C4)C=C3)cc1
REMARK SMILES IDX 5 1 4 2 3 3 1 4 2 5 22 7 23 8 84 9 24 10 83 11 25 12 26 13
REMARK SMILES IDX 27 14 77 15 28 16 82 17 76 18 78 19 29 20 81 21 75 22 74 23
REMARK SMILES IDX 30 25 62 26 42 27 61 28 43 29 46 30 60 31 79 32 44 33 45 34
REMARK SMILES IDX 59 36 80 37 47 38 31 39 32 40 40 41 33 42 35 43 41 44 34 45
REMARK SMILES IDX 36 46 37 47 38 48 39 49 63 50 64 51 72 52 65 53 67 54 73 55
REMARK SMILES IDX 66 56 68 57 69 58 70 59 71 60 48 61 49 62 57 63 50 64 52 65
REMARK SMILES IDX 58 66 51 67 53 68 54 69 55 70 56 71 6 72 7 73 8 74 9 75
REMARK SMILES IDX 10 76 11 77 12 79 13 80 14 81 21 82 15 83 20 84 16 85 19 86
REMARK SMILES IDX 17 87 18 88
REMARK H PARENT 3 6 78 24 46 35 10 78
REMARK Flexibility Score: inf
ROOT
ATOM      1  C   UNL A   1      31.314  31.928  26.563  1.00  0.00     0.021 C 
ENDROOT
BRANCH   1   2
ATOM      2  C   UNL A   1      32.530  32.540  27.232  1.00  0.00     0.116 C 
BRANCH   2   3
ATOM      3  N   UNL A   1      32.368  33.957  27.607  1.00  0.00    -0.352 N 
ATOM      4  O   UNL A   1      32.554  35.688  29.089  1.00  0.00    -0.269 OA
ATOM      5  C   UNL A   1      33.004  34.653  28.638  1.00  0.00     0.251 C 
ATOM      6  H   UNL A   1      31.731  34.477  27.064  1.00  0.00     0.163 HD
BRANCH   5   7
ATOM      7  C   UNL A   1      34.275  34.093  29.143  1.00  0.00     0.039 A 
ATOM      8  C   UNL A   1      34.422  33.373  30.329  1.00  0.00     0.014 A 
ATOM      9  C   UNL A   1      35.343  34.243  28.282  1.00  0.00     0.014 A 
ATOM     10  C   UNL A   1      35.660  32.774  30.575  1.00  0.00     0.010 A 
ATOM     11  C   UNL A   1      36.325  33.311  28.319  1.00  0.00     0.010 A 
ATOM     12  C   UNL A   1      36.613  32.758  29.544  1.00  0.00    -0.014 A 
BRANCH  12  13
ATOM     13  C   UNL A   1      37.948  32.198  29.660  1.00  0.00     0.031 A 
ATOM     14  C   UNL A   1      38.082  30.824  29.138  1.00  0.00     0.074 A 
ATOM     15  C   UNL A   1      39.016  32.942  30.040  1.00  0.00     0.049 A 
ATOM     16  N   UNL A   1      38.167  29.742  29.836  1.00  0.00    -0.248 NA
ATOM     17  C   UNL A   1      37.934  30.604  27.693  1.00  0.00     0.031 C 
ATOM     18  C   UNL A   1      39.105  34.393  30.302  1.00  0.00     0.029 A 
ATOM     19  N   UNL A   1      40.313  32.561  30.149  1.00  0.00    -0.354 N 
ATOM     20  C   UNL A   1      38.350  28.727  28.910  1.00  0.00     0.074 A 
ATOM     21  C   UNL A   1      37.987  29.271  27.626  1.00  0.00     0.031 C 
ATOM     22  C   UNL A   1      40.396  34.789  30.268  1.00  0.00     0.029 A 
ATOM     23  C   UNL A   1      41.228  33.610  30.192  1.00  0.00     0.049 A 
ATOM     24  H   UNL A   1      40.587  31.617  30.193  1.00  0.00     0.167 HD
ATOM     25  C   UNL A   1      39.044  27.601  29.228  1.00  0.00     0.034 A 
ATOM     26  C   UNL A   1      42.577  33.496  30.144  1.00  0.00     0.034 A 
ATOM     27  C   UNL A   1      39.300  27.502  30.641  1.00  0.00     0.049 A 
ATOM     28  C   UNL A   1      42.881  32.119  30.601  1.00  0.00     0.074 A 
ATOM     29  C   UNL A   1      38.507  27.456  31.770  1.00  0.00     0.029 A 
ATOM     30  N   UNL A   1      40.547  27.893  31.069  1.00  0.00    -0.354 N 
ATOM     31  N   UNL A   1      42.621  31.687  31.804  1.00  0.00    -0.248 NA
ATOM     32  C   UNL A   1      43.053  31.092  29.586  1.00  0.00     0.031 C 
ATOM     33  C   UNL A   1      39.178  28.280  32.721  1.00  0.00     0.029 A 
ATOM     34  C   UNL A   1      40.372  28.722  32.147  1.00  0.00     0.049 A 
ATOM     35  H   UNL A   1      41.408  27.626  30.673  1.00  0.00     0.167 HD
ATOM     36  C   UNL A   1      42.148  30.395  31.611  1.00  0.00     0.074 A 
ATOM     37  C   UNL A   1      42.535  30.050  30.243  1.00  0.00     0.031 C 
ATOM     38  C   UNL A   1      41.240  29.837  32.463  1.00  0.00     0.034 A 
BRANCH  25  39
ATOM     39  C   UNL A   1      39.811  26.791  28.227  1.00  0.00     0.023 A 
ATOM     40  C   UNL A   1      39.614  25.396  28.207  1.00  0.00     0.012 A 
ATOM     41  C   UNL A   1      40.890  27.312  27.480  1.00  0.00     0.148 A 
ATOM     42  C   UNL A   1      40.455  24.558  27.468  1.00  0.00     0.002 A 
ATOM     43  C   UNL A   1      41.673  26.486  26.686  1.00  0.00     0.091 A 
ATOM     44  F   UNL A   1      41.246  28.592  27.638  1.00  0.00    -0.205 F 
ATOM     45  C   UNL A   1      41.474  25.104  26.692  1.00  0.00     0.022 A 
BRANCH  43  46
ATOM     46  S   UNL A   1      42.974  27.151  25.642  1.00  0.00     0.127 S 
ATOM     47  O   UNL A   1      42.219  28.042  24.767  1.00  0.00    -0.237 OA
ATOM     48  O   UNL A   1      43.831  27.820  26.621  1.00  0.00    -0.237 OA
ATOM     49  O   UNL A   1      43.586  25.991  25.009  1.00  0.00    -0.744 OA
ENDBRANCH  43  46
ENDBRANCH  25  39
BRANCH  26  50
ATOM     50  C   UNL A   1      43.579  34.343  29.447  1.00  0.00     0.023 A 
ATOM     51  C   UNL A   1      44.329  35.268  30.205  1.00  0.00     0.012 A 
ATOM     52  C   UNL A   1      44.027  34.041  28.141  1.00  0.00     0.148 A 
ATOM     53  C   UNL A   1      45.522  35.810  29.712  1.00  0.00     0.002 A 
ATOM     54  C   UNL A   1      45.213  34.589  27.652  1.00  0.00     0.091 A 
ATOM     55  F   UNL A   1      43.350  33.145  27.411  1.00  0.00    -0.205 F 
ATOM     56  C   UNL A   1      45.973  35.459  28.445  1.00  0.00     0.022 A 
BRANCH  54  57
ATOM     57  S   UNL A   1      45.862  34.176  26.025  1.00  0.00     0.127 S 
ATOM     58  O   UNL A   1      44.734  34.506  25.153  1.00  0.00    -0.237 OA
ATOM     59  O   UNL A   1      47.005  35.077  25.913  1.00  0.00    -0.237 OA
ATOM     60  O   UNL A   1      46.183  32.753  26.074  1.00  0.00    -0.744 OA
ENDBRANCH  54  57
ENDBRANCH  26  50
BRANCH  38  61
ATOM     61  C   UNL A   1      40.929  30.568  33.747  1.00  0.00     0.023 A 
ATOM     62  C   UNL A   1      41.839  30.621  34.825  1.00  0.00     0.012 A 
ATOM     63  C   UNL A   1      39.788  31.386  33.779  1.00  0.00     0.148 A 
ATOM     64  C   UNL A   1      41.613  31.473  35.911  1.00  0.00     0.002 A 
ATOM     65  C   UNL A   1      39.585  32.255  34.843  1.00  0.00     0.091 A 
ATOM     66  F   UNL A   1      38.946  31.330  32.736  1.00  0.00    -0.205 F 
ATOM     67  C   UNL A   1      40.493  32.301  35.913  1.00  0.00     0.022 A 
BRANCH  65  68
ATOM     68  S   UNL A   1      38.222  33.421  34.863  1.00  0.00     0.127 S 
ATOM     69  O   UNL A   1      37.063  32.535  34.953  1.00  0.00    -0.237 OA
ATOM     70  O   UNL A   1      38.494  34.196  36.074  1.00  0.00    -0.237 OA
ATOM     71  O   UNL A   1      38.321  34.185  33.626  1.00  0.00    -0.744 OA
ENDBRANCH  65  68
ENDBRANCH  38  61
ENDBRANCH  12  13
ENDBRANCH   5   7
ENDBRANCH   2   3
ENDBRANCH   1   2
BRANCH   1  72
ATOM     72  C   UNL A   1      31.544  30.525  25.981  1.00  0.00     0.002 C 
BRANCH  72  73
ATOM     73  C   UNL A   1      32.026  29.425  26.941  1.00  0.00     0.002 C 
BRANCH  73  74
ATOM     74  C   UNL A   1      32.669  28.185  26.308  1.00  0.00     0.021 C 
BRANCH  74  75
ATOM     75  C   UNL A   1      31.698  27.175  25.702  1.00  0.00     0.116 C 
BRANCH  75  76
ATOM     76  N   UNL A   1      31.393  26.086  26.618  1.00  0.00    -0.351 N 
ATOM     77  C   UNL A   1      31.807  24.776  26.544  1.00  0.00     0.269 C 
ATOM     78  H   UNL A   1      30.820  26.316  27.384  1.00  0.00     0.163 HD
ATOM     79  O   UNL A   1      31.352  23.944  27.329  1.00  0.00    -0.268 OA
BRANCH  77  80
ATOM     80  C   UNL A   1      32.799  24.369  25.509  1.00  0.00     0.130 A 
ATOM     81  C   UNL A   1      34.146  24.378  25.856  1.00  0.00     0.066 A 
ATOM     82  N   UNL A   1      32.293  24.023  24.283  1.00  0.00    -0.247 NA
ATOM     83  C   UNL A   1      35.009  23.929  24.860  1.00  0.00     0.113 A 
ATOM     84  C   UNL A   1      33.148  23.569  23.333  1.00  0.00     0.161 A 
ATOM     85  N   UNL A   1      36.375  23.795  24.843  1.00  0.00    -0.216 NA
ATOM     86  C   UNL A   1      34.490  23.524  23.641  1.00  0.00     0.172 A 
ATOM     87  C   UNL A   1      36.611  23.242  23.672  1.00  0.00     0.309 A 
ATOM     88  O   UNL A   1      35.523  23.093  22.862  1.00  0.00    -0.442 OA
ENDBRANCH  77  80
ENDBRANCH  75  76
ENDBRANCH  74  75
ENDBRANCH  73  74
ENDBRANCH  72  73
ENDBRANCH   1  72
TORSDOF 16
ENDMDL
MODEL 2
REMARK VINA RESULT:     -11.6      2.059      2.898
REMARK SMILES O=C(NCCCCCCNC(=O)c1cc2ncoc2cn1)c1ccc(-c2c3nc(c(-c4cccc(S(=O)(=O)[O-])c4F)c4ccc([nH]4)c(-c4cccc(S(=O)(=O)[O-])c4F)c4nc(c(-c5cccc(S(=O)(=O)[O-])c5F)c5ccc2[nH]5)C=C4)C=C3)cc1
REMARK SMILES IDX 5 1 4 2 3 3 1 4 2 5 22 7 23 8 84 9 24 10 83 11 25 12 26 13
REMARK SMILES IDX 27 14 77 15 28 16 82 17 76 18 78 19 29 20 81 21 75 22 74 23
REMARK SMILES IDX 30 25 62 26 42 27 61 28 43 29 46 30 60 31 79 32 44 33 45 34
REMARK SMILES IDX 59 36 80 37 47 38 31 39 32 40 40 41 33 42 35 43 41 44 34 45
REMARK SMILES IDX 36 46 37 47 38 48 39 49 63 50 64 51 72 52 65 53 67 54 73 55
REMARK SMILES IDX 66 56 68 57 69 58 70 59 71 60 48 61 49 62 57 63 50 64 52 65
REMARK SMILES IDX 58 66 51 67 53 68 54 69 55 70 56 71 6 72 7 73 8 74 9 75
REMARK SMILES IDX 10 76 11 77 12 79 13 80 14 81 21 82 15 83 20 84 16 85 19 86
REMARK SMILES IDX 17 87 18 88
REMARK H PARENT 3 6 78 24 46 35 10 78
REMARK Flexibility Score: inf
ROOT
ATOM      1  C   UNL A   1      31.324  31.941  26.439  1.00  0.00     0.021 C 
ENDROOT
BRANCH   1   2
ATOM      2  C   UNL A   1      32.409  32.516  27.331  1.00  0.00     0.116 C 
BRANCH   2   3
ATOM      3  N   UNL A   1      32.249  33.950  27.632  1.00  0.00    -0.352 N 
ATOM      4  O   UNL A   1      32.478  35.763  29.006  1.00  0.00    -0.269 OA
ATOM      5  C   UNL A   1      32.919  34.707  28.597  1.00  0.00     0.251 C 
ATOM      6  H   UNL A   1      31.588  34.435  27.086  1.00  0.00     0.163 HD
BRANCH   5   7
ATOM      7  C   UNL A   1      34.212  34.184  29.083  1.00  0.00     0.039 A 
ATOM      8  C   UNL A   1      34.414  33.546  30.308  1.00  0.00     0.014 A 
ATOM      9  C   UNL A   1      35.242  34.277  28.168  1.00  0.00     0.014 A 
ATOM     10  C   UNL A   1      35.663  32.966  30.539  1.00  0.00     0.010 A 
ATOM     11  C   UNL A   1      36.228  33.351  28.226  1.00  0.00     0.010 A 
ATOM     12  C   UNL A   1      36.571  32.882  29.472  1.00  0.00    -0.014 A 
BRANCH  12  13
ATOM     13  C   UNL A   1      37.912  32.332  29.568  1.00  0.00     0.031 A 
ATOM     14  C   UNL A   1      38.035  30.936  29.105  1.00  0.00     0.074 A 
ATOM     15  C   UNL A   1      38.989  33.097  29.876  1.00  0.00     0.049 A 
ATOM     16  N   UNL A   1      38.150  29.888  29.848  1.00  0.00    -0.248 NA
ATOM     17  C   UNL A   1      37.840  30.650  27.677  1.00  0.00     0.031 C 
ATOM     18  C   UNL A   1      39.079  34.559  30.068  1.00  0.00     0.029 A 
ATOM     19  N   UNL A   1      40.291  32.726  29.957  1.00  0.00    -0.354 N 
ATOM     20  C   UNL A   1      38.306  28.832  28.964  1.00  0.00     0.074 A 
ATOM     21  C   UNL A   1      37.897  29.315  27.669  1.00  0.00     0.031 C 
ATOM     22  C   UNL A   1      40.366  34.958  29.971  1.00  0.00     0.029 A 
ATOM     23  C   UNL A   1      41.201  33.779  29.921  1.00  0.00     0.049 A 
ATOM     24  H   UNL A   1      40.571  31.786  30.035  1.00  0.00     0.167 HD
ATOM     25  C   UNL A   1      39.017  27.724  29.309  1.00  0.00     0.034 A 
ATOM     26  C   UNL A   1      42.548  33.668  29.832  1.00  0.00     0.034 A 
ATOM     27  C   UNL A   1      39.321  27.691  30.715  1.00  0.00     0.049 A 
ATOM     28  C   UNL A   1      42.875  32.314  30.341  1.00  0.00     0.074 A 
ATOM     29  C   UNL A   1      38.568  27.694  31.872  1.00  0.00     0.029 A 
ATOM     30  N   UNL A   1      40.580  28.106  31.082  1.00  0.00    -0.354 N 
ATOM     31  N   UNL A   1      42.658  31.937  31.571  1.00  0.00    -0.248 NA
ATOM     32  C   UNL A   1      43.017  31.243  29.369  1.00  0.00     0.031 C 
ATOM     33  C   UNL A   1      39.266  28.564  32.761  1.00  0.00     0.029 A 
ATOM     34  C   UNL A   1      40.438  28.983  32.126  1.00  0.00     0.049 A 
ATOM     35  H   UNL A   1      41.429  27.825  30.669  1.00  0.00     0.167 HD
ATOM     36  C   UNL A   1      42.186  30.636  31.454  1.00  0.00     0.074 A 
ATOM     37  C   UNL A   1      42.527  30.230  30.091  1.00  0.00     0.031 C 
ATOM     38  C   UNL A   1      41.310  30.115  32.361  1.00  0.00     0.034 A 
BRANCH  25  39
ATOM     39  C   UNL A   1      39.753  26.871  28.321  1.00  0.00     0.023 A 
ATOM     40  C   UNL A   1      39.541  25.479  28.353  1.00  0.00     0.012 A 
ATOM     41  C   UNL A   1      40.821  27.354  27.533  1.00  0.00     0.148 A 
ATOM     42  C   UNL A   1      40.356  24.607  27.625  1.00  0.00     0.002 A 
ATOM     43  C   UNL A   1      41.578  26.493  26.753  1.00  0.00     0.091 A 
ATOM     44  F   UNL A   1      41.194  28.635  27.640  1.00  0.00    -0.205 F 
ATOM     45  C   UNL A   1      41.364  25.114  26.810  1.00  0.00     0.022 A 
BRANCH  43  46
ATOM     46  S   UNL A   1      42.864  27.107  25.660  1.00  0.00     0.127 S 
ATOM     47  O   UNL A   1      43.278  25.882  24.982  1.00  0.00    -0.237 OA
ATOM     48  O   UNL A   1      42.124  28.057  24.829  1.00  0.00    -0.237 OA
ATOM     49  O   UNL A   1      43.850  27.723  26.537  1.00  0.00    -0.744 OA
ENDBRANCH  43  46
ENDBRANCH  25  39
BRANCH  26  50
ATOM     50  C   UNL A   1      43.522  34.486  29.063  1.00  0.00     0.023 A 
ATOM     51  C   UNL A   1      43.813  34.119  27.732  1.00  0.00     0.012 A 
ATOM     52  C   UNL A   1      43.914  35.773  29.495  1.00  0.00     0.148 A 
ATOM     53  C   UNL A   1      44.401  35.026  26.842  1.00  0.00     0.002 A 
ATOM     54  C   UNL A   1      44.506  36.671  28.606  1.00  0.00     0.091 A 
ATOM     55  F   UNL A   1      43.624  36.158  30.745  1.00  0.00    -0.205 F 
ATOM     56  C   UNL A   1      44.733  36.305  27.273  1.00  0.00     0.022 A 
BRANCH  54  57
ATOM     57  S   UNL A   1      44.955  38.345  29.091  1.00  0.00     0.127 S 
ATOM     58  O   UNL A   1      43.759  38.788  29.808  1.00  0.00    -0.237 OA
ATOM     59  O   UNL A   1      46.125  38.116  29.936  1.00  0.00    -0.237 OA
ATOM     60  O   UNL A   1      45.208  39.065  27.847  1.00  0.00    -0.744 OA
ENDBRANCH  54  57
ENDBRANCH  26  50
BRANCH  38  61
ATOM     61  C   UNL A   1      41.039  30.903  33.620  1.00  0.00     0.023 A 
ATOM     62  C   UNL A   1      41.950  30.941  34.698  1.00  0.00     0.012 A 
ATOM     63  C   UNL A   1      39.945  31.783  33.624  1.00  0.00     0.148 A 
ATOM     64  C   UNL A   1      41.772  31.839  35.755  1.00  0.00     0.002 A 
ATOM     65  C   UNL A   1      39.790  32.696  34.658  1.00  0.00     0.091 A 
ATOM     66  F   UNL A   1      39.102  31.740  32.581  1.00  0.00    -0.205 F 
ATOM     67  C   UNL A   1      40.698  32.726  35.728  1.00  0.00     0.022 A 
BRANCH  65  68
ATOM     68  S   UNL A   1      38.493  33.936  34.638  1.00  0.00     0.127 S 
ATOM     69  O   UNL A   1      37.297  33.130  34.873  1.00  0.00    -0.237 OA
ATOM     70  O   UNL A   1      38.876  34.803  35.753  1.00  0.00    -0.237 OA
ATOM     71  O   UNL A   1      38.561  34.574  33.329  1.00  0.00    -0.744 OA
ENDBRANCH  65  68
ENDBRANCH  38  61
ENDBRANCH  12  13
ENDBRANCH   5   7
ENDBRANCH   2   3
ENDBRANCH   1   2
BRANCH   1  72
ATOM     72  C   UNL A   1      31.631  30.543  25.881  1.00  0.00     0.002 C 
BRANCH  72  73
ATOM     73  C   UNL A   1      32.966  29.892  26.280  1.00  0.00     0.002 C 
BRANCH  73  74
ATOM     74  C   UNL A   1      32.890  28.604  27.106  1.00  0.00     0.021 C 
BRANCH  74  75
ATOM     75  C   UNL A   1      31.526  27.919  27.138  1.00  0.00     0.116 C 
BRANCH  75  76
ATOM     76  N   UNL A   1      31.578  26.562  26.617  1.00  0.00    -0.351 N 
ATOM     77  C   UNL A   1      31.259  26.128  25.350  1.00  0.00     0.269 C 
ATOM     78  H   UNL A   1      31.879  25.869  27.248  1.00  0.00     0.163 HD
ATOM     79  O   UNL A   1      31.230  24.922  25.105  1.00  0.00    -0.268 OA
BRANCH  77  80
ATOM     80  C   UNL A   1      30.941  27.120  24.284  1.00  0.00     0.130 A 
ATOM     81  C   UNL A   1      29.604  27.430  24.058  1.00  0.00     0.066 A 
ATOM     82  N   UNL A   1      32.008  27.642  23.601  1.00  0.00    -0.247 NA
ATOM     83  C   UNL A   1      29.387  28.408  23.091  1.00  0.00     0.113 A 
ATOM     84  C   UNL A   1      31.777  28.608  22.677  1.00  0.00     0.161 A 
ATOM     85  N   UNL A   1      28.225  28.964  22.616  1.00  0.00    -0.216 NA
ATOM     86  C   UNL A   1      30.470  28.978  22.443  1.00  0.00     0.172 A 
ATOM     87  C   UNL A   1      28.651  29.890  21.784  1.00  0.00     0.309 A 
ATOM     88  O   UNL A   1      30.000  29.927  21.584  1.00  0.00    -0.442 OA
ENDBRANCH  77  80
ENDBRANCH  75  76
ENDBRANCH  74  75
ENDBRANCH  73  74
ENDBRANCH  72  73
ENDBRANCH   1  72
TORSDOF 16
ENDMDL
MODEL 3
REMARK VINA RESULT:     -11.5      1.604      2.511
REMARK SMILES O=C(NCCCCCCNC(=O)c1cc2ncoc2cn1)c1ccc(-c2c3nc(c(-c4cccc(S(=O)(=O)[O-])c4F)c4ccc([nH]4)c(-c4cccc(S(=O)(=O)[O-])c4F)c4nc(c(-c5cccc(S(=O)(=O)[O-])c5F)c5ccc2[nH]5)C=C4)C=C3)cc1
REMARK SMILES IDX 5 1 4 2 3 3 1 4 2 5 22 7 23 8 84 9 24 10 83 11 25 12 26 13
REMARK SMILES IDX 27 14 77 15 28 16 82 17 76 18 78 19 29 20 81 21 75 22 74 23
REMARK SMILES IDX 30 25 62 26 42 27 61 28 43 29 46 30 60 31 79 32 44 33 45 34
REMARK SMILES IDX 59 36 80 37 47 38 31 39 32 40 40 41 33 42 35 43 41 44 34 45
REMARK SMILES IDX 36 46 37 47 38 48 39 49 63 50 64 51 72 52 65 53 67 54 73 55
REMARK SMILES IDX 66 56 68 57 69 58 70 59 71 60 48 61 49 62 57 63 50 64 52 65
REMARK SMILES IDX 58 66 51 67 53 68 54 69 55 70 56 71 6 72 7 73 8 74 9 75
REMARK SMILES IDX 10 76 11 77 12 79 13 80 14 81 21 82 15 83 20 84 16 85 19 86
REMARK SMILES IDX 17 87 18 88
REMARK H PARENT 3 6 78 24 46 35 10 78
REMARK Flexibility Score: inf
ROOT
ATOM      1  C   UNL A   1      31.348  31.888  26.524  1.00  0.00     0.021 C 
ENDROOT
BRANCH   1   2
ATOM      2  C   UNL A   1      32.550  32.501  27.218  1.00  0.00     0.116 C 
BRANCH   2   3
ATOM      3  N   UNL A   1      32.384  33.921  27.579  1.00  0.00    -0.352 N 
ATOM      4  O   UNL A   1      32.566  35.667  29.043  1.00  0.00    -0.269 OA
ATOM      5  C   UNL A   1      33.019  34.629  28.603  1.00  0.00     0.251 C 
ATOM      6  H   UNL A   1      31.747  34.434  27.031  1.00  0.00     0.163 HD
BRANCH   5   7
ATOM      7  C   UNL A   1      34.291  34.077  29.114  1.00  0.00     0.039 A 
ATOM      8  C   UNL A   1      34.443  33.384  30.315  1.00  0.00     0.014 A 
ATOM      9  C   UNL A   1      35.354  34.205  28.244  1.00  0.00     0.014 A 
ATOM     10  C   UNL A   1      35.680  32.787  30.568  1.00  0.00     0.010 A 
ATOM     11  C   UNL A   1      36.334  33.271  28.298  1.00  0.00     0.010 A 
ATOM     12  C   UNL A   1      36.628  32.745  29.533  1.00  0.00    -0.014 A 
BRANCH  12  13
ATOM     13  C   UNL A   1      37.962  32.185  29.655  1.00  0.00     0.031 A 
ATOM     14  C   UNL A   1      38.096  30.809  29.137  1.00  0.00     0.074 A 
ATOM     15  C   UNL A   1      39.029  32.929  30.036  1.00  0.00     0.049 A 
ATOM     16  N   UNL A   1      38.179  29.729  29.838  1.00  0.00    -0.248 NA
ATOM     17  C   UNL A   1      37.953  30.585  27.692  1.00  0.00     0.031 C 
ATOM     18  C   UNL A   1      39.118  34.381  30.294  1.00  0.00     0.029 A 
ATOM     19  N   UNL A   1      40.325  32.548  30.150  1.00  0.00    -0.354 N 
ATOM     20  C   UNL A   1      38.364  28.711  28.916  1.00  0.00     0.074 A 
ATOM     21  C   UNL A   1      38.005  29.252  27.629  1.00  0.00     0.031 C 
ATOM     22  C   UNL A   1      40.410  34.776  30.263  1.00  0.00     0.029 A 
ATOM     23  C   UNL A   1      41.241  33.596  30.193  1.00  0.00     0.049 A 
ATOM     24  H   UNL A   1      40.599  31.603  30.197  1.00  0.00     0.167 HD
ATOM     25  C   UNL A   1      39.056  27.586  29.239  1.00  0.00     0.034 A 
ATOM     26  C   UNL A   1      42.590  33.481  30.149  1.00  0.00     0.034 A 
ATOM     27  C   UNL A   1      39.307  27.491  30.653  1.00  0.00     0.049 A 
ATOM     28  C   UNL A   1      42.892  32.105  30.612  1.00  0.00     0.074 A 
ATOM     29  C   UNL A   1      38.511  27.448  31.780  1.00  0.00     0.029 A 
ATOM     30  N   UNL A   1      40.553  27.882  31.084  1.00  0.00    -0.354 N 
ATOM     31  N   UNL A   1      42.627  31.676  31.815  1.00  0.00    -0.248 NA
ATOM     32  C   UNL A   1      43.066  31.075  29.600  1.00  0.00     0.031 C 
ATOM     33  C   UNL A   1      39.179  28.274  32.731  1.00  0.00     0.029 A 
ATOM     34  C   UNL A   1      40.375  28.714  32.159  1.00  0.00     0.049 A 
ATOM     35  H   UNL A   1      41.416  27.614  30.691  1.00  0.00     0.167 HD
ATOM     36  C   UNL A   1      42.155  30.385  31.624  1.00  0.00     0.074 A 
ATOM     37  C   UNL A   1      42.545  30.036  30.258  1.00  0.00     0.031 C 
ATOM     38  C   UNL A   1      41.243  29.830  32.475  1.00  0.00     0.034 A 
BRANCH  25  39
ATOM     39  C   UNL A   1      39.825  26.772  28.243  1.00  0.00     0.023 A 
ATOM     40  C   UNL A   1      39.639  25.376  28.236  1.00  0.00     0.012 A 
ATOM     41  C   UNL A   1      40.898  27.294  27.487  1.00  0.00     0.148 A 
ATOM     42  C   UNL A   1      40.483  24.538  27.501  1.00  0.00     0.002 A 
ATOM     43  C   UNL A   1      41.684  26.467  26.698  1.00  0.00     0.091 A 
ATOM     44  F   UNL A   1      41.245  28.578  27.633  1.00  0.00    -0.205 F 
ATOM     45  C   UNL A   1      41.495  25.084  26.718  1.00  0.00     0.022 A 
BRANCH  43  46
ATOM     46  S   UNL A   1      42.978  27.132  25.645  1.00  0.00     0.127 S 
ATOM     47  O   UNL A   1      42.220  28.049  24.799  1.00  0.00    -0.237 OA
ATOM     48  O   UNL A   1      43.861  27.770  26.620  1.00  0.00    -0.237 OA
ATOM     49  O   UNL A   1      43.561  25.975  24.979  1.00  0.00    -0.744 OA
ENDBRANCH  43  46
ENDBRANCH  25  39
BRANCH  26  50
ATOM     50  C   UNL A   1      43.595  34.326  29.453  1.00  0.00     0.023 A 
ATOM     51  C   UNL A   1      44.342  35.253  30.210  1.00  0.00     0.012 A 
ATOM     52  C   UNL A   1      44.048  34.018  28.150  1.00  0.00     0.148 A 
ATOM     53  C   UNL A   1      45.537  35.793  29.720  1.00  0.00     0.002 A 
ATOM     54  C   UNL A   1      45.236  34.564  27.664  1.00  0.00     0.091 A 
ATOM     55  F   UNL A   1      43.374  33.119  27.421  1.00  0.00    -0.205 F 
ATOM     56  C   UNL A   1      45.993  35.437  28.456  1.00  0.00     0.022 A 
BRANCH  54  57
ATOM     57  S   UNL A   1      45.891  34.145  26.041  1.00  0.00     0.127 S 
ATOM     58  O   UNL A   1      44.787  34.522  25.158  1.00  0.00    -0.237 OA
ATOM     59  O   UNL A   1      47.067  35.007  25.953  1.00  0.00    -0.237 OA
ATOM     60  O   UNL A   1      46.163  32.711  26.080  1.00  0.00    -0.744 OA
ENDBRANCH  54  57
ENDBRANCH  26  50
BRANCH  38  61
ATOM     61  C   UNL A   1      40.928  30.565  33.756  1.00  0.00     0.023 A 
ATOM     62  C   UNL A   1      41.835  30.619  34.837  1.00  0.00     0.012 A 
ATOM     63  C   UNL A   1      39.789  31.384  33.782  1.00  0.00     0.148 A 
ATOM     64  C   UNL A   1      41.607  31.474  35.919  1.00  0.00     0.002 A 
ATOM     65  C   UNL A   1      39.583  32.257  34.842  1.00  0.00     0.091 A 
ATOM     66  F   UNL A   1      38.951  31.327  32.735  1.00  0.00    -0.205 F 
ATOM     67  C   UNL A   1      40.487  32.304  35.916  1.00  0.00     0.022 A 
BRANCH  65  68
ATOM     68  S   UNL A   1      38.222  33.425  34.854  1.00  0.00     0.127 S 
ATOM     69  O   UNL A   1      37.060  32.540  34.897  1.00  0.00    -0.237 OA
ATOM     70  O   UNL A   1      38.467  34.173  36.088  1.00  0.00    -0.237 OA
ATOM     71  O   UNL A   1      38.353  34.215  33.637  1.00  0.00    -0.744 OA
ENDBRANCH  65  68
ENDBRANCH  38  61
ENDBRANCH  12  13
ENDBRANCH   5   7
ENDBRANCH   2   3
ENDBRANCH   1   2
BRANCH   1  72
ATOM     72  C   UNL A   1      31.608  30.512  25.894  1.00  0.00     0.002 C 
BRANCH  72  73
ATOM     73  C   UNL A   1      31.783  29.314  26.841  1.00  0.00     0.002 C 
BRANCH  73  74
ATOM     74  C   UNL A   1      32.764  28.220  26.405  1.00  0.00     0.021 C 
BRANCH  74  75
ATOM     75  C   UNL A   1      32.204  26.800  26.385  1.00  0.00     0.116 C 
BRANCH  75  76
ATOM     76  N   UNL A   1      32.662  26.043  25.230  1.00  0.00    -0.351 N 
ATOM     77  C   UNL A   1      32.042  25.902  24.009  1.00  0.00     0.269 C 
ATOM     78  H   UNL A   1      33.521  25.575  25.335  1.00  0.00     0.163 HD
ATOM     79  O   UNL A   1      32.496  25.116  23.178  1.00  0.00    -0.268 OA
BRANCH  77  80
ATOM     80  C   UNL A   1      30.817  26.695  23.703  1.00  0.00     0.130 A 
ATOM     81  C   UNL A   1      30.966  27.870  22.975  1.00  0.00     0.066 A 
ATOM     82  N   UNL A   1      29.633  26.195  24.180  1.00  0.00    -0.247 NA
ATOM     83  C   UNL A   1      29.775  28.526  22.675  1.00  0.00     0.113 A 
ATOM     84  C   UNL A   1      28.482  26.837  23.860  1.00  0.00     0.161 A 
ATOM     85  N   UNL A   1      29.534  29.687  21.982  1.00  0.00    -0.216 NA
ATOM     86  C   UNL A   1      28.574  27.988  23.107  1.00  0.00     0.172 A 
ATOM     87  C   UNL A   1      28.220  29.752  21.948  1.00  0.00     0.309 A 
ATOM     88  O   UNL A   1      27.564  28.785  22.653  1.00  0.00    -0.442 OA
ENDBRANCH  77  80
ENDBRANCH  75  76
ENDBRANCH  74  75
ENDBRANCH  73  74
ENDBRANCH  72  73
ENDBRANCH   1  72
TORSDOF 16
ENDMDL
