MODEL 1
REMARK VINA RESULT:     -10.9      0.000      0.000
REMARK SMILES Cc1cc(C)c(C(N)=O)c(N[C@H]2C=C[C@H](C(=O)NCCCCCCNC(=O)c3ccc(-c4c5nc(c(-c6cccc(S(=O)(=O)[O-])c6F)c6ccc([nH]6)c(-c6cccc(S(=O)(=O)[O-])c6F)c6nc(c(-c7cccc(S(=O)(=O)[O-])c7F)c7ccc4[nH]7)C=C6)C=C5)cc3)C2)n1
REMARK SMILES IDX 21 1 20 2 19 3 18 4 16 5 17 6 15 8 12 9 13 10 91 11 14 12
REMARK SMILES IDX 11 13 10 15 1 16 2 17 3 18 92 19 4 20 5 21 6 22 7 23 8 24
REMARK SMILES IDX 9 25 22 28 23 29 24 30 25 31 26 32 27 34 28 35 29 36 90 37
REMARK SMILES IDX 30 38 89 39 31 40 32 41 33 42 83 43 34 44 88 45 82 46 84 47
REMARK SMILES IDX 35 48 87 49 81 50 80 51 36 53 68 54 48 55 67 56 49 57 52 58
REMARK SMILES IDX 66 59 85 60 50 61 51 62 65 64 86 65 53 66 37 67 38 68 46 69
REMARK SMILES IDX 39 70 41 71 47 72 40 73 42 74 43 75 44 76 45 77 69 78 70 79
REMARK SMILES IDX 78 80 71 81 73 82 79 83 72 84 74 85 75 86 76 87 77 88 54 89
REMARK SMILES IDX 55 90 63 91 56 92 58 93 64 94 57 95 59 96 60 97 61 98 62 99
REMARK H PARENT 18 7 11 14 8 26 8 27 25 33 84 52 52 63
REMARK Flexibility Score: inf
ROOT
ATOM      1  C   UNL A   1      35.427  33.133  28.284  1.00  0.00     0.002 C 
ENDROOT
BRANCH   1   2
ATOM      2  C   UNL A   1      34.488  31.983  28.659  1.00  0.00     0.021 C 
BRANCH   2   3
ATOM      3  C   UNL A   1      34.427  30.853  27.637  1.00  0.00     0.116 C 
BRANCH   3   4
ATOM      4  N   UNL A   1      33.107  30.732  27.048  1.00  0.00    -0.356 N 
ATOM      5  C   UNL A   1      32.669  29.836  26.117  1.00  0.00     0.227 C 
ATOM      6  O   UNL A   1      31.476  29.855  25.807  1.00  0.00    -0.274 OA
ATOM      7  H   UNL A   1      32.439  31.384  27.360  1.00  0.00     0.163 HD
BRANCH   5   8
ATOM      8  C   UNL A   1      33.675  28.862  25.512  1.00  0.00     0.103 C 
ATOM      9  C   UNL A   1      32.807  26.798  24.522  1.00  0.00     0.104 C 
ATOM     10  C   UNL A   1      33.366  26.550  25.879  1.00  0.00    -0.006 C 
ATOM     11  C   UNL A   1      33.169  28.250  24.196  1.00  0.00     0.046 C 
ATOM     12  C   UNL A   1      33.843  27.676  26.421  1.00  0.00    -0.016 C 
BRANCH   9  13
ATOM     13  N   UNL A   1      33.298  25.854  23.532  1.00  0.00    -0.363 N 
ATOM     14  H   UNL A   1      33.377  26.161  22.600  1.00  0.00     0.162 HD
BRANCH  13  15
ATOM     15  C   UNL A   1      33.663  24.539  23.824  1.00  0.00     0.139 A 
ATOM     16  C   UNL A   1      36.861  22.708  23.967  1.00  0.00     0.067 C 
ATOM     17  C   UNL A   1      35.390  22.978  24.053  1.00  0.00     0.040 A 
ATOM     18  C   UNL A   1      34.498  21.961  24.343  1.00  0.00     0.028 A 
ATOM     19  N   UNL A   1      34.980  24.236  23.807  1.00  0.00    -0.236 NA
ATOM     20  C   UNL A   1      33.125  22.243  24.404  1.00  0.00    -0.033 A 
ATOM     21  C   UNL A   1      32.213  21.091  24.721  1.00  0.00     0.045 C 
ATOM     22  C   UNL A   1      32.695  23.560  24.134  1.00  0.00     0.084 A 
BRANCH  22  23
ATOM     23  C   UNL A   1      31.241  23.904  24.122  1.00  0.00     0.252 C 
ATOM     24  N   UNL A   1      30.550  23.668  22.962  1.00  0.00    -0.365 N 
ATOM     25  O   UNL A   1      30.659  24.361  25.096  1.00  0.00    -0.269 OA
ATOM     26  H   UNL A   1      31.018  23.300  22.178  1.00  0.00     0.159 HD
ATOM     27  H   UNL A   1      29.587  23.865  22.914  1.00  0.00     0.159 HD
ENDBRANCH  22  23
ENDBRANCH  13  15
ENDBRANCH   9  13
ENDBRANCH   5   8
ENDBRANCH   3   4
ENDBRANCH   2   3
ENDBRANCH   1   2
BRANCH   1  28
ATOM     28  C   UNL A   1      34.741  34.475  28.013  1.00  0.00     0.002 C 
BRANCH  28  29
ATOM     29  C   UNL A   1      33.507  34.761  28.872  1.00  0.00     0.021 C 
BRANCH  29  30
ATOM     30  C   UNL A   1      33.549  36.080  29.633  1.00  0.00     0.116 C 
BRANCH  30  31
ATOM     31  N   UNL A   1      32.526  36.160  30.662  1.00  0.00    -0.352 N 
ATOM     32  C   UNL A   1      32.506  35.586  31.908  1.00  0.00     0.251 C 
ATOM     33  H   UNL A   1      31.736  36.700  30.431  1.00  0.00     0.163 HD
ATOM     34  O   UNL A   1      31.480  35.617  32.582  1.00  0.00    -0.269 OA
BRANCH  32  35
ATOM     35  C   UNL A   1      33.716  34.914  32.426  1.00  0.00     0.039 A 
ATOM     36  C   UNL A   1      33.592  33.647  32.999  1.00  0.00     0.014 A 
ATOM     37  C   UNL A   1      34.970  35.528  32.341  1.00  0.00     0.014 A 
ATOM     38  C   UNL A   1      34.733  32.971  33.437  1.00  0.00     0.010 A 
ATOM     39  C   UNL A   1      36.113  34.822  32.705  1.00  0.00     0.010 A 
ATOM     40  C   UNL A   1      36.006  33.539  33.264  1.00  0.00    -0.014 A 
BRANCH  40  41
ATOM     41  C   UNL A   1      37.236  32.801  33.653  1.00  0.00     0.031 A 
ATOM     42  C   UNL A   1      38.031  33.227  34.858  1.00  0.00     0.074 A 
ATOM     43  C   UNL A   1      37.680  31.793  32.875  1.00  0.00     0.049 A 
ATOM     44  N   UNL A   1      39.149  32.734  35.324  1.00  0.00    -0.248 NA
ATOM     45  C   UNL A   1      37.518  34.373  35.627  1.00  0.00     0.031 C 
ATOM     46  C   UNL A   1      37.043  31.336  31.638  1.00  0.00     0.029 A 
ATOM     47  N   UNL A   1      38.786  30.989  32.994  1.00  0.00    -0.354 N 
ATOM     48  C   UNL A   1      39.490  33.525  36.413  1.00  0.00     0.074 A 
ATOM     49  C   UNL A   1      38.480  34.554  36.520  1.00  0.00     0.031 C 
ATOM     50  C   UNL A   1      37.764  30.329  31.118  1.00  0.00     0.029 A 
ATOM     51  C   UNL A   1      38.931  30.092  31.962  1.00  0.00     0.049 A 
ATOM     52  H   UNL A   1      39.417  31.048  33.748  1.00  0.00     0.167 HD
ATOM     53  C   UNL A   1      40.534  33.393  37.267  1.00  0.00     0.034 A 
ATOM     54  C   UNL A   1      39.899  29.188  31.715  1.00  0.00     0.034 A 
ATOM     55  C   UNL A   1      41.516  32.346  37.180  1.00  0.00     0.049 A 
ATOM     56  C   UNL A   1      41.030  29.041  32.694  1.00  0.00     0.074 A 
ATOM     57  C   UNL A   1      42.561  32.074  38.046  1.00  0.00     0.029 A 
ATOM     58  N   UNL A   1      41.586  31.407  36.163  1.00  0.00    -0.354 N 
ATOM     59  N   UNL A   1      41.249  29.698  33.808  1.00  0.00    -0.248 NA
ATOM     60  C   UNL A   1      42.031  28.003  32.405  1.00  0.00     0.031 C 
ATOM     61  C   UNL A   1      43.283  30.991  37.534  1.00  0.00     0.029 A 
ATOM     62  C   UNL A   1      42.664  30.563  36.371  1.00  0.00     0.049 A 
ATOM     63  H   UNL A   1      40.962  31.348  35.405  1.00  0.00     0.167 HD
ATOM     64  C   UNL A   1      42.387  29.130  34.369  1.00  0.00     0.074 A 
ATOM     65  C   UNL A   1      42.799  28.060  33.484  1.00  0.00     0.031 C 
ATOM     66  C   UNL A   1      43.037  29.470  35.509  1.00  0.00     0.034 A 
BRANCH  53  67
ATOM     67  C   UNL A   1      40.645  34.381  38.400  1.00  0.00     0.023 A 
ATOM     68  C   UNL A   1      41.502  35.494  38.274  1.00  0.00     0.012 A 
ATOM     69  C   UNL A   1      39.857  34.243  39.559  1.00  0.00     0.148 A 
ATOM     70  C   UNL A   1      41.600  36.434  39.300  1.00  0.00     0.002 A 
ATOM     71  C   UNL A   1      39.924  35.210  40.556  1.00  0.00     0.091 A 
ATOM     72  F   UNL A   1      39.063  33.169  39.669  1.00  0.00    -0.205 F 
ATOM     73  C   UNL A   1      40.804  36.298  40.433  1.00  0.00     0.022 A 
BRANCH  71  74
ATOM     74  S   UNL A   1      38.881  35.171  42.017  1.00  0.00     0.127 S 
ATOM     75  O   UNL A   1      39.490  34.086  42.785  1.00  0.00    -0.237 OA
ATOM     76  O   UNL A   1      39.089  36.506  42.579  1.00  0.00    -0.237 OA
ATOM     77  O   UNL A   1      37.529  34.915  41.541  1.00  0.00    -0.744 OA
ENDBRANCH  71  74
ENDBRANCH  53  67
BRANCH  54  78
ATOM     78  C   UNL A   1      39.811  28.310  30.512  1.00  0.00     0.023 A 
ATOM     79  C   UNL A   1      38.969  27.181  30.536  1.00  0.00     0.012 A 
ATOM     80  C   UNL A   1      40.541  28.598  29.343  1.00  0.00     0.148 A 
ATOM     81  C   UNL A   1      38.884  26.334  29.431  1.00  0.00     0.002 A 
ATOM     82  C   UNL A   1      40.407  27.784  28.225  1.00  0.00     0.091 A 
ATOM     83  F   UNL A   1      41.343  29.672  29.344  1.00  0.00    -0.205 F 
ATOM     84  C   UNL A   1      39.595  26.640  28.273  1.00  0.00     0.022 A 
BRANCH  82  85
ATOM     85  S   UNL A   1      41.180  28.172  26.651  1.00  0.00     0.127 S 
ATOM     86  O   UNL A   1      41.044  26.909  25.931  1.00  0.00    -0.237 OA
ATOM     87  O   UNL A   1      40.332  29.259  26.160  1.00  0.00    -0.237 OA
ATOM     88  O   UNL A   1      42.544  28.574  26.971  1.00  0.00    -0.744 OA
ENDBRANCH  82  85
ENDBRANCH  54  78
BRANCH  66  89
ATOM     89  C   UNL A   1      44.243  28.654  35.898  1.00  0.00     0.023 A 
ATOM     90  C   UNL A   1      45.531  29.059  35.493  1.00  0.00     0.012 A 
ATOM     91  C   UNL A   1      44.102  27.522  36.724  1.00  0.00     0.148 A 
ATOM     92  C   UNL A   1      46.656  28.329  35.875  1.00  0.00     0.002 A 
ATOM     93  C   UNL A   1      45.232  26.831  37.146  1.00  0.00     0.091 A 
ATOM     94  F   UNL A   1      42.868  27.142  37.085  1.00  0.00    -0.205 F 
ATOM     95  C   UNL A   1      46.508  27.224  36.710  1.00  0.00     0.022 A 
BRANCH  93  96
ATOM     96  S   UNL A   1      45.148  25.459  38.301  1.00  0.00     0.127 S 
ATOM     97  O   UNL A   1      46.560  25.120  38.464  1.00  0.00    -0.237 OA
ATOM     98  O   UNL A   1      44.529  26.078  39.473  1.00  0.00    -0.237 OA
ATOM     99  O   UNL A   1      44.333  24.438  37.655  1.00  0.00    -0.744 OA
ENDBRANCH  93  96
ENDBRANCH  66  89
ENDBRANCH  40  41
ENDBRANCH  32  35
ENDBRANCH  30  31
ENDBRANCH  29  30
ENDBRANCH  28  29
ENDBRANCH   1  28
TORSDOF 19
ENDMDL
MODEL 2
REMARK VINA RESULT:     -10.7      1.682      2.035
REMARK SMILES Cc1cc(C)c(C(N)=O)c(N[C@H]2C=C[C@H](C(=O)NCCCCCCNC(=O)c3ccc(-c4c5nc(c(-c6cccc(S(=O)(=O)[O-])c6F)c6ccc([nH]6)c(-c6cccc(S(=O)(=O)[O-])c6F)c6nc(c(-c7cccc(S(=O)(=O)[O-])c7F)c7ccc4[nH]7)C=C6)C=C5)cc3)C2)n1
REMARK SMILES IDX 21 1 20 2 19 3 18 4 16 5 17 6 15 8 12 9 13 10 91 11 14 12
REMARK SMILES IDX 11 13 10 15 1 16 2 17 3 18 92 19 4 20 5 21 6 22 7 23 8 24
REMARK SMILES IDX 9 25 22 28 23 29 24 30 25 31 26 32 27 34 28 35 29 36 90 37
REMARK SMILES IDX 30 38 89 39 31 40 32 41 33 42 83 43 34 44 88 45 82 46 84 47
REMARK SMILES IDX 35 48 87 49 81 50 80 51 36 53 68 54 48 55 67 56 49 57 52 58
REMARK SMILES IDX 66 59 85 60 50 61 51 62 65 64 86 65 53 66 37 67 38 68 46 69
REMARK SMILES IDX 39 70 41 71 47 72 40 73 42 74 43 75 44 76 45 77 69 78 70 79
REMARK SMILES IDX 78 80 71 81 73 82 79 83 72 84 74 85 75 86 76 87 77 88 54 89
REMARK SMILES IDX 55 90 63 91 56 92 58 93 64 94 57 95 59 96 60 97 61 98 62 99
REMARK H PARENT 18 7 11 14 8 26 8 27 25 33 84 52 52 63
REMARK Flexibility Score: inf
ROOT
ATOM      1  C   UNL A   1      35.556  33.307  28.270  1.00  0.00     0.002 C 
ENDROOT
BRANCH   1   2
ATOM      2  C   UNL A   1      34.774  32.117  28.834  1.00  0.00     0.021 C 
BRANCH   2   3
ATOM      3  C   UNL A   1      34.770  30.879  27.944  1.00  0.00     0.116 C 
BRANCH   3   4
ATOM      4  N   UNL A   1      33.769  30.971  26.899  1.00  0.00    -0.356 N 
ATOM      5  C   UNL A   1      32.856  30.035  26.509  1.00  0.00     0.227 C 
ATOM      6  O   UNL A   1      32.034  30.348  25.645  1.00  0.00    -0.274 OA
ATOM      7  H   UNL A   1      33.746  31.821  26.404  1.00  0.00     0.163 HD
BRANCH   5   8
ATOM      8  C   UNL A   1      32.901  28.656  27.161  1.00  0.00     0.103 C 
ATOM      9  C   UNL A   1      32.175  26.740  25.822  1.00  0.00     0.104 C 
ATOM     10  C   UNL A   1      31.110  27.167  26.770  1.00  0.00    -0.006 C 
ATOM     11  C   UNL A   1      33.404  27.574  26.193  1.00  0.00     0.046 C 
ATOM     12  C   UNL A   1      31.505  28.212  27.505  1.00  0.00    -0.016 C 
BRANCH   9  13
ATOM     13  N   UNL A   1      32.424  25.309  25.865  1.00  0.00    -0.363 N 
ATOM     14  H   UNL A   1      31.983  24.784  26.572  1.00  0.00     0.162 HD
BRANCH  13  15
ATOM     15  C   UNL A   1      33.252  24.635  24.967  1.00  0.00     0.139 A 
ATOM     16  C   UNL A   1      36.733  23.419  25.062  1.00  0.00     0.067 C 
ATOM     17  C   UNL A   1      35.351  23.692  24.549  1.00  0.00     0.040 A 
ATOM     18  C   UNL A   1      34.990  23.338  23.261  1.00  0.00     0.028 A 
ATOM     19  N   UNL A   1      34.499  24.318  25.381  1.00  0.00    -0.236 NA
ATOM     20  C   UNL A   1      33.694  23.618  22.806  1.00  0.00    -0.033 A 
ATOM     21  C   UNL A   1      33.370  23.210  21.396  1.00  0.00     0.045 C 
ATOM     22  C   UNL A   1      32.804  24.286  23.675  1.00  0.00     0.084 A 
BRANCH  22  23
ATOM     23  C   UNL A   1      31.432  24.667  23.223  1.00  0.00     0.252 C 
ATOM     24  N   UNL A   1      30.443  23.727  23.355  1.00  0.00    -0.365 N 
ATOM     25  O   UNL A   1      31.167  25.771  22.766  1.00  0.00    -0.269 OA
ATOM     26  H   UNL A   1      30.656  22.839  23.722  1.00  0.00     0.159 HD
ATOM     27  H   UNL A   1      29.522  23.941  23.084  1.00  0.00     0.159 HD
ENDBRANCH  22  23
ENDBRANCH  13  15
ENDBRANCH   9  13
ENDBRANCH   5   8
ENDBRANCH   3   4
ENDBRANCH   2   3
ENDBRANCH   1   2
BRANCH   1  28
ATOM     28  C   UNL A   1      34.716  34.542  27.936  1.00  0.00     0.002 C 
BRANCH  28  29
ATOM     29  C   UNL A   1      33.498  34.764  28.835  1.00  0.00     0.021 C 
BRANCH  29  30
ATOM     30  C   UNL A   1      33.497  36.083  29.597  1.00  0.00     0.116 C 
BRANCH  30  31
ATOM     31  N   UNL A   1      32.521  36.101  30.674  1.00  0.00    -0.352 N 
ATOM     32  C   UNL A   1      32.566  35.473  31.894  1.00  0.00     0.251 C 
ATOM     33  H   UNL A   1      31.713  36.638  30.504  1.00  0.00     0.163 HD
ATOM     34  O   UNL A   1      31.572  35.458  32.613  1.00  0.00    -0.269 OA
BRANCH  32  35
ATOM     35  C   UNL A   1      33.808  34.798  32.326  1.00  0.00     0.039 A 
ATOM     36  C   UNL A   1      33.746  33.464  32.732  1.00  0.00     0.014 A 
ATOM     37  C   UNL A   1      35.031  35.477  32.324  1.00  0.00     0.014 A 
ATOM     38  C   UNL A   1      34.918  32.793  33.085  1.00  0.00     0.010 A 
ATOM     39  C   UNL A   1      36.207  34.785  32.599  1.00  0.00     0.010 A 
ATOM     40  C   UNL A   1      36.163  33.438  32.990  1.00  0.00    -0.014 A 
BRANCH  40  41
ATOM     41  C   UNL A   1      37.427  32.715  33.285  1.00  0.00     0.031 A 
ATOM     42  C   UNL A   1      38.164  32.966  34.574  1.00  0.00     0.074 A 
ATOM     43  C   UNL A   1      37.953  31.889  32.359  1.00  0.00     0.049 A 
ATOM     44  N   UNL A   1      39.300  32.464  34.984  1.00  0.00    -0.248 NA
ATOM     45  C   UNL A   1      37.562  33.926  35.513  1.00  0.00     0.031 C 
ATOM     46  C   UNL A   1      37.376  31.621  31.040  1.00  0.00     0.029 A 
ATOM     47  N   UNL A   1      39.104  31.142  32.374  1.00  0.00    -0.354 N 
ATOM     48  C   UNL A   1      39.564  33.068  36.207  1.00  0.00     0.074 A 
ATOM     49  C   UNL A   1      38.488  34.002  36.457  1.00  0.00     0.031 C 
ATOM     50  C   UNL A   1      38.171  30.766  30.377  1.00  0.00     0.029 A 
ATOM     51  C   UNL A   1      39.330  30.452  31.206  1.00  0.00     0.049 A 
ATOM     52  H   UNL A   1      39.711  31.103  33.148  1.00  0.00     0.167 HD
ATOM     53  C   UNL A   1      40.593  32.847  37.060  1.00  0.00     0.034 A 
ATOM     54  C   UNL A   1      40.358  29.663  30.838  1.00  0.00     0.034 A 
ATOM     55  C   UNL A   1      41.642  31.891  36.825  1.00  0.00     0.049 A 
ATOM     56  C   UNL A   1      41.473  29.410  31.815  1.00  0.00     0.074 A 
ATOM     57  C   UNL A   1      42.680  31.531  37.666  1.00  0.00     0.029 A 
ATOM     58  N   UNL A   1      41.795  31.153  35.662  1.00  0.00    -0.354 N 
ATOM     59  N   UNL A   1      41.623  29.872  33.034  1.00  0.00    -0.248 NA
ATOM     60  C   UNL A   1      42.545  28.500  31.384  1.00  0.00     0.031 C 
ATOM     61  C   UNL A   1      43.481  30.600  36.998  1.00  0.00     0.029 A 
ATOM     62  C   UNL A   1      42.919  30.350  35.757  1.00  0.00     0.049 A 
ATOM     63  H   UNL A   1      41.194  31.193  34.884  1.00  0.00     0.167 HD
ATOM     64  C   UNL A   1      42.781  29.280  33.526  1.00  0.00     0.074 A 
ATOM     65  C   UNL A   1      43.281  28.410  32.482  1.00  0.00     0.031 C 
ATOM     66  C   UNL A   1      43.381  29.450  34.730  1.00  0.00     0.034 A 
BRANCH  53  67
ATOM     67  C   UNL A   1      40.614  33.624  38.352  1.00  0.00     0.023 A 
ATOM     68  C   UNL A   1      40.141  33.022  39.536  1.00  0.00     0.012 A 
ATOM     69  C   UNL A   1      41.157  34.922  38.407  1.00  0.00     0.148 A 
ATOM     70  C   UNL A   1      40.174  33.712  40.747  1.00  0.00     0.002 A 
ATOM     71  C   UNL A   1      41.232  35.586  39.626  1.00  0.00     0.091 A 
ATOM     72  F   UNL A   1      41.584  35.486  37.268  1.00  0.00    -0.205 F 
ATOM     73  C   UNL A   1      40.729  34.988  40.793  1.00  0.00     0.022 A 
BRANCH  71  74
ATOM     74  S   UNL A   1      42.003  37.198  39.808  1.00  0.00     0.127 S 
ATOM     75  O   UNL A   1      40.877  38.093  39.545  1.00  0.00    -0.237 OA
ATOM     76  O   UNL A   1      42.447  37.170  41.202  1.00  0.00    -0.237 OA
ATOM     77  O   UNL A   1      43.077  37.244  38.826  1.00  0.00    -0.744 OA
ENDBRANCH  71  74
ENDBRANCH  53  67
BRANCH  54  78
ATOM     78  C   UNL A   1      40.356  29.008  29.498  1.00  0.00     0.023 A 
ATOM     79  C   UNL A   1      40.686  29.763  28.356  1.00  0.00     0.012 A 
ATOM     80  C   UNL A   1      40.048  27.641  29.353  1.00  0.00     0.148 A 
ATOM     81  C   UNL A   1      40.673  29.178  27.089  1.00  0.00     0.002 A 
ATOM     82  C   UNL A   1      40.093  27.052  28.096  1.00  0.00     0.091 A 
ATOM     83  F   UNL A   1      39.727  26.943  30.452  1.00  0.00    -0.205 F 
ATOM     84  C   UNL A   1      40.386  27.822  26.960  1.00  0.00     0.022 A 
BRANCH  82  85
ATOM     85  S   UNL A   1      39.867  25.287  27.852  1.00  0.00     0.127 S 
ATOM     86  O   UNL A   1      39.783  25.194  26.396  1.00  0.00    -0.237 OA
ATOM     87  O   UNL A   1      41.094  24.743  28.436  1.00  0.00    -0.237 OA
ATOM     88  O   UNL A   1      38.653  24.940  28.578  1.00  0.00    -0.744 OA
ENDBRANCH  82  85
ENDBRANCH  54  78
BRANCH  66  89
ATOM     89  C   UNL A   1      44.626  28.650  35.011  1.00  0.00     0.023 A 
ATOM     90  C   UNL A   1      45.893  29.176  34.687  1.00  0.00     0.012 A 
ATOM     91  C   UNL A   1      44.541  27.403  35.661  1.00  0.00     0.148 A 
ATOM     92  C   UNL A   1      47.053  28.457  34.974  1.00  0.00     0.002 A 
ATOM     93  C   UNL A   1      45.704  26.716  35.992  1.00  0.00     0.091 A 
ATOM     94  F   UNL A   1      43.327  26.910  35.946  1.00  0.00    -0.205 F 
ATOM     95  C   UNL A   1      46.959  27.235  35.637  1.00  0.00     0.022 A 
BRANCH  93  96
ATOM     96  S   UNL A   1      45.686  25.187  36.932  1.00  0.00     0.127 S 
ATOM     97  O   UNL A   1      47.114  24.937  37.122  1.00  0.00    -0.237 OA
ATOM     98  O   UNL A   1      44.967  25.577  38.146  1.00  0.00    -0.237 OA
ATOM     99  O   UNL A   1      44.988  24.213  36.104  1.00  0.00    -0.744 OA
ENDBRANCH  93  96
ENDBRANCH  66  89
ENDBRANCH  40  41
ENDBRANCH  32  35
ENDBRANCH  30  31
ENDBRANCH  29  30
ENDBRANCH  28  29
ENDBRANCH   1  28
TORSDOF 19
ENDMDL
MODEL 3
REMARK VINA RESULT:     -10.6      1.870      2.279
REMARK SMILES Cc1cc(C)c(C(N)=O)c(N[C@H]2C=C[C@H](C(=O)NCCCCCCNC(=O)c3ccc(-c4c5nc(c(-c6cccc(S(=O)(=O)[O-])c6F)c6ccc([nH]6)c(-c6cccc(S(=O)(=O)[O-])c6F)c6nc(c(-c7cccc(S(=O)(=O)[O-])c7F)c7ccc4[nH]7)C=C6)C=C5)cc3)C2)n1
REMARK SMILES IDX 21 1 20 2 19 3 18 4 16 5 17 6 15 8 12 9 13 10 91 11 14 12
REMARK SMILES IDX 11 13 10 15 1 16 2 17 3 18 92 19 4 20 5 21 6 22 7 23 8 24
REMARK SMILES IDX 9 25 22 28 23 29 24 30 25 31 26 32 27 34 28 35 29 36 90 37
REMARK SMILES IDX 30 38 89 39 31 40 32 41 33 42 83 43 34 44 88 45 82 46 84 47
REMARK SMILES IDX 35 48 87 49 81 50 80 51 36 53 68 54 48 55 67 56 49 57 52 58
REMARK SMILES IDX 66 59 85 60 50 61 51 62 65 64 86 65 53 66 37 67 38 68 46 69
REMARK SMILES IDX 39 70 41 71 47 72 40 73 42 74 43 75 44 76 45 77 69 78 70 79
REMARK SMILES IDX 78 80 71 81 73 82 79 83 72 84 74 85 75 86 76 87 77 88 54 89
REMARK SMILES IDX 55 90 63 91 56 92 58 93 64 94 57 95 59 96 60 97 61 98 62 99
REMARK H PARENT 18 7 11 14 8 26 8 27 25 33 84 52 52 63
REMARK Flexibility Score: inf
ROOT
ATOM      1  C   UNL A   1      35.244  31.897  27.883  1.00  0.00     0.002 C 
ENDROOT
BRANCH   1   2
ATOM      2  C   UNL A   1      34.902  30.428  27.616  1.00  0.00     0.021 C 
BRANCH   2   3
ATOM      3  C   UNL A   1      33.515  30.196  27.027  1.00  0.00     0.116 C 
BRANCH   3   4
ATOM      4  N   UNL A   1      33.584  29.707  25.663  1.00  0.00    -0.356 N 
ATOM      5  C   UNL A   1      33.416  28.434  25.204  1.00  0.00     0.227 C 
ATOM      6  O   UNL A   1      33.436  28.245  23.986  1.00  0.00    -0.274 OA
ATOM      7  H   UNL A   1      33.780  30.385  24.977  1.00  0.00     0.163 HD
BRANCH   5   8
ATOM      8  C   UNL A   1      33.211  27.314  26.221  1.00  0.00     0.103 C 
ATOM      9  C   UNL A   1      33.089  25.019  25.376  1.00  0.00     0.104 C 
ATOM     10  C   UNL A   1      31.733  25.555  25.676  1.00  0.00    -0.006 C 
ATOM     11  C   UNL A   1      34.065  26.077  25.899  1.00  0.00     0.046 C 
ATOM     12  C   UNL A   1      31.797  26.807  26.140  1.00  0.00    -0.016 C 
BRANCH   9  13
ATOM     13  N   UNL A   1      33.313  23.705  25.953  1.00  0.00    -0.363 N 
ATOM     14  H   UNL A   1      32.595  23.312  26.501  1.00  0.00     0.162 HD
BRANCH  13  15
ATOM     15  C   UNL A   1      34.484  22.966  25.778  1.00  0.00     0.139 A 
ATOM     16  C   UNL A   1      38.085  23.719  26.040  1.00  0.00     0.067 C 
ATOM     17  C   UNL A   1      36.823  22.941  25.822  1.00  0.00     0.040 A 
ATOM     18  C   UNL A   1      36.865  21.617  25.424  1.00  0.00     0.028 A 
ATOM     19  N   UNL A   1      35.660  23.595  26.001  1.00  0.00    -0.236 NA
ATOM     20  C   UNL A   1      35.665  20.920  25.216  1.00  0.00    -0.033 A 
ATOM     21  C   UNL A   1      35.785  19.486  24.780  1.00  0.00     0.045 C 
ATOM     22  C   UNL A   1      34.446  21.610  25.392  1.00  0.00     0.084 A 
BRANCH  22  23
ATOM     23  C   UNL A   1      33.139  20.937  25.123  1.00  0.00     0.252 C 
ATOM     24  N   UNL A   1      32.682  20.053  26.065  1.00  0.00    -0.365 N 
ATOM     25  O   UNL A   1      32.473  21.158  24.121  1.00  0.00    -0.269 OA
ATOM     26  H   UNL A   1      33.218  19.874  26.872  1.00  0.00     0.159 HD
ATOM     27  H   UNL A   1      31.819  19.598  25.936  1.00  0.00     0.159 HD
ENDBRANCH  22  23
ENDBRANCH  13  15
ENDBRANCH   9  13
ENDBRANCH   5   8
ENDBRANCH   3   4
ENDBRANCH   2   3
ENDBRANCH   1   2
BRANCH   1  28
ATOM     28  C   UNL A   1      34.430  32.566  28.994  1.00  0.00     0.002 C 
BRANCH  28  29
ATOM     29  C   UNL A   1      33.468  33.661  28.528  1.00  0.00     0.021 C 
BRANCH  29  30
ATOM     30  C   UNL A   1      33.829  35.068  28.987  1.00  0.00     0.116 C 
BRANCH  30  31
ATOM     31  N   UNL A   1      33.012  35.514  30.104  1.00  0.00    -0.352 N 
ATOM     32  C   UNL A   1      33.154  35.243  31.441  1.00  0.00     0.251 C 
ATOM     33  H   UNL A   1      32.250  36.090  29.866  1.00  0.00     0.163 HD
ATOM     34  O   UNL A   1      32.269  35.562  32.230  1.00  0.00    -0.269 OA
BRANCH  32  35
ATOM     35  C   UNL A   1      34.365  34.547  31.925  1.00  0.00     0.039 A 
ATOM     36  C   UNL A   1      34.218  33.408  32.719  1.00  0.00     0.014 A 
ATOM     37  C   UNL A   1      35.641  35.011  31.591  1.00  0.00     0.014 A 
ATOM     38  C   UNL A   1      35.349  32.703  33.134  1.00  0.00     0.010 A 
ATOM     39  C   UNL A   1      36.763  34.264  31.937  1.00  0.00     0.010 A 
ATOM     40  C   UNL A   1      36.630  33.106  32.719  1.00  0.00    -0.014 A 
BRANCH  40  41
ATOM     41  C   UNL A   1      37.838  32.322  33.085  1.00  0.00     0.031 A 
ATOM     42  C   UNL A   1      38.589  32.629  34.354  1.00  0.00     0.074 A 
ATOM     43  C   UNL A   1      38.305  31.385  32.237  1.00  0.00     0.049 A 
ATOM     44  N   UNL A   1      39.684  32.084  34.815  1.00  0.00    -0.248 NA
ATOM     45  C   UNL A   1      38.055  33.707  35.203  1.00  0.00     0.031 C 
ATOM     46  C   UNL A   1      37.713  31.048  30.941  1.00  0.00     0.029 A 
ATOM     47  N   UNL A   1      39.400  30.561  32.325  1.00  0.00    -0.354 N 
ATOM     48  C   UNL A   1      39.989  32.770  35.984  1.00  0.00     0.074 A 
ATOM     49  C   UNL A   1      38.983  33.796  36.145  1.00  0.00     0.031 C 
ATOM     50  C   UNL A   1      38.446  30.085  30.359  1.00  0.00     0.029 A 
ATOM     51  C   UNL A   1      39.577  29.760  31.222  1.00  0.00     0.049 A 
ATOM     52  H   UNL A   1      40.001  30.545  33.104  1.00  0.00     0.167 HD
ATOM     53  C   UNL A   1      40.998  32.550  36.861  1.00  0.00     0.034 A 
ATOM     54  C   UNL A   1      40.547  28.871  30.930  1.00  0.00     0.034 A 
ATOM     55  C   UNL A   1      41.975  31.504  36.717  1.00  0.00     0.049 A 
ATOM     56  C   UNL A   1      41.639  28.624  31.935  1.00  0.00     0.074 A 
ATOM     57  C   UNL A   1      42.984  31.144  37.593  1.00  0.00     0.029 A 
ATOM     58  N   UNL A   1      42.078  30.660  35.622  1.00  0.00    -0.354 N 
ATOM     59  N   UNL A   1      41.819  29.175  33.110  1.00  0.00    -0.248 NA
ATOM     60  C   UNL A   1      42.643  27.605  31.591  1.00  0.00     0.031 C 
ATOM     61  C   UNL A   1      43.717  30.104  37.013  1.00  0.00     0.029 A 
ATOM     62  C   UNL A   1      43.141  29.790  35.794  1.00  0.00     0.049 A 
ATOM     63  H   UNL A   1      41.483  30.677  34.839  1.00  0.00     0.167 HD
ATOM     64  C   UNL A   1      42.930  28.547  33.661  1.00  0.00     0.074 A 
ATOM     65  C   UNL A   1      43.369  27.557  32.699  1.00  0.00     0.031 C 
ATOM     66  C   UNL A   1      43.539  28.775  34.851  1.00  0.00     0.034 A 
BRANCH  53  67
ATOM     67  C   UNL A   1      41.072  33.430  38.082  1.00  0.00     0.023 A 
ATOM     68  C   UNL A   1      40.389  33.053  39.257  1.00  0.00     0.012 A 
ATOM     69  C   UNL A   1      41.865  34.594  38.088  1.00  0.00     0.148 A 
ATOM     70  C   UNL A   1      40.465  33.839  40.406  1.00  0.00     0.002 A 
ATOM     71  C   UNL A   1      41.974  35.347  39.252  1.00  0.00     0.091 A 
ATOM     72  F   UNL A   1      42.491  34.947  36.957  1.00  0.00    -0.205 F 
ATOM     73  C   UNL A   1      41.265  34.978  40.407  1.00  0.00     0.022 A 
BRANCH  71  74
ATOM     74  S   UNL A   1      43.043  36.784  39.381  1.00  0.00     0.127 S 
ATOM     75  O   UNL A   1      44.351  36.160  39.582  1.00  0.00    -0.237 OA
ATOM     76  O   UNL A   1      42.865  37.418  38.075  1.00  0.00    -0.237 OA
ATOM     77  O   UNL A   1      42.544  37.558  40.508  1.00  0.00    -0.744 OA
ENDBRANCH  71  74
ENDBRANCH  53  67
BRANCH  54  78
ATOM     78  C   UNL A   1      40.500  28.106  29.651  1.00  0.00     0.023 A 
ATOM     79  C   UNL A   1      39.512  27.121  29.467  1.00  0.00     0.012 A 
ATOM     80  C   UNL A   1      41.415  28.364  28.611  1.00  0.00     0.148 A 
ATOM     81  C   UNL A   1      39.457  26.379  28.286  1.00  0.00     0.002 A 
ATOM     82  C   UNL A   1      41.320  27.662  27.416  1.00  0.00     0.091 A 
ATOM     83  F   UNL A   1      42.354  29.300  28.810  1.00  0.00    -0.205 F 
ATOM     84  C   UNL A   1      40.355  26.656  27.258  1.00  0.00     0.022 A 
BRANCH  82  85
ATOM     85  S   UNL A   1      42.347  28.042  25.992  1.00  0.00     0.127 S 
ATOM     86  O   UNL A   1      43.686  27.766  26.506  1.00  0.00    -0.237 OA
ATOM     87  O   UNL A   1      41.855  27.082  25.003  1.00  0.00    -0.237 OA
ATOM     88  O   UNL A   1      42.069  29.434  25.666  1.00  0.00    -0.744 OA
ENDBRANCH  82  85
ENDBRANCH  54  78
BRANCH  66  89
ATOM     89  C   UNL A   1      44.723  27.915  35.209  1.00  0.00     0.023 A 
ATOM     90  C   UNL A   1      46.031  28.371  34.954  1.00  0.00     0.012 A 
ATOM     91  C   UNL A   1      44.536  26.681  35.863  1.00  0.00     0.148 A 
ATOM     92  C   UNL A   1      47.134  27.596  35.313  1.00  0.00     0.002 A 
ATOM     93  C   UNL A   1      45.640  25.939  36.265  1.00  0.00     0.091 A 
ATOM     94  F   UNL A   1      43.283  26.255  36.081  1.00  0.00    -0.205 F 
ATOM     95  C   UNL A   1      46.939  26.388  35.978  1.00  0.00     0.022 A 
BRANCH  93  96
ATOM     96  S   UNL A   1      45.490  24.422  37.215  1.00  0.00     0.127 S 
ATOM     97  O   UNL A   1      44.680  24.860  38.349  1.00  0.00    -0.237 OA
ATOM     98  O   UNL A   1      44.799  23.537  36.276  1.00  0.00    -0.237 OA
ATOM     99  O   UNL A   1      46.850  24.014  37.540  1.00  0.00    -0.744 OA
ENDBRANCH  93  96
ENDBRANCH  66  89
ENDBRANCH  40  41
ENDBRANCH  32  35
ENDBRANCH  30  31
ENDBRANCH  29  30
ENDBRANCH  28  29
ENDBRANCH   1  28
TORSDOF 19
ENDMDL
