MODEL 1
REMARK VINA RESULT:     -13.5      0.000      0.000
REMARK SMILES O=C(Cn1nc(C(=O)NCCCCCCNC(=O)c2ccc(-c3c4nc(c(-c5cccc(S(=O)(=O)[O-])c5F)c5ccc([nH]5)c(-c5cccc(S(=O)(=O)[O-])c5F)c5nc(c(-c6cccc(S(=O)(=O)[O-])c6F)c6ccc3[nH]6)C=C5)C=C4)cc2)c2ccccc2c1=O)Nc1ccc2c(c1)C(=O)c1ccccc1C2=O
REMARK SMILES IDX 12 1 11 2 10 3 9 4 7 5 8 6 6 8 4 9 5 10 88 11 87 12 89 13
REMARK SMILES IDX 82 14 86 15 83 16 85 17 84 18 3 19 2 20 1 21 90 22 91 24
REMARK SMILES IDX 92 25 96 26 93 27 95 28 94 29 97 30 105 31 98 32 99 33
REMARK SMILES IDX 104 34 106 35 100 36 103 37 101 38 102 39 13 40 14 41 15 42
REMARK SMILES IDX 16 43 17 44 18 46 19 47 20 48 81 49 21 50 80 51 22 52 23 53
REMARK SMILES IDX 24 54 74 55 25 56 79 57 73 58 75 59 26 60 78 61 72 62 71 63
REMARK SMILES IDX 27 65 59 66 39 67 58 68 40 69 43 70 57 71 76 72 41 73 42 74
REMARK SMILES IDX 56 76 77 77 44 78 28 79 29 80 37 81 30 82 32 83 38 84 31 85
REMARK SMILES IDX 33 86 34 87 35 88 36 89 60 90 61 91 69 92 62 93 64 94 70 95
REMARK SMILES IDX 63 96 65 97 66 98 67 99 68 100 45 101 46 102 54 103 47 104
REMARK SMILES IDX 49 105 55 106 48 107 50 108 51 109 52 110 53 111
REMARK H PARENT 9 7 90 23 16 45 75 64 43 75
REMARK Flexibility Score: inf
ROOT
ATOM      1  C   UNL A   1      47.173  25.711  39.549  1.00  0.00     0.002 C 
ENDROOT
BRANCH   1   2
ATOM      2  C   UNL A   1      48.298  24.681  39.430  1.00  0.00     0.021 C 
BRANCH   2   3
ATOM      3  C   UNL A   1      47.924  23.204  39.483  1.00  0.00     0.116 C 
BRANCH   3   4
ATOM      4  N   UNL A   1      49.045  22.288  39.382  1.00  0.00    -0.351 N 
ATOM      5  C   UNL A   1      49.127  21.109  38.669  1.00  0.00     0.272 C 
ATOM      6  O   UNL A   1      50.226  20.645  38.384  1.00  0.00    -0.267 OA
ATOM      7  H   UNL A   1      49.851  22.540  39.887  1.00  0.00     0.163 HD
BRANCH   5   8
ATOM      8  C   UNL A   1      47.855  20.344  38.278  1.00  0.00     0.156 A 
ATOM      9  N   UNL A   1      46.351  18.645  38.760  1.00  0.00    -0.219 N 
ATOM     10  N   UNL A   1      47.383  19.479  39.133  1.00  0.00    -0.163 NA
ATOM     11  C   UNL A   1      45.768  18.679  37.496  1.00  0.00     0.275 A 
ATOM     12  C   UNL A   1      46.127  19.807  36.629  1.00  0.00     0.051 A 
ATOM     13  O   UNL A   1      44.990  17.830  37.075  1.00  0.00    -0.267 OA
ATOM     14  C   UNL A   1      47.215  20.606  36.964  1.00  0.00     0.020 A 
ATOM     15  C   UNL A   1      45.397  20.031  35.451  1.00  0.00     0.014 A 
ATOM     16  C   UNL A   1      47.605  21.613  36.071  1.00  0.00     0.011 A 
ATOM     17  C   UNL A   1      45.773  21.055  34.587  1.00  0.00     0.001 A 
ATOM     18  C   UNL A   1      46.884  21.836  34.891  1.00  0.00     0.001 A 
BRANCH   9  19
ATOM     19  C   UNL A   1      46.176  17.424  39.562  1.00  0.00     0.248 C 
BRANCH  19  20
ATOM     20  C   UNL A   1      44.804  17.332  40.229  1.00  0.00     0.246 C 
ATOM     21  O   UNL A   1      44.380  18.208  40.981  1.00  0.00    -0.273 OA
ATOM     22  N   UNL A   1      44.025  16.294  39.769  1.00  0.00    -0.324 N 
ATOM     23  H   UNL A   1      44.182  15.964  38.856  1.00  0.00     0.169 HD
BRANCH  22  24
ATOM     24  C   UNL A   1      43.020  15.683  40.530  1.00  0.00     0.042 A 
ATOM     25  C   UNL A   1      42.170  14.771  39.900  1.00  0.00     0.027 A 
ATOM     26  C   UNL A   1      43.165  15.682  41.921  1.00  0.00     0.039 A 
ATOM     27  C   UNL A   1      41.526  13.782  40.643  1.00  0.00     0.015 A 
ATOM     28  C   UNL A   1      42.638  14.609  42.634  1.00  0.00     0.036 A 
ATOM     29  C   UNL A   1      41.853  13.647  41.991  1.00  0.00     0.034 A 
ATOM     30  C   UNL A   1      43.209  14.301  43.964  1.00  0.00     0.194 C 
ATOM     31  C   UNL A   1      41.660  12.334  42.640  1.00  0.00     0.194 C 
ATOM     32  O   UNL A   1      43.548  15.163  44.753  1.00  0.00    -0.289 OA
ATOM     33  C   UNL A   1      43.506  12.874  44.202  1.00  0.00     0.034 A 
ATOM     34  C   UNL A   1      42.754  11.905  43.537  1.00  0.00     0.034 A 
ATOM     35  O   UNL A   1      40.741  11.585  42.341  1.00  0.00    -0.289 OA
ATOM     36  C   UNL A   1      44.634  12.515  44.941  1.00  0.00     0.013 A 
ATOM     37  C   UNL A   1      43.136  10.563  43.588  1.00  0.00     0.013 A 
ATOM     38  C   UNL A   1      45.035  11.178  44.966  1.00  0.00     0.001 A 
ATOM     39  C   UNL A   1      44.290  10.207  44.287  1.00  0.00     0.001 A 
ENDBRANCH  22  24
ENDBRANCH  19  20
ENDBRANCH   9  19
ENDBRANCH   5   8
ENDBRANCH   3   4
ENDBRANCH   2   3
ENDBRANCH   1   2
BRANCH   1  40
ATOM     40  C   UNL A   1      47.561  27.162  39.836  1.00  0.00     0.002 C 
BRANCH  40  41
ATOM     41  C   UNL A   1      46.650  28.261  39.285  1.00  0.00     0.021 C 
BRANCH  41  42
ATOM     42  C   UNL A   1      47.163  29.042  38.080  1.00  0.00     0.116 C 
BRANCH  42  43
ATOM     43  N   UNL A   1      48.228  28.374  37.356  1.00  0.00    -0.352 N 
ATOM     44  C   UNL A   1      48.212  27.856  36.078  1.00  0.00     0.251 C 
ATOM     45  H   UNL A   1      49.078  28.280  37.842  1.00  0.00     0.163 HD
ATOM     46  O   UNL A   1      49.194  27.252  35.656  1.00  0.00    -0.269 OA
BRANCH  44  47
ATOM     47  C   UNL A   1      46.995  27.981  35.234  1.00  0.00     0.039 A 
ATOM     48  C   UNL A   1      46.852  29.022  34.314  1.00  0.00     0.014 A 
ATOM     49  C   UNL A   1      45.971  27.039  35.381  1.00  0.00     0.014 A 
ATOM     50  C   UNL A   1      45.634  29.210  33.662  1.00  0.00     0.010 A 
ATOM     51  C   UNL A   1      44.771  27.194  34.676  1.00  0.00     0.010 A 
ATOM     52  C   UNL A   1      44.572  28.310  33.850  1.00  0.00    -0.014 A 
BRANCH  52  53
ATOM     53  C   UNL A   1      43.269  28.567  33.183  1.00  0.00     0.031 A 
ATOM     54  C   UNL A   1      42.221  29.425  33.841  1.00  0.00     0.074 A 
ATOM     55  C   UNL A   1      43.051  28.079  31.946  1.00  0.00     0.049 A 
ATOM     56  N   UNL A   1      41.080  29.844  33.353  1.00  0.00    -0.248 NA
ATOM     57  C   UNL A   1      42.478  29.871  35.220  1.00  0.00     0.031 C 
ATOM     58  C   UNL A   1      43.973  27.214  31.210  1.00  0.00     0.029 A 
ATOM     59  N   UNL A   1      42.001  28.263  31.081  1.00  0.00    -0.354 N 
ATOM     60  C   UNL A   1      40.475  30.574  34.368  1.00  0.00     0.074 A 
ATOM     61  C   UNL A   1      41.369  30.540  35.504  1.00  0.00     0.031 C 
ATOM     62  C   UNL A   1      43.474  26.984  29.985  1.00  0.00     0.029 A 
ATOM     63  C   UNL A   1      42.189  27.667  29.856  1.00  0.00     0.049 A 
ATOM     64  H   UNL A   1      41.191  28.771  31.315  1.00  0.00     0.167 HD
ATOM     65  C   UNL A   1      39.295  31.239  34.349  1.00  0.00     0.034 A 
ATOM     66  C   UNL A   1      41.427  27.684  28.745  1.00  0.00     0.034 A 
ATOM     67  C   UNL A   1      38.429  31.331  33.205  1.00  0.00     0.049 A 
ATOM     68  C   UNL A   1      40.140  28.458  28.738  1.00  0.00     0.074 A 
ATOM     69  C   UNL A   1      37.238  32.028  33.086  1.00  0.00     0.029 A 
ATOM     70  N   UNL A   1      38.658  30.717  31.986  1.00  0.00    -0.354 N 
ATOM     71  N   UNL A   1      39.637  29.224  29.675  1.00  0.00    -0.248 NA
ATOM     72  C   UNL A   1      39.322  28.382  27.518  1.00  0.00     0.031 C 
ATOM     73  C   UNL A   1      36.753  31.843  31.786  1.00  0.00     0.029 A 
ATOM     74  C   UNL A   1      37.635  31.020  31.106  1.00  0.00     0.049 A 
ATOM     75  H   UNL A   1      39.435  30.149  31.777  1.00  0.00     0.167 HD
ATOM     76  C   UNL A   1      38.448  29.724  29.159  1.00  0.00     0.074 A 
ATOM     77  C   UNL A   1      38.317  29.196  27.816  1.00  0.00     0.031 C 
ATOM     78  C   UNL A   1      37.536  30.526  29.758  1.00  0.00     0.034 A 
BRANCH  65  79
ATOM     79  C   UNL A   1      38.897  31.992  35.585  1.00  0.00     0.023 A 
ATOM     80  C   UNL A   1      39.144  33.378  35.643  1.00  0.00     0.012 A 
ATOM     81  C   UNL A   1      38.211  31.362  36.639  1.00  0.00     0.148 A 
ATOM     82  C   UNL A   1      38.719  34.126  36.738  1.00  0.00     0.002 A 
ATOM     83  C   UNL A   1      37.773  32.119  37.721  1.00  0.00     0.091 A 
ATOM     84  F   UNL A   1      38.007  30.039  36.569  1.00  0.00    -0.205 F 
ATOM     85  C   UNL A   1      38.026  33.500  37.771  1.00  0.00     0.022 A 
BRANCH  83  86
ATOM     86  S   UNL A   1      36.842  31.413  39.085  1.00  0.00     0.127 S 
ATOM     87  O   UNL A   1      35.646  32.254  39.090  1.00  0.00    -0.237 OA
ATOM     88  O   UNL A   1      36.619  30.040  38.630  1.00  0.00    -0.237 OA
ATOM     89  O   UNL A   1      37.696  31.533  40.258  1.00  0.00    -0.744 OA
ENDBRANCH  83  86
ENDBRANCH  65  79
BRANCH  66  90
ATOM     90  C   UNL A   1      41.927  27.016  27.513  1.00  0.00     0.023 A 
ATOM     91  C   UNL A   1      42.535  27.800  26.514  1.00  0.00     0.012 A 
ATOM     92  C   UNL A   1      41.881  25.618  27.363  1.00  0.00     0.148 A 
ATOM     93  C   UNL A   1      43.091  27.202  25.385  1.00  0.00     0.002 A 
ATOM     94  C   UNL A   1      42.473  25.025  26.254  1.00  0.00     0.091 A 
ATOM     95  F   UNL A   1      41.278  24.897  28.318  1.00  0.00    -0.205 F 
ATOM     96  C   UNL A   1      43.073  25.815  25.261  1.00  0.00     0.022 A 
BRANCH  94  97
ATOM     97  S   UNL A   1      42.600  23.241  26.079  1.00  0.00     0.127 S 
ATOM     98  O   UNL A   1      43.227  23.114  24.766  1.00  0.00    -0.237 OA
ATOM     99  O   UNL A   1      43.457  22.883  27.209  1.00  0.00    -0.237 OA
ATOM    100  O   UNL A   1      41.235  22.743  26.184  1.00  0.00    -0.744 OA
ENDBRANCH  94  97
ENDBRANCH  66  90
BRANCH  78 101
ATOM    101  C   UNL A   1      36.293  30.872  28.989  1.00  0.00     0.023 A 
ATOM    102  C   UNL A   1      35.517  29.826  28.452  1.00  0.00     0.012 A 
ATOM    103  C   UNL A   1      35.836  32.200  28.894  1.00  0.00     0.148 A 
ATOM    104  C   UNL A   1      34.302  30.097  27.826  1.00  0.00     0.002 A 
ATOM    105  C   UNL A   1      34.610  32.460  28.289  1.00  0.00     0.091 A 
ATOM    106  F   UNL A   1      36.599  33.177  29.403  1.00  0.00    -0.205 F 
ATOM    107  C   UNL A   1      33.845  31.410  27.755  1.00  0.00     0.022 A 
BRANCH 105 108
ATOM    108  S   UNL A   1      33.905  34.110  28.203  1.00  0.00     0.127 S 
ATOM    109  O   UNL A   1      32.584  33.839  27.638  1.00  0.00    -0.237 OA
ATOM    110  O   UNL A   1      33.896  34.518  29.607  1.00  0.00    -0.237 OA
ATOM    111  O   UNL A   1      34.799  34.884  27.354  1.00  0.00    -0.744 OA
ENDBRANCH 105 108
ENDBRANCH  78 101
ENDBRANCH  52  53
ENDBRANCH  44  47
ENDBRANCH  42  43
ENDBRANCH  41  42
ENDBRANCH  40  41
ENDBRANCH   1  40
TORSDOF 19
ENDMDL
MODEL 2
REMARK VINA RESULT:     -13.4     10.025     13.836
REMARK SMILES O=C(Cn1nc(C(=O)NCCCCCCNC(=O)c2ccc(-c3c4nc(c(-c5cccc(S(=O)(=O)[O-])c5F)c5ccc([nH]5)c(-c5cccc(S(=O)(=O)[O-])c5F)c5nc(c(-c6cccc(S(=O)(=O)[O-])c6F)c6ccc3[nH]6)C=C5)C=C4)cc2)c2ccccc2c1=O)Nc1ccc2c(c1)C(=O)c1ccccc1C2=O
REMARK SMILES IDX 12 1 11 2 10 3 9 4 7 5 8 6 6 8 4 9 5 10 88 11 87 12 89 13
REMARK SMILES IDX 82 14 86 15 83 16 85 17 84 18 3 19 2 20 1 21 90 22 91 24
REMARK SMILES IDX 92 25 96 26 93 27 95 28 94 29 97 30 105 31 98 32 99 33
REMARK SMILES IDX 104 34 106 35 100 36 103 37 101 38 102 39 13 40 14 41 15 42
REMARK SMILES IDX 16 43 17 44 18 46 19 47 20 48 81 49 21 50 80 51 22 52 23 53
REMARK SMILES IDX 24 54 74 55 25 56 79 57 73 58 75 59 26 60 78 61 72 62 71 63
REMARK SMILES IDX 27 65 59 66 39 67 58 68 40 69 43 70 57 71 76 72 41 73 42 74
REMARK SMILES IDX 56 76 77 77 44 78 28 79 29 80 37 81 30 82 32 83 38 84 31 85
REMARK SMILES IDX 33 86 34 87 35 88 36 89 60 90 61 91 69 92 62 93 64 94 70 95
REMARK SMILES IDX 63 96 65 97 66 98 67 99 68 100 45 101 46 102 54 103 47 104
REMARK SMILES IDX 49 105 55 106 48 107 50 108 51 109 52 110 53 111
REMARK H PARENT 9 7 90 23 16 45 75 64 43 75
REMARK Flexibility Score: inf
ROOT
ATOM      1  C   UNL A   1      41.016  26.351  28.693  1.00  0.00     0.002 C 
ENDROOT
BRANCH   1   2
ATOM      2  C   UNL A   1      42.478  26.321  29.140  1.00  0.00     0.021 C 
BRANCH   2   3
ATOM      3  C   UNL A   1      43.479  25.576  28.264  1.00  0.00     0.116 C 
BRANCH   3   4
ATOM      4  N   UNL A   1      43.551  26.041  26.892  1.00  0.00    -0.351 N 
ATOM      5  C   UNL A   1      43.043  25.444  25.756  1.00  0.00     0.272 C 
ATOM      6  O   UNL A   1      42.860  26.114  24.745  1.00  0.00    -0.267 OA
ATOM      7  H   UNL A   1      44.024  26.893  26.752  1.00  0.00     0.163 HD
BRANCH   5   8
ATOM      8  C   UNL A   1      42.757  23.935  25.730  1.00  0.00     0.156 A 
ATOM      9  N   UNL A   1      41.261  22.207  26.127  1.00  0.00    -0.219 N 
ATOM     10  N   UNL A   1      41.534  23.549  25.967  1.00  0.00    -0.163 NA
ATOM     11  C   UNL A   1      42.240  21.220  26.045  1.00  0.00     0.275 A 
ATOM     12  C   UNL A   1      43.555  21.629  25.539  1.00  0.00     0.051 A 
ATOM     13  O   UNL A   1      42.066  20.051  26.372  1.00  0.00    -0.267 OA
ATOM     14  C   UNL A   1      43.860  22.983  25.446  1.00  0.00     0.020 A 
ATOM     15  C   UNL A   1      44.501  20.648  25.204  1.00  0.00     0.014 A 
ATOM     16  C   UNL A   1      45.155  23.353  25.059  1.00  0.00     0.011 A 
ATOM     17  C   UNL A   1      45.775  21.025  24.789  1.00  0.00     0.001 A 
ATOM     18  C   UNL A   1      46.105  22.376  24.730  1.00  0.00     0.001 A 
BRANCH   9  19
ATOM     19  C   UNL A   1      40.010  21.874  26.826  1.00  0.00     0.248 C 
BRANCH  19  20
ATOM     20  C   UNL A   1      38.864  22.832  26.499  1.00  0.00     0.246 C 
ATOM     21  O   UNL A   1      38.651  23.850  27.155  1.00  0.00    -0.273 OA
ATOM     22  N   UNL A   1      38.225  22.556  25.310  1.00  0.00    -0.324 N 
ATOM     23  H   UNL A   1      38.732  22.091  24.606  1.00  0.00     0.169 HD
BRANCH  22  24
ATOM     24  C   UNL A   1      36.893  22.901  25.048  1.00  0.00     0.042 A 
ATOM     25  C   UNL A   1      36.556  23.322  23.759  1.00  0.00     0.027 A 
ATOM     26  C   UNL A   1      35.913  22.429  25.925  1.00  0.00     0.039 A 
ATOM     27  C   UNL A   1      35.248  23.185  23.296  1.00  0.00     0.015 A 
ATOM     28  C   UNL A   1      34.647  22.161  25.411  1.00  0.00     0.036 A 
ATOM     29  C   UNL A   1      34.330  22.505  24.094  1.00  0.00     0.034 A 
ATOM     30  C   UNL A   1      33.785  21.197  26.131  1.00  0.00     0.194 C 
ATOM     31  C   UNL A   1      33.170  21.857  23.447  1.00  0.00     0.194 C 
ATOM     32  O   UNL A   1      33.732  21.138  27.345  1.00  0.00    -0.289 OA
ATOM     33  C   UNL A   1      33.125  20.189  25.277  1.00  0.00     0.034 A 
ATOM     34  C   UNL A   1      32.837  20.508  23.950  1.00  0.00     0.034 A 
ATOM     35  O   UNL A   1      32.620  22.331  22.463  1.00  0.00    -0.289 OA
ATOM     36  C   UNL A   1      32.959  18.885  25.747  1.00  0.00     0.013 A 
ATOM     37  C   UNL A   1      32.397  19.518  23.070  1.00  0.00     0.013 A 
ATOM     38  C   UNL A   1      32.550  17.889  24.861  1.00  0.00     0.001 A 
ATOM     39  C   UNL A   1      32.275  18.204  23.525  1.00  0.00     0.001 A 
ENDBRANCH  22  24
ENDBRANCH  19  20
ENDBRANCH   9  19
ENDBRANCH   5   8
ENDBRANCH   3   4
ENDBRANCH   2   3
ENDBRANCH   1   2
BRANCH   1  40
ATOM     40  C   UNL A   1      40.155  27.533  29.144  1.00  0.00     0.002 C 
BRANCH  40  41
ATOM     41  C   UNL A   1      38.974  27.236  30.070  1.00  0.00     0.021 C 
BRANCH  41  42
ATOM     42  C   UNL A   1      39.225  27.363  31.569  1.00  0.00     0.116 C 
BRANCH  42  43
ATOM     43  N   UNL A   1      38.294  28.243  32.249  1.00  0.00    -0.352 N 
ATOM     44  C   UNL A   1      38.323  29.618  32.352  1.00  0.00     0.251 C 
ATOM     45  H   UNL A   1      37.539  27.800  32.697  1.00  0.00     0.163 HD
ATOM     46  O   UNL A   1      37.484  30.192  33.040  1.00  0.00    -0.269 OA
BRANCH  44  47
ATOM     47  C   UNL A   1      39.393  30.397  31.677  1.00  0.00     0.039 A 
ATOM     48  C   UNL A   1      39.260  30.822  30.353  1.00  0.00     0.014 A 
ATOM     49  C   UNL A   1      40.561  30.697  32.388  1.00  0.00     0.014 A 
ATOM     50  C   UNL A   1      40.346  31.401  29.697  1.00  0.00     0.010 A 
ATOM     51  C   UNL A   1      41.628  31.336  31.744  1.00  0.00     0.010 A 
ATOM     52  C   UNL A   1      41.549  31.647  30.379  1.00  0.00    -0.014 A 
BRANCH  52  53
ATOM     53  C   UNL A   1      42.705  32.216  29.637  1.00  0.00     0.031 A 
ATOM     54  C   UNL A   1      42.785  33.692  29.347  1.00  0.00     0.074 A 
ATOM     55  C   UNL A   1      43.723  31.410  29.278  1.00  0.00     0.049 A 
ATOM     56  N   UNL A   1      43.770  34.370  28.815  1.00  0.00    -0.248 NA
ATOM     57  C   UNL A   1      41.615  34.515  29.695  1.00  0.00     0.031 C 
ATOM     58  C   UNL A   1      43.757  29.961  29.476  1.00  0.00     0.029 A 
ATOM     59  N   UNL A   1      44.933  31.697  28.697  1.00  0.00    -0.354 N 
ATOM     60  C   UNL A   1      43.331  35.686  28.738  1.00  0.00     0.074 A 
ATOM     61  C   UNL A   1      41.988  35.715  29.272  1.00  0.00     0.031 C 
ATOM     62  C   UNL A   1      44.950  29.492  29.074  1.00  0.00     0.029 A 
ATOM     63  C   UNL A   1      45.755  30.602  28.571  1.00  0.00     0.049 A 
ATOM     64  H   UNL A   1      45.189  32.600  28.400  1.00  0.00     0.167 HD
ATOM     65  C   UNL A   1      43.996  36.778  28.290  1.00  0.00     0.034 A 
ATOM     66  C   UNL A   1      47.021  30.501  28.122  1.00  0.00     0.034 A 
ATOM     67  C   UNL A   1      45.353  36.770  27.816  1.00  0.00     0.049 A 
ATOM     68  C   UNL A   1      47.748  31.733  27.665  1.00  0.00     0.074 A 
ATOM     69  C   UNL A   1      46.119  37.843  27.392  1.00  0.00     0.029 A 
ATOM     70  N   UNL A   1      46.147  35.643  27.708  1.00  0.00    -0.354 N 
ATOM     71  N   UNL A   1      47.349  32.981  27.696  1.00  0.00    -0.248 NA
ATOM     72  C   UNL A   1      49.104  31.546  27.124  1.00  0.00     0.031 C 
ATOM     73  C   UNL A   1      47.384  37.363  27.038  1.00  0.00     0.029 A 
ATOM     74  C   UNL A   1      47.397  35.991  27.228  1.00  0.00     0.049 A 
ATOM     75  H   UNL A   1      45.866  34.728  27.940  1.00  0.00     0.167 HD
ATOM     76  C   UNL A   1      48.402  33.729  27.183  1.00  0.00     0.074 A 
ATOM     77  C   UNL A   1      49.469  32.798  26.874  1.00  0.00     0.031 C 
ATOM     78  C   UNL A   1      48.465  35.064  26.964  1.00  0.00     0.034 A 
BRANCH  65  79
ATOM     79  C   UNL A   1      43.292  38.102  28.361  1.00  0.00     0.023 A 
ATOM     80  C   UNL A   1      42.416  38.460  27.317  1.00  0.00     0.012 A 
ATOM     81  C   UNL A   1      43.424  38.945  29.481  1.00  0.00     0.148 A 
ATOM     82  C   UNL A   1      41.683  39.643  27.384  1.00  0.00     0.002 A 
ATOM     83  C   UNL A   1      42.675  40.116  29.548  1.00  0.00     0.091 A 
ATOM     84  F   UNL A   1      44.280  38.591  30.449  1.00  0.00    -0.205 F 
ATOM     85  C   UNL A   1      41.805  40.465  28.502  1.00  0.00     0.022 A 
BRANCH  83  86
ATOM     86  S   UNL A   1      42.735  41.224  30.960  1.00  0.00     0.127 S 
ATOM     87  O   UNL A   1      42.592  40.287  32.074  1.00  0.00    -0.237 OA
ATOM     88  O   UNL A   1      44.067  41.818  30.831  1.00  0.00    -0.237 OA
ATOM     89  O   UNL A   1      41.634  42.159  30.783  1.00  0.00    -0.744 OA
ENDBRANCH  83  86
ENDBRANCH  65  79
BRANCH  66  90
ATOM     90  C   UNL A   1      47.709  29.183  28.183  1.00  0.00     0.023 A 
ATOM     91  C   UNL A   1      48.315  28.788  29.390  1.00  0.00     0.012 A 
ATOM     92  C   UNL A   1      47.693  28.294  27.093  1.00  0.00     0.148 A 
ATOM     93  C   UNL A   1      48.895  27.526  29.512  1.00  0.00     0.002 A 
ATOM     94  C   UNL A   1      48.237  27.022  27.234  1.00  0.00     0.091 A 
ATOM     95  F   UNL A   1      47.129  28.702  25.948  1.00  0.00    -0.205 F 
ATOM     96  C   UNL A   1      48.844  26.639  28.440  1.00  0.00     0.022 A 
BRANCH  94  97
ATOM     97  S   UNL A   1      48.106  25.778  25.944  1.00  0.00     0.127 S 
ATOM     98  O   UNL A   1      46.815  26.106  25.345  1.00  0.00    -0.237 OA
ATOM     99  O   UNL A   1      49.268  26.081  25.108  1.00  0.00    -0.237 OA
ATOM    100  O   UNL A   1      48.183  24.497  26.631  1.00  0.00    -0.744 OA
ENDBRANCH  94  97
ENDBRANCH  66  90
BRANCH  78 101
ATOM    101  C   UNL A   1      49.714  35.614  26.337  1.00  0.00     0.023 A 
ATOM    102  C   UNL A   1      49.766  35.742  24.935  1.00  0.00     0.012 A 
ATOM    103  C   UNL A   1      50.775  36.103  27.122  1.00  0.00     0.148 A 
ATOM    104  C   UNL A   1      50.860  36.348  24.321  1.00  0.00     0.002 A 
ATOM    105  C   UNL A   1      51.853  36.728  26.503  1.00  0.00     0.091 A 
ATOM    106  F   UNL A   1      50.706  35.957  28.453  1.00  0.00    -0.205 F 
ATOM    107  C   UNL A   1      51.896  36.849  25.104  1.00  0.00     0.022 A 
BRANCH 105 108
ATOM    108  S   UNL A   1      53.207  37.461  27.428  1.00  0.00     0.127 S 
ATOM    109  O   UNL A   1      52.501  38.405  28.292  1.00  0.00    -0.237 OA
ATOM    110  O   UNL A   1      53.772  36.304  28.122  1.00  0.00    -0.237 OA
ATOM    111  O   UNL A   1      54.090  38.063  26.438  1.00  0.00    -0.744 OA
ENDBRANCH 105 108
ENDBRANCH  78 101
ENDBRANCH  52  53
ENDBRANCH  44  47
ENDBRANCH  42  43
ENDBRANCH  41  42
ENDBRANCH  40  41
ENDBRANCH   1  40
TORSDOF 19
ENDMDL
MODEL 3
REMARK VINA RESULT:     -13.3      6.889     13.971
REMARK SMILES O=C(Cn1nc(C(=O)NCCCCCCNC(=O)c2ccc(-c3c4nc(c(-c5cccc(S(=O)(=O)[O-])c5F)c5ccc([nH]5)c(-c5cccc(S(=O)(=O)[O-])c5F)c5nc(c(-c6cccc(S(=O)(=O)[O-])c6F)c6ccc3[nH]6)C=C5)C=C4)cc2)c2ccccc2c1=O)Nc1ccc2c(c1)C(=O)c1ccccc1C2=O
REMARK SMILES IDX 12 1 11 2 10 3 9 4 7 5 8 6 6 8 4 9 5 10 88 11 87 12 89 13
REMARK SMILES IDX 82 14 86 15 83 16 85 17 84 18 3 19 2 20 1 21 90 22 91 24
REMARK SMILES IDX 92 25 96 26 93 27 95 28 94 29 97 30 105 31 98 32 99 33
REMARK SMILES IDX 104 34 106 35 100 36 103 37 101 38 102 39 13 40 14 41 15 42
REMARK SMILES IDX 16 43 17 44 18 46 19 47 20 48 81 49 21 50 80 51 22 52 23 53
REMARK SMILES IDX 24 54 74 55 25 56 79 57 73 58 75 59 26 60 78 61 72 62 71 63
REMARK SMILES IDX 27 65 59 66 39 67 58 68 40 69 43 70 57 71 76 72 41 73 42 74
REMARK SMILES IDX 56 76 77 77 44 78 28 79 29 80 37 81 30 82 32 83 38 84 31 85
REMARK SMILES IDX 33 86 34 87 35 88 36 89 60 90 61 91 69 92 62 93 64 94 70 95
REMARK SMILES IDX 63 96 65 97 66 98 67 99 68 100 45 101 46 102 54 103 47 104
REMARK SMILES IDX 49 105 55 106 48 107 50 108 51 109 52 110 53 111
REMARK H PARENT 9 7 90 23 16 45 75 64 43 75
REMARK Flexibility Score: inf
ROOT
ATOM      1  C   UNL A   1      40.897  23.347  27.655  1.00  0.00     0.002 C 
ENDROOT
BRANCH   1   2
ATOM      2  C   UNL A   1      39.891  24.320  27.037  1.00  0.00     0.021 C 
BRANCH   2   3
ATOM      3  C   UNL A   1      39.602  25.618  27.782  1.00  0.00     0.116 C 
BRANCH   3   4
ATOM      4  N   UNL A   1      40.192  26.804  27.191  1.00  0.00    -0.351 N 
ATOM      5  C   UNL A   1      40.051  28.120  27.584  1.00  0.00     0.272 C 
ATOM      6  O   UNL A   1      40.880  28.953  27.232  1.00  0.00    -0.267 OA
ATOM      7  H   UNL A   1      40.768  26.651  26.407  1.00  0.00     0.163 HD
BRANCH   5   8
ATOM      8  C   UNL A   1      38.836  28.560  28.414  1.00  0.00     0.156 A 
ATOM      9  N   UNL A   1      36.692  29.446  28.450  1.00  0.00    -0.219 N 
ATOM     10  N   UNL A   1      37.749  28.880  27.768  1.00  0.00    -0.163 NA
ATOM     11  C   UNL A   1      36.721  29.695  29.819  1.00  0.00     0.275 A 
ATOM     12  C   UNL A   1      37.835  29.113  30.577  1.00  0.00     0.051 A 
ATOM     13  O   UNL A   1      35.885  30.366  30.413  1.00  0.00    -0.267 OA
ATOM     14  C   UNL A   1      38.936  28.608  29.894  1.00  0.00     0.020 A 
ATOM     15  C   UNL A   1      37.792  29.119  31.980  1.00  0.00     0.014 A 
ATOM     16  C   UNL A   1      40.033  28.151  30.636  1.00  0.00     0.011 A 
ATOM     17  C   UNL A   1      38.873  28.633  32.709  1.00  0.00     0.001 A 
ATOM     18  C   UNL A   1      39.998  28.162  32.037  1.00  0.00     0.001 A 
BRANCH   9  19
ATOM     19  C   UNL A   1      35.715  30.188  27.639  1.00  0.00     0.248 C 
BRANCH  19  20
ATOM     20  C   UNL A   1      34.529  29.333  27.192  1.00  0.00     0.246 C 
ATOM     21  O   UNL A   1      33.741  28.833  27.993  1.00  0.00    -0.273 OA
ATOM     22  N   UNL A   1      34.319  29.332  25.831  1.00  0.00    -0.324 N 
ATOM     23  H   UNL A   1      34.621  30.113  25.314  1.00  0.00     0.169 HD
BRANCH  22  24
ATOM     24  C   UNL A   1      33.696  28.283  25.143  1.00  0.00     0.042 A 
ATOM     25  C   UNL A   1      33.700  28.308  23.746  1.00  0.00     0.027 A 
ATOM     26  C   UNL A   1      33.479  27.088  25.836  1.00  0.00     0.039 A 
ATOM     27  C   UNL A   1      33.582  27.123  23.023  1.00  0.00     0.015 A 
ATOM     28  C   UNL A   1      33.507  25.898  25.115  1.00  0.00     0.036 A 
ATOM     29  C   UNL A   1      33.594  25.916  23.721  1.00  0.00     0.034 A 
ATOM     30  C   UNL A   1      33.814  24.644  25.840  1.00  0.00     0.194 C 
ATOM     31  C   UNL A   1      34.037  24.694  23.017  1.00  0.00     0.194 C 
ATOM     32  O   UNL A   1      33.400  24.411  26.960  1.00  0.00    -0.289 OA
ATOM     33  C   UNL A   1      34.806  23.769  25.183  1.00  0.00     0.034 A 
ATOM     34  C   UNL A   1      34.927  23.805  23.794  1.00  0.00     0.034 A 
ATOM     35  O   UNL A   1      33.814  24.505  21.830  1.00  0.00    -0.289 OA
ATOM     36  C   UNL A   1      35.720  23.055  25.958  1.00  0.00     0.013 A 
ATOM     37  C   UNL A   1      35.981  23.141  23.164  1.00  0.00     0.013 A 
ATOM     38  C   UNL A   1      36.792  22.417  25.332  1.00  0.00     0.001 A 
ATOM     39  C   UNL A   1      36.924  22.465  23.940  1.00  0.00     0.001 A 
ENDBRANCH  22  24
ENDBRANCH  19  20
ENDBRANCH   9  19
ENDBRANCH   5   8
ENDBRANCH   3   4
ENDBRANCH   2   3
ENDBRANCH   1   2
BRANCH   1  40
ATOM     40  C   UNL A   1      42.384  23.686  27.535  1.00  0.00     0.002 C 
BRANCH  40  41
ATOM     41  C   UNL A   1      43.229  22.840  26.581  1.00  0.00     0.021 C 
BRANCH  41  42
ATOM     42  C   UNL A   1      43.196  23.224  25.105  1.00  0.00     0.116 C 
BRANCH  42  43
ATOM     43  N   UNL A   1      44.509  23.357  24.502  1.00  0.00    -0.352 N 
ATOM     44  C   UNL A   1      45.458  24.336  24.706  1.00  0.00     0.251 C 
ATOM     45  H   UNL A   1      44.756  22.652  23.862  1.00  0.00     0.163 HD
ATOM     46  O   UNL A   1      46.491  24.326  24.042  1.00  0.00    -0.269 OA
BRANCH  44  47
ATOM     47  C   UNL A   1      45.212  25.427  25.684  1.00  0.00     0.039 A 
ATOM     48  C   UNL A   1      46.033  25.603  26.800  1.00  0.00     0.014 A 
ATOM     49  C   UNL A   1      44.123  26.283  25.482  1.00  0.00     0.014 A 
ATOM     50  C   UNL A   1      45.678  26.524  27.784  1.00  0.00     0.010 A 
ATOM     51  C   UNL A   1      43.805  27.251  26.442  1.00  0.00     0.010 A 
ATOM     52  C   UNL A   1      44.549  27.345  27.628  1.00  0.00    -0.014 A 
BRANCH  52  53
ATOM     53  C   UNL A   1      44.168  28.279  28.720  1.00  0.00     0.031 A 
ATOM     54  C   UNL A   1      43.975  27.781  30.128  1.00  0.00     0.074 A 
ATOM     55  C   UNL A   1      44.055  29.595  28.456  1.00  0.00     0.049 A 
ATOM     56  N   UNL A   1      43.755  28.473  31.218  1.00  0.00    -0.248 NA
ATOM     57  C   UNL A   1      44.037  26.327  30.348  1.00  0.00     0.031 C 
ATOM     58  C   UNL A   1      44.190  30.201  27.131  1.00  0.00     0.029 A 
ATOM     59  N   UNL A   1      43.830  30.661  29.291  1.00  0.00    -0.354 N 
ATOM     60  C   UNL A   1      43.623  27.542  32.241  1.00  0.00     0.074 A 
ATOM     61  C   UNL A   1      43.782  26.234  31.646  1.00  0.00     0.031 C 
ATOM     62  C   UNL A   1      44.098  31.535  27.249  1.00  0.00     0.029 A 
ATOM     63  C   UNL A   1      43.876  31.878  28.651  1.00  0.00     0.049 A 
ATOM     64  H   UNL A   1      43.652  30.565  30.254  1.00  0.00     0.167 HD
ATOM     65  C   UNL A   1      43.418  27.757  33.563  1.00  0.00     0.034 A 
ATOM     66  C   UNL A   1      43.776  33.130  29.138  1.00  0.00     0.034 A 
ATOM     67  C   UNL A   1      43.320  29.054  34.174  1.00  0.00     0.049 A 
ATOM     68  C   UNL A   1      43.583  33.341  30.612  1.00  0.00     0.074 A 
ATOM     69  C   UNL A   1      43.163  29.361  35.515  1.00  0.00     0.029 A 
ATOM     70  N   UNL A   1      43.376  30.257  33.491  1.00  0.00    -0.354 N 
ATOM     71  N   UNL A   1      43.564  32.451  31.573  1.00  0.00    -0.248 NA
ATOM     72  C   UNL A   1      43.413  34.729  31.071  1.00  0.00     0.031 C 
ATOM     73  C   UNL A   1      43.136  30.754  35.644  1.00  0.00     0.029 A 
ATOM     74  C   UNL A   1      43.260  31.309  34.382  1.00  0.00     0.049 A 
ATOM     75  H   UNL A   1      43.484  30.350  32.517  1.00  0.00     0.167 HD
ATOM     76  C   UNL A   1      43.383  33.168  32.750  1.00  0.00     0.074 A 
ATOM     77  C   UNL A   1      43.326  34.569  32.386  1.00  0.00     0.031 C 
ATOM     78  C   UNL A   1      43.249  32.700  34.014  1.00  0.00     0.034 A 
BRANCH  65  79
ATOM     79  C   UNL A   1      43.359  26.558  34.464  1.00  0.00     0.023 A 
ATOM     80  C   UNL A   1      42.097  26.048  34.832  1.00  0.00     0.012 A 
ATOM     81  C   UNL A   1      44.527  25.890  34.875  1.00  0.00     0.148 A 
ATOM     82  C   UNL A   1      42.000  24.890  35.600  1.00  0.00     0.002 A 
ATOM     83  C   UNL A   1      44.421  24.724  35.628  1.00  0.00     0.091 A 
ATOM     84  F   UNL A   1      45.714  26.408  34.530  1.00  0.00    -0.205 F 
ATOM     85  C   UNL A   1      43.159  24.224  35.990  1.00  0.00     0.022 A 
BRANCH  83  86
ATOM     86  S   UNL A   1      45.853  23.774  36.150  1.00  0.00     0.127 S 
ATOM     87  O   UNL A   1      46.494  23.482  34.868  1.00  0.00    -0.237 OA
ATOM     88  O   UNL A   1      46.574  24.735  36.986  1.00  0.00    -0.237 OA
ATOM     89  O   UNL A   1      45.329  22.620  36.864  1.00  0.00    -0.744 OA
ENDBRANCH  83  86
ENDBRANCH  65  79
BRANCH  66  90
ATOM     90  C   UNL A   1      43.958  34.283  28.215  1.00  0.00     0.023 A 
ATOM     91  C   UNL A   1      42.818  34.949  27.727  1.00  0.00     0.012 A 
ATOM     92  C   UNL A   1      45.236  34.770  27.889  1.00  0.00     0.148 A 
ATOM     93  C   UNL A   1      42.948  36.084  26.929  1.00  0.00     0.002 A 
ATOM     94  C   UNL A   1      45.358  35.926  27.126  1.00  0.00     0.091 A 
ATOM     95  F   UNL A   1      46.306  34.106  28.347  1.00  0.00    -0.205 F 
ATOM     96  C   UNL A   1      44.216  36.581  26.640  1.00  0.00     0.022 A 
BRANCH  94  97
ATOM     97  S   UNL A   1      46.950  36.699  26.811  1.00  0.00     0.127 S 
ATOM     98  O   UNL A   1      46.558  37.902  26.082  1.00  0.00    -0.237 OA
ATOM     99  O   UNL A   1      47.449  36.935  28.166  1.00  0.00    -0.237 OA
ATOM    100  O   UNL A   1      47.715  35.717  26.055  1.00  0.00    -0.744 OA
ENDBRANCH  94  97
ENDBRANCH  66  90
BRANCH  78 101
ATOM    101  C   UNL A   1      43.000  33.699  35.109  1.00  0.00     0.023 A 
ATOM    102  C   UNL A   1      44.108  34.278  35.758  1.00  0.00     0.012 A 
ATOM    103  C   UNL A   1      41.700  34.144  35.414  1.00  0.00     0.148 A 
ATOM    104  C   UNL A   1      43.925  35.287  36.702  1.00  0.00     0.002 A 
ATOM    105  C   UNL A   1      41.528  35.168  36.340  1.00  0.00     0.091 A 
ATOM    106  F   UNL A   1      40.664  33.567  34.790  1.00  0.00    -0.205 F 
ATOM    107  C   UNL A   1      42.638  35.738  36.984  1.00  0.00     0.022 A 
BRANCH 105 108
ATOM    108  S   UNL A   1      39.916  35.861  36.726  1.00  0.00     0.127 S 
ATOM    109  O   UNL A   1      40.255  36.852  37.746  1.00  0.00    -0.237 OA
ATOM    110  O   UNL A   1      39.504  36.426  35.441  1.00  0.00    -0.237 OA
ATOM    111  O   UNL A   1      39.099  34.747  37.186  1.00  0.00    -0.744 OA
ENDBRANCH 105 108
ENDBRANCH  78 101
ENDBRANCH  52  53
ENDBRANCH  44  47
ENDBRANCH  42  43
ENDBRANCH  41  42
ENDBRANCH  40  41
ENDBRANCH   1  40
TORSDOF 19
ENDMDL
