MODEL 1
REMARK VINA RESULT:     -11.1      0.000      0.000
REMARK SMILES O=C(C[C@H]1CN(c2nc(C3CC3)ns2)CCO1)NCCCCCCNC(=O)c1ccc(-c2c3nc(c(-c4cccc(S(=O)(=O)[O-])c4F)c4ccc([nH]4)c(-c4cccc(S(=O)(=O)[O-])c4F)c4nc(c(-c5cccc(S(=O)(=O)[O-])c5F)c5ccc2[nH]5)C=C4)C=C3)cc1
REMARK SMILES IDX 21 1 20 2 19 3 18 4 1 5 2 6 3 8 4 9 5 10 17 11 6 12 16 13
REMARK SMILES IDX 15 14 7 15 8 16 14 17 9 18 13 19 10 20 11 21 12 22 22 23
REMARK SMILES IDX 23 24 24 25 25 26 26 27 27 29 28 30 29 31 90 32 30 33 89 34
REMARK SMILES IDX 31 35 32 36 33 37 83 38 34 39 88 40 82 41 84 42 35 43 87 44
REMARK SMILES IDX 81 45 80 46 36 48 68 49 48 50 67 51 49 52 52 53 66 54 85 55
REMARK SMILES IDX 50 56 51 57 65 59 86 60 53 61 37 62 38 63 46 64 39 65 41 66
REMARK SMILES IDX 47 67 40 68 42 69 43 70 44 71 45 72 69 73 70 74 78 75 71 76
REMARK SMILES IDX 73 77 79 78 72 79 74 80 75 81 76 82 77 83 54 84 55 85 63 86
REMARK SMILES IDX 56 87 58 88 64 89 57 90 59 91 60 92 61 93 62 94
REMARK H PARENT 18 7 25 28 84 47 52 58
REMARK Flexibility Score: inf
ROOT
ATOM      1  C   UNL A   1      31.128  28.199  24.808  1.00  0.00     0.002 C 
ENDROOT
BRANCH   1   2
ATOM      2  C   UNL A   1      30.609  26.940  24.105  1.00  0.00     0.021 C 
BRANCH   2   3
ATOM      3  C   UNL A   1      30.936  25.620  24.792  1.00  0.00     0.116 C 
BRANCH   3   4
ATOM      4  N   UNL A   1      32.355  25.346  24.881  1.00  0.00    -0.356 N 
ATOM      5  O   UNL A   1      32.440  23.831  23.150  1.00  0.00    -0.275 OA
ATOM      6  C   UNL A   1      33.006  24.563  23.956  1.00  0.00     0.222 C 
ATOM      7  H   UNL A   1      32.870  25.732  25.625  1.00  0.00     0.163 HD
BRANCH   6   8
ATOM      8  C   UNL A   1      34.518  24.615  24.037  1.00  0.00     0.133 C 
BRANCH   8   9
ATOM      9  C   UNL A   1      35.155  24.129  25.349  1.00  0.00     0.147 C 
ATOM     10  C   UNL A   1      34.504  22.919  26.042  1.00  0.00     0.151 C 
ATOM     11  O   UNL A   1      36.594  24.007  25.264  1.00  0.00    -0.374 OA
ATOM     12  N   UNL A   1      34.991  21.664  25.476  1.00  0.00    -0.342 N 
ATOM     13  C   UNL A   1      37.050  22.760  24.729  1.00  0.00     0.182 C 
ATOM     14  C   UNL A   1      36.438  21.523  25.411  1.00  0.00     0.147 C 
BRANCH  12  15
ATOM     15  C   UNL A   1      34.102  20.679  25.178  1.00  0.00     0.205 A 
ATOM     16  N   UNL A   1      34.451  19.438  24.920  1.00  0.00    -0.203 NA
ATOM     17  S   UNL A   1      32.377  20.841  25.103  1.00  0.00     0.004 S 
ATOM     18  C   UNL A   1      33.323  18.651  24.742  1.00  0.00     0.147 A 
ATOM     19  N   UNL A   1      32.125  19.235  24.741  1.00  0.00    -0.174 NA
BRANCH  18  20
ATOM     20  C   UNL A   1      33.430  17.135  24.556  1.00  0.00     0.059 C 
ATOM     21  C   UNL A   1      34.083  16.582  23.303  1.00  0.00     0.012 C 
ATOM     22  C   UNL A   1      34.792  16.472  24.607  1.00  0.00     0.012 C 
ENDBRANCH  18  20
ENDBRANCH  12  15
ENDBRANCH   8   9
ENDBRANCH   6   8
ENDBRANCH   3   4
ENDBRANCH   2   3
ENDBRANCH   1   2
BRANCH   1  23
ATOM     23  C   UNL A   1      32.318  28.900  24.149  1.00  0.00     0.002 C 
BRANCH  23  24
ATOM     24  C   UNL A   1      33.707  28.436  24.586  1.00  0.00     0.021 C 
BRANCH  24  25
ATOM     25  C   UNL A   1      34.046  28.656  26.057  1.00  0.00     0.116 C 
BRANCH  25  26
ATOM     26  N   UNL A   1      33.762  30.006  26.520  1.00  0.00    -0.352 N 
ATOM     27  C   UNL A   1      34.458  30.778  27.418  1.00  0.00     0.251 C 
ATOM     28  H   UNL A   1      32.958  30.425  26.135  1.00  0.00     0.163 HD
ATOM     29  O   UNL A   1      34.008  31.870  27.760  1.00  0.00    -0.269 OA
BRANCH  27  30
ATOM     30  C   UNL A   1      35.728  30.283  27.996  1.00  0.00     0.039 A 
ATOM     31  C   UNL A   1      35.708  29.687  29.260  1.00  0.00     0.014 A 
ATOM     32  C   UNL A   1      36.934  30.403  27.299  1.00  0.00     0.014 A 
ATOM     33  C   UNL A   1      36.886  29.165  29.800  1.00  0.00     0.010 A 
ATOM     34  C   UNL A   1      38.088  29.811  27.804  1.00  0.00     0.010 A 
ATOM     35  C   UNL A   1      38.083  29.201  29.066  1.00  0.00    -0.014 A 
BRANCH  35  36
ATOM     36  C   UNL A   1      39.345  28.637  29.611  1.00  0.00     0.031 A 
ATOM     37  C   UNL A   1      39.995  29.280  30.811  1.00  0.00     0.074 A 
ATOM     38  C   UNL A   1      39.946  27.603  28.989  1.00  0.00     0.049 A 
ATOM     39  N   UNL A   1      41.133  28.993  31.386  1.00  0.00    -0.248 NA
ATOM     40  C   UNL A   1      39.285  30.415  31.425  1.00  0.00     0.031 C 
ATOM     41  C   UNL A   1      39.462  26.946  27.773  1.00  0.00     0.029 A 
ATOM     42  N   UNL A   1      41.113  26.941  29.279  1.00  0.00    -0.354 N 
ATOM     43  C   UNL A   1      41.289  29.924  32.405  1.00  0.00     0.074 A 
ATOM     44  C   UNL A   1      40.154  30.818  32.341  1.00  0.00     0.031 C 
ATOM     45  C   UNL A   1      40.325  25.978  27.421  1.00  0.00     0.029 A 
ATOM     46  C   UNL A   1      41.434  25.960  28.369  1.00  0.00     0.049 A 
ATOM     47  H   UNL A   1      41.669  27.149  30.065  1.00  0.00     0.167 HD
ATOM     48  C   UNL A   1      42.266  30.008  33.340  1.00  0.00     0.034 A 
ATOM     49  C   UNL A   1      42.504  25.143  28.304  1.00  0.00     0.034 A 
ATOM     50  C   UNL A   1      43.367  29.089  33.433  1.00  0.00     0.049 A 
ATOM     51  C   UNL A   1      43.545  25.219  29.390  1.00  0.00     0.074 A 
ATOM     52  C   UNL A   1      44.385  29.056  34.371  1.00  0.00     0.029 A 
ATOM     53  N   UNL A   1      43.588  28.031  32.567  1.00  0.00    -0.354 N 
ATOM     54  N   UNL A   1      43.603  26.026  30.423  1.00  0.00    -0.248 NA
ATOM     55  C   UNL A   1      44.642  24.243  29.332  1.00  0.00     0.031 C 
ATOM     56  C   UNL A   1      45.222  27.977  34.070  1.00  0.00     0.029 A 
ATOM     57  C   UNL A   1      44.713  27.328  32.957  1.00  0.00     0.049 A 
ATOM     58  H   UNL A   1      43.027  27.813  31.787  1.00  0.00     0.167 HD
ATOM     59  C   UNL A   1      44.711  25.623  31.160  1.00  0.00     0.074 A 
ATOM     60  C   UNL A   1      45.284  24.488  30.466  1.00  0.00     0.031 C 
ATOM     61  C   UNL A   1      45.220  26.152  32.298  1.00  0.00     0.034 A 
BRANCH  48  62
ATOM     62  C   UNL A   1      42.144  31.084  34.387  1.00  0.00     0.023 A 
ATOM     63  C   UNL A   1      41.590  30.760  35.643  1.00  0.00     0.012 A 
ATOM     64  C   UNL A   1      42.631  32.387  34.163  1.00  0.00     0.148 A 
ATOM     65  C   UNL A   1      41.492  31.721  36.647  1.00  0.00     0.002 A 
ATOM     66  C   UNL A   1      42.571  33.327  35.185  1.00  0.00     0.091 A 
ATOM     67  F   UNL A   1      43.139  32.681  32.958  1.00  0.00    -0.205 F 
ATOM     68  C   UNL A   1      41.992  32.999  36.423  1.00  0.00     0.022 A 
BRANCH  66  69
ATOM     69  S   UNL A   1      43.257  34.981  35.030  1.00  0.00     0.127 S 
ATOM     70  O   UNL A   1      44.686  34.696  34.902  1.00  0.00    -0.237 OA
ATOM     71  O   UNL A   1      42.619  35.462  33.805  1.00  0.00    -0.237 OA
ATOM     72  O   UNL A   1      42.871  35.693  36.241  1.00  0.00    -0.744 OA
ENDBRANCH  66  69
ENDBRANCH  48  62
BRANCH  49  73
ATOM     73  C   UNL A   1      42.617  24.132  27.214  1.00  0.00     0.023 A 
ATOM     74  C   UNL A   1      43.323  24.454  26.038  1.00  0.00     0.012 A 
ATOM     75  C   UNL A   1      42.028  22.859  27.330  1.00  0.00     0.148 A 
ATOM     76  C   UNL A   1      43.399  23.548  24.980  1.00  0.00     0.002 A 
ATOM     77  C   UNL A   1      42.155  21.940  26.295  1.00  0.00     0.091 A 
ATOM     78  F   UNL A   1      41.347  22.571  28.449  1.00  0.00    -0.205 F 
ATOM     79  C   UNL A   1      42.822  22.288  25.111  1.00  0.00     0.022 A 
BRANCH  77  80
ATOM     80  S   UNL A   1      41.553  20.252  26.438  1.00  0.00     0.127 S 
ATOM     81  O   UNL A   1      40.112  20.436  26.302  1.00  0.00    -0.237 OA
ATOM     82  O   UNL A   1      42.202  19.598  25.300  1.00  0.00    -0.237 OA
ATOM     83  O   UNL A   1      42.019  19.787  27.737  1.00  0.00    -0.744 OA
ENDBRANCH  77  80
ENDBRANCH  49  73
BRANCH  61  84
ATOM     84  C   UNL A   1      46.417  25.475  32.913  1.00  0.00     0.023 A 
ATOM     85  C   UNL A   1      47.716  25.934  32.617  1.00  0.00     0.012 A 
ATOM     86  C   UNL A   1      46.246  24.427  33.838  1.00  0.00     0.148 A 
ATOM     87  C   UNL A   1      48.828  25.336  33.207  1.00  0.00     0.002 A 
ATOM     88  C   UNL A   1      47.356  23.869  34.460  1.00  0.00     0.091 A 
ATOM     89  F   UNL A   1      45.003  23.991  34.091  1.00  0.00    -0.205 F 
ATOM     90  C   UNL A   1      48.648  24.313  34.136  1.00  0.00     0.022 A 
BRANCH  88  91
ATOM     91  S   UNL A   1      47.209  22.617  35.738  1.00  0.00     0.127 S 
ATOM     92  O   UNL A   1      46.324  21.643  35.102  1.00  0.00    -0.237 OA
ATOM     93  O   UNL A   1      48.594  22.169  35.897  1.00  0.00    -0.237 OA
ATOM     94  O   UNL A   1      46.661  23.298  36.904  1.00  0.00    -0.744 OA
ENDBRANCH  88  91
ENDBRANCH  61  84
ENDBRANCH  35  36
ENDBRANCH  27  30
ENDBRANCH  25  26
ENDBRANCH  24  25
ENDBRANCH  23  24
ENDBRANCH   1  23
TORSDOF 19
ENDMDL
MODEL 2
REMARK VINA RESULT:     -11.0      2.011      8.025
REMARK SMILES O=C(C[C@H]1CN(c2nc(C3CC3)ns2)CCO1)NCCCCCCNC(=O)c1ccc(-c2c3nc(c(-c4cccc(S(=O)(=O)[O-])c4F)c4ccc([nH]4)c(-c4cccc(S(=O)(=O)[O-])c4F)c4nc(c(-c5cccc(S(=O)(=O)[O-])c5F)c5ccc2[nH]5)C=C4)C=C3)cc1
REMARK SMILES IDX 21 1 20 2 19 3 18 4 1 5 2 6 3 8 4 9 5 10 17 11 6 12 16 13
REMARK SMILES IDX 15 14 7 15 8 16 14 17 9 18 13 19 10 20 11 21 12 22 22 23
REMARK SMILES IDX 23 24 24 25 25 26 26 27 27 29 28 30 29 31 90 32 30 33 89 34
REMARK SMILES IDX 31 35 32 36 33 37 83 38 34 39 88 40 82 41 84 42 35 43 87 44
REMARK SMILES IDX 81 45 80 46 36 48 68 49 48 50 67 51 49 52 52 53 66 54 85 55
REMARK SMILES IDX 50 56 51 57 65 59 86 60 53 61 37 62 38 63 46 64 39 65 41 66
REMARK SMILES IDX 47 67 40 68 42 69 43 70 44 71 45 72 69 73 70 74 78 75 71 76
REMARK SMILES IDX 73 77 79 78 72 79 74 80 75 81 76 82 77 83 54 84 55 85 63 86
REMARK SMILES IDX 56 87 58 88 64 89 57 90 59 91 60 92 61 93 62 94
REMARK H PARENT 18 7 25 28 84 47 52 58
REMARK Flexibility Score: inf
ROOT
ATOM      1  C   UNL A   1      30.673  26.824  25.089  1.00  0.00     0.002 C 
ENDROOT
BRANCH   1   2
ATOM      2  C   UNL A   1      30.332  27.488  23.751  1.00  0.00     0.021 C 
BRANCH   2   3
ATOM      3  C   UNL A   1      30.966  26.852  22.520  1.00  0.00     0.116 C 
BRANCH   3   4
ATOM      4  N   UNL A   1      31.856  25.752  22.826  1.00  0.00    -0.356 N 
ATOM      5  O   UNL A   1      33.654  26.521  21.613  1.00  0.00    -0.275 OA
ATOM      6  C   UNL A   1      33.177  25.753  22.443  1.00  0.00     0.222 C 
ATOM      7  H   UNL A   1      31.505  24.979  23.324  1.00  0.00     0.163 HD
BRANCH   6   8
ATOM      8  C   UNL A   1      34.022  24.673  23.084  1.00  0.00     0.133 C 
BRANCH   8   9
ATOM      9  C   UNL A   1      33.921  24.535  24.612  1.00  0.00     0.147 C 
ATOM     10  C   UNL A   1      33.278  23.251  25.163  1.00  0.00     0.151 C 
ATOM     11  O   UNL A   1      35.156  24.867  25.289  1.00  0.00    -0.374 OA
ATOM     12  N   UNL A   1      34.253  22.168  25.246  1.00  0.00    -0.342 N 
ATOM     13  C   UNL A   1      36.089  23.785  25.381  1.00  0.00     0.182 C 
ATOM     14  C   UNL A   1      35.488  22.486  25.949  1.00  0.00     0.147 C 
BRANCH  12  15
ATOM     15  C   UNL A   1      33.913  20.929  24.800  1.00  0.00     0.205 A 
ATOM     16  N   UNL A   1      34.688  19.874  24.919  1.00  0.00    -0.203 NA
ATOM     17  S   UNL A   1      32.424  20.490  24.028  1.00  0.00     0.004 S 
ATOM     18  C   UNL A   1      34.034  18.744  24.453  1.00  0.00     0.147 A 
ATOM     19  N   UNL A   1      32.838  18.883  23.880  1.00  0.00    -0.174 NA
BRANCH  18  20
ATOM     20  C   UNL A   1      34.653  17.351  24.590  1.00  0.00     0.059 C 
ATOM     21  C   UNL A   1      33.905  16.274  25.353  1.00  0.00     0.012 C 
ATOM     22  C   UNL A   1      34.016  16.178  23.872  1.00  0.00     0.012 C 
ENDBRANCH  18  20
ENDBRANCH  12  15
ENDBRANCH   8   9
ENDBRANCH   6   8
ENDBRANCH   3   4
ENDBRANCH   2   3
ENDBRANCH   1   2
BRANCH   1  23
ATOM     23  C   UNL A   1      31.408  27.697  26.110  1.00  0.00     0.002 C 
BRANCH  23  24
ATOM     24  C   UNL A   1      32.911  27.874  25.895  1.00  0.00     0.021 C 
BRANCH  24  25
ATOM     25  C   UNL A   1      33.334  29.169  25.210  1.00  0.00     0.116 C 
BRANCH  25  26
ATOM     26  N   UNL A   1      32.708  30.354  25.777  1.00  0.00    -0.352 N 
ATOM     27  C   UNL A   1      33.113  31.123  26.841  1.00  0.00     0.251 C 
ATOM     28  H   UNL A   1      31.878  30.647  25.335  1.00  0.00     0.163 HD
ATOM     29  O   UNL A   1      32.398  32.041  27.237  1.00  0.00    -0.269 OA
BRANCH  27  30
ATOM     30  C   UNL A   1      34.392  30.826  27.528  1.00  0.00     0.039 A 
ATOM     31  C   UNL A   1      35.342  31.844  27.654  1.00  0.00     0.014 A 
ATOM     32  C   UNL A   1      34.656  29.556  28.045  1.00  0.00     0.014 A 
ATOM     33  C   UNL A   1      36.531  31.601  28.344  1.00  0.00     0.010 A 
ATOM     34  C   UNL A   1      35.804  29.340  28.802  1.00  0.00     0.010 A 
ATOM     35  C   UNL A   1      36.763  30.354  28.946  1.00  0.00    -0.014 A 
BRANCH  35  36
ATOM     36  C   UNL A   1      38.012  30.075  29.701  1.00  0.00     0.031 A 
ATOM     37  C   UNL A   1      39.046  29.143  29.119  1.00  0.00     0.074 A 
ATOM     38  C   UNL A   1      38.187  30.595  30.932  1.00  0.00     0.049 A 
ATOM     39  N   UNL A   1      40.159  28.709  29.651  1.00  0.00    -0.248 NA
ATOM     40  C   UNL A   1      38.777  28.603  27.776  1.00  0.00     0.031 C 
ATOM     41  C   UNL A   1      37.226  31.445  31.639  1.00  0.00     0.029 A 
ATOM     42  N   UNL A   1      39.224  30.459  31.822  1.00  0.00    -0.354 N 
ATOM     43  C   UNL A   1      40.704  27.828  28.725  1.00  0.00     0.074 A 
ATOM     44  C   UNL A   1      39.777  27.750  27.617  1.00  0.00     0.031 C 
ATOM     45  C   UNL A   1      37.717  31.752  32.852  1.00  0.00     0.029 A 
ATOM     46  C   UNL A   1      39.014  31.104  33.019  1.00  0.00     0.049 A 
ATOM     47  H   UNL A   1      40.041  29.948  31.622  1.00  0.00     0.167 HD
ATOM     48  C   UNL A   1      41.889  27.173  28.768  1.00  0.00     0.034 A 
ATOM     49  C   UNL A   1      39.778  31.161  34.128  1.00  0.00     0.034 A 
ATOM     50  C   UNL A   1      42.832  27.291  29.847  1.00  0.00     0.049 A 
ATOM     51  C   UNL A   1      41.117  30.471  34.125  1.00  0.00     0.074 A 
ATOM     52  C   UNL A   1      44.081  26.708  29.966  1.00  0.00     0.029 A 
ATOM     53  N   UNL A   1      42.636  28.055  30.986  1.00  0.00    -0.354 N 
ATOM     54  N   UNL A   1      41.671  29.748  33.182  1.00  0.00    -0.248 NA
ATOM     55  C   UNL A   1      41.958  30.643  35.319  1.00  0.00     0.031 C 
ATOM     56  C   UNL A   1      44.641  27.120  31.181  1.00  0.00     0.029 A 
ATOM     57  C   UNL A   1      43.748  27.975  31.805  1.00  0.00     0.049 A 
ATOM     58  H   UNL A   1      41.824  28.578  31.184  1.00  0.00     0.167 HD
ATOM     59  C   UNL A   1      42.941  29.422  33.646  1.00  0.00     0.074 A 
ATOM     60  C   UNL A   1      43.081  30.042  34.947  1.00  0.00     0.031 C 
ATOM     61  C   UNL A   1      43.899  28.665  33.060  1.00  0.00     0.034 A 
BRANCH  48  62
ATOM     62  C   UNL A   1      42.269  26.333  27.577  1.00  0.00     0.023 A 
ATOM     63  C   UNL A   1      43.014  26.920  26.533  1.00  0.00     0.012 A 
ATOM     64  C   UNL A   1      41.955  24.961  27.514  1.00  0.00     0.148 A 
ATOM     65  C   UNL A   1      43.412  26.165  25.431  1.00  0.00     0.002 A 
ATOM     66  C   UNL A   1      42.396  24.205  26.434  1.00  0.00     0.091 A 
ATOM     67  F   UNL A   1      41.233  24.425  28.509  1.00  0.00    -0.205 F 
ATOM     68  C   UNL A   1      43.113  24.807  25.388  1.00  0.00     0.022 A 
BRANCH  66  69
ATOM     69  S   UNL A   1      42.133  22.431  26.315  1.00  0.00     0.127 S 
ATOM     70  O   UNL A   1      40.675  22.354  26.235  1.00  0.00    -0.237 OA
ATOM     71  O   UNL A   1      42.830  22.102  25.072  1.00  0.00    -0.237 OA
ATOM     72  O   UNL A   1      42.721  21.854  27.517  1.00  0.00    -0.744 OA
ENDBRANCH  66  69
ENDBRANCH  48  62
BRANCH  49  73
ATOM     73  C   UNL A   1      39.336  31.955  35.310  1.00  0.00     0.023 A 
ATOM     74  C   UNL A   1      38.444  31.380  36.238  1.00  0.00     0.012 A 
ATOM     75  C   UNL A   1      39.785  33.272  35.519  1.00  0.00     0.148 A 
ATOM     76  C   UNL A   1      37.971  32.117  37.324  1.00  0.00     0.002 A 
ATOM     77  C   UNL A   1      39.354  33.982  36.635  1.00  0.00     0.091 A 
ATOM     78  F   UNL A   1      40.623  33.810  34.621  1.00  0.00    -0.205 F 
ATOM     79  C   UNL A   1      38.431  33.416  37.526  1.00  0.00     0.022 A 
BRANCH  77  80
ATOM     80  S   UNL A   1      40.001  35.610  37.037  1.00  0.00     0.127 S 
ATOM     81  O   UNL A   1      39.307  35.906  38.287  1.00  0.00    -0.237 OA
ATOM     82  O   UNL A   1      41.434  35.344  37.177  1.00  0.00    -0.237 OA
ATOM     83  O   UNL A   1      39.659  36.452  35.900  1.00  0.00    -0.744 OA
ENDBRANCH  77  80
ENDBRANCH  49  73
BRANCH  61  84
ATOM     84  C   UNL A   1      45.213  28.515  33.779  1.00  0.00     0.023 A 
ATOM     85  C   UNL A   1      46.254  29.435  33.544  1.00  0.00     0.012 A 
ATOM     86  C   UNL A   1      45.389  27.500  34.739  1.00  0.00     0.148 A 
ATOM     87  C   UNL A   1      47.463  29.324  34.230  1.00  0.00     0.002 A 
ATOM     88  C   UNL A   1      46.577  27.426  35.454  1.00  0.00     0.091 A 
ATOM     89  F   UNL A   1      44.393  26.622  34.934  1.00  0.00    -0.205 F 
ATOM     90  C   UNL A   1      47.620  28.329  35.192  1.00  0.00     0.022 A 
BRANCH  88  91
ATOM     91  S   UNL A   1      46.826  26.239  36.778  1.00  0.00     0.127 S 
ATOM     92  O   UNL A   1      48.194  26.540  37.197  1.00  0.00    -0.237 OA
ATOM     93  O   UNL A   1      45.795  26.626  37.743  1.00  0.00    -0.237 OA
ATOM     94  O   UNL A   1      46.625  24.926  36.181  1.00  0.00    -0.744 OA
ENDBRANCH  88  91
ENDBRANCH  61  84
ENDBRANCH  35  36
ENDBRANCH  27  30
ENDBRANCH  25  26
ENDBRANCH  24  25
ENDBRANCH  23  24
ENDBRANCH   1  23
TORSDOF 19
ENDMDL
MODEL 3
REMARK VINA RESULT:     -10.7      3.185      4.180
REMARK SMILES O=C(C[C@H]1CN(c2nc(C3CC3)ns2)CCO1)NCCCCCCNC(=O)c1ccc(-c2c3nc(c(-c4cccc(S(=O)(=O)[O-])c4F)c4ccc([nH]4)c(-c4cccc(S(=O)(=O)[O-])c4F)c4nc(c(-c5cccc(S(=O)(=O)[O-])c5F)c5ccc2[nH]5)C=C4)C=C3)cc1
REMARK SMILES IDX 21 1 20 2 19 3 18 4 1 5 2 6 3 8 4 9 5 10 17 11 6 12 16 13
REMARK SMILES IDX 15 14 7 15 8 16 14 17 9 18 13 19 10 20 11 21 12 22 22 23
REMARK SMILES IDX 23 24 24 25 25 26 26 27 27 29 28 30 29 31 90 32 30 33 89 34
REMARK SMILES IDX 31 35 32 36 33 37 83 38 34 39 88 40 82 41 84 42 35 43 87 44
REMARK SMILES IDX 81 45 80 46 36 48 68 49 48 50 67 51 49 52 52 53 66 54 85 55
REMARK SMILES IDX 50 56 51 57 65 59 86 60 53 61 37 62 38 63 46 64 39 65 41 66
REMARK SMILES IDX 47 67 40 68 42 69 43 70 44 71 45 72 69 73 70 74 78 75 71 76
REMARK SMILES IDX 73 77 79 78 72 79 74 80 75 81 76 82 77 83 54 84 55 85 63 86
REMARK SMILES IDX 56 87 58 88 64 89 57 90 59 91 60 92 61 93 62 94
REMARK H PARENT 18 7 25 28 84 47 52 58
REMARK Flexibility Score: inf
ROOT
ATOM      1  C   UNL A   1      32.036  29.609  25.662  1.00  0.00     0.002 C 
ENDROOT
BRANCH   1   2
ATOM      2  C   UNL A   1      31.045  29.276  24.541  1.00  0.00     0.021 C 
BRANCH   2   3
ATOM      3  C   UNL A   1      31.668  28.866  23.212  1.00  0.00     0.116 C 
BRANCH   3   4
ATOM      4  N   UNL A   1      31.763  27.432  23.032  1.00  0.00    -0.356 N 
ATOM      5  O   UNL A   1      33.998  27.248  23.549  1.00  0.00    -0.275 OA
ATOM      6  C   UNL A   1      32.903  26.731  23.346  1.00  0.00     0.222 C 
ATOM      7  H   UNL A   1      30.986  26.944  22.674  1.00  0.00     0.163 HD
BRANCH   6   8
ATOM      8  C   UNL A   1      32.734  25.227  23.366  1.00  0.00     0.133 C 
BRANCH   8   9
ATOM      9  C   UNL A   1      31.414  24.689  23.942  1.00  0.00     0.147 C 
ATOM     10  C   UNL A   1      31.226  23.162  23.966  1.00  0.00     0.151 C 
ATOM     11  O   UNL A   1      31.056  25.308  25.200  1.00  0.00    -0.374 OA
ATOM     12  N   UNL A   1      31.847  22.574  25.149  1.00  0.00    -0.342 N 
ATOM     13  C   UNL A   1      31.657  24.701  26.349  1.00  0.00     0.182 C 
ATOM     14  C   UNL A   1      31.472  23.174  26.420  1.00  0.00     0.147 C 
BRANCH  12  15
ATOM     15  C   UNL A   1      32.607  21.454  25.015  1.00  0.00     0.205 A 
ATOM     16  N   UNL A   1      32.111  20.265  24.747  1.00  0.00    -0.203 NA
ATOM     17  S   UNL A   1      34.334  21.364  25.140  1.00  0.00     0.004 S 
ATOM     18  C   UNL A   1      33.135  19.346  24.584  1.00  0.00     0.147 A 
ATOM     19  N   UNL A   1      34.390  19.731  24.816  1.00  0.00    -0.174 NA
BRANCH  18  20
ATOM     20  C   UNL A   1      32.852  17.909  24.137  1.00  0.00     0.059 C 
ATOM     21  C   UNL A   1      32.884  17.567  22.659  1.00  0.00     0.012 C 
ATOM     22  C   UNL A   1      33.974  17.077  23.547  1.00  0.00     0.012 C 
ENDBRANCH  18  20
ENDBRANCH  12  15
ENDBRANCH   8   9
ENDBRANCH   6   8
ENDBRANCH   3   4
ENDBRANCH   2   3
ENDBRANCH   1   2
BRANCH   1  23
ATOM     23  C   UNL A   1      31.468  30.370  26.862  1.00  0.00     0.002 C 
BRANCH  23  24
ATOM     24  C   UNL A   1      31.355  31.887  26.713  1.00  0.00     0.021 C 
BRANCH  24  25
ATOM     25  C   UNL A   1      32.652  32.669  26.893  1.00  0.00     0.116 C 
BRANCH  25  26
ATOM     26  N   UNL A   1      32.470  33.939  27.579  1.00  0.00    -0.352 N 
ATOM     27  C   UNL A   1      33.181  34.466  28.630  1.00  0.00     0.251 C 
ATOM     28  H   UNL A   1      31.734  34.501  27.242  1.00  0.00     0.163 HD
ATOM     29  O   UNL A   1      32.818  35.523  29.142  1.00  0.00    -0.269 OA
BRANCH  27  30
ATOM     30  C   UNL A   1      34.362  33.748  29.162  1.00  0.00     0.039 A 
ATOM     31  C   UNL A   1      35.635  34.276  28.926  1.00  0.00     0.014 A 
ATOM     32  C   UNL A   1      34.220  32.564  29.889  1.00  0.00     0.014 A 
ATOM     33  C   UNL A   1      36.759  33.643  29.464  1.00  0.00     0.010 A 
ATOM     34  C   UNL A   1      35.332  31.983  30.491  1.00  0.00     0.010 A 
ATOM     35  C   UNL A   1      36.615  32.504  30.273  1.00  0.00    -0.014 A 
BRANCH  35  36
ATOM     36  C   UNL A   1      37.793  31.824  30.871  1.00  0.00     0.031 A 
ATOM     37  C   UNL A   1      38.202  32.143  32.287  1.00  0.00     0.074 A 
ATOM     38  C   UNL A   1      38.536  30.981  30.126  1.00  0.00     0.049 A 
ATOM     39  N   UNL A   1      39.240  31.721  32.961  1.00  0.00    -0.248 NA
ATOM     40  C   UNL A   1      37.349  33.084  33.032  1.00  0.00     0.031 C 
ATOM     41  C   UNL A   1      38.293  30.652  28.720  1.00  0.00     0.029 A 
ATOM     42  N   UNL A   1      39.667  30.269  30.440  1.00  0.00    -0.354 N 
ATOM     43  C   UNL A   1      39.181  32.365  34.192  1.00  0.00     0.074 A 
ATOM     44  C   UNL A   1      38.033  33.244  34.155  1.00  0.00     0.031 C 
ATOM     45  C   UNL A   1      39.246  29.806  28.293  1.00  0.00     0.029 A 
ATOM     46  C   UNL A   1      40.180  29.551  29.384  1.00  0.00     0.049 A 
ATOM     47  H   UNL A   1      40.073  30.273  31.337  1.00  0.00     0.167 HD
ATOM     48  C   UNL A   1      39.982  32.211  35.273  1.00  0.00     0.034 A 
ATOM     49  C   UNL A   1      41.282  28.779  29.305  1.00  0.00     0.034 A 
ATOM     50  C   UNL A   1      41.093  31.300  35.324  1.00  0.00     0.049 A 
ATOM     51  C   UNL A   1      42.121  28.579  30.540  1.00  0.00     0.074 A 
ATOM     52  C   UNL A   1      41.939  31.033  36.387  1.00  0.00     0.029 A 
ATOM     53  N   UNL A   1      41.504  30.496  34.274  1.00  0.00    -0.354 N 
ATOM     54  N   UNL A   1      41.969  29.098  31.735  1.00  0.00    -0.248 NA
ATOM     55  C   UNL A   1      43.256  27.651  30.432  1.00  0.00     0.031 C 
ATOM     56  C   UNL A   1      42.863  30.066  35.976  1.00  0.00     0.029 A 
ATOM     57  C   UNL A   1      42.578  29.718  34.666  1.00  0.00     0.049 A 
ATOM     58  H   UNL A   1      41.092  30.481  33.379  1.00  0.00     0.167 HD
ATOM     59  C   UNL A   1      42.955  28.523  32.530  1.00  0.00     0.074 A 
ATOM     60  C   UNL A   1      43.687  27.602  31.685  1.00  0.00     0.031 C 
ATOM     61  C   UNL A   1      43.241  28.748  33.834  1.00  0.00     0.034 A 
BRANCH  48  62
ATOM     62  C   UNL A   1      39.637  32.987  36.517  1.00  0.00     0.023 A 
ATOM     63  C   UNL A   1      40.176  34.279  36.692  1.00  0.00     0.012 A 
ATOM     64  C   UNL A   1      38.736  32.479  37.474  1.00  0.00     0.148 A 
ATOM     65  C   UNL A   1      39.852  35.039  37.814  1.00  0.00     0.002 A 
ATOM     66  C   UNL A   1      38.382  33.262  38.567  1.00  0.00     0.091 A 
ATOM     67  F   UNL A   1      38.247  31.243  37.298  1.00  0.00    -0.205 F 
ATOM     68  C   UNL A   1      38.947  34.536  38.744  1.00  0.00     0.022 A 
BRANCH  66  69
ATOM     69  S   UNL A   1      37.167  32.744  39.784  1.00  0.00     0.127 S 
ATOM     70  O   UNL A   1      35.964  32.612  38.962  1.00  0.00    -0.237 OA
ATOM     71  O   UNL A   1      37.725  31.478  40.254  1.00  0.00    -0.237 OA
ATOM     72  O   UNL A   1      37.122  33.802  40.785  1.00  0.00    -0.744 OA
ENDBRANCH  66  69
ENDBRANCH  48  62
BRANCH  49  73
ATOM     73  C   UNL A   1      41.622  28.076  28.035  1.00  0.00     0.023 A 
ATOM     74  C   UNL A   1      42.111  28.817  26.941  1.00  0.00     0.012 A 
ATOM     75  C   UNL A   1      41.459  26.684  27.900  1.00  0.00     0.148 A 
ATOM     76  C   UNL A   1      42.386  28.195  25.723  1.00  0.00     0.002 A 
ATOM     77  C   UNL A   1      41.789  26.062  26.700  1.00  0.00     0.091 A 
ATOM     78  F   UNL A   1      40.980  25.994  28.944  1.00  0.00    -0.205 F 
ATOM     79  C   UNL A   1      42.232  26.816  25.605  1.00  0.00     0.022 A 
BRANCH  77  80
ATOM     80  S   UNL A   1      41.743  24.275  26.510  1.00  0.00     0.127 S 
ATOM     81  O   UNL A   1      42.432  23.828  27.717  1.00  0.00    -0.237 OA
ATOM     82  O   UNL A   1      40.304  24.006  26.486  1.00  0.00    -0.237 OA
ATOM     83  O   UNL A   1      42.421  24.005  25.249  1.00  0.00    -0.744 OA
ENDBRANCH  77  80
ENDBRANCH  49  73
BRANCH  61  84
ATOM     84  C   UNL A   1      44.347  27.940  34.459  1.00  0.00     0.023 A 
ATOM     85  C   UNL A   1      45.668  28.431  34.456  1.00  0.00     0.012 A 
ATOM     86  C   UNL A   1      44.061  26.724  35.109  1.00  0.00     0.148 A 
ATOM     87  C   UNL A   1      46.693  27.706  35.062  1.00  0.00     0.002 A 
ATOM     88  C   UNL A   1      45.079  26.031  35.754  1.00  0.00     0.091 A 
ATOM     89  F   UNL A   1      42.802  26.263  35.083  1.00  0.00    -0.205 F 
ATOM     90  C   UNL A   1      46.397  26.514  35.720  1.00  0.00     0.022 A 
BRANCH  88  91
ATOM     91  S   UNL A   1      44.769  24.541  36.707  1.00  0.00     0.127 S 
ATOM     92  O   UNL A   1      44.316  23.614  35.672  1.00  0.00    -0.237 OA
ATOM     93  O   UNL A   1      46.092  24.242  37.258  1.00  0.00    -0.237 OA
ATOM     94  O   UNL A   1      43.772  24.906  37.705  1.00  0.00    -0.744 OA
ENDBRANCH  88  91
ENDBRANCH  61  84
ENDBRANCH  35  36
ENDBRANCH  27  30
ENDBRANCH  25  26
ENDBRANCH  24  25
ENDBRANCH  23  24
ENDBRANCH   1  23
TORSDOF 19
ENDMDL
