MODEL 1
REMARK VINA RESULT:     -10.5      0.000      0.000
REMARK SMILES C=CCN(CC(=O)NCCCCCCNC(=O)c1ccc(-c2c3nc(c(-c4cccc(S(=O)(=O)[O-])c4F)c4ccc([nH]4)c(-c4cccc(S(=O)(=O)[O-])c4F)c4nc(c(-c5cccc(S(=O)(=O)[O-])c5F)c5ccc2[nH]5)C=C4)C=C3)cc1)C(=O)c1cn(C2C[NH2+]C2)nn1
REMARK SMILES IDX 11 1 10 2 9 3 8 4 6 5 7 6 5 8 4 9 3 10 2 11 1 12 81 13 82 14
REMARK SMILES IDX 83 15 84 16 91 17 85 18 90 19 86 20 87 21 89 22 88 23 12 26
REMARK SMILES IDX 13 27 14 28 15 29 16 30 17 32 18 33 19 34 80 35 20 36 79 37
REMARK SMILES IDX 21 38 22 39 23 40 73 41 24 42 78 43 72 44 74 45 25 46 77 47
REMARK SMILES IDX 71 48 70 49 26 51 58 52 38 53 57 54 39 55 42 56 56 57 75 58
REMARK SMILES IDX 40 59 41 60 55 62 76 63 43 64 27 65 28 66 36 67 29 68 31 69
REMARK SMILES IDX 37 70 30 71 32 72 33 73 34 74 35 75 59 76 60 77 68 78 61 79
REMARK SMILES IDX 63 80 69 81 62 82 64 83 65 84 66 85 67 86 44 87 45 88 53 89
REMARK SMILES IDX 46 90 48 91 54 92 47 93 49 94 50 95 51 96 52 97
REMARK H PARENT 8 7 88 24 88 25 15 31 74 50 42 61
REMARK Flexibility Score: inf
ROOT
ATOM      1  C   UNL A   1      31.489  26.755  26.946  1.00  0.00     0.002 C 
ENDROOT
BRANCH   1   2
ATOM      2  C   UNL A   1      30.604  26.176  25.834  1.00  0.00     0.021 C 
BRANCH   2   3
ATOM      3  C   UNL A   1      30.600  24.651  25.735  1.00  0.00     0.116 C 
BRANCH   3   4
ATOM      4  N   UNL A   1      31.135  23.999  26.912  1.00  0.00    -0.355 N 
ATOM      5  C   UNL A   1      31.904  22.878  27.020  1.00  0.00     0.239 C 
ATOM      6  O   UNL A   1      32.463  22.682  28.105  1.00  0.00    -0.273 OA
ATOM      7  H   UNL A   1      30.910  24.432  27.767  1.00  0.00     0.163 HD
BRANCH   5   8
ATOM      8  C   UNL A   1      32.181  21.942  25.828  1.00  0.00     0.220 C 
BRANCH   8   9
ATOM      9  N   UNL A   1      33.594  21.699  25.511  1.00  0.00    -0.324 N 
BRANCH   9  10
ATOM     10  C   UNL A   1      33.985  20.363  25.083  1.00  0.00     0.147 C 
BRANCH  10  11
ATOM     11  C   UNL A   1      32.774  19.488  24.963  1.00  0.00    -0.014 C 
ATOM     12  C   UNL A   1      32.559  18.671  23.923  1.00  0.00     0.006 C 
ENDBRANCH  10  11
ENDBRANCH   9  10
BRANCH   9  13
ATOM     13  C   UNL A   1      34.551  22.719  25.443  1.00  0.00     0.276 C 
ATOM     14  O   UNL A   1      35.658  22.625  25.983  1.00  0.00    -0.267 OA
BRANCH  13  15
ATOM     15  C   UNL A   1      34.197  23.928  24.718  1.00  0.00     0.170 A 
ATOM     16  C   UNL A   1      33.716  24.035  23.429  1.00  0.00     0.145 A 
ATOM     17  N   UNL A   1      34.294  25.184  25.264  1.00  0.00    -0.125 NA
ATOM     18  N   UNL A   1      33.593  25.382  23.230  1.00  0.00    -0.237 N 
ATOM     19  N   UNL A   1      33.916  26.064  24.346  1.00  0.00    -0.066 NA
BRANCH  18  20
ATOM     20  C   UNL A   1      33.208  26.070  22.035  1.00  0.00     0.218 C 
ATOM     21  C   UNL A   1      32.904  25.115  20.856  1.00  0.00     0.294 C 
ATOM     22  C   UNL A   1      31.707  26.411  21.922  1.00  0.00     0.294 C 
ATOM     23  N   UNL A   1      31.751  25.980  20.504  1.00  0.00    -0.342 N 
ATOM     24  H   UNL A   1      30.923  25.473  20.190  1.00  0.00     0.346 HD
ATOM     25  H   UNL A   1      31.806  26.657  19.743  1.00  0.00     0.346 HD
ENDBRANCH  18  20
ENDBRANCH  13  15
ENDBRANCH   9  13
ENDBRANCH   8   9
ENDBRANCH   5   8
ENDBRANCH   3   4
ENDBRANCH   2   3
ENDBRANCH   1   2
BRANCH   1  26
ATOM     26  C   UNL A   1      31.521  28.284  27.053  1.00  0.00     0.002 C 
BRANCH  26  27
ATOM     27  C   UNL A   1      31.669  29.047  25.733  1.00  0.00     0.021 C 
BRANCH  27  28
ATOM     28  C   UNL A   1      32.882  29.969  25.637  1.00  0.00     0.116 C 
BRANCH  28  29
ATOM     29  N   UNL A   1      32.605  31.305  26.139  1.00  0.00    -0.352 N 
ATOM     30  C   UNL A   1      33.211  32.007  27.153  1.00  0.00     0.251 C 
ATOM     31  H   UNL A   1      31.871  31.778  25.684  1.00  0.00     0.163 HD
ATOM     32  O   UNL A   1      32.715  33.065  27.535  1.00  0.00    -0.269 OA
BRANCH  30  33
ATOM     33  C   UNL A   1      34.441  31.495  27.803  1.00  0.00     0.039 A 
ATOM     34  C   UNL A   1      35.524  32.365  27.970  1.00  0.00     0.014 A 
ATOM     35  C   UNL A   1      34.552  30.163  28.210  1.00  0.00     0.014 A 
ATOM     36  C   UNL A   1      36.694  31.916  28.593  1.00  0.00     0.010 A 
ATOM     37  C   UNL A   1      35.697  29.731  28.881  1.00  0.00     0.010 A 
ATOM     38  C   UNL A   1      36.780  30.600  29.075  1.00  0.00    -0.014 A 
BRANCH  38  39
ATOM     39  C   UNL A   1      37.991  30.123  29.795  1.00  0.00     0.031 A 
ATOM     40  C   UNL A   1      38.294  30.611  31.186  1.00  0.00     0.074 A 
ATOM     41  C   UNL A   1      38.864  29.314  29.164  1.00  0.00     0.049 A 
ATOM     42  N   UNL A   1      39.325  30.343  31.947  1.00  0.00    -0.248 NA
ATOM     43  C   UNL A   1      37.327  31.541  31.793  1.00  0.00     0.031 C 
ATOM     44  C   UNL A   1      38.727  28.832  27.788  1.00  0.00     0.029 A 
ATOM     45  N   UNL A   1      40.055  28.776  29.587  1.00  0.00    -0.354 N 
ATOM     46  C   UNL A   1      39.148  31.091  33.104  1.00  0.00     0.074 A 
ATOM     47  C   UNL A   1      37.925  31.846  32.935  1.00  0.00     0.031 C 
ATOM     48  C   UNL A   1      39.789  28.070  27.481  1.00  0.00     0.029 A 
ATOM     49  C   UNL A   1      40.691  28.021  28.628  1.00  0.00     0.049 A 
ATOM     50  H   UNL A   1      40.417  28.916  30.491  1.00  0.00     0.167 HD
ATOM     51  C   UNL A   1      39.916  31.125  34.219  1.00  0.00     0.034 A 
ATOM     52  C   UNL A   1      41.866  27.362  28.669  1.00  0.00     0.034 A 
ATOM     53  C   UNL A   1      41.100  30.331  34.412  1.00  0.00     0.049 A 
ATOM     54  C   UNL A   1      42.667  27.365  29.943  1.00  0.00     0.074 A 
ATOM     55  C   UNL A   1      41.894  30.230  35.541  1.00  0.00     0.029 A 
ATOM     56  N   UNL A   1      41.658  29.498  33.456  1.00  0.00    -0.354 N 
ATOM     57  N   UNL A   1      42.397  27.951  31.084  1.00  0.00    -0.248 NA
ATOM     58  C   UNL A   1      43.912  26.583  29.948  1.00  0.00     0.031 C 
ATOM     59  C   UNL A   1      42.934  29.334  35.266  1.00  0.00     0.029 A 
ATOM     60  C   UNL A   1      42.785  28.877  33.967  1.00  0.00     0.049 A 
ATOM     61  H   UNL A   1      41.304  29.365  32.547  1.00  0.00     0.167 HD
ATOM     62  C   UNL A   1      43.420  27.585  31.951  1.00  0.00     0.074 A 
ATOM     63  C   UNL A   1      44.303  26.708  31.210  1.00  0.00     0.031 C 
ATOM     64  C   UNL A   1      43.620  27.957  33.239  1.00  0.00     0.034 A 
BRANCH  51  65
ATOM     65  C   UNL A   1      39.455  31.998  35.356  1.00  0.00     0.023 A 
ATOM     66  C   UNL A   1      38.600  31.452  36.335  1.00  0.00     0.012 A 
ATOM     67  C   UNL A   1      39.906  33.324  35.493  1.00  0.00     0.148 A 
ATOM     68  C   UNL A   1      38.176  32.222  37.417  1.00  0.00     0.002 A 
ATOM     69  C   UNL A   1      39.509  34.074  36.595  1.00  0.00     0.091 A 
ATOM     70  F   UNL A   1      40.699  33.834  34.540  1.00  0.00    -0.205 F 
ATOM     71  C   UNL A   1      38.639  33.528  37.553  1.00  0.00     0.022 A 
BRANCH  69  72
ATOM     72  S   UNL A   1      40.108  35.743  36.889  1.00  0.00     0.127 S 
ATOM     73  O   UNL A   1      39.599  36.450  35.715  1.00  0.00    -0.237 OA
ATOM     74  O   UNL A   1      39.448  36.096  38.146  1.00  0.00    -0.237 OA
ATOM     75  O   UNL A   1      41.557  35.632  36.981  1.00  0.00    -0.744 OA
ENDBRANCH  69  72
ENDBRANCH  51  65
BRANCH  52  76
ATOM     76  C   UNL A   1      42.306  26.565  27.491  1.00  0.00     0.023 A 
ATOM     77  C   UNL A   1      43.093  27.185  26.500  1.00  0.00     0.012 A 
ATOM     78  C   UNL A   1      41.994  25.198  27.364  1.00  0.00     0.148 A 
ATOM     79  C   UNL A   1      43.540  26.466  25.392  1.00  0.00     0.002 A 
ATOM     80  C   UNL A   1      42.487  24.474  26.283  1.00  0.00     0.091 A 
ATOM     81  F   UNL A   1      41.229  24.628  28.305  1.00  0.00    -0.205 F 
ATOM     82  C   UNL A   1      43.248  25.108  25.290  1.00  0.00     0.022 A 
BRANCH  80  83
ATOM     83  S   UNL A   1      42.266  22.695  26.152  1.00  0.00     0.127 S 
ATOM     84  O   UNL A   1      42.855  22.414  24.846  1.00  0.00    -0.237 OA
ATOM     85  O   UNL A   1      43.037  22.201  27.294  1.00  0.00    -0.237 OA
ATOM     86  O   UNL A   1      40.830  22.477  26.269  1.00  0.00    -0.744 OA
ENDBRANCH  80  83
ENDBRANCH  52  76
BRANCH  64  87
ATOM     87  C   UNL A   1      44.831  27.407  33.945  1.00  0.00     0.023 A 
ATOM     88  C   UNL A   1      46.040  28.128  33.907  1.00  0.00     0.012 A 
ATOM     89  C   UNL A   1      44.752  26.223  34.705  1.00  0.00     0.148 A 
ATOM     90  C   UNL A   1      47.161  27.666  34.597  1.00  0.00     0.002 A 
ATOM     91  C   UNL A   1      45.862  25.791  35.420  1.00  0.00     0.091 A 
ATOM     92  F   UNL A   1      43.600  25.537  34.708  1.00  0.00    -0.205 F 
ATOM     93  C   UNL A   1      47.069  26.506  35.362  1.00  0.00     0.022 A 
BRANCH  91  94
ATOM     94  S   UNL A   1      45.796  24.352  36.496  1.00  0.00     0.127 S 
ATOM     95  O   UNL A   1      45.397  23.299  35.564  1.00  0.00    -0.237 OA
ATOM     96  O   UNL A   1      47.176  24.250  36.975  1.00  0.00    -0.237 OA
ATOM     97  O   UNL A   1      44.827  24.682  37.531  1.00  0.00    -0.744 OA
ENDBRANCH  91  94
ENDBRANCH  64  87
ENDBRANCH  38  39
ENDBRANCH  30  33
ENDBRANCH  28  29
ENDBRANCH  27  28
ENDBRANCH  26  27
ENDBRANCH   1  26
TORSDOF 22
ENDMDL
MODEL 2
REMARK VINA RESULT:     -10.4      1.822      8.006
REMARK SMILES C=CCN(CC(=O)NCCCCCCNC(=O)c1ccc(-c2c3nc(c(-c4cccc(S(=O)(=O)[O-])c4F)c4ccc([nH]4)c(-c4cccc(S(=O)(=O)[O-])c4F)c4nc(c(-c5cccc(S(=O)(=O)[O-])c5F)c5ccc2[nH]5)C=C4)C=C3)cc1)C(=O)c1cn(C2C[NH2+]C2)nn1
REMARK SMILES IDX 11 1 10 2 9 3 8 4 6 5 7 6 5 8 4 9 3 10 2 11 1 12 81 13 82 14
REMARK SMILES IDX 83 15 84 16 91 17 85 18 90 19 86 20 87 21 89 22 88 23 12 26
REMARK SMILES IDX 13 27 14 28 15 29 16 30 17 32 18 33 19 34 80 35 20 36 79 37
REMARK SMILES IDX 21 38 22 39 23 40 73 41 24 42 78 43 72 44 74 45 25 46 77 47
REMARK SMILES IDX 71 48 70 49 26 51 58 52 38 53 57 54 39 55 42 56 56 57 75 58
REMARK SMILES IDX 40 59 41 60 55 62 76 63 43 64 27 65 28 66 36 67 29 68 31 69
REMARK SMILES IDX 37 70 30 71 32 72 33 73 34 74 35 75 59 76 60 77 68 78 61 79
REMARK SMILES IDX 63 80 69 81 62 82 64 83 65 84 66 85 67 86 44 87 45 88 53 89
REMARK SMILES IDX 46 90 48 91 54 92 47 93 49 94 50 95 51 96 52 97
REMARK H PARENT 8 7 88 24 88 25 15 31 74 50 42 61
REMARK Flexibility Score: inf
ROOT
ATOM      1  C   UNL A   1      30.710  27.209  23.108  1.00  0.00     0.002 C 
ENDROOT
BRANCH   1   2
ATOM      2  C   UNL A   1      29.950  26.560  24.273  1.00  0.00     0.021 C 
BRANCH   2   3
ATOM      3  C   UNL A   1      30.671  26.599  25.620  1.00  0.00     0.116 C 
BRANCH   3   4
ATOM      4  N   UNL A   1      30.702  25.316  26.291  1.00  0.00    -0.355 N 
ATOM      5  C   UNL A   1      31.762  24.524  26.620  1.00  0.00     0.239 C 
ATOM      6  O   UNL A   1      31.555  23.616  27.433  1.00  0.00    -0.273 OA
ATOM      7  H   UNL A   1      29.821  24.962  26.552  1.00  0.00     0.163 HD
BRANCH   5   8
ATOM      8  C   UNL A   1      33.191  24.797  26.113  1.00  0.00     0.220 C 
BRANCH   8   9
ATOM      9  N   UNL A   1      33.799  23.742  25.292  1.00  0.00    -0.324 N 
BRANCH   9  10
ATOM     10  C   UNL A   1      33.802  23.909  23.846  1.00  0.00     0.147 C 
BRANCH  10  11
ATOM     11  C   UNL A   1      32.396  23.928  23.327  1.00  0.00    -0.014 C 
ATOM     12  C   UNL A   1      31.681  22.818  23.103  1.00  0.00     0.006 C 
ENDBRANCH  10  11
ENDBRANCH   9  10
BRANCH   9  13
ATOM     13  C   UNL A   1      34.516  22.667  25.833  1.00  0.00     0.276 C 
ATOM     14  O   UNL A   1      35.523  22.828  26.529  1.00  0.00    -0.267 OA
BRANCH  13  15
ATOM     15  C   UNL A   1      34.045  21.325  25.535  1.00  0.00     0.170 A 
ATOM     16  C   UNL A   1      34.759  20.275  24.995  1.00  0.00     0.145 A 
ATOM     17  N   UNL A   1      32.758  20.912  25.777  1.00  0.00    -0.125 NA
ATOM     18  N   UNL A   1      33.839  19.269  24.883  1.00  0.00    -0.237 N 
ATOM     19  N   UNL A   1      32.647  19.651  25.380  1.00  0.00    -0.066 NA
BRANCH  18  20
ATOM     20  C   UNL A   1      34.013  17.969  24.310  1.00  0.00     0.218 C 
ATOM     21  C   UNL A   1      33.356  16.845  25.146  1.00  0.00     0.294 C 
ATOM     22  C   UNL A   1      32.959  17.565  23.256  1.00  0.00     0.294 C 
ATOM     23  N   UNL A   1      32.902  16.221  23.879  1.00  0.00    -0.342 N 
ATOM     24  H   UNL A   1      31.968  15.813  23.920  1.00  0.00     0.346 HD
ATOM     25  H   UNL A   1      33.392  15.424  23.472  1.00  0.00     0.346 HD
ENDBRANCH  18  20
ENDBRANCH  13  15
ENDBRANCH   9  13
ENDBRANCH   8   9
ENDBRANCH   5   8
ENDBRANCH   3   4
ENDBRANCH   2   3
ENDBRANCH   1   2
BRANCH   1  26
ATOM     26  C   UNL A   1      32.186  27.529  23.363  1.00  0.00     0.002 C 
BRANCH  26  27
ATOM     27  C   UNL A   1      32.522  29.002  23.615  1.00  0.00     0.021 C 
BRANCH  27  28
ATOM     28  C   UNL A   1      33.114  29.319  24.986  1.00  0.00     0.116 C 
BRANCH  28  29
ATOM     29  N   UNL A   1      32.482  30.471  25.610  1.00  0.00    -0.352 N 
ATOM     30  C   UNL A   1      32.820  31.143  26.759  1.00  0.00     0.251 C 
ATOM     31  H   UNL A   1      31.691  30.820  25.138  1.00  0.00     0.163 HD
ATOM     32  O   UNL A   1      32.055  31.993  27.208  1.00  0.00    -0.269 OA
BRANCH  30  33
ATOM     33  C   UNL A   1      34.086  30.844  27.472  1.00  0.00     0.039 A 
ATOM     34  C   UNL A   1      35.023  31.869  27.635  1.00  0.00     0.014 A 
ATOM     35  C   UNL A   1      34.372  29.560  27.943  1.00  0.00     0.014 A 
ATOM     36  C   UNL A   1      36.221  31.622  28.316  1.00  0.00     0.010 A 
ATOM     37  C   UNL A   1      35.541  29.327  28.670  1.00  0.00     0.010 A 
ATOM     38  C   UNL A   1      36.478  30.353  28.860  1.00  0.00    -0.014 A 
BRANCH  38  39
ATOM     39  C   UNL A   1      37.716  30.088  29.640  1.00  0.00     0.031 A 
ATOM     40  C   UNL A   1      38.785  29.183  29.091  1.00  0.00     0.074 A 
ATOM     41  C   UNL A   1      37.841  30.597  30.882  1.00  0.00     0.049 A 
ATOM     42  N   UNL A   1      39.906  28.799  29.648  1.00  0.00    -0.248 NA
ATOM     43  C   UNL A   1      38.556  28.614  27.754  1.00  0.00     0.031 C 
ATOM     44  C   UNL A   1      36.842  31.425  31.560  1.00  0.00     0.029 A 
ATOM     45  N   UNL A   1      38.850  30.470  31.805  1.00  0.00    -0.354 N 
ATOM     46  C   UNL A   1      40.498  27.922  28.748  1.00  0.00     0.074 A 
ATOM     47  C   UNL A   1      39.600  27.809  27.618  1.00  0.00     0.031 C 
ATOM     48  C   UNL A   1      37.287  31.732  32.789  1.00  0.00     0.029 A 
ATOM     49  C   UNL A   1      38.593  31.111  32.995  1.00  0.00     0.049 A 
ATOM     50  H   UNL A   1      39.678  29.968  31.632  1.00  0.00     0.167 HD
ATOM     51  C   UNL A   1      41.694  27.292  28.836  1.00  0.00     0.034 A 
ATOM     52  C   UNL A   1      39.327  31.193  34.123  1.00  0.00     0.034 A 
ATOM     53  C   UNL A   1      42.614  27.450  29.931  1.00  0.00     0.049 A 
ATOM     54  C   UNL A   1      40.680  30.537  34.169  1.00  0.00     0.074 A 
ATOM     55  C   UNL A   1      43.886  26.924  30.069  1.00  0.00     0.029 A 
ATOM     56  N   UNL A   1      42.362  28.193  31.074  1.00  0.00    -0.354 N 
ATOM     57  N   UNL A   1      41.292  29.845  33.239  1.00  0.00    -0.248 NA
ATOM     58  C   UNL A   1      41.459  30.706  35.404  1.00  0.00     0.031 C 
ATOM     59  C   UNL A   1      44.404  27.349  31.298  1.00  0.00     0.029 A 
ATOM     60  C   UNL A   1      43.455  28.142  31.922  1.00  0.00     0.049 A 
ATOM     61  H   UNL A   1      41.530  28.686  31.255  1.00  0.00     0.167 HD
ATOM     62  C   UNL A   1      42.538  29.523  33.762  1.00  0.00     0.074 A 
ATOM     63  C   UNL A   1      42.603  30.115  35.083  1.00  0.00     0.031 C 
ATOM     64  C   UNL A   1      43.532  28.787  33.206  1.00  0.00     0.034 A 
BRANCH  51  65
ATOM     65  C   UNL A   1      42.114  26.430  27.676  1.00  0.00     0.023 A 
ATOM     66  C   UNL A   1      42.899  26.995  26.651  1.00  0.00     0.012 A 
ATOM     67  C   UNL A   1      41.790  25.061  27.624  1.00  0.00     0.148 A 
ATOM     68  C   UNL A   1      43.331  26.220  25.577  1.00  0.00     0.002 A 
ATOM     69  C   UNL A   1      42.256  24.285  26.568  1.00  0.00     0.091 A 
ATOM     70  F   UNL A   1      41.023  24.546  28.595  1.00  0.00    -0.205 F 
ATOM     71  C   UNL A   1      43.019  24.863  25.541  1.00  0.00     0.022 A 
BRANCH  69  72
ATOM     72  S   UNL A   1      41.960  22.515  26.473  1.00  0.00     0.127 S 
ATOM     73  O   UNL A   1      42.653  22.166  25.234  1.00  0.00    -0.237 OA
ATOM     74  O   UNL A   1      42.606  22.023  27.690  1.00  0.00    -0.237 OA
ATOM     75  O   UNL A   1      40.513  22.356  26.453  1.00  0.00    -0.744 OA
ENDBRANCH  69  72
ENDBRANCH  51  65
BRANCH  52  76
ATOM     76  C   UNL A   1      38.832  32.009  35.266  1.00  0.00     0.023 A 
ATOM     77  C   UNL A   1      38.847  33.414  35.162  1.00  0.00     0.012 A 
ATOM     78  C   UNL A   1      38.310  31.413  36.430  1.00  0.00     0.148 A 
ATOM     79  C   UNL A   1      38.374  34.211  36.204  1.00  0.00     0.002 A 
ATOM     80  C   UNL A   1      37.792  32.213  37.444  1.00  0.00     0.091 A 
ATOM     81  F   UNL A   1      38.320  30.077  36.521  1.00  0.00    -0.205 F 
ATOM     82  C   UNL A   1      37.835  33.611  37.339  1.00  0.00     0.022 A 
BRANCH  80  83
ATOM     83  S   UNL A   1      36.961  31.512  38.874  1.00  0.00     0.127 S 
ATOM     84  O   UNL A   1      37.969  31.673  39.918  1.00  0.00    -0.237 OA
ATOM     85  O   UNL A   1      35.790  32.379  39.010  1.00  0.00    -0.237 OA
ATOM     86  O   UNL A   1      36.641  30.141  38.499  1.00  0.00    -0.744 OA
ENDBRANCH  80  83
ENDBRANCH  52  76
BRANCH  64  87
ATOM     87  C   UNL A   1      44.789  28.590  34.012  1.00  0.00     0.023 A 
ATOM     88  C   UNL A   1      45.852  29.503  33.869  1.00  0.00     0.012 A 
ATOM     89  C   UNL A   1      44.887  27.553  34.961  1.00  0.00     0.148 A 
ATOM     90  C   UNL A   1      47.005  29.373  34.643  1.00  0.00     0.002 A 
ATOM     91  C   UNL A   1      46.024  27.454  35.755  1.00  0.00     0.091 A 
ATOM     92  F   UNL A   1      43.876  26.679  35.064  1.00  0.00    -0.205 F 
ATOM     93  C   UNL A   1      47.087  28.357  35.592  1.00  0.00     0.022 A 
BRANCH  91  94
ATOM     94  S   UNL A   1      46.167  26.224  37.058  1.00  0.00     0.127 S 
ATOM     95  O   UNL A   1      45.024  26.554  37.908  1.00  0.00    -0.237 OA
ATOM     96  O   UNL A   1      46.035  24.965  36.322  1.00  0.00    -0.237 OA
ATOM     97  O   UNL A   1      47.480  26.435  37.651  1.00  0.00    -0.744 OA
ENDBRANCH  91  94
ENDBRANCH  64  87
ENDBRANCH  38  39
ENDBRANCH  30  33
ENDBRANCH  28  29
ENDBRANCH  27  28
ENDBRANCH  26  27
ENDBRANCH   1  26
TORSDOF 22
ENDMDL
MODEL 3
REMARK VINA RESULT:      -9.9      2.123      3.645
REMARK SMILES C=CCN(CC(=O)NCCCCCCNC(=O)c1ccc(-c2c3nc(c(-c4cccc(S(=O)(=O)[O-])c4F)c4ccc([nH]4)c(-c4cccc(S(=O)(=O)[O-])c4F)c4nc(c(-c5cccc(S(=O)(=O)[O-])c5F)c5ccc2[nH]5)C=C4)C=C3)cc1)C(=O)c1cn(C2C[NH2+]C2)nn1
REMARK SMILES IDX 11 1 10 2 9 3 8 4 6 5 7 6 5 8 4 9 3 10 2 11 1 12 81 13 82 14
REMARK SMILES IDX 83 15 84 16 91 17 85 18 90 19 86 20 87 21 89 22 88 23 12 26
REMARK SMILES IDX 13 27 14 28 15 29 16 30 17 32 18 33 19 34 80 35 20 36 79 37
REMARK SMILES IDX 21 38 22 39 23 40 73 41 24 42 78 43 72 44 74 45 25 46 77 47
REMARK SMILES IDX 71 48 70 49 26 51 58 52 38 53 57 54 39 55 42 56 56 57 75 58
REMARK SMILES IDX 40 59 41 60 55 62 76 63 43 64 27 65 28 66 36 67 29 68 31 69
REMARK SMILES IDX 37 70 30 71 32 72 33 73 34 74 35 75 59 76 60 77 68 78 61 79
REMARK SMILES IDX 63 80 69 81 62 82 64 83 65 84 66 85 67 86 44 87 45 88 53 89
REMARK SMILES IDX 46 90 48 91 54 92 47 93 49 94 50 95 51 96 52 97
REMARK H PARENT 8 7 88 24 88 25 15 31 74 50 42 61
REMARK Flexibility Score: inf
ROOT
ATOM      1  C   UNL A   1      31.766  27.350  23.706  1.00  0.00     0.002 C 
ENDROOT
BRANCH   1   2
ATOM      2  C   UNL A   1      30.773  27.674  24.830  1.00  0.00     0.021 C 
BRANCH   2   3
ATOM      3  C   UNL A   1      31.016  26.932  26.144  1.00  0.00     0.116 C 
BRANCH   3   4
ATOM      4  N   UNL A   1      30.453  25.598  26.163  1.00  0.00    -0.355 N 
ATOM      5  C   UNL A   1      31.057  24.395  26.380  1.00  0.00     0.239 C 
ATOM      6  O   UNL A   1      30.320  23.432  26.621  1.00  0.00    -0.273 OA
ATOM      7  H   UNL A   1      29.484  25.553  25.993  1.00  0.00     0.163 HD
BRANCH   5   8
ATOM      8  C   UNL A   1      32.588  24.234  26.449  1.00  0.00     0.220 C 
BRANCH   8   9
ATOM      9  N   UNL A   1      33.154  23.107  25.697  1.00  0.00    -0.324 N 
BRANCH   9  10
ATOM     10  C   UNL A   1      33.123  23.163  24.243  1.00  0.00     0.147 C 
BRANCH  10  11
ATOM     11  C   UNL A   1      34.322  23.905  23.732  1.00  0.00    -0.014 C 
ATOM     12  C   UNL A   1      35.467  23.301  23.387  1.00  0.00     0.006 C 
ENDBRANCH  10  11
ENDBRANCH   9  10
BRANCH   9  13
ATOM     13  C   UNL A   1      33.866  22.063  26.302  1.00  0.00     0.276 C 
ATOM     14  O   UNL A   1      34.529  22.224  27.331  1.00  0.00    -0.267 OA
BRANCH  13  15
ATOM     15  C   UNL A   1      33.818  20.758  25.665  1.00  0.00     0.170 A 
ATOM     16  C   UNL A   1      32.736  19.909  25.549  1.00  0.00     0.145 A 
ATOM     17  N   UNL A   1      34.904  20.181  25.056  1.00  0.00    -0.125 NA
ATOM     18  N   UNL A   1      33.241  18.811  24.910  1.00  0.00    -0.237 N 
ATOM     19  N   UNL A   1      34.538  18.994  24.592  1.00  0.00    -0.066 NA
BRANCH  18  20
ATOM     20  C   UNL A   1      32.576  17.582  24.599  1.00  0.00     0.218 C 
ATOM     21  C   UNL A   1      33.492  16.560  23.884  1.00  0.00     0.294 C 
ATOM     22  C   UNL A   1      32.570  16.529  25.728  1.00  0.00     0.294 C 
ATOM     23  N   UNL A   1      32.884  15.492  24.715  1.00  0.00    -0.342 N 
ATOM     24  H   UNL A   1      33.539  14.777  25.031  1.00  0.00     0.346 HD
ATOM     25  H   UNL A   1      32.161  14.875  24.344  1.00  0.00     0.346 HD
ENDBRANCH  18  20
ENDBRANCH  13  15
ENDBRANCH   9  13
ENDBRANCH   8   9
ENDBRANCH   5   8
ENDBRANCH   3   4
ENDBRANCH   2   3
ENDBRANCH   1   2
BRANCH   1  26
ATOM     26  C   UNL A   1      33.251  27.467  24.066  1.00  0.00     0.002 C 
BRANCH  26  27
ATOM     27  C   UNL A   1      33.722  28.845  24.543  1.00  0.00     0.021 C 
BRANCH  27  28
ATOM     28  C   UNL A   1      34.110  28.936  26.016  1.00  0.00     0.116 C 
BRANCH  28  29
ATOM     29  N   UNL A   1      33.838  30.248  26.581  1.00  0.00    -0.352 N 
ATOM     30  C   UNL A   1      34.485  30.922  27.589  1.00  0.00     0.251 C 
ATOM     31  H   UNL A   1      33.075  30.725  26.181  1.00  0.00     0.163 HD
ATOM     32  O   UNL A   1      33.993  31.956  28.034  1.00  0.00    -0.269 OA
BRANCH  30  33
ATOM     33  C   UNL A   1      35.754  30.407  28.157  1.00  0.00     0.039 A 
ATOM     34  C   UNL A   1      35.709  29.678  29.349  1.00  0.00     0.014 A 
ATOM     35  C   UNL A   1      36.985  30.670  27.549  1.00  0.00     0.014 A 
ATOM     36  C   UNL A   1      36.889  29.167  29.902  1.00  0.00     0.010 A 
ATOM     37  C   UNL A   1      38.154  30.113  28.070  1.00  0.00     0.010 A 
ATOM     38  C   UNL A   1      38.119  29.361  29.253  1.00  0.00    -0.014 A 
BRANCH  38  39
ATOM     39  C   UNL A   1      39.374  28.772  29.792  1.00  0.00     0.031 A 
ATOM     40  C   UNL A   1      40.036  29.368  31.005  1.00  0.00     0.074 A 
ATOM     41  C   UNL A   1      39.964  27.752  29.139  1.00  0.00     0.049 A 
ATOM     42  N   UNL A   1      41.157  29.019  31.586  1.00  0.00    -0.248 NA
ATOM     43  C   UNL A   1      39.369  30.519  31.633  1.00  0.00     0.031 C 
ATOM     44  C   UNL A   1      39.465  27.135  27.908  1.00  0.00     0.029 A 
ATOM     45  N   UNL A   1      41.126  27.070  29.405  1.00  0.00    -0.354 N 
ATOM     46  C   UNL A   1      41.344  29.924  32.624  1.00  0.00     0.074 A 
ATOM     47  C   UNL A   1      40.237  30.854  32.578  1.00  0.00     0.031 C 
ATOM     48  C   UNL A   1      40.314  26.168  27.526  1.00  0.00     0.029 A 
ATOM     49  C   UNL A   1      41.425  26.104  28.472  1.00  0.00     0.049 A 
ATOM     50  H   UNL A   1      41.691  27.255  30.188  1.00  0.00     0.167 HD
ATOM     51  C   UNL A   1      42.331  29.961  33.551  1.00  0.00     0.034 A 
ATOM     52  C   UNL A   1      42.473  25.260  28.388  1.00  0.00     0.034 A 
ATOM     53  C   UNL A   1      43.400  29.002  33.635  1.00  0.00     0.049 A 
ATOM     54  C   UNL A   1      43.521  25.280  29.468  1.00  0.00     0.074 A 
ATOM     55  C   UNL A   1      44.395  28.904  34.592  1.00  0.00     0.029 A 
ATOM     56  N   UNL A   1      43.612  27.973  32.731  1.00  0.00    -0.354 N 
ATOM     57  N   UNL A   1      43.591  26.040  30.534  1.00  0.00    -0.248 NA
ATOM     58  C   UNL A   1      44.611  24.300  29.355  1.00  0.00     0.031 C 
ATOM     59  C   UNL A   1      45.210  27.814  34.265  1.00  0.00     0.029 A 
ATOM     60  C   UNL A   1      44.720  27.233  33.107  1.00  0.00     0.049 A 
ATOM     61  H   UNL A   1      43.055  27.793  31.940  1.00  0.00     0.167 HD
ATOM     62  C   UNL A   1      44.712  25.611  31.234  1.00  0.00     0.074 A 
ATOM     63  C   UNL A   1      45.278  24.509  30.483  1.00  0.00     0.031 C 
ATOM     64  C   UNL A   1      45.236  26.099  32.385  1.00  0.00     0.034 A 
BRANCH  51  65
ATOM     65  C   UNL A   1      42.256  31.033  34.605  1.00  0.00     0.023 A 
ATOM     66  C   UNL A   1      41.587  30.761  35.815  1.00  0.00     0.012 A 
ATOM     67  C   UNL A   1      42.891  32.278  34.431  1.00  0.00     0.148 A 
ATOM     68  C   UNL A   1      41.524  31.719  36.824  1.00  0.00     0.002 A 
ATOM     69  C   UNL A   1      42.855  33.216  35.457  1.00  0.00     0.091 A 
ATOM     70  F   UNL A   1      43.502  32.529  33.264  1.00  0.00    -0.205 F 
ATOM     71  C   UNL A   1      42.167  32.943  36.650  1.00  0.00     0.022 A 
BRANCH  69  72
ATOM     72  S   UNL A   1      43.712  34.793  35.348  1.00  0.00     0.127 S 
ATOM     73  O   UNL A   1      42.995  35.588  36.344  1.00  0.00    -0.237 OA
ATOM     74  O   UNL A   1      45.079  34.433  35.726  1.00  0.00    -0.237 OA
ATOM     75  O   UNL A   1      43.565  35.228  33.966  1.00  0.00    -0.744 OA
ENDBRANCH  69  72
ENDBRANCH  51  65
BRANCH  52  76
ATOM     76  C   UNL A   1      42.528  24.260  27.287  1.00  0.00     0.023 A 
ATOM     77  C   UNL A   1      43.239  24.574  26.112  1.00  0.00     0.012 A 
ATOM     78  C   UNL A   1      41.927  22.992  27.407  1.00  0.00     0.148 A 
ATOM     79  C   UNL A   1      43.330  23.654  25.067  1.00  0.00     0.002 A 
ATOM     80  C   UNL A   1      42.066  22.061  26.383  1.00  0.00     0.091 A 
ATOM     81  F   UNL A   1      41.239  22.716  28.523  1.00  0.00    -0.205 F 
ATOM     82  C   UNL A   1      42.754  22.394  25.207  1.00  0.00     0.022 A 
BRANCH  80  83
ATOM     83  S   UNL A   1      41.468  20.374  26.547  1.00  0.00     0.127 S 
ATOM     84  O   UNL A   1      42.032  19.978  27.834  1.00  0.00    -0.237 OA
ATOM     85  O   UNL A   1      40.015  20.557  26.541  1.00  0.00    -0.237 OA
ATOM     86  O   UNL A   1      41.980  19.671  25.378  1.00  0.00    -0.744 OA
ENDBRANCH  80  83
ENDBRANCH  52  76
BRANCH  64  87
ATOM     87  C   UNL A   1      46.477  25.437  32.922  1.00  0.00     0.023 A 
ATOM     88  C   UNL A   1      47.742  25.932  32.548  1.00  0.00     0.012 A 
ATOM     89  C   UNL A   1      46.393  24.381  33.851  1.00  0.00     0.148 A 
ATOM     90  C   UNL A   1      48.906  25.371  33.073  1.00  0.00     0.002 A 
ATOM     91  C   UNL A   1      47.556  23.853  34.399  1.00  0.00     0.091 A 
ATOM     92  F   UNL A   1      45.182  23.907  34.176  1.00  0.00    -0.205 F 
ATOM     93  C   UNL A   1      48.813  24.340  34.006  1.00  0.00     0.022 A 
BRANCH  91  94
ATOM     94  S   UNL A   1      47.514  22.582  35.670  1.00  0.00     0.127 S 
ATOM     95  O   UNL A   1      47.468  21.360  34.870  1.00  0.00    -0.237 OA
ATOM     96  O   UNL A   1      48.776  22.800  36.378  1.00  0.00    -0.237 OA
ATOM     97  O   UNL A   1      46.327  22.864  36.465  1.00  0.00    -0.744 OA
ENDBRANCH  91  94
ENDBRANCH  64  87
ENDBRANCH  38  39
ENDBRANCH  30  33
ENDBRANCH  28  29
ENDBRANCH  27  28
ENDBRANCH  26  27
ENDBRANCH   1  26
TORSDOF 22
ENDMDL
