MODEL 1
REMARK VINA RESULT:     -11.2      0.000      0.000
REMARK SMILES C[NH+]1CCC([N@@H+](CC(=O)NCCCCCCNC(=O)c2ccc(-c3c4nc(c(-c5cccc(S(=O)(=O)[O-])c5F)c5ccc([nH]5)c(-c5cccc(S(=O)(=O)[O-])c5F)c5nc(c(-c6cccc(S(=O)(=O)[O-])c6F)c6ccc3[nH]6)C=C5)C=C4)cc2)C(C)(C)C)CC1
REMARK SMILES IDX 14 1 13 2 12 3 11 4 10 5 8 6 9 7 7 9 6 10 5 12 1 13 2 14
REMARK SMILES IDX 3 15 88 16 4 18 87 19 83 20 84 21 85 22 86 23 15 24 16 25
REMARK SMILES IDX 17 26 18 27 19 29 20 30 21 31 82 32 22 33 81 34 23 35 24 36
REMARK SMILES IDX 25 37 75 38 26 39 80 40 74 41 76 42 27 43 79 44 73 45 72 46
REMARK SMILES IDX 28 48 60 49 40 50 59 51 41 52 44 53 58 54 77 55 42 56 43 57
REMARK SMILES IDX 57 59 78 60 45 61 29 62 30 63 38 64 31 65 33 66 39 67 32 68
REMARK SMILES IDX 34 69 35 70 36 71 37 72 61 73 62 74 70 75 63 76 65 77 71 78
REMARK SMILES IDX 64 79 66 80 67 81 68 82 69 83 46 84 47 85 55 86 48 87 50 88
REMARK SMILES IDX 56 89 49 90 51 91 52 92 53 93 54 94
REMARK H PARENT 10 8 6 11 2 17 17 28 76 47 44 58
REMARK Flexibility Score: inf
ROOT
ATOM      1  C   UNL A   1      31.664  29.938  26.772  1.00  0.00     0.002 C 
ENDROOT
BRANCH   1   2
ATOM      2  C   UNL A   1      31.856  29.054  25.531  1.00  0.00     0.002 C 
BRANCH   2   3
ATOM      3  C   UNL A   1      31.232  27.655  25.650  1.00  0.00     0.021 C 
BRANCH   3   4
ATOM      4  C   UNL A   1      31.981  26.678  26.558  1.00  0.00     0.116 C 
BRANCH   4   5
ATOM      5  N   UNL A   1      31.320  25.406  26.782  1.00  0.00    -0.351 N 
ATOM      6  C   UNL A   1      31.836  24.142  26.778  1.00  0.00     0.275 C 
ATOM      7  O   UNL A   1      31.239  23.297  27.453  1.00  0.00    -0.269 OA
ATOM      8  H   UNL A   1      30.355  25.464  26.965  1.00  0.00     0.163 HD
BRANCH   6   9
ATOM      9  C   UNL A   1      33.091  23.795  25.972  1.00  0.00     0.364 C 
BRANCH   9  10
ATOM     10  N   UNL A   1      32.812  23.311  24.595  1.00  0.00    -0.320 N 
ATOM     11  H   UNL A   1      31.801  23.251  24.473  1.00  0.00     0.349 HD
BRANCH  10  12
ATOM     12  C   UNL A   1      33.179  21.893  24.410  1.00  0.00     0.196 C 
ATOM     13  C   UNL A   1      34.220  17.743  24.773  1.00  0.00     0.332 C 
ATOM     14  N   UNL A   1      33.775  19.103  25.081  1.00  0.00    -0.337 N 
ATOM     15  C   UNL A   1      32.587  19.443  24.293  1.00  0.00     0.268 C 
ATOM     16  C   UNL A   1      34.867  20.059  24.842  1.00  0.00     0.268 C 
ATOM     17  H   UNL A   1      33.519  19.155  26.067  1.00  0.00     0.347 HD
ATOM     18  C   UNL A   1      32.078  20.849  24.613  1.00  0.00     0.126 C 
ATOM     19  C   UNL A   1      34.444  21.491  25.193  1.00  0.00     0.126 C 
ENDBRANCH  10  12
BRANCH  10  20
ATOM     20  C   UNL A   1      32.778  24.291  23.478  1.00  0.00     0.090 C 
ATOM     21  C   UNL A   1      33.660  25.548  23.667  1.00  0.00     0.078 C 
ATOM     22  C   UNL A   1      33.213  23.636  22.145  1.00  0.00     0.078 C 
ATOM     23  C   UNL A   1      31.327  24.782  23.224  1.00  0.00     0.078 C 
ENDBRANCH  10  20
ENDBRANCH   9  10
ENDBRANCH   6   9
ENDBRANCH   4   5
ENDBRANCH   3   4
ENDBRANCH   2   3
ENDBRANCH   1   2
BRANCH   1  24
ATOM     24  C   UNL A   1      31.696  31.452  26.541  1.00  0.00     0.021 C 
BRANCH  24  25
ATOM     25  C   UNL A   1      32.894  32.157  27.167  1.00  0.00     0.116 C 
BRANCH  25  26
ATOM     26  N   UNL A   1      32.609  33.550  27.482  1.00  0.00    -0.352 N 
ATOM     27  C   UNL A   1      33.154  34.357  28.456  1.00  0.00     0.251 C 
ATOM     28  H   UNL A   1      31.927  33.978  26.916  1.00  0.00     0.163 HD
ATOM     29  O   UNL A   1      32.652  35.444  28.706  1.00  0.00    -0.269 OA
BRANCH  27  30
ATOM     30  C   UNL A   1      34.335  33.895  29.220  1.00  0.00     0.039 A 
ATOM     31  C   UNL A   1      34.153  33.024  30.298  1.00  0.00     0.014 A 
ATOM     32  C   UNL A   1      35.617  34.333  28.882  1.00  0.00     0.014 A 
ATOM     33  C   UNL A   1      35.265  32.532  30.989  1.00  0.00     0.010 A 
ATOM     34  C   UNL A   1      36.726  33.794  29.530  1.00  0.00     0.010 A 
ATOM     35  C   UNL A   1      36.563  32.887  30.590  1.00  0.00    -0.014 A 
BRANCH  35  36
ATOM     36  C   UNL A   1      37.769  32.322  31.251  1.00  0.00     0.031 A 
ATOM     37  C   UNL A   1      38.518  31.187  30.607  1.00  0.00     0.074 A 
ATOM     38  C   UNL A   1      38.119  32.744  32.482  1.00  0.00     0.049 A 
ATOM     39  N   UNL A   1      39.503  30.472  31.086  1.00  0.00    -0.248 NA
ATOM     40  C   UNL A   1      38.082  30.787  29.260  1.00  0.00     0.031 C 
ATOM     41  C   UNL A   1      37.438  33.793  33.242  1.00  0.00     0.029 A 
ATOM     42  N   UNL A   1      39.111  32.312  33.329  1.00  0.00    -0.354 N 
ATOM     43  C   UNL A   1      39.773  29.507  30.123  1.00  0.00     0.074 A 
ATOM     44  C   UNL A   1      38.835  29.717  29.040  1.00  0.00     0.031 C 
ATOM     45  C   UNL A   1      38.020  33.911  34.446  1.00  0.00     0.029 A 
ATOM     46  C   UNL A   1      39.092  32.927  34.560  1.00  0.00     0.049 A 
ATOM     47  H   UNL A   1      39.774  31.627  33.079  1.00  0.00     0.167 HD
ATOM     48  C   UNL A   1      40.728  28.546  30.127  1.00  0.00     0.034 A 
ATOM     49  C   UNL A   1      39.838  32.712  35.662  1.00  0.00     0.034 A 
ATOM     50  C   UNL A   1      41.692  28.372  31.178  1.00  0.00     0.049 A 
ATOM     51  C   UNL A   1      40.922  31.669  35.626  1.00  0.00     0.074 A 
ATOM     52  C   UNL A   1      42.755  27.488  31.231  1.00  0.00     0.029 A 
ATOM     53  N   UNL A   1      41.709  29.089  32.364  1.00  0.00    -0.354 N 
ATOM     54  N   UNL A   1      41.259  30.865  34.647  1.00  0.00    -0.248 NA
ATOM     55  C   UNL A   1      41.753  31.524  36.832  1.00  0.00     0.031 C 
ATOM     56  C   UNL A   1      43.405  27.658  32.458  1.00  0.00     0.029 A 
ATOM     57  C   UNL A   1      42.760  28.665  33.158  1.00  0.00     0.049 A 
ATOM     58  H   UNL A   1      41.068  29.796  32.606  1.00  0.00     0.167 HD
ATOM     59  C   UNL A   1      42.364  30.152  35.099  1.00  0.00     0.074 A 
ATOM     60  C   UNL A   1      42.645  30.623  36.440  1.00  0.00     0.031 C 
ATOM     61  C   UNL A   1      43.073  29.187  34.464  1.00  0.00     0.034 A 
BRANCH  48  62
ATOM     62  C   UNL A   1      40.806  27.635  28.930  1.00  0.00     0.023 A 
ATOM     63  C   UNL A   1      39.880  26.580  28.797  1.00  0.00     0.012 A 
ATOM     64  C   UNL A   1      41.759  27.849  27.916  1.00  0.00     0.148 A 
ATOM     65  C   UNL A   1      39.925  25.730  27.693  1.00  0.00     0.002 A 
ATOM     66  C   UNL A   1      41.770  27.025  26.797  1.00  0.00     0.091 A 
ATOM     67  F   UNL A   1      42.647  28.842  28.070  1.00  0.00    -0.205 F 
ATOM     68  C   UNL A   1      40.863  25.958  26.689  1.00  0.00     0.022 A 
BRANCH  66  69
ATOM     69  S   UNL A   1      42.888  27.293  25.416  1.00  0.00     0.127 S 
ATOM     70  O   UNL A   1      42.790  26.019  24.705  1.00  0.00    -0.237 OA
ATOM     71  O   UNL A   1      42.267  28.425  24.728  1.00  0.00    -0.237 OA
ATOM     72  O   UNL A   1      44.186  27.586  26.008  1.00  0.00    -0.744 OA
ENDBRANCH  66  69
ENDBRANCH  48  62
BRANCH  49  73
ATOM     73  C   UNL A   1      39.619  33.550  36.875  1.00  0.00     0.023 A 
ATOM     74  C   UNL A   1      40.085  34.879  36.888  1.00  0.00     0.012 A 
ATOM     75  C   UNL A   1      38.911  33.059  37.989  1.00  0.00     0.148 A 
ATOM     76  C   UNL A   1      39.871  35.697  37.998  1.00  0.00     0.002 A 
ATOM     77  C   UNL A   1      38.653  33.896  39.069  1.00  0.00     0.091 A 
ATOM     78  F   UNL A   1      38.485  31.788  37.961  1.00  0.00    -0.205 F 
ATOM     79  C   UNL A   1      39.147  35.209  39.082  1.00  0.00     0.022 A 
BRANCH  77  80
ATOM     80  S   UNL A   1      37.613  33.399  40.447  1.00  0.00     0.127 S 
ATOM     81  O   UNL A   1      36.361  33.065  39.773  1.00  0.00    -0.237 OA
ATOM     82  O   UNL A   1      38.349  32.255  40.984  1.00  0.00    -0.237 OA
ATOM     83  O   UNL A   1      37.563  34.550  41.339  1.00  0.00    -0.744 OA
ENDBRANCH  77  80
ENDBRANCH  49  73
BRANCH  61  84
ATOM     84  C   UNL A   1      44.264  28.598  35.172  1.00  0.00     0.023 A 
ATOM     85  C   UNL A   1      45.547  29.136  34.956  1.00  0.00     0.012 A 
ATOM     86  C   UNL A   1      44.090  27.586  36.138  1.00  0.00     0.148 A 
ATOM     87  C   UNL A   1      46.643  28.664  35.679  1.00  0.00     0.002 A 
ATOM     88  C   UNL A   1      45.177  27.154  36.887  1.00  0.00     0.091 A 
ATOM     89  F   UNL A   1      42.862  27.076  36.314  1.00  0.00    -0.205 F 
ATOM     90  C   UNL A   1      46.456  27.685  36.653  1.00  0.00     0.022 A 
BRANCH  88  91
ATOM     91  S   UNL A   1      45.014  25.969  38.228  1.00  0.00     0.127 S 
ATOM     92  O   UNL A   1      46.359  25.981  38.801  1.00  0.00    -0.237 OA
ATOM     93  O   UNL A   1      43.988  26.588  39.067  1.00  0.00    -0.237 OA
ATOM     94  O   UNL A   1      44.611  24.714  37.608  1.00  0.00    -0.744 OA
ENDBRANCH  88  91
ENDBRANCH  61  84
ENDBRANCH  35  36
ENDBRANCH  27  30
ENDBRANCH  25  26
ENDBRANCH  24  25
ENDBRANCH   1  24
TORSDOF 19
ENDMDL
MODEL 2
REMARK VINA RESULT:     -10.9      1.849      7.944
REMARK SMILES C[NH+]1CCC([N@@H+](CC(=O)NCCCCCCNC(=O)c2ccc(-c3c4nc(c(-c5cccc(S(=O)(=O)[O-])c5F)c5ccc([nH]5)c(-c5cccc(S(=O)(=O)[O-])c5F)c5nc(c(-c6cccc(S(=O)(=O)[O-])c6F)c6ccc3[nH]6)C=C5)C=C4)cc2)C(C)(C)C)CC1
REMARK SMILES IDX 14 1 13 2 12 3 11 4 10 5 8 6 9 7 7 9 6 10 5 12 1 13 2 14
REMARK SMILES IDX 3 15 88 16 4 18 87 19 83 20 84 21 85 22 86 23 15 24 16 25
REMARK SMILES IDX 17 26 18 27 19 29 20 30 21 31 82 32 22 33 81 34 23 35 24 36
REMARK SMILES IDX 25 37 75 38 26 39 80 40 74 41 76 42 27 43 79 44 73 45 72 46
REMARK SMILES IDX 28 48 60 49 40 50 59 51 41 52 44 53 58 54 77 55 42 56 43 57
REMARK SMILES IDX 57 59 78 60 45 61 29 62 30 63 38 64 31 65 33 66 39 67 32 68
REMARK SMILES IDX 34 69 35 70 36 71 37 72 61 73 62 74 70 75 63 76 65 77 71 78
REMARK SMILES IDX 64 79 66 80 67 81 68 82 69 83 46 84 47 85 55 86 48 87 50 88
REMARK SMILES IDX 56 89 49 90 51 91 52 92 53 93 54 94
REMARK H PARENT 10 8 6 11 2 17 17 28 76 47 44 58
REMARK Flexibility Score: inf
ROOT
ATOM      1  C   UNL A   1      31.899  29.281  25.282  1.00  0.00     0.002 C 
ENDROOT
BRANCH   1   2
ATOM      2  C   UNL A   1      32.675  28.274  26.142  1.00  0.00     0.002 C 
BRANCH   2   3
ATOM      3  C   UNL A   1      31.785  27.313  26.945  1.00  0.00     0.021 C 
BRANCH   3   4
ATOM      4  C   UNL A   1      30.851  26.433  26.112  1.00  0.00     0.116 C 
BRANCH   4   5
ATOM      5  N   UNL A   1      30.736  25.056  26.553  1.00  0.00    -0.351 N 
ATOM      6  C   UNL A   1      31.695  24.090  26.656  1.00  0.00     0.275 C 
ATOM      7  O   UNL A   1      31.496  23.196  27.484  1.00  0.00    -0.269 OA
ATOM      8  H   UNL A   1      29.831  24.777  26.819  1.00  0.00     0.163 HD
BRANCH   6   9
ATOM      9  C   UNL A   1      32.954  24.118  25.783  1.00  0.00     0.364 C 
BRANCH   9  10
ATOM     10  N   UNL A   1      32.745  23.606  24.404  1.00  0.00    -0.320 N 
ATOM     11  H   UNL A   1      31.745  23.465  24.259  1.00  0.00     0.349 HD
BRANCH  10  12
ATOM     12  C   UNL A   1      33.227  22.220  24.239  1.00  0.00     0.196 C 
ATOM     13  C   UNL A   1      34.585  18.168  24.657  1.00  0.00     0.332 C 
ATOM     14  N   UNL A   1      34.027  19.491  24.944  1.00  0.00    -0.337 N 
ATOM     15  C   UNL A   1      32.833  19.730  24.129  1.00  0.00     0.268 C 
ATOM     16  C   UNL A   1      35.045  20.529  24.719  1.00  0.00     0.268 C 
ATOM     17  H   UNL A   1      33.747  19.528  25.924  1.00  0.00     0.347 HD
ATOM     18  C   UNL A   1      32.208  21.094  24.427  1.00  0.00     0.126 C 
ATOM     19  C   UNL A   1      34.503  21.924  25.050  1.00  0.00     0.126 C 
ENDBRANCH  10  12
BRANCH  10  20
ATOM     20  C   UNL A   1      32.660  24.573  23.279  1.00  0.00     0.090 C 
ATOM     21  C   UNL A   1      31.237  25.078  22.941  1.00  0.00     0.078 C 
ATOM     22  C   UNL A   1      33.525  25.828  23.552  1.00  0.00     0.078 C 
ATOM     23  C   UNL A   1      33.250  23.958  21.982  1.00  0.00     0.078 C 
ENDBRANCH  10  20
ENDBRANCH   9  10
ENDBRANCH   6   9
ENDBRANCH   4   5
ENDBRANCH   3   4
ENDBRANCH   2   3
ENDBRANCH   1   2
BRANCH   1  24
ATOM     24  C   UNL A   1      31.631  30.652  25.913  1.00  0.00     0.021 C 
BRANCH  24  25
ATOM     25  C   UNL A   1      32.583  31.020  27.045  1.00  0.00     0.116 C 
BRANCH  25  26
ATOM     26  N   UNL A   1      32.824  32.454  27.116  1.00  0.00    -0.352 N 
ATOM     27  C   UNL A   1      33.834  33.141  27.750  1.00  0.00     0.251 C 
ATOM     28  H   UNL A   1      32.168  33.014  26.641  1.00  0.00     0.163 HD
ATOM     29  O   UNL A   1      33.769  34.357  27.872  1.00  0.00    -0.269 OA
BRANCH  27  30
ATOM     30  C   UNL A   1      34.991  32.404  28.307  1.00  0.00     0.039 A 
ATOM     31  C   UNL A   1      36.252  33.009  28.301  1.00  0.00     0.014 A 
ATOM     32  C   UNL A   1      34.835  31.114  28.819  1.00  0.00     0.014 A 
ATOM     33  C   UNL A   1      37.341  32.349  28.880  1.00  0.00     0.010 A 
ATOM     34  C   UNL A   1      35.906  30.485  29.450  1.00  0.00     0.010 A 
ATOM     35  C   UNL A   1      37.170  31.096  29.489  1.00  0.00    -0.014 A 
BRANCH  35  36
ATOM     36  C   UNL A   1      38.288  30.401  30.181  1.00  0.00     0.031 A 
ATOM     37  C   UNL A   1      38.686  30.817  31.572  1.00  0.00     0.074 A 
ATOM     38  C   UNL A   1      39.021  29.484  29.520  1.00  0.00     0.049 A 
ATOM     39  N   UNL A   1      39.711  30.432  32.286  1.00  0.00    -0.248 NA
ATOM     40  C   UNL A   1      37.833  31.818  32.233  1.00  0.00     0.031 C 
ATOM     41  C   UNL A   1      38.779  29.038  28.147  1.00  0.00     0.029 A 
ATOM     42  N   UNL A   1      40.146  28.793  29.900  1.00  0.00    -0.354 N 
ATOM     43  C   UNL A   1      39.657  31.178  33.458  1.00  0.00     0.074 A 
ATOM     44  C   UNL A   1      38.507  32.051  33.350  1.00  0.00     0.031 C 
ATOM     45  C   UNL A   1      39.734  28.163  27.795  1.00  0.00     0.029 A 
ATOM     46  C   UNL A   1      40.676  28.009  28.900  1.00  0.00     0.049 A 
ATOM     47  H   UNL A   1      40.537  28.852  30.802  1.00  0.00     0.167 HD
ATOM     48  C   UNL A   1      40.476  31.126  34.536  1.00  0.00     0.034 A 
ATOM     49  C   UNL A   1      41.801  27.267  28.868  1.00  0.00     0.034 A 
ATOM     50  C   UNL A   1      41.586  30.223  34.664  1.00  0.00     0.049 A 
ATOM     51  C   UNL A   1      42.670  27.192  30.094  1.00  0.00     0.074 A 
ATOM     52  C   UNL A   1      42.417  30.031  35.753  1.00  0.00     0.029 A 
ATOM     53  N   UNL A   1      42.026  29.364  33.669  1.00  0.00    -0.354 N 
ATOM     54  N   UNL A   1      42.518  27.792  31.249  1.00  0.00    -0.248 NA
ATOM     55  C   UNL A   1      43.846  26.311  30.028  1.00  0.00     0.031 C 
ATOM     56  C   UNL A   1      43.372  29.069  35.411  1.00  0.00     0.029 A 
ATOM     57  C   UNL A   1      43.120  28.644  34.116  1.00  0.00     0.049 A 
ATOM     58  H   UNL A   1      41.620  29.278  32.776  1.00  0.00     0.167 HD
ATOM     59  C   UNL A   1      43.550  27.332  32.059  1.00  0.00     0.074 A 
ATOM     60  C   UNL A   1      44.318  26.395  31.265  1.00  0.00     0.031 C 
ATOM     61  C   UNL A   1      43.838  27.664  33.341  1.00  0.00     0.034 A 
BRANCH  48  62
ATOM     62  C   UNL A   1      40.171  32.047  35.688  1.00  0.00     0.023 A 
ATOM     63  C   UNL A   1      40.926  33.226  35.856  1.00  0.00     0.012 A 
ATOM     64  C   UNL A   1      39.111  31.775  36.574  1.00  0.00     0.148 A 
ATOM     65  C   UNL A   1      40.656  34.100  36.908  1.00  0.00     0.002 A 
ATOM     66  C   UNL A   1      38.818  32.672  37.594  1.00  0.00     0.091 A 
ATOM     67  F   UNL A   1      38.418  30.637  36.414  1.00  0.00    -0.205 F 
ATOM     68  C   UNL A   1      39.597  33.828  37.770  1.00  0.00     0.022 A 
BRANCH  66  69
ATOM     69  S   UNL A   1      37.423  32.447  38.703  1.00  0.00     0.127 S 
ATOM     70  O   UNL A   1      37.756  33.367  39.788  1.00  0.00    -0.237 OA
ATOM     71  O   UNL A   1      36.294  32.868  37.872  1.00  0.00    -0.237 OA
ATOM     72  O   UNL A   1      37.419  31.033  39.053  1.00  0.00    -0.744 OA
ENDBRANCH  66  69
ENDBRANCH  48  62
BRANCH  49  73
ATOM     73  C   UNL A   1      42.132  26.486  27.642  1.00  0.00     0.023 A 
ATOM     74  C   UNL A   1      42.785  27.126  26.572  1.00  0.00     0.012 A 
ATOM     75  C   UNL A   1      41.853  25.109  27.552  1.00  0.00     0.148 A 
ATOM     76  C   UNL A   1      43.132  26.415  25.422  1.00  0.00     0.002 A 
ATOM     77  C   UNL A   1      42.250  24.393  26.427  1.00  0.00     0.091 A 
ATOM     78  F   UNL A   1      41.222  24.519  28.578  1.00  0.00    -0.205 F 
ATOM     79  C   UNL A   1      42.875  25.049  25.354  1.00  0.00     0.022 A 
BRANCH  77  80
ATOM     80  S   UNL A   1      42.085  22.609  26.310  1.00  0.00     0.127 S 
ATOM     81  O   UNL A   1      42.665  22.339  24.997  1.00  0.00    -0.237 OA
ATOM     82  O   UNL A   1      42.890  22.157  27.444  1.00  0.00    -0.237 OA
ATOM     83  O   UNL A   1      40.661  22.334  26.439  1.00  0.00    -0.744 OA
ENDBRANCH  77  80
ENDBRANCH  49  73
BRANCH  61  84
ATOM     84  C   UNL A   1      45.002  26.980  34.007  1.00  0.00     0.023 A 
ATOM     85  C   UNL A   1      46.292  27.535  33.911  1.00  0.00     0.012 A 
ATOM     86  C   UNL A   1      44.794  25.848  34.822  1.00  0.00     0.148 A 
ATOM     87  C   UNL A   1      47.361  26.966  34.603  1.00  0.00     0.002 A 
ATOM     88  C   UNL A   1      45.853  25.315  35.545  1.00  0.00     0.091 A 
ATOM     89  F   UNL A   1      43.560  25.325  34.885  1.00  0.00    -0.205 F 
ATOM     90  C   UNL A   1      47.140  25.867  35.430  1.00  0.00     0.022 A 
BRANCH  88  91
ATOM     91  S   UNL A   1      45.643  23.963  36.709  1.00  0.00     0.127 S 
ATOM     92  O   UNL A   1      45.253  22.866  35.824  1.00  0.00    -0.237 OA
ATOM     93  O   UNL A   1      46.982  23.836  37.284  1.00  0.00    -0.237 OA
ATOM     94  O   UNL A   1      44.620  24.399  37.650  1.00  0.00    -0.744 OA
ENDBRANCH  88  91
ENDBRANCH  61  84
ENDBRANCH  35  36
ENDBRANCH  27  30
ENDBRANCH  25  26
ENDBRANCH  24  25
ENDBRANCH   1  24
TORSDOF 19
ENDMDL
MODEL 3
REMARK VINA RESULT:     -10.9      3.318      8.647
REMARK SMILES C[NH+]1CCC([N@@H+](CC(=O)NCCCCCCNC(=O)c2ccc(-c3c4nc(c(-c5cccc(S(=O)(=O)[O-])c5F)c5ccc([nH]5)c(-c5cccc(S(=O)(=O)[O-])c5F)c5nc(c(-c6cccc(S(=O)(=O)[O-])c6F)c6ccc3[nH]6)C=C5)C=C4)cc2)C(C)(C)C)CC1
REMARK SMILES IDX 14 1 13 2 12 3 11 4 10 5 8 6 9 7 7 9 6 10 5 12 1 13 2 14
REMARK SMILES IDX 3 15 88 16 4 18 87 19 83 20 84 21 85 22 86 23 15 24 16 25
REMARK SMILES IDX 17 26 18 27 19 29 20 30 21 31 82 32 22 33 81 34 23 35 24 36
REMARK SMILES IDX 25 37 75 38 26 39 80 40 74 41 76 42 27 43 79 44 73 45 72 46
REMARK SMILES IDX 28 48 60 49 40 50 59 51 41 52 44 53 58 54 77 55 42 56 43 57
REMARK SMILES IDX 57 59 78 60 45 61 29 62 30 63 38 64 31 65 33 66 39 67 32 68
REMARK SMILES IDX 34 69 35 70 36 71 37 72 61 73 62 74 70 75 63 76 65 77 71 78
REMARK SMILES IDX 64 79 66 80 67 81 68 82 69 83 46 84 47 85 55 86 48 87 50 88
REMARK SMILES IDX 56 89 49 90 51 91 52 92 53 93 54 94
REMARK H PARENT 10 8 6 11 2 17 17 28 76 47 44 58
REMARK Flexibility Score: inf
ROOT
ATOM      1  C   UNL A   1      32.030  27.747  25.792  1.00  0.00     0.002 C 
ENDROOT
BRANCH   1   2
ATOM      2  C   UNL A   1      32.397  27.571  24.311  1.00  0.00     0.002 C 
BRANCH   2   3
ATOM      3  C   UNL A   1      31.223  27.142  23.418  1.00  0.00     0.021 C 
BRANCH   3   4
ATOM      4  C   UNL A   1      31.141  25.643  23.120  1.00  0.00     0.116 C 
BRANCH   4   5
ATOM      5  N   UNL A   1      32.035  25.167  22.081  1.00  0.00    -0.351 N 
ATOM      6  C   UNL A   1      33.209  24.478  22.188  1.00  0.00     0.275 C 
ATOM      7  O   UNL A   1      33.527  23.771  21.226  1.00  0.00    -0.269 OA
ATOM      8  H   UNL A   1      31.752  25.371  21.160  1.00  0.00     0.163 HD
BRANCH   6   9
ATOM      9  C   UNL A   1      34.083  24.582  23.441  1.00  0.00     0.364 C 
BRANCH   9  10
ATOM     10  N   UNL A   1      34.265  23.295  24.160  1.00  0.00    -0.320 N 
ATOM     11  H   UNL A   1      34.174  22.533  23.488  1.00  0.00     0.349 HD
BRANCH  10  12
ATOM     12  C   UNL A   1      33.132  22.984  25.056  1.00  0.00     0.196 C 
ATOM     13  C   UNL A   1      29.438  22.766  27.233  1.00  0.00     0.332 C 
ATOM     14  N   UNL A   1      30.455  23.114  26.238  1.00  0.00    -0.337 N 
ATOM     15  C   UNL A   1      30.893  21.918  25.515  1.00  0.00     0.268 C 
ATOM     16  C   UNL A   1      31.588  23.790  26.889  1.00  0.00     0.268 C 
ATOM     17  H   UNL A   1      30.049  23.757  25.558  1.00  0.00     0.347 HD
ATOM     18  C   UNL A   1      31.935  22.251  24.446  1.00  0.00     0.126 C 
ATOM     19  C   UNL A   1      32.653  24.203  25.867  1.00  0.00     0.126 C 
ENDBRANCH  10  12
BRANCH  10  20
ATOM     20  C   UNL A   1      35.641  22.783  24.388  1.00  0.00     0.090 C 
ATOM     21  C   UNL A   1      35.735  21.319  24.880  1.00  0.00     0.078 C 
ATOM     22  C   UNL A   1      36.495  22.877  23.100  1.00  0.00     0.078 C 
ATOM     23  C   UNL A   1      36.389  23.664  25.425  1.00  0.00     0.078 C 
ENDBRANCH  10  20
ENDBRANCH   9  10
ENDBRANCH   6   9
ENDBRANCH   4   5
ENDBRANCH   3   4
ENDBRANCH   2   3
ENDBRANCH   1   2
BRANCH   1  24
ATOM     24  C   UNL A   1      33.196  27.974  26.760  1.00  0.00     0.021 C 
BRANCH  24  25
ATOM     25  C   UNL A   1      34.245  28.962  26.261  1.00  0.00     0.116 C 
BRANCH  25  26
ATOM     26  N   UNL A   1      33.977  30.321  26.708  1.00  0.00    -0.352 N 
ATOM     27  C   UNL A   1      34.610  31.063  27.680  1.00  0.00     0.251 C 
ATOM     28  H   UNL A   1      33.236  30.777  26.248  1.00  0.00     0.163 HD
ATOM     29  O   UNL A   1      34.124  32.119  28.063  1.00  0.00    -0.269 OA
BRANCH  27  30
ATOM     30  C   UNL A   1      35.869  30.568  28.283  1.00  0.00     0.039 A 
ATOM     31  C   UNL A   1      35.806  29.712  29.387  1.00  0.00     0.014 A 
ATOM     32  C   UNL A   1      37.106  30.961  27.769  1.00  0.00     0.014 A 
ATOM     33  C   UNL A   1      36.985  29.189  29.927  1.00  0.00     0.010 A 
ATOM     34  C   UNL A   1      38.275  30.390  28.268  1.00  0.00     0.010 A 
ATOM     35  C   UNL A   1      38.228  29.497  29.352  1.00  0.00    -0.014 A 
BRANCH  35  36
ATOM     36  C   UNL A   1      39.494  28.898  29.851  1.00  0.00     0.031 A 
ATOM     37  C   UNL A   1      40.256  29.568  30.962  1.00  0.00     0.074 A 
ATOM     38  C   UNL A   1      40.020  27.824  29.229  1.00  0.00     0.049 A 
ATOM     39  N   UNL A   1      41.439  29.281  31.440  1.00  0.00    -0.248 NA
ATOM     40  C   UNL A   1      39.614  30.730  31.598  1.00  0.00     0.031 C 
ATOM     41  C   UNL A   1      39.413  27.119  28.099  1.00  0.00     0.029 A 
ATOM     42  N   UNL A   1      41.208  27.164  29.432  1.00  0.00    -0.354 N 
ATOM     43  C   UNL A   1      41.706  30.254  32.397  1.00  0.00     0.074 A 
ATOM     44  C   UNL A   1      40.568  31.149  32.418  1.00  0.00     0.031 C 
ATOM     45  C   UNL A   1      40.237  26.139  27.699  1.00  0.00     0.029 A 
ATOM     46  C   UNL A   1      41.445  26.163  28.519  1.00  0.00     0.049 A 
ATOM     47  H   UNL A   1      41.831  27.386  30.163  1.00  0.00     0.167 HD
ATOM     48  C   UNL A   1      42.788  30.380  33.202  1.00  0.00     0.034 A 
ATOM     49  C   UNL A   1      42.520  25.368  28.345  1.00  0.00     0.034 A 
ATOM     50  C   UNL A   1      43.893  29.460  33.217  1.00  0.00     0.049 A 
ATOM     51  C   UNL A   1      43.692  25.498  29.280  1.00  0.00     0.074 A 
ATOM     52  C   UNL A   1      44.991  29.451  34.059  1.00  0.00     0.029 A 
ATOM     53  N   UNL A   1      44.046  28.392  32.348  1.00  0.00    -0.354 N 
ATOM     54  N   UNL A   1      43.860  26.331  30.278  1.00  0.00    -0.248 NA
ATOM     55  C   UNL A   1      44.808  24.558  29.090  1.00  0.00     0.031 C 
ATOM     56  C   UNL A   1      45.818  28.387  33.687  1.00  0.00     0.029 A 
ATOM     57  C   UNL A   1      45.222  27.719  32.628  1.00  0.00     0.049 A 
ATOM     58  H   UNL A   1      43.411  28.147  31.636  1.00  0.00     0.167 HD
ATOM     59  C   UNL A   1      45.076  25.990  30.861  1.00  0.00     0.074 A 
ATOM     60  C   UNL A   1      45.600  24.868  30.109  1.00  0.00     0.031 C 
ATOM     61  C   UNL A   1      45.703  26.562  31.917  1.00  0.00     0.034 A 
BRANCH  48  62
ATOM     62  C   UNL A   1      42.808  31.533  34.170  1.00  0.00     0.023 A 
ATOM     63  C   UNL A   1      43.420  32.747  33.794  1.00  0.00     0.012 A 
ATOM     64  C   UNL A   1      42.181  31.437  35.427  1.00  0.00     0.148 A 
ATOM     65  C   UNL A   1      43.442  33.833  34.668  1.00  0.00     0.002 A 
ATOM     66  C   UNL A   1      42.168  32.538  36.275  1.00  0.00     0.091 A 
ATOM     67  F   UNL A   1      41.625  30.268  35.778  1.00  0.00    -0.205 F 
ATOM     68  C   UNL A   1      42.808  33.731  35.903  1.00  0.00     0.022 A 
BRANCH  66  69
ATOM     69  S   UNL A   1      41.307  32.526  37.852  1.00  0.00     0.127 S 
ATOM     70  O   UNL A   1      39.989  32.026  37.466  1.00  0.00    -0.237 OA
ATOM     71  O   UNL A   1      42.109  31.587  38.637  1.00  0.00    -0.237 OA
ATOM     72  O   UNL A   1      41.344  33.900  38.335  1.00  0.00    -0.744 OA
ENDBRANCH  66  69
ENDBRANCH  48  62
BRANCH  49  73
ATOM     73  C   UNL A   1      42.505  24.334  27.271  1.00  0.00     0.023 A 
ATOM     74  C   UNL A   1      43.119  24.615  26.035  1.00  0.00     0.012 A 
ATOM     75  C   UNL A   1      41.937  23.063  27.484  1.00  0.00     0.148 A 
ATOM     76  C   UNL A   1      43.144  23.657  25.020  1.00  0.00     0.002 A 
ATOM     77  C   UNL A   1      42.014  22.095  26.489  1.00  0.00     0.091 A 
ATOM     78  F   UNL A   1      41.350  22.819  28.664  1.00  0.00    -0.205 F 
ATOM     79  C   UNL A   1      42.602  22.396  25.250  1.00  0.00     0.022 A 
BRANCH  77  80
ATOM     80  S   UNL A   1      41.468  20.403  26.745  1.00  0.00     0.127 S 
ATOM     81  O   UNL A   1      40.029  20.576  26.923  1.00  0.00    -0.237 OA
ATOM     82  O   UNL A   1      41.862  19.766  25.488  1.00  0.00    -0.237 OA
ATOM     83  O   UNL A   1      42.196  19.925  27.912  1.00  0.00    -0.744 OA
ENDBRANCH  77  80
ENDBRANCH  49  73
BRANCH  61  84
ATOM     84  C   UNL A   1      47.007  25.965  32.377  1.00  0.00     0.023 A 
ATOM     85  C   UNL A   1      48.223  26.462  31.872  1.00  0.00     0.012 A 
ATOM     86  C   UNL A   1      47.025  24.990  33.395  1.00  0.00     0.148 A 
ATOM     87  C   UNL A   1      49.440  25.986  32.361  1.00  0.00     0.002 A 
ATOM     88  C   UNL A   1      48.240  24.554  33.909  1.00  0.00     0.091 A 
ATOM     89  F   UNL A   1      45.854  24.517  33.848  1.00  0.00    -0.205 F 
ATOM     90  C   UNL A   1      49.448  25.044  33.388  1.00  0.00     0.022 A 
BRANCH  88  91
ATOM     91  S   UNL A   1      48.346  23.418  35.297  1.00  0.00     0.127 S 
ATOM     92  O   UNL A   1      47.719  22.217  34.748  1.00  0.00    -0.237 OA
ATOM     93  O   UNL A   1      49.791  23.311  35.502  1.00  0.00    -0.237 OA
ATOM     94  O   UNL A   1      47.626  24.053  36.393  1.00  0.00    -0.744 OA
ENDBRANCH  88  91
ENDBRANCH  61  84
ENDBRANCH  35  36
ENDBRANCH  27  30
ENDBRANCH  25  26
ENDBRANCH  24  25
ENDBRANCH   1  24
TORSDOF 19
ENDMDL
